MODEL 1
REMARK VINA RESULT:     -10.1      0.000      0.000
REMARK SMILES O=C(OCCOCCOCCOCCOC(=O)[C@H](c1ccccc1)C(c1ccccc1)c1ccccc1)c1ccc(-c2c3nc(c(-c4c(F)cccc4F)c4ccc([nH]4)c(-c4c(F)cccc4F)c4nc(c(-c5c(F)cccc5F)c5ccc2[nH]5)C=C4)C=C3)cc1
REMARK SMILES IDX 9 1 8 2 7 3 6 4 5 5 4 6 3 7 2 8 1 9 38 10 39 11 91 12 40 13
REMARK SMILES IDX 90 14 41 15 42 16 43 17 84 18 44 19 89 20 83 21 85 22 45 23
REMARK SMILES IDX 88 24 82 25 81 26 46 28 72 29 55 30 71 31 56 32 59 33 70 34
REMARK SMILES IDX 86 35 57 36 58 37 69 39 87 40 60 41 47 42 48 43 53 44 49 45
REMARK SMILES IDX 50 46 52 47 54 48 51 49 73 50 74 51 79 52 75 53 76 54 78 55
REMARK SMILES IDX 80 56 77 57 61 58 62 59 67 60 63 61 64 62 66 63 68 64 65 65
REMARK SMILES IDX 10 66 11 67 12 68 13 69 14 70 15 71 16 72 17 73 18 74 25 75
REMARK SMILES IDX 26 76 27 77 31 78 28 79 30 80 29 81 32 82 33 83 37 84 34 85
REMARK SMILES IDX 36 86 35 87 19 88 20 89 24 90 21 91 23 92 22 93
REMARK H PARENT 85 27 59 38
REMARK Flexibility Score: inf
ROOT
ATOM      1  O   UNL A   1      39.569  22.047  26.338  1.00  0.00    -0.377 OA
ENDROOT
BRANCH   1   2
ATOM      2  C   UNL A   1      40.520  20.987  26.367  1.00  0.00     0.188 C 
BRANCH   2   3
ATOM      3  C   UNL A   1      41.530  21.123  27.502  1.00  0.00     0.188 C 
BRANCH   3   4
ATOM      4  O   UNL A   1      42.707  21.742  26.989  1.00  0.00    -0.376 OA
BRANCH   4   5
ATOM      5  C   UNL A   1      43.206  21.239  25.756  1.00  0.00     0.202 C 
BRANCH   5   6
ATOM      6  C   UNL A   1      43.848  22.313  24.883  1.00  0.00     0.261 C 
BRANCH   6   7
ATOM      7  O   UNL A   1      43.195  23.591  24.992  1.00  0.00    -0.460 OA
BRANCH   7   8
ATOM      8  C   UNL A   1      43.744  24.789  25.317  1.00  0.00     0.338 C 
ATOM      9  O   UNL A   1      44.731  25.180  24.696  1.00  0.00    -0.246 OA
BRANCH   8  10
ATOM     10  C   UNL A   1      43.170  25.700  26.350  1.00  0.00     0.060 A 
ATOM     11  C   UNL A   1      43.557  27.022  26.538  1.00  0.00     0.016 A 
ATOM     12  C   UNL A   1      42.115  25.212  27.136  1.00  0.00     0.016 A 
ATOM     13  C   UNL A   1      43.040  27.800  27.553  1.00  0.00     0.010 A 
ATOM     14  C   UNL A   1      41.528  26.016  28.123  1.00  0.00     0.010 A 
ATOM     15  C   UNL A   1      42.028  27.302  28.360  1.00  0.00    -0.014 A 
BRANCH  15  16
ATOM     16  C   UNL A   1      41.682  28.102  29.548  1.00  0.00     0.031 A 
ATOM     17  C   UNL A   1      40.465  28.972  29.468  1.00  0.00     0.074 A 
ATOM     18  C   UNL A   1      42.309  27.869  30.717  1.00  0.00     0.049 A 
ATOM     19  N   UNL A   1      39.973  29.792  30.355  1.00  0.00    -0.248 NA
ATOM     20  C   UNL A   1      39.682  28.895  28.220  1.00  0.00     0.031 C 
ATOM     21  C   UNL A   1      43.396  26.903  30.917  1.00  0.00     0.029 A 
ATOM     22  N   UNL A   1      42.088  28.380  31.967  1.00  0.00    -0.354 N 
ATOM     23  C   UNL A   1      38.853  30.355  29.758  1.00  0.00     0.074 A 
ATOM     24  C   UNL A   1      38.736  29.794  28.433  1.00  0.00     0.031 C 
ATOM     25  C   UNL A   1      43.717  26.865  32.219  1.00  0.00     0.029 A 
ATOM     26  C   UNL A   1      42.931  27.869  32.924  1.00  0.00     0.049 A 
ATOM     27  H   UNL A   1      41.392  29.048  32.161  1.00  0.00     0.167 HD
ATOM     28  C   UNL A   1      38.001  31.265  30.280  1.00  0.00     0.037 A 
ATOM     29  C   UNL A   1      43.076  28.219  34.215  1.00  0.00     0.037 A 
ATOM     30  C   UNL A   1      38.144  31.791  31.609  1.00  0.00     0.049 A 
ATOM     31  C   UNL A   1      42.191  29.317  34.738  1.00  0.00     0.074 A 
ATOM     32  C   UNL A   1      37.432  32.799  32.227  1.00  0.00     0.029 A 
ATOM     33  N   UNL A   1      39.075  31.325  32.530  1.00  0.00    -0.354 N 
ATOM     34  N   UNL A   1      41.215  29.950  34.130  1.00  0.00    -0.248 NA
ATOM     35  C   UNL A   1      42.439  29.768  36.111  1.00  0.00     0.031 C 
ATOM     36  C   UNL A   1      37.954  32.965  33.515  1.00  0.00     0.029 A 
ATOM     37  C   UNL A   1      38.959  32.028  33.714  1.00  0.00     0.049 A 
ATOM     38  H   UNL A   1      39.720  30.601  32.363  1.00  0.00     0.167 HD
ATOM     39  C   UNL A   1      40.727  30.870  35.045  1.00  0.00     0.074 A 
ATOM     40  C   UNL A   1      41.494  30.685  36.263  1.00  0.00     0.031 C 
ATOM     41  C   UNL A   1      39.747  31.797  34.899  1.00  0.00     0.037 A 
BRANCH  28  42
ATOM     42  C   UNL A   1      36.919  31.777  29.378  1.00  0.00     0.057 A 
ATOM     43  C   UNL A   1      36.980  33.041  28.779  1.00  0.00     0.134 A 
ATOM     44  C   UNL A   1      35.765  31.014  29.158  1.00  0.00     0.134 A 
ATOM     45  F   UNL A   1      38.041  33.840  28.983  1.00  0.00    -0.206 F 
ATOM     46  C   UNL A   1      35.923  33.539  28.013  1.00  0.00     0.040 A 
ATOM     47  C   UNL A   1      34.711  31.491  28.377  1.00  0.00     0.040 A 
ATOM     48  F   UNL A   1      35.634  29.802  29.717  1.00  0.00    -0.206 F 
ATOM     49  C   UNL A   1      34.785  32.761  27.809  1.00  0.00     0.006 A 
ENDBRANCH  28  42
BRANCH  29  50
ATOM     50  C   UNL A   1      44.142  27.608  35.055  1.00  0.00     0.057 A 
ATOM     51  C   UNL A   1      45.442  28.125  35.089  1.00  0.00     0.134 A 
ATOM     52  C   UNL A   1      43.893  26.459  35.820  1.00  0.00     0.134 A 
ATOM     53  F   UNL A   1      45.757  29.210  34.367  1.00  0.00    -0.206 F 
ATOM     54  C   UNL A   1      46.457  27.512  35.831  1.00  0.00     0.040 A 
ATOM     55  C   UNL A   1      44.888  25.856  36.591  1.00  0.00     0.040 A 
ATOM     56  F   UNL A   1      42.671  25.907  35.835  1.00  0.00    -0.206 F 
ATOM     57  C   UNL A   1      46.179  26.375  36.588  1.00  0.00     0.006 A 
ENDBRANCH  29  50
BRANCH  41  58
ATOM     58  C   UNL A   1      39.447  32.643  36.096  1.00  0.00     0.057 A 
ATOM     59  C   UNL A   1      38.494  32.261  37.047  1.00  0.00     0.134 A 
ATOM     60  C   UNL A   1      40.143  33.839  36.311  1.00  0.00     0.134 A 
ATOM     61  F   UNL A   1      37.785  31.133  36.885  1.00  0.00    -0.206 F 
ATOM     62  C   UNL A   1      38.222  33.054  38.160  1.00  0.00     0.040 A 
ATOM     63  C   UNL A   1      39.901  34.626  37.435  1.00  0.00     0.040 A 
ATOM     64  F   UNL A   1      41.075  34.251  35.439  1.00  0.00    -0.206 F 
ATOM     65  C   UNL A   1      38.933  34.238  38.359  1.00  0.00     0.006 A 
ENDBRANCH  41  58
ENDBRANCH  15  16
ENDBRANCH   8  10
ENDBRANCH   7   8
ENDBRANCH   6   7
ENDBRANCH   5   6
ENDBRANCH   4   5
ENDBRANCH   3   4
ENDBRANCH   2   3
ENDBRANCH   1   2
BRANCH   1  66
ATOM     66  C   UNL A   1      38.307  21.720  25.771  1.00  0.00     0.188 C 
BRANCH  66  67
ATOM     67  C   UNL A   1      37.406  22.850  25.235  1.00  0.00     0.188 C 
BRANCH  67  68
ATOM     68  O   UNL A   1      36.610  23.478  26.231  1.00  0.00    -0.376 OA
BRANCH  68  69
ATOM     69  C   UNL A   1      35.404  22.784  26.541  1.00  0.00     0.202 C 
BRANCH  69  70
ATOM     70  C   UNL A   1      34.132  23.417  25.970  1.00  0.00     0.261 C 
BRANCH  70  71
ATOM     71  O   UNL A   1      33.013  23.388  26.875  1.00  0.00    -0.463 OA
BRANCH  71  72
ATOM     72  C   UNL A   1      31.898  24.140  26.669  1.00  0.00     0.314 C 
ATOM     73  O   UNL A   1      30.850  24.002  27.275  1.00  0.00    -0.252 OA
BRANCH  72  74
ATOM     74  C   UNL A   1      32.183  25.174  25.555  1.00  0.00     0.141 C 
BRANCH  74  75
ATOM     75  C   UNL A   1      31.214  24.908  24.352  1.00  0.00     0.068 C 
BRANCH  75  76
ATOM     76  C   UNL A   1      30.616  26.153  23.674  1.00  0.00    -0.039 A 
ATOM     77  C   UNL A   1      31.355  27.032  22.866  1.00  0.00     0.004 A 
ATOM     78  C   UNL A   1      29.273  26.475  23.942  1.00  0.00     0.004 A 
ATOM     79  C   UNL A   1      30.812  28.252  22.456  1.00  0.00     0.000 A 
ATOM     80  C   UNL A   1      28.721  27.678  23.502  1.00  0.00     0.000 A 
ATOM     81  C   UNL A   1      29.500  28.581  22.786  1.00  0.00     0.000 A 
ENDBRANCH  75  76
BRANCH  75  82
ATOM     82  C   UNL A   1      31.824  23.976  23.285  1.00  0.00    -0.039 A 
ATOM     83  C   UNL A   1      31.501  22.609  23.197  1.00  0.00     0.004 A 
ATOM     84  C   UNL A   1      32.733  24.499  22.351  1.00  0.00     0.004 A 
ATOM     85  C   UNL A   1      32.027  21.811  22.175  1.00  0.00     0.000 A 
ATOM     86  C   UNL A   1      33.279  23.694  21.348  1.00  0.00     0.000 A 
ATOM     87  C   UNL A   1      32.917  22.353  21.252  1.00  0.00     0.000 A 
ENDBRANCH  75  82
ENDBRANCH  74  75
BRANCH  74  88
ATOM     88  C   UNL A   1      32.391  26.599  26.118  1.00  0.00    -0.033 A 
ATOM     89  C   UNL A   1      31.430  27.285  26.868  1.00  0.00     0.004 A 
ATOM     90  C   UNL A   1      33.535  27.331  25.735  1.00  0.00     0.004 A 
ATOM     91  C   UNL A   1      31.560  28.658  27.125  1.00  0.00     0.000 A 
ATOM     92  C   UNL A   1      33.682  28.693  26.012  1.00  0.00     0.000 A 
ATOM     93  C   UNL A   1      32.677  29.365  26.688  1.00  0.00     0.000 A 
ENDBRANCH  74  88
ENDBRANCH  72  74
ENDBRANCH  71  72
ENDBRANCH  70  71
ENDBRANCH  69  70
ENDBRANCH  68  69
ENDBRANCH  67  68
ENDBRANCH  66  67
ENDBRANCH   1  66
TORSDOF 24
ENDMDL
MODEL 2
REMARK VINA RESULT:     -10.0      0.683      5.930
REMARK SMILES O=C(OCCOCCOCCOCCOC(=O)[C@H](c1ccccc1)C(c1ccccc1)c1ccccc1)c1ccc(-c2c3nc(c(-c4c(F)cccc4F)c4ccc([nH]4)c(-c4c(F)cccc4F)c4nc(c(-c5c(F)cccc5F)c5ccc2[nH]5)C=C4)C=C3)cc1
REMARK SMILES IDX 9 1 8 2 7 3 6 4 5 5 4 6 3 7 2 8 1 9 38 10 39 11 91 12 40 13
REMARK SMILES IDX 90 14 41 15 42 16 43 17 84 18 44 19 89 20 83 21 85 22 45 23
REMARK SMILES IDX 88 24 82 25 81 26 46 28 72 29 55 30 71 31 56 32 59 33 70 34
REMARK SMILES IDX 86 35 57 36 58 37 69 39 87 40 60 41 47 42 48 43 53 44 49 45
REMARK SMILES IDX 50 46 52 47 54 48 51 49 73 50 74 51 79 52 75 53 76 54 78 55
REMARK SMILES IDX 80 56 77 57 61 58 62 59 67 60 63 61 64 62 66 63 68 64 65 65
REMARK SMILES IDX 10 66 11 67 12 68 13 69 14 70 15 71 16 72 17 73 18 74 25 75
REMARK SMILES IDX 26 76 27 77 31 78 28 79 30 80 29 81 32 82 33 83 37 84 34 85
REMARK SMILES IDX 36 86 35 87 19 88 20 89 24 90 21 91 23 92 22 93
REMARK H PARENT 85 27 59 38
REMARK Flexibility Score: inf
ROOT
ATOM      1  O   UNL A   1      38.821  21.563  26.363  1.00  0.00    -0.377 OA
ENDROOT
BRANCH   1   2
ATOM      2  C   UNL A   1      40.022  20.824  26.161  1.00  0.00     0.188 C 
BRANCH   2   3
ATOM      3  C   UNL A   1      40.967  20.884  27.357  1.00  0.00     0.188 C 
BRANCH   3   4
ATOM      4  O   UNL A   1      42.139  21.598  26.972  1.00  0.00    -0.376 OA
BRANCH   4   5
ATOM      5  C   UNL A   1      42.443  21.621  25.583  1.00  0.00     0.202 C 
BRANCH   5   6
ATOM      6  C   UNL A   1      43.922  21.863  25.294  1.00  0.00     0.261 C 
BRANCH   6   7
ATOM      7  O   UNL A   1      44.467  22.967  26.040  1.00  0.00    -0.460 OA
BRANCH   7   8
ATOM      8  C   UNL A   1      44.303  24.295  25.813  1.00  0.00     0.338 C 
ATOM      9  O   UNL A   1      44.717  24.775  24.759  1.00  0.00    -0.246 OA
BRANCH   8  10
ATOM     10  C   UNL A   1      43.579  25.203  26.750  1.00  0.00     0.060 A 
ATOM     11  C   UNL A   1      43.679  26.589  26.741  1.00  0.00     0.016 A 
ATOM     12  C   UNL A   1      42.677  24.621  27.655  1.00  0.00     0.016 A 
ATOM     13  C   UNL A   1      43.038  27.377  27.674  1.00  0.00     0.010 A 
ATOM     14  C   UNL A   1      41.961  25.415  28.561  1.00  0.00     0.010 A 
ATOM     15  C   UNL A   1      42.181  26.797  28.598  1.00  0.00    -0.014 A 
BRANCH  15  16
ATOM     16  C   UNL A   1      41.707  27.666  29.689  1.00  0.00     0.031 A 
ATOM     17  C   UNL A   1      42.540  27.737  30.932  1.00  0.00     0.074 A 
ATOM     18  C   UNL A   1      40.694  28.525  29.468  1.00  0.00     0.049 A 
ATOM     19  N   UNL A   1      42.325  28.393  32.038  1.00  0.00    -0.248 NA
ATOM     20  C   UNL A   1      43.804  26.976  30.920  1.00  0.00     0.031 C 
ATOM     21  C   UNL A   1      39.938  28.638  28.214  1.00  0.00     0.029 A 
ATOM     22  N   UNL A   1      40.161  29.503  30.262  1.00  0.00    -0.354 N 
ATOM     23  C   UNL A   1      43.400  28.091  32.864  1.00  0.00     0.074 A 
ATOM     24  C   UNL A   1      44.265  27.190  32.141  1.00  0.00     0.031 C 
ATOM     25  C   UNL A   1      39.070  29.656  28.314  1.00  0.00     0.029 A 
ATOM     26  C   UNL A   1      39.138  30.199  29.664  1.00  0.00     0.049 A 
ATOM     27  H   UNL A   1      40.481  29.691  31.174  1.00  0.00     0.167 HD
ATOM     28  C   UNL A   1      43.634  28.534  34.120  1.00  0.00     0.037 A 
ATOM     29  C   UNL A   1      38.320  31.135  30.180  1.00  0.00     0.037 A 
ATOM     30  C   UNL A   1      42.754  29.441  34.801  1.00  0.00     0.049 A 
ATOM     31  C   UNL A   1      38.532  31.524  31.617  1.00  0.00     0.074 A 
ATOM     32  C   UNL A   1      42.799  29.880  36.108  1.00  0.00     0.029 A 
ATOM     33  N   UNL A   1      41.662  30.058  34.201  1.00  0.00    -0.354 N 
ATOM     34  N   UNL A   1      39.473  31.135  32.447  1.00  0.00    -0.248 NA
ATOM     35  C   UNL A   1      37.564  32.458  32.199  1.00  0.00     0.031 C 
ATOM     36  C   UNL A   1      41.713  30.741  36.310  1.00  0.00     0.029 A 
ATOM     37  C   UNL A   1      41.021  30.873  35.114  1.00  0.00     0.049 A 
ATOM     38  H   UNL A   1      41.387  29.932  33.265  1.00  0.00     0.167 HD
ATOM     39  C   UNL A   1      39.214  31.779  33.647  1.00  0.00     0.074 A 
ATOM     40  C   UNL A   1      38.047  32.612  33.423  1.00  0.00     0.031 C 
ATOM     41  C   UNL A   1      39.864  31.686  34.834  1.00  0.00     0.037 A 
BRANCH  28  42
ATOM     42  C   UNL A   1      44.832  27.973  34.823  1.00  0.00     0.057 A 
ATOM     43  C   UNL A   1      44.780  26.780  35.556  1.00  0.00     0.134 A 
ATOM     44  C   UNL A   1      46.045  28.675  34.820  1.00  0.00     0.134 A 
ATOM     45  F   UNL A   1      43.637  26.080  35.634  1.00  0.00    -0.206 F 
ATOM     46  C   UNL A   1      45.882  26.318  36.279  1.00  0.00     0.040 A 
ATOM     47  C   UNL A   1      47.159  28.213  35.520  1.00  0.00     0.040 A 
ATOM     48  F   UNL A   1      46.158  29.833  34.153  1.00  0.00    -0.206 F 
ATOM     49  C   UNL A   1      47.077  27.035  36.260  1.00  0.00     0.006 A 
ENDBRANCH  28  42
BRANCH  29  50
ATOM     50  C   UNL A   1      37.191  31.683  29.381  1.00  0.00     0.057 A 
ATOM     51  C   UNL A   1      37.243  32.957  28.805  1.00  0.00     0.134 A 
ATOM     52  C   UNL A   1      36.006  30.953  29.206  1.00  0.00     0.134 A 
ATOM     53  F   UNL A   1      38.338  33.719  28.949  1.00  0.00    -0.206 F 
ATOM     54  C   UNL A   1      36.156  33.493  28.107  1.00  0.00     0.040 A 
ATOM     55  C   UNL A   1      34.925  31.462  28.484  1.00  0.00     0.040 A 
ATOM     56  F   UNL A   1      35.882  29.725  29.731  1.00  0.00    -0.206 F 
ATOM     57  C   UNL A   1      34.993  32.742  27.942  1.00  0.00     0.006 A 
ENDBRANCH  29  50
BRANCH  41  58
ATOM     58  C   UNL A   1      39.334  32.530  35.951  1.00  0.00     0.057 A 
ATOM     59  C   UNL A   1      38.385  32.040  36.856  1.00  0.00     0.134 A 
ATOM     60  C   UNL A   1      39.802  33.836  36.135  1.00  0.00     0.134 A 
ATOM     61  F   UNL A   1      37.888  30.801  36.719  1.00  0.00    -0.206 F 
ATOM     62  C   UNL A   1      37.898  32.832  37.894  1.00  0.00     0.040 A 
ATOM     63  C   UNL A   1      39.344  34.628  37.187  1.00  0.00     0.040 A 
ATOM     64  F   UNL A   1      40.718  34.356  35.305  1.00  0.00    -0.206 F 
ATOM     65  C   UNL A   1      38.384  34.129  38.065  1.00  0.00     0.006 A 
ENDBRANCH  41  58
ENDBRANCH  15  16
ENDBRANCH   8  10
ENDBRANCH   7   8
ENDBRANCH   6   7
ENDBRANCH   5   6
ENDBRANCH   4   5
ENDBRANCH   3   4
ENDBRANCH   2   3
ENDBRANCH   1   2
BRANCH   1  66
ATOM     66  C   UNL A   1      38.050  21.806  25.194  1.00  0.00     0.188 C 
BRANCH  66  67
ATOM     67  C   UNL A   1      36.961  22.897  25.223  1.00  0.00     0.188 C 
BRANCH  67  68
ATOM     68  O   UNL A   1      35.904  22.635  26.137  1.00  0.00    -0.376 OA
BRANCH  68  69
ATOM     69  C   UNL A   1      34.713  23.376  25.883  1.00  0.00     0.202 C 
BRANCH  69  70
ATOM     70  C   UNL A   1      33.595  23.171  26.909  1.00  0.00     0.261 C 
BRANCH  70  71
ATOM     71  O   UNL A   1      32.280  23.105  26.330  1.00  0.00    -0.463 OA
BRANCH  71  72
ATOM     72  C   UNL A   1      31.409  24.148  26.394  1.00  0.00     0.314 C 
ATOM     73  O   UNL A   1      30.398  24.163  27.076  1.00  0.00    -0.252 OA
BRANCH  72  74
ATOM     74  C   UNL A   1      31.908  25.283  25.472  1.00  0.00     0.141 C 
BRANCH  74  75
ATOM     75  C   UNL A   1      31.036  25.303  24.169  1.00  0.00     0.068 C 
BRANCH  75  76
ATOM     76  C   UNL A   1      30.244  26.594  23.903  1.00  0.00    -0.039 A 
ATOM     77  C   UNL A   1      28.841  26.659  23.887  1.00  0.00     0.004 A 
ATOM     78  C   UNL A   1      30.962  27.760  23.579  1.00  0.00     0.004 A 
ATOM     79  C   UNL A   1      28.185  27.806  23.431  1.00  0.00     0.000 A 
ATOM     80  C   UNL A   1      30.304  28.916  23.158  1.00  0.00     0.000 A 
ATOM     81  C   UNL A   1      28.917  28.928  23.053  1.00  0.00     0.000 A 
ENDBRANCH  75  76
BRANCH  75  82
ATOM     82  C   UNL A   1      31.832  24.910  22.907  1.00  0.00    -0.039 A 
ATOM     83  C   UNL A   1      32.570  23.715  22.816  1.00  0.00     0.004 A 
ATOM     84  C   UNL A   1      31.822  25.764  21.793  1.00  0.00     0.004 A 
ATOM     85  C   UNL A   1      33.227  23.365  21.632  1.00  0.00     0.000 A 
ATOM     86  C   UNL A   1      32.501  25.426  20.620  1.00  0.00     0.000 A 
ATOM     87  C   UNL A   1      33.194  24.221  20.534  1.00  0.00     0.000 A 
ENDBRANCH  75  82
ENDBRANCH  74  75
BRANCH  74  88
ATOM     88  C   UNL A   1      32.214  26.582  26.252  1.00  0.00    -0.033 A 
ATOM     89  C   UNL A   1      31.261  27.278  27.004  1.00  0.00     0.004 A 
ATOM     90  C   UNL A   1      33.468  27.207  26.087  1.00  0.00     0.004 A 
ATOM     91  C   UNL A   1      31.517  28.576  27.470  1.00  0.00     0.000 A 
ATOM     92  C   UNL A   1      33.737  28.490  26.572  1.00  0.00     0.000 A 
ATOM     93  C   UNL A   1      32.747  29.187  27.244  1.00  0.00     0.000 A 
ENDBRANCH  74  88
ENDBRANCH  72  74
ENDBRANCH  71  72
ENDBRANCH  70  71
ENDBRANCH  69  70
ENDBRANCH  68  69
ENDBRANCH  67  68
ENDBRANCH  66  67
ENDBRANCH   1  66
TORSDOF 24
ENDMDL
MODEL 3
REMARK VINA RESULT:      -9.9      0.639      6.290
REMARK SMILES O=C(OCCOCCOCCOCCOC(=O)[C@H](c1ccccc1)C(c1ccccc1)c1ccccc1)c1ccc(-c2c3nc(c(-c4c(F)cccc4F)c4ccc([nH]4)c(-c4c(F)cccc4F)c4nc(c(-c5c(F)cccc5F)c5ccc2[nH]5)C=C4)C=C3)cc1
REMARK SMILES IDX 9 1 8 2 7 3 6 4 5 5 4 6 3 7 2 8 1 9 38 10 39 11 91 12 40 13
REMARK SMILES IDX 90 14 41 15 42 16 43 17 84 18 44 19 89 20 83 21 85 22 45 23
REMARK SMILES IDX 88 24 82 25 81 26 46 28 72 29 55 30 71 31 56 32 59 33 70 34
REMARK SMILES IDX 86 35 57 36 58 37 69 39 87 40 60 41 47 42 48 43 53 44 49 45
REMARK SMILES IDX 50 46 52 47 54 48 51 49 73 50 74 51 79 52 75 53 76 54 78 55
REMARK SMILES IDX 80 56 77 57 61 58 62 59 67 60 63 61 64 62 66 63 68 64 65 65
REMARK SMILES IDX 10 66 11 67 12 68 13 69 14 70 15 71 16 72 17 73 18 74 25 75
REMARK SMILES IDX 26 76 27 77 31 78 28 79 30 80 29 81 32 82 33 83 37 84 34 85
REMARK SMILES IDX 36 86 35 87 19 88 20 89 24 90 21 91 23 92 22 93
REMARK H PARENT 85 27 59 38
REMARK Flexibility Score: inf
ROOT
ATOM      1  O   UNL A   1      39.569  21.974  26.507  1.00  0.00    -0.377 OA
ENDROOT
BRANCH   1   2
ATOM      2  C   UNL A   1      40.451  20.857  26.500  1.00  0.00     0.188 C 
BRANCH   2   3
ATOM      3  C   UNL A   1      41.476  20.898  27.629  1.00  0.00     0.188 C 
BRANCH   3   4
ATOM      4  O   UNL A   1      42.702  21.408  27.109  1.00  0.00    -0.376 OA
BRANCH   4   5
ATOM      5  C   UNL A   1      43.181  20.813  25.908  1.00  0.00     0.202 C 
BRANCH   5   6
ATOM      6  C   UNL A   1      43.791  21.822  24.939  1.00  0.00     0.261 C 
BRANCH   6   7
ATOM      7  O   UNL A   1      43.092  23.080  24.923  1.00  0.00    -0.460 OA
BRANCH   7   8
ATOM      8  C   UNL A   1      43.579  24.314  25.211  1.00  0.00     0.338 C 
ATOM      9  O   UNL A   1      44.552  24.730  24.585  1.00  0.00    -0.246 OA
BRANCH   8  10
ATOM     10  C   UNL A   1      42.951  25.231  26.206  1.00  0.00     0.060 A 
ATOM     11  C   UNL A   1      43.272  26.576  26.352  1.00  0.00     0.016 A 
ATOM     12  C   UNL A   1      41.912  24.720  27.000  1.00  0.00     0.016 A 
ATOM     13  C   UNL A   1      42.707  27.363  27.334  1.00  0.00     0.010 A 
ATOM     14  C   UNL A   1      41.276  25.527  27.952  1.00  0.00     0.010 A 
ATOM     15  C   UNL A   1      41.711  26.843  28.149  1.00  0.00    -0.014 A 
BRANCH  15  16
ATOM     16  C   UNL A   1      41.314  27.666  29.305  1.00  0.00     0.031 A 
ATOM     17  C   UNL A   1      42.192  27.629  30.518  1.00  0.00     0.074 A 
ATOM     18  C   UNL A   1      40.333  28.579  29.170  1.00  0.00     0.049 A 
ATOM     19  N   UNL A   1      42.043  28.227  31.667  1.00  0.00    -0.248 NA
ATOM     20  C   UNL A   1      43.419  26.816  30.417  1.00  0.00     0.031 C 
ATOM     21  C   UNL A   1      39.542  28.798  27.953  1.00  0.00     0.029 A 
ATOM     22  N   UNL A   1      39.873  29.531  30.038  1.00  0.00    -0.354 N 
ATOM     23  C   UNL A   1      43.131  27.831  32.435  1.00  0.00     0.074 A 
ATOM     24  C   UNL A   1      43.931  26.938  31.630  1.00  0.00     0.031 C 
ATOM     25  C   UNL A   1      38.724  29.845  28.143  1.00  0.00     0.029 A 
ATOM     26  C   UNL A   1      38.862  30.303  29.519  1.00  0.00     0.049 A 
ATOM     27  H   UNL A   1      40.231  29.650  30.947  1.00  0.00     0.167 HD
ATOM     28  C   UNL A   1      43.427  28.188  33.704  1.00  0.00     0.037 A 
ATOM     29  C   UNL A   1      38.105  31.241  30.117  1.00  0.00     0.037 A 
ATOM     30  C   UNL A   1      42.612  29.091  34.468  1.00  0.00     0.049 A 
ATOM     31  C   UNL A   1      38.383  31.536  31.565  1.00  0.00     0.074 A 
ATOM     32  C   UNL A   1      42.722  29.450  35.796  1.00  0.00     0.029 A 
ATOM     33  N   UNL A   1      41.529  29.788  33.945  1.00  0.00    -0.354 N 
ATOM     34  N   UNL A   1      39.333  31.059  32.336  1.00  0.00    -0.248 NA
ATOM     35  C   UNL A   1      37.477  32.474  32.234  1.00  0.00     0.031 C 
ATOM     36  C   UNL A   1      41.683  30.342  36.086  1.00  0.00     0.029 A 
ATOM     37  C   UNL A   1      40.957  30.574  34.926  1.00  0.00     0.049 A 
ATOM     38  H   UNL A   1      41.218  29.730  33.014  1.00  0.00     0.167 HD
ATOM     39  C   UNL A   1      39.143  31.641  33.580  1.00  0.00     0.074 A 
ATOM     40  C   UNL A   1      38.008  32.535  33.447  1.00  0.00     0.031 C 
ATOM     41  C   UNL A   1      39.828  31.451  34.735  1.00  0.00     0.037 A 
BRANCH  28  42
ATOM     42  C   UNL A   1      44.623  27.537  34.330  1.00  0.00     0.057 A 
ATOM     43  C   UNL A   1      44.546  26.297  34.977  1.00  0.00     0.134 A 
ATOM     44  C   UNL A   1      45.860  28.194  34.341  1.00  0.00     0.134 A 
ATOM     45  F   UNL A   1      43.380  25.634  35.040  1.00  0.00    -0.206 F 
ATOM     46  C   UNL A   1      45.649  25.745  35.633  1.00  0.00     0.040 A 
ATOM     47  C   UNL A   1      46.975  27.643  34.973  1.00  0.00     0.040 A 
ATOM     48  F   UNL A   1      45.998  29.392  33.755  1.00  0.00    -0.206 F 
ATOM     49  C   UNL A   1      46.869  26.419  35.630  1.00  0.00     0.006 A 
ENDBRANCH  28  42
BRANCH  29  50
ATOM     50  C   UNL A   1      36.974  31.883  29.392  1.00  0.00     0.057 A 
ATOM     51  C   UNL A   1      35.760  31.220  29.183  1.00  0.00     0.134 A 
ATOM     52  C   UNL A   1      37.097  33.172  28.853  1.00  0.00     0.134 A 
ATOM     53  F   UNL A   1      35.579  29.976  29.653  1.00  0.00    -0.206 F 
ATOM     54  C   UNL A   1      34.722  31.802  28.448  1.00  0.00     0.040 A 
ATOM     55  C   UNL A   1      36.057  33.779  28.146  1.00  0.00     0.040 A 
ATOM     56  F   UNL A   1      38.232  33.868  29.012  1.00  0.00    -0.206 F 
ATOM     57  C   UNL A   1      34.869  33.088  27.930  1.00  0.00     0.006 A 
ENDBRANCH  29  50
BRANCH  41  58
ATOM     58  C   UNL A   1      39.375  32.250  35.917  1.00  0.00     0.057 A 
ATOM     59  C   UNL A   1      38.421  31.757  36.816  1.00  0.00     0.134 A 
ATOM     60  C   UNL A   1      39.922  33.513  36.171  1.00  0.00     0.134 A 
ATOM     61  F   UNL A   1      37.851  30.558  36.615  1.00  0.00    -0.206 F 
ATOM     62  C   UNL A   1      38.006  32.506  37.915  1.00  0.00     0.040 A 
ATOM     63  C   UNL A   1      39.536  34.259  37.283  1.00  0.00     0.040 A 
ATOM     64  F   UNL A   1      40.847  34.033  35.350  1.00  0.00    -0.206 F 
ATOM     65  C   UNL A   1      38.570  33.760  38.154  1.00  0.00     0.006 A 
ENDBRANCH  41  58
ENDBRANCH  15  16
ENDBRANCH   8  10
ENDBRANCH   7   8
ENDBRANCH   6   7
ENDBRANCH   5   6
ENDBRANCH   4   5
ENDBRANCH   3   4
ENDBRANCH   2   3
ENDBRANCH   1   2
BRANCH   1  66
ATOM     66  C   UNL A   1      38.385  21.823  25.735  1.00  0.00     0.188 C 
BRANCH  66  67
ATOM     67  C   UNL A   1      37.597  23.078  25.309  1.00  0.00     0.188 C 
BRANCH  67  68
ATOM     68  O   UNL A   1      36.862  23.686  26.363  1.00  0.00    -0.376 OA
BRANCH  68  69
ATOM     69  C   UNL A   1      35.488  23.311  26.411  1.00  0.00     0.202 C 
BRANCH  69  70
ATOM     70  C   UNL A   1      34.515  24.361  25.866  1.00  0.00     0.261 C 
BRANCH  70  71
ATOM     71  O   UNL A   1      33.132  24.059  26.123  1.00  0.00    -0.463 OA
BRANCH  71  72
ATOM     72  C   UNL A   1      32.163  25.014  26.078  1.00  0.00     0.314 C 
ATOM     73  O   UNL A   1      31.084  24.930  26.639  1.00  0.00    -0.252 OA
BRANCH  72  74
ATOM     74  C   UNL A   1      32.656  26.195  25.211  1.00  0.00     0.141 C 
BRANCH  74  75
ATOM     75  C   UNL A   1      32.080  26.038  23.761  1.00  0.00     0.068 C 
BRANCH  75  76
ATOM     76  C   UNL A   1      32.009  24.603  23.211  1.00  0.00    -0.039 A 
ATOM     77  C   UNL A   1      30.933  23.731  23.443  1.00  0.00     0.004 A 
ATOM     78  C   UNL A   1      33.118  24.108  22.502  1.00  0.00     0.004 A 
ATOM     79  C   UNL A   1      31.023  22.380  23.099  1.00  0.00     0.000 A 
ATOM     80  C   UNL A   1      33.191  22.766  22.127  1.00  0.00     0.000 A 
ATOM     81  C   UNL A   1      32.157  21.895  22.455  1.00  0.00     0.000 A 
ENDBRANCH  75  76
BRANCH  75  82
ATOM     82  C   UNL A   1      30.716  26.734  23.579  1.00  0.00    -0.039 A 
ATOM     83  C   UNL A   1      30.578  27.976  22.931  1.00  0.00     0.004 A 
ATOM     84  C   UNL A   1      29.554  26.113  24.065  1.00  0.00     0.004 A 
ATOM     85  C   UNL A   1      29.316  28.544  22.729  1.00  0.00     0.000 A 
ATOM     86  C   UNL A   1      28.297  26.696  23.887  1.00  0.00     0.000 A 
ATOM     87  C   UNL A   1      28.176  27.905  23.209  1.00  0.00     0.000 A 
ENDBRANCH  75  82
ENDBRANCH  74  75
BRANCH  74  88
ATOM     88  C   UNL A   1      32.582  27.544  25.962  1.00  0.00    -0.033 A 
ATOM     89  C   UNL A   1      31.819  27.749  27.116  1.00  0.00     0.004 A 
ATOM     90  C   UNL A   1      33.176  28.687  25.385  1.00  0.00     0.004 A 
ATOM     91  C   UNL A   1      31.577  29.043  27.602  1.00  0.00     0.000 A 
ATOM     92  C   UNL A   1      32.959  29.976  25.880  1.00  0.00     0.000 A 
ATOM     93  C   UNL A   1      32.134  30.156  26.978  1.00  0.00     0.000 A 
ENDBRANCH  74  88
ENDBRANCH  72  74
ENDBRANCH  71  72
ENDBRANCH  70  71
ENDBRANCH  69  70
ENDBRANCH  68  69
ENDBRANCH  67  68
ENDBRANCH  66  67
ENDBRANCH   1  66
TORSDOF 24
ENDMDL
