MODEL 1
REMARK VINA RESULT:      -9.5      0.000      0.000
REMARK SMILES NS(=O)(=O)c1ccc(/N=N/c2ccc(O)c(C(=O)OCCOCCOCCOCCOC(=O)c3ccc(-c4c5nc(c(-c6c(F)cccc6F)c6ccc([nH]6)c(-c6c(F)cccc6F)c6nc(c(-c7c(F)cccc7F)c7ccc4[nH]7)C=C6)C=C5)cc3)c2)cc1
REMARK SMILES IDX 24 1 23 2 22 3 21 4 20 5 19 6 17 7 18 8 16 9 11 10 12 11
REMARK SMILES IDX 88 12 13 13 14 14 10 15 9 16 8 17 5 18 6 19 90 20 7 21 89 22
REMARK SMILES IDX 2 23 3 24 4 25 1 26 15 29 25 31 26 32 27 33 28 34 29 35
REMARK SMILES IDX 30 36 31 37 32 38 33 39 34 40 35 41 87 42 36 43 86 44 37 45
REMARK SMILES IDX 38 46 39 47 80 48 40 49 85 50 79 51 81 52 41 53 84 54 78 55
REMARK SMILES IDX 77 56 42 58 68 59 51 60 67 61 52 62 55 63 66 64 82 65 53 66
REMARK SMILES IDX 54 67 65 69 83 70 56 71 43 72 44 73 49 74 45 75 46 76 48 77
REMARK SMILES IDX 50 78 47 79 69 80 70 81 75 82 71 83 72 84 74 85 76 86 73 87
REMARK SMILES IDX 57 88 58 89 63 90 59 91 60 92 62 93 64 94 61 95
REMARK H PARENT 1 27 1 28 15 30 81 57 55 68
REMARK Flexibility Score: inf
ROOT
ATOM      1  C   UNL A   1      34.835  23.957  24.810  1.00  0.00     0.188 C 
ENDROOT
BRANCH   1   2
ATOM      2  C   UNL A   1      34.968  23.369  23.395  1.00  0.00     0.188 C 
BRANCH   2   3
ATOM      3  O   UNL A   1      34.421  24.207  22.380  1.00  0.00    -0.376 OA
BRANCH   3   4
ATOM      4  C   UNL A   1      34.207  25.567  22.731  1.00  0.00     0.202 C 
BRANCH   4   5
ATOM      5  C   UNL A   1      33.376  26.370  21.722  1.00  0.00     0.261 C 
BRANCH   5   6
ATOM      6  O   UNL A   1      31.996  25.986  21.612  1.00  0.00    -0.460 OA
BRANCH   6   7
ATOM      7  C   UNL A   1      31.091  26.647  22.360  1.00  0.00     0.342 C 
ATOM      8  O   UNL A   1      30.310  27.508  21.991  1.00  0.00    -0.246 OA
BRANCH   7   9
ATOM      9  C   UNL A   1      31.001  25.990  23.680  1.00  0.00     0.104 A 
ATOM     10  C   UNL A   1      31.050  23.975  25.042  1.00  0.00     0.087 A 
ATOM     11  C   UNL A   1      30.582  24.723  26.129  1.00  0.00     0.034 A 
ATOM     12  C   UNL A   1      31.238  24.616  23.810  1.00  0.00     0.049 A 
ATOM     13  C   UNL A   1      30.342  26.094  26.006  1.00  0.00     0.049 A 
ATOM     14  C   UNL A   1      30.566  26.729  24.788  1.00  0.00     0.130 A 
BRANCH  10  15
ATOM     15  N   UNL A   1      31.282  22.596  25.207  1.00  0.00    -0.151 NA
ATOM     16  N   UNL A   1      31.875  22.139  24.207  1.00  0.00    -0.151 NA
BRANCH  16  17
ATOM     17  C   UNL A   1      32.197  20.773  24.317  1.00  0.00     0.086 A 
ATOM     18  C   UNL A   1      33.020  18.089  24.339  1.00  0.00     0.082 A 
ATOM     19  C   UNL A   1      32.618  18.681  23.140  1.00  0.00     0.024 A 
ATOM     20  C   UNL A   1      32.986  18.810  25.533  1.00  0.00     0.024 A 
ATOM     21  C   UNL A   1      32.217  20.019  23.136  1.00  0.00     0.031 A 
ATOM     22  C   UNL A   1      32.576  20.149  25.517  1.00  0.00     0.031 A 
BRANCH  18  23
ATOM     23  S   UNL A   1      33.591  16.416  24.303  1.00  0.00     0.238 S 
ATOM     24  O   UNL A   1      34.099  16.142  22.982  1.00  0.00    -0.207 OA
ATOM     25  O   UNL A   1      32.612  15.580  24.957  1.00  0.00    -0.207 OA
BRANCH  23  26
ATOM     26  N   UNL A   1      34.927  16.410  25.324  1.00  0.00    -0.225 NA
ATOM     27  H   UNL A   1      35.131  15.452  25.610  1.00  0.00     0.137 HD
ATOM     28  H   UNL A   1      34.727  16.976  26.148  1.00  0.00     0.137 HD
ENDBRANCH  23  26
ENDBRANCH  18  23
ENDBRANCH  16  17
ENDBRANCH  10  15
BRANCH  14  29
ATOM     29  O   UNL A   1      30.286  28.068  24.734  1.00  0.00    -0.507 OA
ATOM     30  H   UNL A   1      29.398  28.362  24.783  1.00  0.00     0.293 HD
ENDBRANCH  14  29
ENDBRANCH   7   9
ENDBRANCH   6   7
ENDBRANCH   5   6
ENDBRANCH   4   5
ENDBRANCH   3   4
ENDBRANCH   2   3
ENDBRANCH   1   2
BRANCH   1  31
ATOM     31  O   UNL A   1      35.625  23.339  25.810  1.00  0.00    -0.377 OA
BRANCH  31  32
ATOM     32  C   UNL A   1      36.838  22.690  25.435  1.00  0.00     0.188 C 
BRANCH  32  33
ATOM     33  C   UNL A   1      38.221  23.116  25.981  1.00  0.00     0.188 C 
BRANCH  33  34
ATOM     34  O   UNL A   1      38.185  23.898  27.168  1.00  0.00    -0.376 OA
BRANCH  34  35
ATOM     35  C   UNL A   1      39.237  24.836  27.345  1.00  0.00     0.202 C 
BRANCH  35  36
ATOM     36  C   UNL A   1      40.505  24.475  26.565  1.00  0.00     0.261 C 
BRANCH  36  37
ATOM     37  O   UNL A   1      41.510  23.800  27.338  1.00  0.00    -0.460 OA
BRANCH  37  38
ATOM     38  C   UNL A   1      42.673  23.516  26.713  1.00  0.00     0.338 C 
ATOM     39  O   UNL A   1      42.974  22.489  26.134  1.00  0.00    -0.246 OA
BRANCH  38  40
ATOM     40  C   UNL A   1      43.483  24.747  26.697  1.00  0.00     0.060 A 
ATOM     41  C   UNL A   1      43.821  25.319  25.465  1.00  0.00     0.016 A 
ATOM     42  C   UNL A   1      43.902  25.329  27.895  1.00  0.00     0.016 A 
ATOM     43  C   UNL A   1      44.618  26.463  25.429  1.00  0.00     0.010 A 
ATOM     44  C   UNL A   1      44.713  26.462  27.857  1.00  0.00     0.010 A 
ATOM     45  C   UNL A   1      45.103  27.013  26.624  1.00  0.00    -0.014 A 
BRANCH  45  46
ATOM     46  C   UNL A   1      46.177  28.031  26.588  1.00  0.00     0.031 A 
ATOM     47  C   UNL A   1      45.782  29.479  26.676  1.00  0.00     0.074 A 
ATOM     48  C   UNL A   1      47.470  27.683  26.476  1.00  0.00     0.049 A 
ATOM     49  N   UNL A   1      46.530  30.549  26.611  1.00  0.00    -0.248 NA
ATOM     50  C   UNL A   1      44.347  29.754  26.856  1.00  0.00     0.031 C 
ATOM     51  C   UNL A   1      47.978  26.314  26.412  1.00  0.00     0.029 A 
ATOM     52  N   UNL A   1      48.592  28.466  26.382  1.00  0.00    -0.354 N 
ATOM     53  C   UNL A   1      45.658  31.622  26.738  1.00  0.00     0.074 A 
ATOM     54  C   UNL A   1      44.323  31.078  26.857  1.00  0.00     0.031 C 
ATOM     55  C   UNL A   1      49.316  26.354  26.278  1.00  0.00     0.029 A 
ATOM     56  C   UNL A   1      49.751  27.749  26.218  1.00  0.00     0.049 A 
ATOM     57  H   UNL A   1      48.569  29.449  26.429  1.00  0.00     0.167 HD
ATOM     58  C   UNL A   1      45.944  32.945  26.761  1.00  0.00     0.037 A 
ATOM     59  C   UNL A   1      51.013  28.177  26.020  1.00  0.00     0.037 A 
ATOM     60  C   UNL A   1      47.269  33.487  26.639  1.00  0.00     0.049 A 
ATOM     61  C   UNL A   1      51.296  29.657  25.976  1.00  0.00     0.074 A 
ATOM     62  C   UNL A   1      47.665  34.812  26.674  1.00  0.00     0.029 A 
ATOM     63  N   UNL A   1      48.414  32.729  26.448  1.00  0.00    -0.354 N 
ATOM     64  N   UNL A   1      50.471  30.664  26.135  1.00  0.00    -0.248 NA
ATOM     65  C   UNL A   1      52.688  30.059  25.722  1.00  0.00     0.031 C 
ATOM     66  C   UNL A   1      49.046  34.860  26.456  1.00  0.00     0.029 A 
ATOM     67  C   UNL A   1      49.516  33.561  26.336  1.00  0.00     0.049 A 
ATOM     68  H   UNL A   1      48.441  31.746  26.399  1.00  0.00     0.167 HD
ATOM     69  C   UNL A   1      51.247  31.814  26.037  1.00  0.00     0.074 A 
ATOM     70  C   UNL A   1      52.610  31.380  25.810  1.00  0.00     0.031 C 
ATOM     71  C   UNL A   1      50.867  33.111  26.127  1.00  0.00     0.037 A 
BRANCH  58  72
ATOM     72  C   UNL A   1      44.793  33.896  26.900  1.00  0.00     0.057 A 
ATOM     73  C   UNL A   1      44.076  34.356  25.789  1.00  0.00     0.134 A 
ATOM     74  C   UNL A   1      44.384  34.337  28.164  1.00  0.00     0.134 A 
ATOM     75  F   UNL A   1      44.430  33.985  24.549  1.00  0.00    -0.206 F 
ATOM     76  C   UNL A   1      43.001  35.235  25.929  1.00  0.00     0.040 A 
ATOM     77  C   UNL A   1      43.296  35.197  28.319  1.00  0.00     0.040 A 
ATOM     78  F   UNL A   1      45.030  33.934  29.268  1.00  0.00    -0.206 F 
ATOM     79  C   UNL A   1      42.605  35.652  27.198  1.00  0.00     0.006 A 
ENDBRANCH  58  72
BRANCH  59  80
ATOM     80  C   UNL A   1      52.116  27.199  25.835  1.00  0.00     0.057 A 
ATOM     81  C   UNL A   1      52.411  26.671  24.573  1.00  0.00     0.134 A 
ATOM     82  C   UNL A   1      52.870  26.736  26.921  1.00  0.00     0.134 A 
ATOM     83  F   UNL A   1      51.705  27.055  23.499  1.00  0.00    -0.206 F 
ATOM     84  C   UNL A   1      53.402  25.703  24.399  1.00  0.00     0.040 A 
ATOM     85  C   UNL A   1      53.879  25.786  26.756  1.00  0.00     0.040 A 
ATOM     86  F   UNL A   1      52.633  27.200  28.157  1.00  0.00    -0.206 F 
ATOM     87  C   UNL A   1      54.141  25.260  25.493  1.00  0.00     0.006 A 
ENDBRANCH  59  80
BRANCH  71  88
ATOM     88  C   UNL A   1      51.942  34.155  26.027  1.00  0.00     0.057 A 
ATOM     89  C   UNL A   1      52.589  34.662  27.160  1.00  0.00     0.134 A 
ATOM     90  C   UNL A   1      52.367  34.618  24.775  1.00  0.00     0.134 A 
ATOM     91  F   UNL A   1      52.221  34.267  28.388  1.00  0.00    -0.206 F 
ATOM     92  C   UNL A   1      53.608  35.612  27.053  1.00  0.00     0.040 A 
ATOM     93  C   UNL A   1      53.401  35.547  24.654  1.00  0.00     0.040 A 
ATOM     94  F   UNL A   1      51.796  34.164  23.650  1.00  0.00    -0.206 F 
ATOM     95  C   UNL A   1      54.021  36.049  25.795  1.00  0.00     0.006 A 
ENDBRANCH  71  88
ENDBRANCH  45  46
ENDBRANCH  38  40
ENDBRANCH  37  38
ENDBRANCH  36  37
ENDBRANCH  35  36
ENDBRANCH  34  35
ENDBRANCH  33  34
ENDBRANCH  32  33
ENDBRANCH  31  32
ENDBRANCH   1  31
TORSDOF 25
ENDMDL
MODEL 2
REMARK VINA RESULT:      -9.4      6.589     11.543
REMARK SMILES NS(=O)(=O)c1ccc(/N=N/c2ccc(O)c(C(=O)OCCOCCOCCOCCOC(=O)c3ccc(-c4c5nc(c(-c6c(F)cccc6F)c6ccc([nH]6)c(-c6c(F)cccc6F)c6nc(c(-c7c(F)cccc7F)c7ccc4[nH]7)C=C6)C=C5)cc3)c2)cc1
REMARK SMILES IDX 24 1 23 2 22 3 21 4 20 5 19 6 17 7 18 8 16 9 11 10 12 11
REMARK SMILES IDX 88 12 13 13 14 14 10 15 9 16 8 17 5 18 6 19 90 20 7 21 89 22
REMARK SMILES IDX 2 23 3 24 4 25 1 26 15 29 25 31 26 32 27 33 28 34 29 35
REMARK SMILES IDX 30 36 31 37 32 38 33 39 34 40 35 41 87 42 36 43 86 44 37 45
REMARK SMILES IDX 38 46 39 47 80 48 40 49 85 50 79 51 81 52 41 53 84 54 78 55
REMARK SMILES IDX 77 56 42 58 68 59 51 60 67 61 52 62 55 63 66 64 82 65 53 66
REMARK SMILES IDX 54 67 65 69 83 70 56 71 43 72 44 73 49 74 45 75 46 76 48 77
REMARK SMILES IDX 50 78 47 79 69 80 70 81 75 82 71 83 72 84 74 85 76 86 73 87
REMARK SMILES IDX 57 88 58 89 63 90 59 91 60 92 62 93 64 94 61 95
REMARK H PARENT 1 27 1 28 15 30 81 57 55 68
REMARK Flexibility Score: inf
ROOT
ATOM      1  C   UNL A   1      32.911  36.726  31.832  1.00  0.00     0.188 C 
ENDROOT
BRANCH   1   2
ATOM      2  C   UNL A   1      33.531  36.532  33.226  1.00  0.00     0.188 C 
BRANCH   2   3
ATOM      3  O   UNL A   1      34.811  35.905  33.194  1.00  0.00    -0.376 OA
BRANCH   3   4
ATOM      4  C   UNL A   1      34.823  34.488  33.290  1.00  0.00     0.202 C 
BRANCH   4   5
ATOM      5  C   UNL A   1      35.510  33.931  34.544  1.00  0.00     0.261 C 
BRANCH   5   6
ATOM      6  O   UNL A   1      36.327  32.768  34.336  1.00  0.00    -0.460 OA
BRANCH   6   7
ATOM      7  C   UNL A   1      37.379  32.577  35.157  1.00  0.00     0.342 C 
ATOM      8  O   UNL A   1      37.382  32.596  36.377  1.00  0.00    -0.246 OA
BRANCH   7   9
ATOM      9  C   UNL A   1      38.516  32.078  34.356  1.00  0.00     0.104 A 
ATOM     10  C   UNL A   1      40.399  30.563  34.080  1.00  0.00     0.087 A 
ATOM     11  C   UNL A   1      40.807  31.306  32.966  1.00  0.00     0.034 A 
ATOM     12  C   UNL A   1      39.258  30.971  34.785  1.00  0.00     0.049 A 
ATOM     13  C   UNL A   1      40.072  32.413  32.534  1.00  0.00     0.049 A 
ATOM     14  C   UNL A   1      38.920  32.789  33.219  1.00  0.00     0.130 A 
BRANCH  10  15
ATOM     15  N   UNL A   1      41.165  29.453  34.483  1.00  0.00    -0.151 NA
ATOM     16  N   UNL A   1      41.387  28.708  33.504  1.00  0.00    -0.151 NA
BRANCH  16  17
ATOM     17  C   UNL A   1      42.199  27.599  33.810  1.00  0.00     0.086 A 
ATOM     18  C   UNL A   1      43.599  25.237  34.394  1.00  0.00     0.082 A 
ATOM     19  C   UNL A   1      42.444  25.554  35.112  1.00  0.00     0.024 A 
ATOM     20  C   UNL A   1      44.083  26.101  33.411  1.00  0.00     0.024 A 
ATOM     21  C   UNL A   1      41.749  26.728  34.811  1.00  0.00     0.031 A 
ATOM     22  C   UNL A   1      43.380  27.277  33.122  1.00  0.00     0.031 A 
BRANCH  18  23
ATOM     23  S   UNL A   1      44.418  23.711  34.747  1.00  0.00     0.238 S 
ATOM     24  O   UNL A   1      44.475  23.550  36.178  1.00  0.00    -0.207 OA
ATOM     25  O   UNL A   1      45.583  23.606  33.899  1.00  0.00    -0.207 OA
BRANCH  23  26
ATOM     26  N   UNL A   1      43.359  22.531  34.188  1.00  0.00    -0.225 NA
ATOM     27  H   UNL A   1      43.570  22.320  33.212  1.00  0.00     0.137 HD
ATOM     28  H   UNL A   1      42.401  22.871  34.264  1.00  0.00     0.137 HD
ENDBRANCH  23  26
ENDBRANCH  18  23
ENDBRANCH  16  17
ENDBRANCH  10  15
BRANCH  14  29
ATOM     29  O   UNL A   1      38.265  33.897  32.754  1.00  0.00    -0.507 OA
ATOM     30  H   UNL A   1      38.057  34.598  33.340  1.00  0.00     0.293 HD
ENDBRANCH  14  29
ENDBRANCH   7   9
ENDBRANCH   6   7
ENDBRANCH   5   6
ENDBRANCH   4   5
ENDBRANCH   3   4
ENDBRANCH   2   3
ENDBRANCH   1   2
BRANCH   1  31
ATOM     31  O   UNL A   1      32.749  35.548  31.062  1.00  0.00    -0.377 OA
BRANCH  31  32
ATOM     32  C   UNL A   1      33.604  35.328  29.942  1.00  0.00     0.188 C 
BRANCH  32  33
ATOM     33  C   UNL A   1      33.109  34.695  28.620  1.00  0.00     0.188 C 
BRANCH  33  34
ATOM     34  O   UNL A   1      34.064  33.885  27.945  1.00  0.00    -0.376 OA
BRANCH  34  35
ATOM     35  C   UNL A   1      33.951  32.481  28.125  1.00  0.00     0.202 C 
BRANCH  35  36
ATOM     36  C   UNL A   1      35.288  31.746  28.000  1.00  0.00     0.261 C 
BRANCH  36  37
ATOM     37  O   UNL A   1      35.433  30.617  28.876  1.00  0.00    -0.460 OA
BRANCH  37  38
ATOM     38  C   UNL A   1      36.264  30.765  29.931  1.00  0.00     0.338 C 
ATOM     39  O   UNL A   1      35.997  31.215  31.030  1.00  0.00    -0.246 OA
BRANCH  38  40
ATOM     40  C   UNL A   1      37.542  30.119  29.585  1.00  0.00     0.060 A 
ATOM     41  C   UNL A   1      38.396  29.711  30.618  1.00  0.00     0.016 A 
ATOM     42  C   UNL A   1      37.891  29.919  28.248  1.00  0.00     0.016 A 
ATOM     43  C   UNL A   1      39.627  29.132  30.308  1.00  0.00     0.010 A 
ATOM     44  C   UNL A   1      39.129  29.356  27.941  1.00  0.00     0.010 A 
ATOM     45  C   UNL A   1      40.015  28.993  28.969  1.00  0.00    -0.014 A 
BRANCH  45  46
ATOM     46  C   UNL A   1      41.419  28.663  28.636  1.00  0.00     0.031 A 
ATOM     47  C   UNL A   1      41.742  27.245  28.256  1.00  0.00     0.074 A 
ATOM     48  C   UNL A   1      42.387  29.595  28.674  1.00  0.00     0.049 A 
ATOM     49  N   UNL A   1      42.897  26.701  27.977  1.00  0.00    -0.248 NA
ATOM     50  C   UNL A   1      40.603  26.313  28.186  1.00  0.00     0.031 C 
ATOM     51  C   UNL A   1      42.194  31.006  28.999  1.00  0.00     0.029 A 
ATOM     52  N   UNL A   1      43.735  29.480  28.447  1.00  0.00    -0.354 N 
ATOM     53  C   UNL A   1      42.627  25.367  27.703  1.00  0.00     0.074 A 
ATOM     54  C   UNL A   1      41.203  25.175  27.875  1.00  0.00     0.031 C 
ATOM     55  C   UNL A   1      43.387  31.627  28.961  1.00  0.00     0.029 A 
ATOM     56  C   UNL A   1      44.426  30.650  28.639  1.00  0.00     0.049 A 
ATOM     57  H   UNL A   1      44.166  28.638  28.173  1.00  0.00     0.167 HD
ATOM     58  C   UNL A   1      43.486  24.389  27.336  1.00  0.00     0.037 A 
ATOM     59  C   UNL A   1      45.750  30.894  28.579  1.00  0.00     0.037 A 
ATOM     60  C   UNL A   1      44.901  24.578  27.168  1.00  0.00     0.049 A 
ATOM     61  C   UNL A   1      46.696  29.770  28.239  1.00  0.00     0.074 A 
ATOM     62  C   UNL A   1      45.854  23.655  26.775  1.00  0.00     0.029 A 
ATOM     63  N   UNL A   1      45.567  25.772  27.396  1.00  0.00    -0.354 N 
ATOM     64  N   UNL A   1      46.428  28.521  27.944  1.00  0.00    -0.248 NA
ATOM     65  C   UNL A   1      48.131  30.092  28.224  1.00  0.00     0.031 C 
ATOM     66  C   UNL A   1      47.105  24.278  26.811  1.00  0.00     0.029 A 
ATOM     67  C   UNL A   1      46.925  25.603  27.178  1.00  0.00     0.049 A 
ATOM     68  H   UNL A   1      45.140  26.615  27.673  1.00  0.00     0.167 HD
ATOM     69  C   UNL A   1      47.652  27.919  27.676  1.00  0.00     0.074 A 
ATOM     70  C   UNL A   1      48.664  28.942  27.836  1.00  0.00     0.031 C 
ATOM     71  C   UNL A   1      47.916  26.636  27.327  1.00  0.00     0.037 A 
BRANCH  58  72
ATOM     72  C   UNL A   1      42.918  23.020  27.112  1.00  0.00     0.057 A 
ATOM     73  C   UNL A   1      42.608  22.165  28.177  1.00  0.00     0.134 A 
ATOM     74  C   UNL A   1      42.655  22.562  25.816  1.00  0.00     0.134 A 
ATOM     75  F   UNL A   1      42.853  22.538  29.442  1.00  0.00    -0.206 F 
ATOM     76  C   UNL A   1      42.071  20.895  27.960  1.00  0.00     0.040 A 
ATOM     77  C   UNL A   1      42.096  21.304  25.586  1.00  0.00     0.040 A 
ATOM     78  F   UNL A   1      42.930  23.332  24.752  1.00  0.00    -0.206 F 
ATOM     79  C   UNL A   1      41.808  20.465  26.661  1.00  0.00     0.006 A 
ENDBRANCH  58  72
BRANCH  59  80
ATOM     80  C   UNL A   1      46.276  32.254  28.858  1.00  0.00     0.057 A 
ATOM     81  C   UNL A   1      46.692  32.620  30.144  1.00  0.00     0.134 A 
ATOM     82  C   UNL A   1      46.332  33.234  27.859  1.00  0.00     0.134 A 
ATOM     83  F   UNL A   1      46.636  31.733  31.149  1.00  0.00    -0.206 F 
ATOM     84  C   UNL A   1      47.126  33.915  30.432  1.00  0.00     0.040 A 
ATOM     85  C   UNL A   1      46.786  34.526  28.128  1.00  0.00     0.040 A 
ATOM     86  F   UNL A   1      45.944  32.948  26.608  1.00  0.00    -0.206 F 
ATOM     87  C   UNL A   1      47.176  34.872  29.420  1.00  0.00     0.006 A 
ENDBRANCH  59  80
BRANCH  71  88
ATOM     88  C   UNL A   1      49.346  26.275  27.050  1.00  0.00     0.057 A 
ATOM     89  C   UNL A   1      50.216  25.860  28.065  1.00  0.00     0.134 A 
ATOM     90  C   UNL A   1      49.842  26.295  25.740  1.00  0.00     0.134 A 
ATOM     91  F   UNL A   1      49.805  25.829  29.342  1.00  0.00    -0.206 F 
ATOM     92  C   UNL A   1      51.536  25.498  27.791  1.00  0.00     0.040 A 
ATOM     93  C   UNL A   1      51.152  25.911  25.450  1.00  0.00     0.040 A 
ATOM     94  F   UNL A   1      49.058  26.673  24.719  1.00  0.00    -0.206 F 
ATOM     95  C   UNL A   1      52.004  25.516  26.478  1.00  0.00     0.006 A 
ENDBRANCH  71  88
ENDBRANCH  45  46
ENDBRANCH  38  40
ENDBRANCH  37  38
ENDBRANCH  36  37
ENDBRANCH  35  36
ENDBRANCH  34  35
ENDBRANCH  33  34
ENDBRANCH  32  33
ENDBRANCH  31  32
ENDBRANCH   1  31
TORSDOF 25
ENDMDL
MODEL 3
REMARK VINA RESULT:      -9.3      5.823      8.937
REMARK SMILES NS(=O)(=O)c1ccc(/N=N/c2ccc(O)c(C(=O)OCCOCCOCCOCCOC(=O)c3ccc(-c4c5nc(c(-c6c(F)cccc6F)c6ccc([nH]6)c(-c6c(F)cccc6F)c6nc(c(-c7c(F)cccc7F)c7ccc4[nH]7)C=C6)C=C5)cc3)c2)cc1
REMARK SMILES IDX 24 1 23 2 22 3 21 4 20 5 19 6 17 7 18 8 16 9 11 10 12 11
REMARK SMILES IDX 88 12 13 13 14 14 10 15 9 16 8 17 5 18 6 19 90 20 7 21 89 22
REMARK SMILES IDX 2 23 3 24 4 25 1 26 15 29 25 31 26 32 27 33 28 34 29 35
REMARK SMILES IDX 30 36 31 37 32 38 33 39 34 40 35 41 87 42 36 43 86 44 37 45
REMARK SMILES IDX 38 46 39 47 80 48 40 49 85 50 79 51 81 52 41 53 84 54 78 55
REMARK SMILES IDX 77 56 42 58 68 59 51 60 67 61 52 62 55 63 66 64 82 65 53 66
REMARK SMILES IDX 54 67 65 69 83 70 56 71 43 72 44 73 49 74 45 75 46 76 48 77
REMARK SMILES IDX 50 78 47 79 69 80 70 81 75 82 71 83 72 84 74 85 76 86 73 87
REMARK SMILES IDX 57 88 58 89 63 90 59 91 60 92 62 93 64 94 61 95
REMARK H PARENT 1 27 1 28 15 30 81 57 55 68
REMARK Flexibility Score: inf
ROOT
ATOM      1  C   UNL A   1      33.082  24.891  22.519  1.00  0.00     0.188 C 
ENDROOT
BRANCH   1   2
ATOM      2  C   UNL A   1      32.149  25.518  21.470  1.00  0.00     0.188 C 
BRANCH   2   3
ATOM      3  O   UNL A   1      31.608  26.773  21.873  1.00  0.00    -0.376 OA
BRANCH   3   4
ATOM      4  C   UNL A   1      31.709  27.091  23.253  1.00  0.00     0.202 C 
BRANCH   4   5
ATOM      5  C   UNL A   1      32.406  28.423  23.559  1.00  0.00     0.261 C 
BRANCH   5   6
ATOM      6  O   UNL A   1      31.858  29.170  24.658  1.00  0.00    -0.460 OA
BRANCH   6   7
ATOM      7  C   UNL A   1      31.955  28.643  25.895  1.00  0.00     0.342 C 
ATOM      8  O   UNL A   1      31.298  27.729  26.366  1.00  0.00    -0.246 OA
BRANCH   7   9
ATOM      9  C   UNL A   1      33.173  29.174  26.539  1.00  0.00     0.104 A 
ATOM     10  C   UNL A   1      34.357  30.991  27.641  1.00  0.00     0.087 A 
ATOM     11  C   UNL A   1      35.544  30.259  27.528  1.00  0.00     0.034 A 
ATOM     12  C   UNL A   1      33.174  30.447  27.122  1.00  0.00     0.049 A 
ATOM     13  C   UNL A   1      35.552  28.989  26.945  1.00  0.00     0.049 A 
ATOM     14  C   UNL A   1      34.365  28.441  26.466  1.00  0.00     0.130 A 
BRANCH  10  15
ATOM     15  N   UNL A   1      34.391  32.267  28.235  1.00  0.00    -0.151 NA
ATOM     16  N   UNL A   1      33.808  32.240  29.340  1.00  0.00    -0.151 NA
BRANCH  16  17
ATOM     17  C   UNL A   1      33.848  33.467  30.030  1.00  0.00     0.086 A 
ATOM     18  C   UNL A   1      33.657  35.918  31.385  1.00  0.00     0.082 A 
ATOM     19  C   UNL A   1      33.050  35.767  30.137  1.00  0.00     0.024 A 
ATOM     20  C   UNL A   1      34.387  34.872  31.950  1.00  0.00     0.024 A 
ATOM     21  C   UNL A   1      33.143  34.542  29.472  1.00  0.00     0.031 A 
ATOM     22  C   UNL A   1      34.478  33.651  31.271  1.00  0.00     0.031 A 
BRANCH  18  23
ATOM     23  S   UNL A   1      33.463  37.455  32.236  1.00  0.00     0.238 S 
ATOM     24  O   UNL A   1      33.028  38.446  31.284  1.00  0.00    -0.207 OA
ATOM     25  O   UNL A   1      34.602  37.649  33.104  1.00  0.00    -0.207 OA
BRANCH  23  26
ATOM     26  N   UNL A   1      32.162  37.199  33.268  1.00  0.00    -0.225 NA
ATOM     27  H   UNL A   1      31.436  36.677  32.776  1.00  0.00     0.137 HD
ATOM     28  H   UNL A   1      31.788  38.097  33.573  1.00  0.00     0.137 HD
ENDBRANCH  23  26
ENDBRANCH  18  23
ENDBRANCH  16  17
ENDBRANCH  10  15
BRANCH  14  29
ATOM     29  O   UNL A   1      34.451  27.204  25.887  1.00  0.00    -0.507 OA
ATOM     30  H   UNL A   1      35.287  26.860  25.641  1.00  0.00     0.293 HD
ENDBRANCH  14  29
ENDBRANCH   7   9
ENDBRANCH   6   7
ENDBRANCH   5   6
ENDBRANCH   4   5
ENDBRANCH   3   4
ENDBRANCH   2   3
ENDBRANCH   1   2
BRANCH   1  31
ATOM     31  O   UNL A   1      32.548  23.798  23.244  1.00  0.00    -0.377 OA
BRANCH  31  32
ATOM     32  C   UNL A   1      32.608  23.813  24.668  1.00  0.00     0.188 C 
BRANCH  32  33
ATOM     33  C   UNL A   1      33.135  22.619  25.499  1.00  0.00     0.188 C 
BRANCH  33  34
ATOM     34  O   UNL A   1      34.531  22.371  25.380  1.00  0.00    -0.376 OA
BRANCH  34  35
ATOM     35  C   UNL A   1      34.910  21.152  24.759  1.00  0.00     0.202 C 
BRANCH  35  36
ATOM     36  C   UNL A   1      36.428  20.960  24.683  1.00  0.00     0.261 C 
BRANCH  36  37
ATOM     37  O   UNL A   1      37.161  21.562  25.762  1.00  0.00    -0.460 OA
BRANCH  37  38
ATOM     38  C   UNL A   1      38.474  21.258  25.853  1.00  0.00     0.338 C 
ATOM     39  O   UNL A   1      39.045  20.286  25.396  1.00  0.00    -0.246 OA
BRANCH  38  40
ATOM     40  C   UNL A   1      39.156  22.411  26.466  1.00  0.00     0.060 A 
ATOM     41  C   UNL A   1      38.604  23.688  26.304  1.00  0.00     0.016 A 
ATOM     42  C   UNL A   1      40.332  22.227  27.195  1.00  0.00     0.016 A 
ATOM     43  C   UNL A   1      39.256  24.797  26.846  1.00  0.00     0.010 A 
ATOM     44  C   UNL A   1      40.991  23.338  27.721  1.00  0.00     0.010 A 
ATOM     45  C   UNL A   1      40.475  24.629  27.518  1.00  0.00    -0.014 A 
BRANCH  45  46
ATOM     46  C   UNL A   1      41.316  25.806  27.831  1.00  0.00     0.031 A 
ATOM     47  C   UNL A   1      40.718  26.898  28.674  1.00  0.00     0.074 A 
ATOM     48  C   UNL A   1      42.576  25.909  27.376  1.00  0.00     0.049 A 
ATOM     49  N   UNL A   1      41.232  28.045  29.035  1.00  0.00    -0.248 NA
ATOM     50  C   UNL A   1      39.352  26.665  29.172  1.00  0.00     0.031 C 
ATOM     51  C   UNL A   1      43.274  24.905  26.576  1.00  0.00     0.029 A 
ATOM     52  N   UNL A   1      43.487  26.925  27.517  1.00  0.00    -0.354 N 
ATOM     53  C   UNL A   1      40.254  28.670  29.797  1.00  0.00     0.074 A 
ATOM     54  C   UNL A   1      39.106  27.789  29.825  1.00  0.00     0.031 C 
ATOM     55  C   UNL A   1      44.506  25.362  26.287  1.00  0.00     0.029 A 
ATOM     56  C   UNL A   1      44.669  26.699  26.856  1.00  0.00     0.049 A 
ATOM     57  H   UNL A   1      43.311  27.738  28.042  1.00  0.00     0.167 HD
ATOM     58  C   UNL A   1      40.308  29.868  30.423  1.00  0.00     0.037 A 
ATOM     59  C   UNL A   1      45.747  27.494  26.713  1.00  0.00     0.037 A 
ATOM     60  C   UNL A   1      41.447  30.745  30.393  1.00  0.00     0.049 A 
ATOM     61  C   UNL A   1      45.754  28.856  27.360  1.00  0.00     0.074 A 
ATOM     62  C   UNL A   1      41.608  31.970  31.015  1.00  0.00     0.029 A 
ATOM     63  N   UNL A   1      42.615  30.492  29.691  1.00  0.00    -0.354 N 
ATOM     64  N   UNL A   1      44.841  29.422  28.110  1.00  0.00    -0.248 NA
ATOM     65  C   UNL A   1      46.946  29.689  27.137  1.00  0.00     0.031 C 
ATOM     66  C   UNL A   1      42.858  32.481  30.651  1.00  0.00     0.029 A 
ATOM     67  C   UNL A   1      43.494  31.551  29.843  1.00  0.00     0.049 A 
ATOM     68  H   UNL A   1      42.794  29.680  29.163  1.00  0.00     0.167 HD
ATOM     69  C   UNL A   1      45.359  30.659  28.477  1.00  0.00     0.074 A 
ATOM     70  C   UNL A   1      46.671  30.758  27.872  1.00  0.00     0.031 C 
ATOM     71  C   UNL A   1      44.802  31.626  29.246  1.00  0.00     0.037 A 
BRANCH  58  72
ATOM     72  C   UNL A   1      39.089  30.308  31.176  1.00  0.00     0.057 A 
ATOM     73  C   UNL A   1      38.067  31.044  30.564  1.00  0.00     0.134 A 
ATOM     74  C   UNL A   1      38.925  29.968  32.525  1.00  0.00     0.134 A 
ATOM     75  F   UNL A   1      38.174  31.417  29.280  1.00  0.00    -0.206 F 
ATOM     76  C   UNL A   1      36.932  31.442  31.271  1.00  0.00     0.040 A 
ATOM     77  C   UNL A   1      37.782  30.339  33.236  1.00  0.00     0.040 A 
ATOM     78  F   UNL A   1      39.867  29.264  33.170  1.00  0.00    -0.206 F 
ATOM     79  C   UNL A   1      36.784  31.083  32.609  1.00  0.00     0.006 A 
ENDBRANCH  58  72
BRANCH  59  80
ATOM     80  C   UNL A   1      46.913  27.039  25.915  1.00  0.00     0.057 A 
ATOM     81  C   UNL A   1      47.918  26.249  26.486  1.00  0.00     0.134 A 
ATOM     82  C   UNL A   1      47.076  27.420  24.577  1.00  0.00     0.134 A 
ATOM     83  F   UNL A   1      47.833  25.875  27.771  1.00  0.00    -0.206 F 
ATOM     84  C   UNL A   1      49.051  25.871  25.764  1.00  0.00     0.040 A 
ATOM     85  C   UNL A   1      48.192  27.029  23.836  1.00  0.00     0.040 A 
ATOM     86  F   UNL A   1      46.151  28.180  23.972  1.00  0.00    -0.206 F 
ATOM     87  C   UNL A   1      49.189  26.259  24.432  1.00  0.00     0.006 A 
ENDBRANCH  59  80
BRANCH  71  88
ATOM     88  C   UNL A   1      45.622  32.854  29.517  1.00  0.00     0.057 A 
ATOM     89  C   UNL A   1      45.538  33.994  28.709  1.00  0.00     0.134 A 
ATOM     90  C   UNL A   1      46.469  32.910  30.632  1.00  0.00     0.134 A 
ATOM     91  F   UNL A   1      44.753  34.000  27.620  1.00  0.00    -0.206 F 
ATOM     92  C   UNL A   1      46.284  35.141  28.987  1.00  0.00     0.040 A 
ATOM     93  C   UNL A   1      47.199  34.060  30.935  1.00  0.00     0.040 A 
ATOM     94  F   UNL A   1      46.587  31.856  31.452  1.00  0.00    -0.206 F 
ATOM     95  C   UNL A   1      47.111  35.177  30.109  1.00  0.00     0.006 A 
ENDBRANCH  71  88
ENDBRANCH  45  46
ENDBRANCH  38  40
ENDBRANCH  37  38
ENDBRANCH  36  37
ENDBRANCH  35  36
ENDBRANCH  34  35
ENDBRANCH  33  34
ENDBRANCH  32  33
ENDBRANCH  31  32
ENDBRANCH   1  31
TORSDOF 25
ENDMDL
