MODEL 1
REMARK VINA RESULT:     -10.7      0.000      0.000
REMARK SMILES CCN(CC)S(=O)(=O)c1cccc(C(=O)N2C[C@H](O)C[C@H]2C(=O)OCCOCCOCCOCCOC(=O)c2ccc(-c3c4nc(c(-c5c(F)cccc5F)c5ccc([nH]5)c(-c5c(F)cccc5F)c5nc(c(-c6c(F)cccc6F)c6ccc3[nH]6)C=C5)C=C4)cc2)c1
REMARK SMILES IDX 28 1 27 2 26 3 25 4 24 5 22 6 23 7 21 8 16 9 17 10 18 11
REMARK SMILES IDX 20 12 14 13 15 14 13 15 9 16 10 17 93 18 11 19 12 20 6 21
REMARK SMILES IDX 7 22 8 23 3 24 2 25 1 26 4 27 5 28 19 29 29 31 30 32 31 33
REMARK SMILES IDX 32 34 33 35 34 36 35 37 36 38 37 39 38 40 39 41 40 42 92 43
REMARK SMILES IDX 41 44 91 45 42 46 43 47 44 48 85 49 45 50 90 51 84 52 86 53
REMARK SMILES IDX 46 54 89 55 83 56 82 57 47 59 73 60 56 61 72 62 57 63 60 64
REMARK SMILES IDX 71 65 87 66 58 67 59 68 70 70 88 71 61 72 48 73 49 74 54 75
REMARK SMILES IDX 50 76 51 77 53 78 55 79 52 80 74 81 75 82 80 83 76 84 77 85
REMARK SMILES IDX 79 86 81 87 78 88 62 89 63 90 68 91 64 92 65 93 67 94 69 95
REMARK SMILES IDX 66 96
REMARK H PARENT 19 30 86 58 60 69
REMARK Flexibility Score: inf
ROOT
ATOM      1  C   UNL A   1      40.745  20.856  26.371  1.00  0.00     0.188 C 
ENDROOT
BRANCH   1   2
ATOM      2  O   UNL A   1      39.703  21.796  26.559  1.00  0.00    -0.376 OA
BRANCH   2   3
ATOM      3  C   UNL A   1      38.518  21.723  25.771  1.00  0.00     0.202 C 
BRANCH   3   4
ATOM      4  C   UNL A   1      37.661  22.973  25.509  1.00  0.00     0.261 C 
BRANCH   4   5
ATOM      5  O   UNL A   1      36.227  22.767  25.601  1.00  0.00    -0.462 OA
BRANCH   5   6
ATOM      6  C   UNL A   1      35.772  21.699  24.914  1.00  0.00     0.329 C 
ATOM      7  O   UNL A   1      36.519  20.808  24.496  1.00  0.00    -0.250 OA
BRANCH   6   8
ATOM      8  C   UNL A   1      34.251  21.543  24.698  1.00  0.00     0.198 C 
ATOM      9  N   UNL A   1      33.316  21.708  23.556  1.00  0.00    -0.322 N 
ATOM     10  C   UNL A   1      32.551  20.494  23.308  1.00  0.00     0.152 C 
ATOM     11  C   UNL A   1      32.639  19.739  24.625  1.00  0.00     0.136 C 
ATOM     12  C   UNL A   1      34.046  20.045  25.070  1.00  0.00     0.071 C 
BRANCH   9  13
ATOM     13  C   UNL A   1      33.008  22.891  22.914  1.00  0.00     0.254 C 
ATOM     14  O   UNL A   1      33.469  23.111  21.797  1.00  0.00    -0.269 OA
BRANCH  13  15
ATOM     15  C   UNL A   1      32.028  23.886  23.520  1.00  0.00     0.041 A 
ATOM     16  C   UNL A   1      30.683  25.941  23.601  1.00  0.00     0.083 A 
ATOM     17  C   UNL A   1      30.201  25.587  24.867  1.00  0.00     0.022 A 
ATOM     18  C   UNL A   1      31.589  25.087  22.931  1.00  0.00     0.035 A 
ATOM     19  C   UNL A   1      30.647  24.418  25.476  1.00  0.00     0.002 A 
ATOM     20  C   UNL A   1      31.564  23.592  24.816  1.00  0.00     0.014 A 
BRANCH  16  21
ATOM     21  S   UNL A   1      30.391  27.633  23.046  1.00  0.00     0.243 S 
ATOM     22  O   UNL A   1      29.047  27.974  23.459  1.00  0.00    -0.207 OA
ATOM     23  O   UNL A   1      30.739  27.655  21.640  1.00  0.00    -0.207 OA
BRANCH  21  24
ATOM     24  N   UNL A   1      31.496  28.673  23.857  1.00  0.00    -0.198 NA
BRANCH  24  25
ATOM     25  C   UNL A   1      32.616  29.207  22.993  1.00  0.00     0.099 C 
ATOM     26  C   UNL A   1      33.945  28.501  23.154  1.00  0.00     0.022 C 
ENDBRANCH  24  25
BRANCH  24  27
ATOM     27  C   UNL A   1      30.925  29.806  24.648  1.00  0.00     0.099 C 
ATOM     28  C   UNL A   1      31.802  30.244  25.817  1.00  0.00     0.022 C 
ENDBRANCH  24  27
ENDBRANCH  21  24
ENDBRANCH  16  21
ENDBRANCH  13  15
ENDBRANCH   9  13
BRANCH  11  29
ATOM     29  O   UNL A   1      31.746  20.259  25.602  1.00  0.00    -0.391 OA
ATOM     30  H   UNL A   1      31.857  19.774  26.434  1.00  0.00     0.211 HD
ENDBRANCH  11  29
ENDBRANCH   6   8
ENDBRANCH   5   6
ENDBRANCH   4   5
ENDBRANCH   3   4
ENDBRANCH   2   3
ENDBRANCH   1   2
BRANCH   1  31
ATOM     31  C   UNL A   1      41.518  20.396  27.608  1.00  0.00     0.188 C 
BRANCH  31  32
ATOM     32  O   UNL A   1      42.329  19.248  27.443  1.00  0.00    -0.377 OA
BRANCH  32  33
ATOM     33  C   UNL A   1      42.390  18.604  26.167  1.00  0.00     0.188 C 
BRANCH  33  34
ATOM     34  C   UNL A   1      43.668  18.771  25.337  1.00  0.00     0.188 C 
BRANCH  34  35
ATOM     35  O   UNL A   1      43.780  19.968  24.559  1.00  0.00    -0.376 OA
BRANCH  35  36
ATOM     36  C   UNL A   1      44.867  20.847  24.838  1.00  0.00     0.202 C 
BRANCH  36  37
ATOM     37  C   UNL A   1      44.539  21.986  25.802  1.00  0.00     0.261 C 
BRANCH  37  38
ATOM     38  O   UNL A   1      43.646  22.948  25.217  1.00  0.00    -0.460 OA
BRANCH  38  39
ATOM     39  C   UNL A   1      44.130  24.210  25.159  1.00  0.00     0.338 C 
ATOM     40  O   UNL A   1      45.093  24.602  24.518  1.00  0.00    -0.246 OA
BRANCH  39  41
ATOM     41  C   UNL A   1      43.258  25.135  25.908  1.00  0.00     0.060 A 
ATOM     42  C   UNL A   1      43.677  26.466  26.024  1.00  0.00     0.016 A 
ATOM     43  C   UNL A   1      42.123  24.686  26.588  1.00  0.00     0.016 A 
ATOM     44  C   UNL A   1      43.013  27.333  26.887  1.00  0.00     0.010 A 
ATOM     45  C   UNL A   1      41.461  25.554  27.461  1.00  0.00     0.010 A 
ATOM     46  C   UNL A   1      41.938  26.862  27.653  1.00  0.00    -0.014 A 
BRANCH  46  47
ATOM     47  C   UNL A   1      41.474  27.664  28.808  1.00  0.00     0.031 A 
ATOM     48  C   UNL A   1      42.229  27.549  30.106  1.00  0.00     0.074 A 
ATOM     49  C   UNL A   1      40.442  28.516  28.693  1.00  0.00     0.049 A 
ATOM     50  N   UNL A   1      42.002  28.130  31.255  1.00  0.00    -0.248 NA
ATOM     51  C   UNL A   1      43.402  26.657  30.104  1.00  0.00     0.031 C 
ATOM     52  C   UNL A   1      39.670  28.749  27.474  1.00  0.00     0.029 A 
ATOM     53  N   UNL A   1      39.866  29.343  29.623  1.00  0.00    -0.354 N 
ATOM     54  C   UNL A   1      42.998  27.672  32.111  1.00  0.00     0.074 A 
ATOM     55  C   UNL A   1      43.812  26.743  31.360  1.00  0.00     0.031 C 
ATOM     56  C   UNL A   1      38.712  29.657  27.735  1.00  0.00     0.029 A 
ATOM     57  C   UNL A   1      38.786  30.042  29.142  1.00  0.00     0.049 A 
ATOM     58  H   UNL A   1      40.195  29.427  30.547  1.00  0.00     0.167 HD
ATOM     59  C   UNL A   1      43.221  28.007  33.403  1.00  0.00     0.037 A 
ATOM     60  C   UNL A   1      37.946  30.881  29.778  1.00  0.00     0.037 A 
ATOM     61  C   UNL A   1      42.409  28.931  34.146  1.00  0.00     0.049 A 
ATOM     62  C   UNL A   1      38.171  31.178  31.239  1.00  0.00     0.074 A 
ATOM     63  C   UNL A   1      42.542  29.335  35.463  1.00  0.00     0.029 A 
ATOM     64  N   UNL A   1      41.305  29.596  33.633  1.00  0.00    -0.354 N 
ATOM     65  N   UNL A   1      39.118  30.748  32.036  1.00  0.00    -0.248 NA
ATOM     66  C   UNL A   1      37.209  32.082  31.885  1.00  0.00     0.031 C 
ATOM     67  C   UNL A   1      41.495  30.214  35.758  1.00  0.00     0.029 A 
ATOM     68  C   UNL A   1      40.739  30.395  34.611  1.00  0.00     0.049 A 
ATOM     69  H   UNL A   1      40.974  29.512  32.709  1.00  0.00     0.167 HD
ATOM     70  C   UNL A   1      38.888  31.354  33.265  1.00  0.00     0.074 A 
ATOM     71  C   UNL A   1      37.715  32.188  33.105  1.00  0.00     0.031 C 
ATOM     72  C   UNL A   1      39.583  31.233  34.422  1.00  0.00     0.037 A 
BRANCH  59  73
ATOM     73  C   UNL A   1      44.377  27.350  34.099  1.00  0.00     0.057 A 
ATOM     74  C   UNL A   1      44.253  26.096  34.711  1.00  0.00     0.134 A 
ATOM     75  C   UNL A   1      45.634  27.966  34.133  1.00  0.00     0.134 A 
ATOM     76  F   UNL A   1      43.072  25.461  34.729  1.00  0.00    -0.206 F 
ATOM     77  C   UNL A   1      45.336  25.486  35.349  1.00  0.00     0.040 A 
ATOM     78  C   UNL A   1      46.730  27.356  34.746  1.00  0.00     0.040 A 
ATOM     79  F   UNL A   1      45.820  29.166  33.564  1.00  0.00    -0.206 F 
ATOM     80  C   UNL A   1      46.581  26.114  35.361  1.00  0.00     0.006 A 
ENDBRANCH  59  73
BRANCH  60  81
ATOM     81  C   UNL A   1      36.806  31.492  29.050  1.00  0.00     0.057 A 
ATOM     82  C   UNL A   1      36.836  32.833  28.647  1.00  0.00     0.134 A 
ATOM     83  C   UNL A   1      35.646  30.761  28.771  1.00  0.00     0.134 A 
ATOM     84  F   UNL A   1      37.910  33.592  28.906  1.00  0.00    -0.206 F 
ATOM     85  C   UNL A   1      35.745  33.430  28.012  1.00  0.00     0.040 A 
ATOM     86  C   UNL A   1      34.557  31.339  28.115  1.00  0.00     0.040 A 
ATOM     87  F   UNL A   1      35.553  29.473  29.130  1.00  0.00    -0.206 F 
ATOM     88  C   UNL A   1      34.601  32.680  27.741  1.00  0.00     0.006 A 
ENDBRANCH  60  81
BRANCH  72  89
ATOM     89  C   UNL A   1      39.127  32.060  35.589  1.00  0.00     0.057 A 
ATOM     90  C   UNL A   1      38.323  31.528  36.605  1.00  0.00     0.134 A 
ATOM     91  C   UNL A   1      39.538  33.392  35.718  1.00  0.00     0.134 A 
ATOM     92  F   UNL A   1      37.887  30.262  36.534  1.00  0.00    -0.206 F 
ATOM     93  C   UNL A   1      37.925  32.301  37.696  1.00  0.00     0.040 A 
ATOM     94  C   UNL A   1      39.168  34.167  36.817  1.00  0.00     0.040 A 
ATOM     95  F   UNL A   1      40.320  33.957  34.785  1.00  0.00    -0.206 F 
ATOM     96  C   UNL A   1      38.353  33.623  37.808  1.00  0.00     0.006 A 
ENDBRANCH  72  89
ENDBRANCH  46  47
ENDBRANCH  39  41
ENDBRANCH  38  39
ENDBRANCH  37  38
ENDBRANCH  36  37
ENDBRANCH  35  36
ENDBRANCH  34  35
ENDBRANCH  33  34
ENDBRANCH  32  33
ENDBRANCH  31  32
ENDBRANCH   1  31
TORSDOF 27
ENDMDL
MODEL 2
REMARK VINA RESULT:      -9.9      4.423     10.017
REMARK SMILES CCN(CC)S(=O)(=O)c1cccc(C(=O)N2C[C@H](O)C[C@H]2C(=O)OCCOCCOCCOCCOC(=O)c2ccc(-c3c4nc(c(-c5c(F)cccc5F)c5ccc([nH]5)c(-c5c(F)cccc5F)c5nc(c(-c6c(F)cccc6F)c6ccc3[nH]6)C=C5)C=C4)cc2)c1
REMARK SMILES IDX 28 1 27 2 26 3 25 4 24 5 22 6 23 7 21 8 16 9 17 10 18 11
REMARK SMILES IDX 20 12 14 13 15 14 13 15 9 16 10 17 93 18 11 19 12 20 6 21
REMARK SMILES IDX 7 22 8 23 3 24 2 25 1 26 4 27 5 28 19 29 29 31 30 32 31 33
REMARK SMILES IDX 32 34 33 35 34 36 35 37 36 38 37 39 38 40 39 41 40 42 92 43
REMARK SMILES IDX 41 44 91 45 42 46 43 47 44 48 85 49 45 50 90 51 84 52 86 53
REMARK SMILES IDX 46 54 89 55 83 56 82 57 47 59 73 60 56 61 72 62 57 63 60 64
REMARK SMILES IDX 71 65 87 66 58 67 59 68 70 70 88 71 61 72 48 73 49 74 54 75
REMARK SMILES IDX 50 76 51 77 53 78 55 79 52 80 74 81 75 82 80 83 76 84 77 85
REMARK SMILES IDX 79 86 81 87 78 88 62 89 63 90 68 91 64 92 65 93 67 94 69 95
REMARK SMILES IDX 66 96
REMARK H PARENT 19 30 86 58 60 69
REMARK Flexibility Score: inf
ROOT
ATOM      1  C   UNL A   1      31.323  27.445  26.751  1.00  0.00     0.188 C 
ENDROOT
BRANCH   1   2
ATOM      2  O   UNL A   1      31.269  26.034  26.635  1.00  0.00    -0.376 OA
BRANCH   2   3
ATOM      3  C   UNL A   1      30.295  25.419  25.796  1.00  0.00     0.202 C 
BRANCH   3   4
ATOM      4  C   UNL A   1      29.287  26.265  25.000  1.00  0.00     0.261 C 
BRANCH   4   5
ATOM      5  O   UNL A   1      29.443  26.215  23.558  1.00  0.00    -0.462 OA
BRANCH   5   6
ATOM      6  C   UNL A   1      30.160  27.235  23.040  1.00  0.00     0.329 C 
ATOM      7  O   UNL A   1      29.632  28.237  22.547  1.00  0.00    -0.250 OA
BRANCH   6   8
ATOM      8  C   UNL A   1      31.700  27.183  23.125  1.00  0.00     0.198 C 
ATOM      9  N   UNL A   1      32.807  26.835  22.197  1.00  0.00    -0.322 N 
ATOM     10  C   UNL A   1      33.763  27.925  22.067  1.00  0.00     0.152 C 
ATOM     11  C   UNL A   1      33.527  28.761  23.315  1.00  0.00     0.136 C 
ATOM     12  C   UNL A   1      32.031  28.663  23.481  1.00  0.00     0.071 C 
BRANCH   9  13
ATOM     13  C   UNL A   1      33.069  25.587  21.669  1.00  0.00     0.254 C 
ATOM     14  O   UNL A   1      33.338  25.479  20.475  1.00  0.00    -0.269 OA
BRANCH  13  15
ATOM     15  C   UNL A   1      33.130  24.350  22.555  1.00  0.00     0.041 A 
ATOM     16  C   UNL A   1      33.648  23.075  24.591  1.00  0.00     0.083 A 
ATOM     17  C   UNL A   1      33.149  21.908  23.999  1.00  0.00     0.022 A 
ATOM     18  C   UNL A   1      33.630  24.291  23.870  1.00  0.00     0.035 A 
ATOM     19  C   UNL A   1      32.677  21.943  22.690  1.00  0.00     0.002 A 
ATOM     20  C   UNL A   1      32.689  23.147  21.975  1.00  0.00     0.014 A 
BRANCH  16  21
ATOM     21  S   UNL A   1      34.602  22.890  26.111  1.00  0.00     0.243 S 
ATOM     22  O   UNL A   1      34.056  21.743  26.802  1.00  0.00    -0.207 OA
ATOM     23  O   UNL A   1      34.585  24.191  26.751  1.00  0.00    -0.207 OA
BRANCH  21  24
ATOM     24  N   UNL A   1      36.237  22.554  25.694  1.00  0.00    -0.198 NA
BRANCH  24  25
ATOM     25  C   UNL A   1      36.414  21.533  24.593  1.00  0.00     0.099 C 
ATOM     26  C   UNL A   1      37.564  20.569  24.790  1.00  0.00     0.022 C 
ENDBRANCH  24  25
BRANCH  24  27
ATOM     27  C   UNL A   1      37.131  23.718  25.410  1.00  0.00     0.099 C 
ATOM     28  C   UNL A   1      38.320  23.827  26.359  1.00  0.00     0.022 C 
ENDBRANCH  24  27
ENDBRANCH  21  24
ENDBRANCH  16  21
ENDBRANCH  13  15
ENDBRANCH   9  13
BRANCH  11  29
ATOM     29  O   UNL A   1      34.136  28.190  24.466  1.00  0.00    -0.391 OA
ATOM     30  H   UNL A   1      33.923  27.246  24.511  1.00  0.00     0.211 HD
ENDBRANCH  11  29
ENDBRANCH   6   8
ENDBRANCH   5   6
ENDBRANCH   4   5
ENDBRANCH   3   4
ENDBRANCH   2   3
ENDBRANCH   1   2
BRANCH   1  31
ATOM     31  C   UNL A   1      32.492  28.048  27.531  1.00  0.00     0.188 C 
BRANCH  31  32
ATOM     32  O   UNL A   1      32.982  29.288  27.056  1.00  0.00    -0.377 OA
BRANCH  32  33
ATOM     33  C   UNL A   1      33.922  30.024  27.844  1.00  0.00     0.188 C 
BRANCH  33  34
ATOM     34  C   UNL A   1      34.701  31.156  27.165  1.00  0.00     0.188 C 
BRANCH  34  35
ATOM     35  O   UNL A   1      35.214  32.187  28.014  1.00  0.00    -0.376 OA
BRANCH  35  36
ATOM     36  C   UNL A   1      34.343  32.740  28.998  1.00  0.00     0.202 C 
BRANCH  36  37
ATOM     37  C   UNL A   1      34.872  32.679  30.430  1.00  0.00     0.261 C 
BRANCH  37  38
ATOM     38  O   UNL A   1      35.593  31.463  30.688  1.00  0.00    -0.460 OA
BRANCH  38  39
ATOM     39  C   UNL A   1      36.768  31.626  31.337  1.00  0.00     0.338 C 
ATOM     40  O   UNL A   1      36.974  32.308  32.329  1.00  0.00    -0.246 OA
BRANCH  39  41
ATOM     41  C   UNL A   1      37.809  30.760  30.751  1.00  0.00     0.060 A 
ATOM     42  C   UNL A   1      38.599  30.012  31.632  1.00  0.00     0.016 A 
ATOM     43  C   UNL A   1      38.092  30.775  29.383  1.00  0.00     0.016 A 
ATOM     44  C   UNL A   1      39.725  29.343  31.163  1.00  0.00     0.010 A 
ATOM     45  C   UNL A   1      39.228  30.111  28.912  1.00  0.00     0.010 A 
ATOM     46  C   UNL A   1      40.076  29.439  29.810  1.00  0.00    -0.014 A 
BRANCH  46  47
ATOM     47  C   UNL A   1      41.439  29.038  29.392  1.00  0.00     0.031 A 
ATOM     48  C   UNL A   1      41.648  27.629  28.902  1.00  0.00     0.074 A 
ATOM     49  C   UNL A   1      42.454  29.918  29.393  1.00  0.00     0.049 A 
ATOM     50  N   UNL A   1      42.747  27.041  28.506  1.00  0.00    -0.248 NA
ATOM     51  C   UNL A   1      40.454  26.769  28.852  1.00  0.00     0.031 C 
ATOM     52  C   UNL A   1      42.358  31.318  29.796  1.00  0.00     0.029 A 
ATOM     53  N   UNL A   1      43.770  29.754  29.044  1.00  0.00    -0.354 N 
ATOM     54  C   UNL A   1      42.376  25.745  28.164  1.00  0.00     0.074 A 
ATOM     55  C   UNL A   1      40.960  25.622  28.428  1.00  0.00     0.031 C 
ATOM     56  C   UNL A   1      43.571  31.888  29.679  1.00  0.00     0.029 A 
ATOM     57  C   UNL A   1      44.530  30.884  29.222  1.00  0.00     0.049 A 
ATOM     58  H   UNL A   1      44.135  28.908  28.699  1.00  0.00     0.167 HD
ATOM     59  C   UNL A   1      43.146  24.751  27.662  1.00  0.00     0.037 A 
ATOM     60  C   UNL A   1      45.852  31.073  29.054  1.00  0.00     0.037 A 
ATOM     61  C   UNL A   1      44.554  24.877  27.401  1.00  0.00     0.049 A 
ATOM     62  C   UNL A   1      46.702  29.927  28.567  1.00  0.00     0.074 A 
ATOM     63  C   UNL A   1      45.429  23.930  26.901  1.00  0.00     0.029 A 
ATOM     64  N   UNL A   1      45.294  26.030  27.624  1.00  0.00    -0.354 N 
ATOM     65  N   UNL A   1      46.342  28.709  28.239  1.00  0.00    -0.248 NA
ATOM     66  C   UNL A   1      48.142  30.184  28.423  1.00  0.00     0.031 C 
ATOM     67  C   UNL A   1      46.707  24.497  26.858  1.00  0.00     0.029 A 
ATOM     68  C   UNL A   1      46.618  25.811  27.286  1.00  0.00     0.049 A 
ATOM     69  H   UNL A   1      44.931  26.876  27.971  1.00  0.00     0.167 HD
ATOM     70  C   UNL A   1      47.501  28.068  27.819  1.00  0.00     0.074 A 
ATOM     71  C   UNL A   1      48.574  29.035  27.926  1.00  0.00     0.031 C 
ATOM     72  C   UNL A   1      47.665  26.796  27.383  1.00  0.00     0.037 A 
BRANCH  59  73
ATOM     73  C   UNL A   1      42.482  23.434  27.386  1.00  0.00     0.057 A 
ATOM     74  C   UNL A   1      42.125  23.045  26.089  1.00  0.00     0.134 A 
ATOM     75  C   UNL A   1      42.221  22.534  28.427  1.00  0.00     0.134 A 
ATOM     76  F   UNL A   1      42.332  23.869  25.050  1.00  0.00    -0.206 F 
ATOM     77  C   UNL A   1      41.515  21.814  25.838  1.00  0.00     0.040 A 
ATOM     78  C   UNL A   1      41.634  21.290  28.186  1.00  0.00     0.040 A 
ATOM     79  F   UNL A   1      42.539  22.845  29.692  1.00  0.00    -0.206 F 
ATOM     80  C   UNL A   1      41.274  20.930  26.889  1.00  0.00     0.006 A 
ENDBRANCH  59  73
BRANCH  60  81
ATOM     81  C   UNL A   1      46.465  32.390  29.357  1.00  0.00     0.057 A 
ATOM     82  C   UNL A   1      47.019  32.661  30.614  1.00  0.00     0.134 A 
ATOM     83  C   UNL A   1      46.479  33.421  28.410  1.00  0.00     0.134 A 
ATOM     84  F   UNL A   1      47.015  31.723  31.571  1.00  0.00    -0.206 F 
ATOM     85  C   UNL A   1      47.546  33.917  30.925  1.00  0.00     0.040 A 
ATOM     86  C   UNL A   1      47.024  34.673  28.700  1.00  0.00     0.040 A 
ATOM     87  F   UNL A   1      45.963  33.227  27.189  1.00  0.00    -0.206 F 
ATOM     88  C   UNL A   1      47.553  34.927  29.963  1.00  0.00     0.006 A 
ENDBRANCH  60  81
BRANCH  72  89
ATOM     89  C   UNL A   1      49.041  26.392  26.939  1.00  0.00     0.057 A 
ATOM     90  C   UNL A   1      49.966  25.818  27.820  1.00  0.00     0.134 A 
ATOM     91  C   UNL A   1      49.426  26.538  25.600  1.00  0.00     0.134 A 
ATOM     92  F   UNL A   1      49.661  25.661  29.117  1.00  0.00    -0.206 F 
ATOM     93  C   UNL A   1      51.233  25.426  27.390  1.00  0.00     0.040 A 
ATOM     94  C   UNL A   1      50.681  26.126  25.153  1.00  0.00     0.040 A 
ATOM     95  F   UNL A   1      48.582  27.069  24.702  1.00  0.00    -0.206 F 
ATOM     96  C   UNL A   1      51.592  25.572  26.051  1.00  0.00     0.006 A 
ENDBRANCH  72  89
ENDBRANCH  46  47
ENDBRANCH  39  41
ENDBRANCH  38  39
ENDBRANCH  37  38
ENDBRANCH  36  37
ENDBRANCH  35  36
ENDBRANCH  34  35
ENDBRANCH  33  34
ENDBRANCH  32  33
ENDBRANCH  31  32
ENDBRANCH   1  31
TORSDOF 27
ENDMDL
MODEL 3
REMARK VINA RESULT:      -9.8      4.427      9.983
REMARK SMILES CCN(CC)S(=O)(=O)c1cccc(C(=O)N2C[C@H](O)C[C@H]2C(=O)OCCOCCOCCOCCOC(=O)c2ccc(-c3c4nc(c(-c5c(F)cccc5F)c5ccc([nH]5)c(-c5c(F)cccc5F)c5nc(c(-c6c(F)cccc6F)c6ccc3[nH]6)C=C5)C=C4)cc2)c1
REMARK SMILES IDX 28 1 27 2 26 3 25 4 24 5 22 6 23 7 21 8 16 9 17 10 18 11
REMARK SMILES IDX 20 12 14 13 15 14 13 15 9 16 10 17 93 18 11 19 12 20 6 21
REMARK SMILES IDX 7 22 8 23 3 24 2 25 1 26 4 27 5 28 19 29 29 31 30 32 31 33
REMARK SMILES IDX 32 34 33 35 34 36 35 37 36 38 37 39 38 40 39 41 40 42 92 43
REMARK SMILES IDX 41 44 91 45 42 46 43 47 44 48 85 49 45 50 90 51 84 52 86 53
REMARK SMILES IDX 46 54 89 55 83 56 82 57 47 59 73 60 56 61 72 62 57 63 60 64
REMARK SMILES IDX 71 65 87 66 58 67 59 68 70 70 88 71 61 72 48 73 49 74 54 75
REMARK SMILES IDX 50 76 51 77 53 78 55 79 52 80 74 81 75 82 80 83 76 84 77 85
REMARK SMILES IDX 79 86 81 87 78 88 62 89 63 90 68 91 64 92 65 93 67 94 69 95
REMARK SMILES IDX 66 96
REMARK H PARENT 19 30 86 58 60 69
REMARK Flexibility Score: inf
ROOT
ATOM      1  C   UNL A   1      31.326  27.504  26.765  1.00  0.00     0.188 C 
ENDROOT
BRANCH   1   2
ATOM      2  O   UNL A   1      31.220  26.093  26.797  1.00  0.00    -0.376 OA
BRANCH   2   3
ATOM      3  C   UNL A   1      30.452  25.407  25.811  1.00  0.00     0.202 C 
BRANCH   3   4
ATOM      4  C   UNL A   1      29.347  26.131  25.022  1.00  0.00     0.261 C 
BRANCH   4   5
ATOM      5  O   UNL A   1      29.530  26.151  23.583  1.00  0.00    -0.462 OA
BRANCH   5   6
ATOM      6  C   UNL A   1      30.211  27.222  23.123  1.00  0.00     0.329 C 
ATOM      7  O   UNL A   1      29.649  28.237  22.697  1.00  0.00    -0.250 OA
BRANCH   6   8
ATOM      8  C   UNL A   1      31.753  27.211  23.192  1.00  0.00     0.198 C 
ATOM      9  N   UNL A   1      32.859  26.899  22.250  1.00  0.00    -0.322 N 
ATOM     10  C   UNL A   1      33.784  28.015  22.118  1.00  0.00     0.152 C 
ATOM     11  C   UNL A   1      33.538  28.836  23.374  1.00  0.00     0.136 C 
ATOM     12  C   UNL A   1      32.048  28.697  23.555  1.00  0.00     0.071 C 
BRANCH   9  13
ATOM     13  C   UNL A   1      33.148  25.661  21.711  1.00  0.00     0.254 C 
ATOM     14  O   UNL A   1      33.426  25.571  20.517  1.00  0.00    -0.269 OA
BRANCH  13  15
ATOM     15  C   UNL A   1      33.230  24.417  22.585  1.00  0.00     0.041 A 
ATOM     16  C   UNL A   1      33.773  23.130  24.606  1.00  0.00     0.083 A 
ATOM     17  C   UNL A   1      33.289  21.962  24.004  1.00  0.00     0.022 A 
ATOM     18  C   UNL A   1      33.735  24.353  23.897  1.00  0.00     0.035 A 
ATOM     19  C   UNL A   1      32.812  22.003  22.697  1.00  0.00     0.002 A 
ATOM     20  C   UNL A   1      32.804  23.213  21.994  1.00  0.00     0.014 A 
BRANCH  16  21
ATOM     21  S   UNL A   1      34.734  22.945  26.122  1.00  0.00     0.243 S 
ATOM     22  O   UNL A   1      34.156  21.831  26.841  1.00  0.00    -0.207 OA
ATOM     23  O   UNL A   1      34.767  24.258  26.735  1.00  0.00    -0.207 OA
BRANCH  21  24
ATOM     24  N   UNL A   1      36.353  22.544  25.697  1.00  0.00    -0.198 NA
BRANCH  24  25
ATOM     25  C   UNL A   1      36.485  21.537  24.578  1.00  0.00     0.099 C 
ATOM     26  C   UNL A   1      37.597  20.525  24.753  1.00  0.00     0.022 C 
ENDBRANCH  24  25
BRANCH  24  27
ATOM     27  C   UNL A   1      37.298  23.673  25.434  1.00  0.00     0.099 C 
ATOM     28  C   UNL A   1      38.504  23.697  26.367  1.00  0.00     0.022 C 
ENDBRANCH  24  27
ENDBRANCH  21  24
ENDBRANCH  16  21
ENDBRANCH  13  15
ENDBRANCH   9  13
BRANCH  11  29
ATOM     29  O   UNL A   1      34.175  28.274  24.514  1.00  0.00    -0.391 OA
ATOM     30  H   UNL A   1      33.867  27.364  24.642  1.00  0.00     0.211 HD
ENDBRANCH  11  29
ENDBRANCH   6   8
ENDBRANCH   5   6
ENDBRANCH   4   5
ENDBRANCH   3   4
ENDBRANCH   2   3
ENDBRANCH   1   2
BRANCH   1  31
ATOM     31  C   UNL A   1      32.436  28.151  27.594  1.00  0.00     0.188 C 
BRANCH  31  32
ATOM     32  O   UNL A   1      32.979  29.351  27.076  1.00  0.00    -0.377 OA
BRANCH  32  33
ATOM     33  C   UNL A   1      33.880  30.122  27.877  1.00  0.00     0.188 C 
BRANCH  33  34
ATOM     34  C   UNL A   1      34.710  31.208  27.184  1.00  0.00     0.188 C 
BRANCH  34  35
ATOM     35  O   UNL A   1      35.224  32.256  28.013  1.00  0.00    -0.376 OA
BRANCH  35  36
ATOM     36  C   UNL A   1      34.344  32.851  28.963  1.00  0.00     0.202 C 
BRANCH  36  37
ATOM     37  C   UNL A   1      34.871  32.883  30.396  1.00  0.00     0.261 C 
BRANCH  37  38
ATOM     38  O   UNL A   1      35.559  31.670  30.744  1.00  0.00    -0.460 OA
BRANCH  38  39
ATOM     39  C   UNL A   1      36.777  31.849  31.303  1.00  0.00     0.338 C 
ATOM     40  O   UNL A   1      37.065  32.604  32.220  1.00  0.00    -0.246 OA
BRANCH  39  41
ATOM     41  C   UNL A   1      37.755  30.905  30.730  1.00  0.00     0.060 A 
ATOM     42  C   UNL A   1      38.555  30.181  31.623  1.00  0.00     0.016 A 
ATOM     43  C   UNL A   1      37.976  30.821  29.353  1.00  0.00     0.016 A 
ATOM     44  C   UNL A   1      39.631  29.436  31.150  1.00  0.00     0.010 A 
ATOM     45  C   UNL A   1      39.061  30.080  28.878  1.00  0.00     0.010 A 
ATOM     46  C   UNL A   1      39.923  29.432  29.780  1.00  0.00    -0.014 A 
BRANCH  46  47
ATOM     47  C   UNL A   1      41.248  28.948  29.330  1.00  0.00     0.031 A 
ATOM     48  C   UNL A   1      42.407  29.908  29.362  1.00  0.00     0.074 A 
ATOM     49  C   UNL A   1      41.430  27.670  28.953  1.00  0.00     0.049 A 
ATOM     50  N   UNL A   1      43.650  29.725  28.999  1.00  0.00    -0.248 NA
ATOM     51  C   UNL A   1      42.125  31.259  29.877  1.00  0.00     0.031 C 
ATOM     52  C   UNL A   1      40.395  26.640  28.931  1.00  0.00     0.029 A 
ATOM     53  N   UNL A   1      42.559  27.028  28.514  1.00  0.00    -0.354 N 
ATOM     54  C   UNL A   1      44.293  30.934  29.238  1.00  0.00     0.074 A 
ATOM     55  C   UNL A   1      43.300  31.853  29.747  1.00  0.00     0.031 C 
ATOM     56  C   UNL A   1      40.936  25.491  28.492  1.00  0.00     0.029 A 
ATOM     57  C   UNL A   1      42.345  25.715  28.174  1.00  0.00     0.049 A 
ATOM     58  H   UNL A   1      43.438  27.465  28.450  1.00  0.00     0.167 HD
ATOM     59  C   UNL A   1      45.599  31.245  29.060  1.00  0.00     0.037 A 
ATOM     60  C   UNL A   1      43.191  24.809  27.648  1.00  0.00     0.037 A 
ATOM     61  C   UNL A   1      46.583  30.329  28.553  1.00  0.00     0.049 A 
ATOM     62  C   UNL A   1      44.622  25.204  27.388  1.00  0.00     0.074 A 
ATOM     63  C   UNL A   1      47.931  30.545  28.328  1.00  0.00     0.029 A 
ATOM     64  N   UNL A   1      46.321  29.016  28.191  1.00  0.00    -0.354 N 
ATOM     65  N   UNL A   1      45.223  26.345  27.624  1.00  0.00    -0.248 NA
ATOM     66  C   UNL A   1      45.493  24.182  26.792  1.00  0.00     0.031 C 
ATOM     67  C   UNL A   1      48.476  29.374  27.791  1.00  0.00     0.029 A 
ATOM     68  C   UNL A   1      47.479  28.415  27.728  1.00  0.00     0.049 A 
ATOM     69  H   UNL A   1      45.442  28.577  28.253  1.00  0.00     0.167 HD
ATOM     70  C   UNL A   1      46.546  26.168  27.238  1.00  0.00     0.074 A 
ATOM     71  C   UNL A   1      46.662  24.806  26.761  1.00  0.00     0.031 C 
ATOM     72  C   UNL A   1      47.574  27.051  27.276  1.00  0.00     0.037 A 
BRANCH  59  73
ATOM     73  C   UNL A   1      46.028  32.644  29.396  1.00  0.00     0.057 A 
ATOM     74  C   UNL A   1      46.571  32.969  30.645  1.00  0.00     0.134 A 
ATOM     75  C   UNL A   1      45.920  33.671  28.449  1.00  0.00     0.134 A 
ATOM     76  F   UNL A   1      46.685  32.035  31.602  1.00  0.00    -0.206 F 
ATOM     77  C   UNL A   1      46.977  34.271  30.948  1.00  0.00     0.040 A 
ATOM     78  C   UNL A   1      46.344  34.970  28.731  1.00  0.00     0.040 A 
ATOM     79  F   UNL A   1      45.409  33.426  27.234  1.00  0.00    -0.206 F 
ATOM     80  C   UNL A   1      46.869  35.274  29.985  1.00  0.00     0.006 A 
ENDBRANCH  59  73
BRANCH  60  81
ATOM     81  C   UNL A   1      42.713  23.443  27.317  1.00  0.00     0.057 A 
ATOM     82  C   UNL A   1      42.361  23.094  26.008  1.00  0.00     0.134 A 
ATOM     83  C   UNL A   1      42.564  22.464  28.307  1.00  0.00     0.134 A 
ATOM     84  F   UNL A   1      42.460  23.993  25.019  1.00  0.00    -0.206 F 
ATOM     85  C   UNL A   1      41.858  21.828  25.699  1.00  0.00     0.040 A 
ATOM     86  C   UNL A   1      42.085  21.188  28.008  1.00  0.00     0.040 A 
ATOM     87  F   UNL A   1      42.883  22.735  29.581  1.00  0.00    -0.206 F 
ATOM     88  C   UNL A   1      41.722  20.869  26.702  1.00  0.00     0.006 A 
ENDBRANCH  60  81
BRANCH  72  89
ATOM     89  C   UNL A   1      48.922  26.556  26.839  1.00  0.00     0.057 A 
ATOM     90  C   UNL A   1      49.782  25.880  27.713  1.00  0.00     0.134 A 
ATOM     91  C   UNL A   1      49.343  26.720  25.514  1.00  0.00     0.134 A 
ATOM     92  F   UNL A   1      49.441  25.699  28.998  1.00  0.00    -0.206 F 
ATOM     93  C   UNL A   1      51.023  25.405  27.289  1.00  0.00     0.040 A 
ATOM     94  C   UNL A   1      50.570  26.227  25.072  1.00  0.00     0.040 A 
ATOM     95  F   UNL A   1      48.560  27.349  24.623  1.00  0.00    -0.206 F 
ATOM     96  C   UNL A   1      51.417  25.572  25.963  1.00  0.00     0.006 A 
ENDBRANCH  72  89
ENDBRANCH  46  47
ENDBRANCH  39  41
ENDBRANCH  38  39
ENDBRANCH  37  38
ENDBRANCH  36  37
ENDBRANCH  35  36
ENDBRANCH  34  35
ENDBRANCH  33  34
ENDBRANCH  32  33
ENDBRANCH  31  32
ENDBRANCH   1  31
TORSDOF 27
ENDMDL
