MODEL 1
REMARK VINA RESULT:      -8.6      0.000      0.000
REMARK SMILES NC(=O)c1c(-c2ccc(Cl)cc2)csc1NC(=O)[C@H]1[C@@H](C(=O)OCCOCCOCCOCCOC(=O)c2ccc(-c3c4nc(c(-c5c(F)cccc5F)c5ccc([nH]5)c(-c5c(F)cccc5F)c5nc(c(-c6c(F)cccc6F)c6ccc3[nH]6)C=C5)C=C4)cc2)[C@@H]2CC[C@H]1O2
REMARK SMILES IDX 28 1 27 2 26 3 25 4 24 5 23 6 21 7 22 8 20 9 19 10 95 11
REMARK SMILES IDX 92 12 94 13 96 14 93 15 17 16 16 17 18 19 15 20 4 21 5 22
REMARK SMILES IDX 13 23 14 24 2 25 1 26 3 29 6 30 7 31 12 32 8 33 11 34 9 35
REMARK SMILES IDX 10 36 29 37 30 38 31 39 32 40 33 41 34 42 35 43 36 44 37 45
REMARK SMILES IDX 38 46 39 47 91 48 40 49 90 50 41 51 42 52 43 53 84 54 44 55
REMARK SMILES IDX 89 56 83 57 85 58 45 59 88 60 82 61 81 62 46 64 72 65 55 66
REMARK SMILES IDX 71 67 56 68 59 69 70 70 86 71 57 72 58 73 69 75 87 76 60 77
REMARK SMILES IDX 47 78 48 79 53 80 49 81 50 82 52 83 54 84 51 85 73 86 74 87
REMARK SMILES IDX 79 88 75 89 76 90 78 91 80 92 77 93 61 94 62 95 67 96 63 97
REMARK SMILES IDX 64 98 66 99 68 100 65 101
REMARK H PARENT 16 18 1 27 1 28 85 63 59 74
REMARK Flexibility Score: inf
ROOT
ATOM      1  C   UNL A   1      39.865  25.459  28.321  1.00  0.00     0.188 C 
ENDROOT
BRANCH   1   2
ATOM      2  C   UNL A   1      39.538  26.936  28.016  1.00  0.00     0.188 C 
BRANCH   2   3
ATOM      3  O   UNL A   1      39.070  27.670  29.155  1.00  0.00    -0.376 OA
BRANCH   3   4
ATOM      4  C   UNL A   1      40.072  28.346  29.910  1.00  0.00     0.202 C 
BRANCH   4   5
ATOM      5  C   UNL A   1      39.625  28.731  31.317  1.00  0.00     0.261 C 
BRANCH   5   6
ATOM      6  O   UNL A   1      40.131  30.027  31.685  1.00  0.00    -0.463 OA
BRANCH   6   7
ATOM      7  C   UNL A   1      39.765  31.118  30.963  1.00  0.00     0.312 C 
ATOM      8  O   UNL A   1      40.506  31.674  30.172  1.00  0.00    -0.252 OA
BRANCH   7   9
ATOM      9  C   UNL A   1      38.389  31.555  31.426  1.00  0.00     0.143 C 
ATOM     10  C   UNL A   1      37.459  32.509  30.658  1.00  0.00     0.124 C 
ATOM     11  C   UNL A   1      37.107  33.553  31.722  1.00  0.00     0.132 C 
ATOM     12  C   UNL A   1      38.429  32.210  32.813  1.00  0.00     0.133 C 
ATOM     13  C   UNL A   1      36.157  32.945  32.761  1.00  0.00     0.035 C 
ATOM     14  O   UNL A   1      38.320  33.614  32.502  1.00  0.00    -0.373 OA
ATOM     15  C   UNL A   1      37.090  31.999  33.531  1.00  0.00     0.036 C 
BRANCH  10  16
ATOM     16  C   UNL A   1      37.548  33.133  29.267  1.00  0.00     0.231 C 
ATOM     17  N   UNL A   1      36.699  33.053  28.222  1.00  0.00    -0.317 N 
ATOM     18  H   UNL A   1      36.953  33.630  27.466  1.00  0.00     0.170 HD
ATOM     19  O   UNL A   1      38.529  33.875  29.069  1.00  0.00    -0.274 OA
BRANCH  17  20
ATOM     20  C   UNL A   1      35.556  32.332  27.998  1.00  0.00     0.108 A 
ATOM     21  C   UNL A   1      35.455  30.946  27.919  1.00  0.00     0.082 A 
ATOM     22  C   UNL A   1      34.115  30.594  27.508  1.00  0.00     0.007 A 
ATOM     23  C   UNL A   1      33.264  31.684  27.539  1.00  0.00     0.076 A 
ATOM     24  S   UNL A   1      34.060  33.106  28.028  1.00  0.00    -0.125 S 
BRANCH  21  25
ATOM     25  C   UNL A   1      36.631  30.095  28.125  1.00  0.00     0.252 C 
ATOM     26  N   UNL A   1      36.670  29.304  29.234  1.00  0.00    -0.365 N 
ATOM     27  H   UNL A   1      37.447  28.723  29.399  1.00  0.00     0.159 HD
ATOM     28  H   UNL A   1      35.919  29.312  29.871  1.00  0.00     0.159 HD
ATOM     29  O   UNL A   1      37.556  30.048  27.318  1.00  0.00    -0.269 OA
ENDBRANCH  21  25
BRANCH  22  30
ATOM     30  C   UNL A   1      33.568  29.309  27.116  1.00  0.00    -0.017 A 
ATOM     31  C   UNL A   1      34.280  28.491  26.226  1.00  0.00     0.010 A 
ATOM     32  C   UNL A   1      32.321  28.903  27.595  1.00  0.00     0.010 A 
ATOM     33  C   UNL A   1      33.731  27.280  25.801  1.00  0.00     0.021 A 
ATOM     34  C   UNL A   1      31.772  27.693  27.167  1.00  0.00     0.021 A 
ATOM     35  C   UNL A   1      32.476  26.891  26.267  1.00  0.00     0.041 A 
ATOM     36  Cl  UNL A   1      31.780  25.417  25.717  1.00  0.00    -0.084 Cl
ENDBRANCH  22  30
ENDBRANCH  17  20
ENDBRANCH  10  16
ENDBRANCH   7   9
ENDBRANCH   6   7
ENDBRANCH   5   6
ENDBRANCH   4   5
ENDBRANCH   3   4
ENDBRANCH   2   3
ENDBRANCH   1   2
BRANCH   1  37
ATOM     37  O   UNL A   1      40.489  24.669  27.320  1.00  0.00    -0.377 OA
BRANCH  37  38
ATOM     38  C   UNL A   1      40.009  23.338  27.210  1.00  0.00     0.188 C 
BRANCH  38  39
ATOM     39  C   UNL A   1      41.146  22.309  27.333  1.00  0.00     0.188 C 
BRANCH  39  40
ATOM     40  O   UNL A   1      41.558  21.792  26.071  1.00  0.00    -0.376 OA
BRANCH  40  41
ATOM     41  C   UNL A   1      42.938  21.885  25.738  1.00  0.00     0.202 C 
BRANCH  41  42
ATOM     42  C   UNL A   1      43.373  22.924  24.690  1.00  0.00     0.261 C 
BRANCH  42  43
ATOM     43  O   UNL A   1      43.419  24.294  25.120  1.00  0.00    -0.460 OA
BRANCH  43  44
ATOM     44  C   UNL A   1      44.609  24.924  25.204  1.00  0.00     0.338 C 
ATOM     45  O   UNL A   1      45.603  24.725  24.528  1.00  0.00    -0.246 OA
BRANCH  44  46
ATOM     46  C   UNL A   1      44.410  26.084  26.107  1.00  0.00     0.060 A 
ATOM     47  C   UNL A   1      45.528  26.649  26.737  1.00  0.00     0.016 A 
ATOM     48  C   UNL A   1      43.154  26.696  26.223  1.00  0.00     0.016 A 
ATOM     49  C   UNL A   1      45.391  27.815  27.494  1.00  0.00     0.010 A 
ATOM     50  C   UNL A   1      43.012  27.845  27.004  1.00  0.00     0.010 A 
ATOM     51  C   UNL A   1      44.123  28.392  27.665  1.00  0.00    -0.014 A 
BRANCH  51  52
ATOM     52  C   UNL A   1      43.909  29.373  28.755  1.00  0.00     0.031 A 
ATOM     53  C   UNL A   1      43.685  28.818  30.136  1.00  0.00     0.074 A 
ATOM     54  C   UNL A   1      43.899  30.701  28.547  1.00  0.00     0.049 A 
ATOM     55  N   UNL A   1      43.450  29.444  31.259  1.00  0.00    -0.248 NA
ATOM     56  C   UNL A   1      43.733  27.351  30.261  1.00  0.00     0.031 C 
ATOM     57  C   UNL A   1      44.125  31.366  27.266  1.00  0.00     0.029 A 
ATOM     58  N   UNL A   1      43.678  31.732  29.427  1.00  0.00    -0.354 N 
ATOM     59  C   UNL A   1      43.336  28.450  32.221  1.00  0.00     0.074 A 
ATOM     60  C   UNL A   1      43.494  27.179  31.551  1.00  0.00     0.031 C 
ATOM     61  C   UNL A   1      44.015  32.696  27.441  1.00  0.00     0.029 A 
ATOM     62  C   UNL A   1      43.690  32.973  28.840  1.00  0.00     0.049 A 
ATOM     63  H   UNL A   1      43.523  31.594  30.390  1.00  0.00     0.167 HD
ATOM     64  C   UNL A   1      43.122  28.578  33.549  1.00  0.00     0.037 A 
ATOM     65  C   UNL A   1      43.450  34.187  29.375  1.00  0.00     0.037 A 
ATOM     66  C   UNL A   1      42.929  29.833  34.217  1.00  0.00     0.049 A 
ATOM     67  C   UNL A   1      43.126  34.300  30.845  1.00  0.00     0.074 A 
ATOM     68  C   UNL A   1      42.704  30.070  35.561  1.00  0.00     0.029 A 
ATOM     69  N   UNL A   1      42.918  31.064  33.581  1.00  0.00    -0.354 N 
ATOM     70  N   UNL A   1      43.064  33.358  31.754  1.00  0.00    -0.248 NA
ATOM     71  C   UNL A   1      42.837  35.648  31.361  1.00  0.00     0.031 C 
ATOM     72  C   UNL A   1      42.516  31.445  35.731  1.00  0.00     0.029 A 
ATOM     73  C   UNL A   1      42.666  32.066  34.501  1.00  0.00     0.049 A 
ATOM     74  H   UNL A   1      43.068  31.205  32.618  1.00  0.00     0.167 HD
ATOM     75  C   UNL A   1      42.757  33.999  32.950  1.00  0.00     0.074 A 
ATOM     76  C   UNL A   1      42.654  35.412  32.652  1.00  0.00     0.031 C 
ATOM     77  C   UNL A   1      42.579  33.467  34.184  1.00  0.00     0.037 A 
BRANCH  64  78
ATOM     78  C   UNL A   1      43.061  27.314  34.350  1.00  0.00     0.057 A 
ATOM     79  C   UNL A   1      41.844  26.674  34.621  1.00  0.00     0.134 A 
ATOM     80  C   UNL A   1      44.227  26.738  34.867  1.00  0.00     0.134 A 
ATOM     81  F   UNL A   1      40.689  27.194  34.176  1.00  0.00    -0.206 F 
ATOM     82  C   UNL A   1      41.788  25.515  35.394  1.00  0.00     0.040 A 
ATOM     83  C   UNL A   1      44.186  25.567  35.624  1.00  0.00     0.040 A 
ATOM     84  F   UNL A   1      45.422  27.309  34.650  1.00  0.00    -0.206 F 
ATOM     85  C   UNL A   1      42.963  24.956  35.894  1.00  0.00     0.006 A 
ENDBRANCH  64  78
BRANCH  65  86
ATOM     86  C   UNL A   1      43.487  35.406  28.525  1.00  0.00     0.057 A 
ATOM     87  C   UNL A   1      44.686  36.087  28.285  1.00  0.00     0.134 A 
ATOM     88  C   UNL A   1      42.319  35.944  27.972  1.00  0.00     0.134 A 
ATOM     89  F   UNL A   1      45.834  35.638  28.812  1.00  0.00    -0.206 F 
ATOM     90  C   UNL A   1      44.720  37.269  27.542  1.00  0.00     0.040 A 
ATOM     91  C   UNL A   1      42.342  37.114  27.209  1.00  0.00     0.040 A 
ATOM     92  F   UNL A   1      41.136  35.343  28.171  1.00  0.00    -0.206 F 
ATOM     93  C   UNL A   1      43.545  37.783  26.998  1.00  0.00     0.006 A 
ENDBRANCH  65  86
BRANCH  77  94
ATOM     94  C   UNL A   1      42.288  34.414  35.311  1.00  0.00     0.057 A 
ATOM     95  C   UNL A   1      40.979  34.695  35.719  1.00  0.00     0.134 A 
ATOM     96  C   UNL A   1      43.335  34.998  36.037  1.00  0.00     0.134 A 
ATOM     97  F   UNL A   1      39.934  34.174  35.060  1.00  0.00    -0.206 F 
ATOM     98  C   UNL A   1      40.721  35.538  36.801  1.00  0.00     0.040 A 
ATOM     99  C   UNL A   1      43.089  35.823  37.134  1.00  0.00     0.040 A 
ATOM    100  F   UNL A   1      44.611  34.758  35.702  1.00  0.00    -0.206 F 
ATOM    101  C   UNL A   1      41.777  36.098  37.517  1.00  0.00     0.006 A 
ENDBRANCH  77  94
ENDBRANCH  51  52
ENDBRANCH  44  46
ENDBRANCH  43  44
ENDBRANCH  42  43
ENDBRANCH  41  42
ENDBRANCH  40  41
ENDBRANCH  39  40
ENDBRANCH  38  39
ENDBRANCH  37  38
ENDBRANCH   1  37
TORSDOF 24
ENDMDL
MODEL 2
REMARK VINA RESULT:      -8.1      4.063      6.594
REMARK SMILES NC(=O)c1c(-c2ccc(Cl)cc2)csc1NC(=O)[C@H]1[C@@H](C(=O)OCCOCCOCCOCCOC(=O)c2ccc(-c3c4nc(c(-c5c(F)cccc5F)c5ccc([nH]5)c(-c5c(F)cccc5F)c5nc(c(-c6c(F)cccc6F)c6ccc3[nH]6)C=C5)C=C4)cc2)[C@@H]2CC[C@H]1O2
REMARK SMILES IDX 28 1 27 2 26 3 25 4 24 5 23 6 21 7 22 8 20 9 19 10 95 11
REMARK SMILES IDX 92 12 94 13 96 14 93 15 17 16 16 17 18 19 15 20 4 21 5 22
REMARK SMILES IDX 13 23 14 24 2 25 1 26 3 29 6 30 7 31 12 32 8 33 11 34 9 35
REMARK SMILES IDX 10 36 29 37 30 38 31 39 32 40 33 41 34 42 35 43 36 44 37 45
REMARK SMILES IDX 38 46 39 47 91 48 40 49 90 50 41 51 42 52 43 53 84 54 44 55
REMARK SMILES IDX 89 56 83 57 85 58 45 59 88 60 82 61 81 62 46 64 72 65 55 66
REMARK SMILES IDX 71 67 56 68 59 69 70 70 86 71 57 72 58 73 69 75 87 76 60 77
REMARK SMILES IDX 47 78 48 79 53 80 49 81 50 82 52 83 54 84 51 85 73 86 74 87
REMARK SMILES IDX 79 88 75 89 76 90 78 91 80 92 77 93 61 94 62 95 67 96 63 97
REMARK SMILES IDX 64 98 66 99 68 100 65 101
REMARK H PARENT 16 18 1 27 1 28 85 63 59 74
REMARK Flexibility Score: inf
ROOT
ATOM      1  C   UNL A   1      40.639  23.862  27.508  1.00  0.00     0.188 C 
ENDROOT
BRANCH   1   2
ATOM      2  C   UNL A   1      39.237  24.504  27.459  1.00  0.00     0.188 C 
BRANCH   2   3
ATOM      3  O   UNL A   1      38.605  24.414  26.175  1.00  0.00    -0.376 OA
BRANCH   3   4
ATOM      4  C   UNL A   1      37.411  23.637  26.126  1.00  0.00     0.202 C 
BRANCH   4   5
ATOM      5  C   UNL A   1      37.594  22.273  25.468  1.00  0.00     0.261 C 
BRANCH   5   6
ATOM      6  O   UNL A   1      36.334  21.591  25.331  1.00  0.00    -0.463 OA
BRANCH   6   7
ATOM      7  C   UNL A   1      35.385  22.098  24.501  1.00  0.00     0.312 C 
ATOM      8  O   UNL A   1      35.641  22.582  23.413  1.00  0.00    -0.252 OA
BRANCH   7   9
ATOM      9  C   UNL A   1      34.054  22.070  25.226  1.00  0.00     0.143 C 
ATOM     10  C   UNL A   1      32.699  22.439  24.602  1.00  0.00     0.124 C 
ATOM     11  C   UNL A   1      32.144  23.461  25.599  1.00  0.00     0.132 C 
ATOM     12  C   UNL A   1      34.065  22.948  26.485  1.00  0.00     0.133 C 
ATOM     13  C   UNL A   1      31.720  22.756  26.893  1.00  0.00     0.035 C 
ATOM     14  O   UNL A   1      33.343  24.120  26.058  1.00  0.00    -0.373 OA
ATOM     15  C   UNL A   1      33.075  22.395  27.518  1.00  0.00     0.036 C 
BRANCH  10  16
ATOM     16  C   UNL A   1      32.282  22.769  23.170  1.00  0.00     0.231 C 
ATOM     17  N   UNL A   1      31.690  23.871  22.668  1.00  0.00    -0.317 N 
ATOM     18  H   UNL A   1      31.613  23.862  21.687  1.00  0.00     0.170 HD
ATOM     19  O   UNL A   1      32.573  21.913  22.313  1.00  0.00    -0.274 OA
BRANCH  17  20
ATOM     20  C   UNL A   1      31.172  25.001  23.246  1.00  0.00     0.108 A 
ATOM     21  C   UNL A   1      31.869  26.167  23.551  1.00  0.00     0.082 A 
ATOM     22  C   UNL A   1      31.004  27.050  24.298  1.00  0.00     0.007 A 
ATOM     23  C   UNL A   1      29.693  26.609  24.298  1.00  0.00     0.076 A 
ATOM     24  S   UNL A   1      29.506  25.153  23.439  1.00  0.00    -0.125 S 
BRANCH  21  25
ATOM     25  C   UNL A   1      33.290  26.301  23.214  1.00  0.00     0.252 C 
ATOM     26  N   UNL A   1      34.168  26.584  24.217  1.00  0.00    -0.365 N 
ATOM     27  H   UNL A   1      35.128  26.680  24.019  1.00  0.00     0.159 HD
ATOM     28  H   UNL A   1      33.843  26.691  25.140  1.00  0.00     0.159 HD
ATOM     29  O   UNL A   1      33.711  26.132  22.073  1.00  0.00    -0.269 OA
ENDBRANCH  21  25
BRANCH  22  30
ATOM     30  C   UNL A   1      31.310  28.289  24.989  1.00  0.00    -0.017 A 
ATOM     31  C   UNL A   1      31.959  28.252  26.232  1.00  0.00     0.010 A 
ATOM     32  C   UNL A   1      30.927  29.512  24.436  1.00  0.00     0.010 A 
ATOM     33  C   UNL A   1      32.205  29.437  26.926  1.00  0.00     0.021 A 
ATOM     34  C   UNL A   1      31.169  30.697  25.133  1.00  0.00     0.021 A 
ATOM     35  C   UNL A   1      31.800  30.654  26.378  1.00  0.00     0.041 A 
ATOM     36  Cl  UNL A   1      32.066  32.113  27.247  1.00  0.00    -0.084 Cl
ENDBRANCH  22  30
ENDBRANCH  17  20
ENDBRANCH  10  16
ENDBRANCH   7   9
ENDBRANCH   6   7
ENDBRANCH   5   6
ENDBRANCH   4   5
ENDBRANCH   3   4
ENDBRANCH   2   3
ENDBRANCH   1   2
BRANCH   1  37
ATOM     37  O   UNL A   1      41.747  24.581  26.989  1.00  0.00    -0.377 OA
BRANCH  37  38
ATOM     38  C   UNL A   1      42.225  24.134  25.729  1.00  0.00     0.188 C 
BRANCH  38  39
ATOM     39  C   UNL A   1      42.379  22.604  25.688  1.00  0.00     0.188 C 
BRANCH  39  40
ATOM     40  O   UNL A   1      43.316  22.172  24.706  1.00  0.00    -0.376 OA
BRANCH  40  41
ATOM     41  C   UNL A   1      44.544  21.617  25.163  1.00  0.00     0.202 C 
BRANCH  41  42
ATOM     42  C   UNL A   1      45.755  22.551  25.331  1.00  0.00     0.261 C 
BRANCH  42  43
ATOM     43  O   UNL A   1      45.502  23.837  25.922  1.00  0.00    -0.460 OA
BRANCH  43  44
ATOM     44  C   UNL A   1      46.206  24.219  27.007  1.00  0.00     0.338 C 
ATOM     45  O   UNL A   1      47.400  24.081  27.204  1.00  0.00    -0.246 OA
BRANCH  44  46
ATOM     46  C   UNL A   1      45.300  25.069  27.819  1.00  0.00     0.060 A 
ATOM     47  C   UNL A   1      45.198  26.433  27.509  1.00  0.00     0.016 A 
ATOM     48  C   UNL A   1      44.458  24.503  28.784  1.00  0.00     0.016 A 
ATOM     49  C   UNL A   1      44.265  27.234  28.172  1.00  0.00     0.010 A 
ATOM     50  C   UNL A   1      43.545  25.310  29.468  1.00  0.00     0.010 A 
ATOM     51  C   UNL A   1      43.466  26.683  29.185  1.00  0.00    -0.014 A 
BRANCH  51  52
ATOM     52  C   UNL A   1      42.773  27.582  30.138  1.00  0.00     0.031 A 
ATOM     53  C   UNL A   1      43.365  27.699  31.516  1.00  0.00     0.074 A 
ATOM     54  C   UNL A   1      41.660  28.264  29.817  1.00  0.00     0.049 A 
ATOM     55  N   UNL A   1      42.953  28.391  32.546  1.00  0.00    -0.248 NA
ATOM     56  C   UNL A   1      44.595  26.926  31.761  1.00  0.00     0.031 C 
ATOM     57  C   UNL A   1      41.000  28.255  28.513  1.00  0.00     0.029 A 
ATOM     58  N   UNL A   1      40.882  29.097  30.583  1.00  0.00    -0.354 N 
ATOM     59  C   UNL A   1      43.877  28.145  33.552  1.00  0.00     0.074 A 
ATOM     60  C   UNL A   1      44.854  27.219  33.025  1.00  0.00     0.031 C 
ATOM     61  C   UNL A   1      39.904  29.035  28.575  1.00  0.00     0.029 A 
ATOM     62  C   UNL A   1      39.776  29.580  29.927  1.00  0.00     0.049 A 
ATOM     63  H   UNL A   1      41.096  29.326  31.516  1.00  0.00     0.167 HD
ATOM     64  C   UNL A   1      43.917  28.647  34.806  1.00  0.00     0.037 A 
ATOM     65  C   UNL A   1      38.771  30.357  30.379  1.00  0.00     0.037 A 
ATOM     66  C   UNL A   1      42.932  29.539  35.349  1.00  0.00     0.049 A 
ATOM     67  C   UNL A   1      38.789  30.836  31.810  1.00  0.00     0.074 A 
ATOM     68  C   UNL A   1      42.881  30.104  36.609  1.00  0.00     0.029 A 
ATOM     69  N   UNL A   1      41.812  29.978  34.661  1.00  0.00    -0.354 N 
ATOM     70  N   UNL A   1      39.691  30.634  32.740  1.00  0.00    -0.248 NA
ATOM     71  C   UNL A   1      37.646  31.651  32.253  1.00  0.00     0.031 C 
ATOM     72  C   UNL A   1      41.705  30.854  36.699  1.00  0.00     0.029 A 
ATOM     73  C   UNL A   1      41.048  30.790  35.480  1.00  0.00     0.049 A 
ATOM     74  H   UNL A   1      41.592  29.748  33.730  1.00  0.00     0.167 HD
ATOM     75  C   UNL A   1      39.240  31.316  33.866  1.00  0.00     0.074 A 
ATOM     76  C   UNL A   1      37.988  31.945  33.500  1.00  0.00     0.031 C 
ATOM     77  C   UNL A   1      39.810  31.415  35.091  1.00  0.00     0.037 A 
BRANCH  64  78
ATOM     78  C   UNL A   1      45.056  28.211  35.675  1.00  0.00     0.057 A 
ATOM     79  C   UNL A   1      46.258  28.929  35.725  1.00  0.00     0.134 A 
ATOM     80  C   UNL A   1      44.955  27.056  36.459  1.00  0.00     0.134 A 
ATOM     81  F   UNL A   1      46.425  30.029  34.974  1.00  0.00    -0.206 F 
ATOM     82  C   UNL A   1      47.328  28.502  36.511  1.00  0.00     0.040 A 
ATOM     83  C   UNL A   1      46.011  26.630  37.265  1.00  0.00     0.040 A 
ATOM     84  F   UNL A   1      43.833  26.321  36.446  1.00  0.00    -0.206 F 
ATOM     85  C   UNL A   1      47.204  27.351  37.288  1.00  0.00     0.006 A 
ENDBRANCH  64  78
BRANCH  65  86
ATOM     86  C   UNL A   1      37.646  30.730  29.483  1.00  0.00     0.057 A 
ATOM     87  C   UNL A   1      36.632  29.815  29.173  1.00  0.00     0.134 A 
ATOM     88  C   UNL A   1      37.582  31.991  28.879  1.00  0.00     0.134 A 
ATOM     89  F   UNL A   1      36.653  28.581  29.697  1.00  0.00    -0.206 F 
ATOM     90  C   UNL A   1      35.606  30.135  28.281  1.00  0.00     0.040 A 
ATOM     91  C   UNL A   1      36.550  32.331  28.001  1.00  0.00     0.040 A 
ATOM     92  F   UNL A   1      38.526  32.910  29.129  1.00  0.00    -0.206 F 
ATOM     93  C   UNL A   1      35.562  31.398  27.695  1.00  0.00     0.006 A 
ENDBRANCH  65  86
BRANCH  77  94
ATOM     94  C   UNL A   1      39.110  32.257  36.116  1.00  0.00     0.057 A 
ATOM     95  C   UNL A   1      38.164  31.716  36.994  1.00  0.00     0.134 A 
ATOM     96  C   UNL A   1      39.436  33.612  36.267  1.00  0.00     0.134 A 
ATOM     97  F   UNL A   1      37.802  30.428  36.895  1.00  0.00    -0.206 F 
ATOM     98  C   UNL A   1      37.554  32.497  37.977  1.00  0.00     0.040 A 
ATOM     99  C   UNL A   1      38.851  34.396  37.260  1.00  0.00     0.040 A 
ATOM    100  F   UNL A   1      40.344  34.186  35.464  1.00  0.00    -0.206 F 
ATOM    101  C   UNL A   1      37.903  33.839  38.117  1.00  0.00     0.006 A 
ENDBRANCH  77  94
ENDBRANCH  51  52
ENDBRANCH  44  46
ENDBRANCH  43  44
ENDBRANCH  42  43
ENDBRANCH  41  42
ENDBRANCH  40  41
ENDBRANCH  39  40
ENDBRANCH  38  39
ENDBRANCH  37  38
ENDBRANCH   1  37
TORSDOF 24
ENDMDL
MODEL 3
REMARK VINA RESULT:      -8.1      3.893      6.633
REMARK SMILES NC(=O)c1c(-c2ccc(Cl)cc2)csc1NC(=O)[C@H]1[C@@H](C(=O)OCCOCCOCCOCCOC(=O)c2ccc(-c3c4nc(c(-c5c(F)cccc5F)c5ccc([nH]5)c(-c5c(F)cccc5F)c5nc(c(-c6c(F)cccc6F)c6ccc3[nH]6)C=C5)C=C4)cc2)[C@@H]2CC[C@H]1O2
REMARK SMILES IDX 28 1 27 2 26 3 25 4 24 5 23 6 21 7 22 8 20 9 19 10 95 11
REMARK SMILES IDX 92 12 94 13 96 14 93 15 17 16 16 17 18 19 15 20 4 21 5 22
REMARK SMILES IDX 13 23 14 24 2 25 1 26 3 29 6 30 7 31 12 32 8 33 11 34 9 35
REMARK SMILES IDX 10 36 29 37 30 38 31 39 32 40 33 41 34 42 35 43 36 44 37 45
REMARK SMILES IDX 38 46 39 47 91 48 40 49 90 50 41 51 42 52 43 53 84 54 44 55
REMARK SMILES IDX 89 56 83 57 85 58 45 59 88 60 82 61 81 62 46 64 72 65 55 66
REMARK SMILES IDX 71 67 56 68 59 69 70 70 86 71 57 72 58 73 69 75 87 76 60 77
REMARK SMILES IDX 47 78 48 79 53 80 49 81 50 82 52 83 54 84 51 85 73 86 74 87
REMARK SMILES IDX 79 88 75 89 76 90 78 91 80 92 77 93 61 94 62 95 67 96 63 97
REMARK SMILES IDX 64 98 66 99 68 100 65 101
REMARK H PARENT 16 18 1 27 1 28 85 63 59 74
REMARK Flexibility Score: inf
ROOT
ATOM      1  C   UNL A   1      40.366  23.199  27.381  1.00  0.00     0.188 C 
ENDROOT
BRANCH   1   2
ATOM      2  C   UNL A   1      39.117  24.102  27.308  1.00  0.00     0.188 C 
BRANCH   2   3
ATOM      3  O   UNL A   1      38.453  24.067  26.038  1.00  0.00    -0.376 OA
BRANCH   3   4
ATOM      4  C   UNL A   1      37.298  23.234  25.965  1.00  0.00     0.202 C 
BRANCH   4   5
ATOM      5  C   UNL A   1      37.507  21.968  25.140  1.00  0.00     0.261 C 
BRANCH   5   6
ATOM      6  O   UNL A   1      36.260  21.286  24.914  1.00  0.00    -0.463 OA
BRANCH   6   7
ATOM      7  C   UNL A   1      35.259  21.925  24.253  1.00  0.00     0.312 C 
ATOM      8  O   UNL A   1      35.442  22.598  23.255  1.00  0.00    -0.252 OA
BRANCH   7   9
ATOM      9  C   UNL A   1      33.979  21.757  25.050  1.00  0.00     0.143 C 
ATOM     10  C   UNL A   1      32.569  22.094  24.541  1.00  0.00     0.124 C 
ATOM     11  C   UNL A   1      32.023  22.994  25.653  1.00  0.00     0.132 C 
ATOM     12  C   UNL A   1      34.023  22.526  26.377  1.00  0.00     0.133 C 
ATOM     13  C   UNL A   1      31.722  22.160  26.904  1.00  0.00     0.035 C 
ATOM     14  O   UNL A   1      33.211  23.684  26.097  1.00  0.00    -0.373 OA
ATOM     15  C   UNL A   1      33.132  21.830  27.415  1.00  0.00     0.036 C 
BRANCH  10  16
ATOM     16  C   UNL A   1      32.045  22.516  23.170  1.00  0.00     0.231 C 
ATOM     17  N   UNL A   1      31.590  23.711  22.742  1.00  0.00    -0.317 N 
ATOM     18  H   UNL A   1      31.395  23.734  21.777  1.00  0.00     0.170 HD
ATOM     19  O   UNL A   1      32.084  21.641  22.284  1.00  0.00    -0.274 OA
BRANCH  17  20
ATOM     20  C   UNL A   1      31.342  24.900  23.378  1.00  0.00     0.108 A 
ATOM     21  C   UNL A   1      32.272  25.896  23.659  1.00  0.00     0.082 A 
ATOM     22  C   UNL A   1      31.645  26.905  24.482  1.00  0.00     0.007 A 
ATOM     23  C   UNL A   1      30.275  26.729  24.561  1.00  0.00     0.076 A 
ATOM     24  S   UNL A   1      29.753  25.367  23.685  1.00  0.00    -0.125 S 
BRANCH  21  25
ATOM     25  C   UNL A   1      33.667  25.763  23.230  1.00  0.00     0.252 C 
ATOM     26  N   UNL A   1      34.582  25.315  24.136  1.00  0.00    -0.365 N 
ATOM     27  H   UNL A   1      35.526  25.217  23.876  1.00  0.00     0.159 HD
ATOM     28  H   UNL A   1      34.298  25.090  25.052  1.00  0.00     0.159 HD
ATOM     29  O   UNL A   1      34.025  26.004  22.080  1.00  0.00    -0.269 OA
ENDBRANCH  21  25
BRANCH  22  30
ATOM     30  C   UNL A   1      32.231  28.036  25.176  1.00  0.00    -0.017 A 
ATOM     31  C   UNL A   1      33.353  27.846  25.996  1.00  0.00     0.010 A 
ATOM     32  C   UNL A   1      31.658  29.304  25.059  1.00  0.00     0.010 A 
ATOM     33  C   UNL A   1      33.886  28.920  26.711  1.00  0.00     0.021 A 
ATOM     34  C   UNL A   1      32.189  30.377  25.778  1.00  0.00     0.021 A 
ATOM     35  C   UNL A   1      33.295  30.179  26.605  1.00  0.00     0.041 A 
ATOM     36  Cl  UNL A   1      33.925  31.496  27.513  1.00  0.00    -0.084 Cl
ENDBRANCH  22  30
ENDBRANCH  17  20
ENDBRANCH  10  16
ENDBRANCH   7   9
ENDBRANCH   6   7
ENDBRANCH   5   6
ENDBRANCH   4   5
ENDBRANCH   3   4
ENDBRANCH   2   3
ENDBRANCH   1   2
BRANCH   1  37
ATOM     37  O   UNL A   1      40.931  22.702  26.177  1.00  0.00    -0.377 OA
BRANCH  37  38
ATOM     38  C   UNL A   1      41.201  21.309  26.164  1.00  0.00     0.188 C 
BRANCH  38  39
ATOM     39  C   UNL A   1      42.709  21.021  26.062  1.00  0.00     0.188 C 
BRANCH  39  40
ATOM     40  O   UNL A   1      43.434  22.094  25.467  1.00  0.00    -0.376 OA
BRANCH  40  41
ATOM     41  C   UNL A   1      44.712  22.407  26.008  1.00  0.00     0.202 C 
BRANCH  41  42
ATOM     42  C   UNL A   1      44.993  23.858  26.436  1.00  0.00     0.261 C 
BRANCH  42  43
ATOM     43  O   UNL A   1      43.916  24.562  27.078  1.00  0.00    -0.460 OA
BRANCH  43  44
ATOM     44  C   UNL A   1      43.176  25.434  26.365  1.00  0.00     0.338 C 
ATOM     45  O   UNL A   1      42.830  25.337  25.201  1.00  0.00    -0.246 OA
BRANCH  44  46
ATOM     46  C   UNL A   1      42.641  26.423  27.333  1.00  0.00     0.060 A 
ATOM     47  C   UNL A   1      42.915  27.783  27.129  1.00  0.00     0.016 A 
ATOM     48  C   UNL A   1      41.763  26.028  28.351  1.00  0.00     0.016 A 
ATOM     49  C   UNL A   1      42.326  28.747  27.950  1.00  0.00     0.010 A 
ATOM     50  C   UNL A   1      41.197  26.990  29.191  1.00  0.00     0.010 A 
ATOM     51  C   UNL A   1      41.499  28.350  29.012  1.00  0.00    -0.014 A 
BRANCH  51  52
ATOM     52  C   UNL A   1      41.193  29.310  30.099  1.00  0.00     0.031 A 
ATOM     53  C   UNL A   1      42.104  29.295  31.297  1.00  0.00     0.074 A 
ATOM     54  C   UNL A   1      40.152  30.159  30.048  1.00  0.00     0.049 A 
ATOM     55  N   UNL A   1      42.054  30.006  32.392  1.00  0.00    -0.248 NA
ATOM     56  C   UNL A   1      43.226  28.341  31.246  1.00  0.00     0.031 C 
ATOM     57  C   UNL A   1      39.211  30.289  28.938  1.00  0.00     0.029 A 
ATOM     58  N   UNL A   1      39.711  31.072  30.973  1.00  0.00    -0.354 N 
ATOM     59  C   UNL A   1      43.141  29.594  33.151  1.00  0.00     0.074 A 
ATOM     60  C   UNL A   1      43.815  28.552  32.411  1.00  0.00     0.031 C 
ATOM     61  C   UNL A   1      38.291  31.220  29.255  1.00  0.00     0.029 A 
ATOM     62  C   UNL A   1      38.568  31.734  30.597  1.00  0.00     0.049 A 
ATOM     63  H   UNL A   1      40.170  31.237  31.828  1.00  0.00     0.167 HD
ATOM     64  C   UNL A   1      43.550  30.045  34.358  1.00  0.00     0.037 A 
ATOM     65  C   UNL A   1      37.827  32.637  31.271  1.00  0.00     0.037 A 
ATOM     66  C   UNL A   1      42.867  31.055  35.115  1.00  0.00     0.049 A 
ATOM     67  C   UNL A   1      38.253  33.062  32.655  1.00  0.00     0.074 A 
ATOM     68  C   UNL A   1      43.199  31.581  36.349  1.00  0.00     0.029 A 
ATOM     69  N   UNL A   1      41.696  31.677  34.711  1.00  0.00    -0.354 N 
ATOM     70  N   UNL A   1      39.307  32.699  33.345  1.00  0.00    -0.248 NA
ATOM     71  C   UNL A   1      37.382  34.022  33.353  1.00  0.00     0.031 C 
ATOM     72  C   UNL A   1      42.204  32.493  36.712  1.00  0.00     0.029 A 
ATOM     73  C   UNL A   1      41.277  32.566  35.685  1.00  0.00     0.049 A 
ATOM     74  H   UNL A   1      41.231  31.511  33.859  1.00  0.00     0.167 HD
ATOM     75  C   UNL A   1      39.241  33.404  34.543  1.00  0.00     0.074 A 
ATOM     76  C   UNL A   1      38.048  34.222  34.482  1.00  0.00     0.031 C 
ATOM     77  C   UNL A   1      40.092  33.379  35.598  1.00  0.00     0.037 A 
BRANCH  64  78
ATOM     78  C   UNL A   1      44.782  29.418  34.933  1.00  0.00     0.057 A 
ATOM     79  C   UNL A   1      46.056  29.949  34.694  1.00  0.00     0.134 A 
ATOM     80  C   UNL A   1      44.695  28.266  35.723  1.00  0.00     0.134 A 
ATOM     81  F   UNL A   1      46.206  31.037  33.922  1.00  0.00    -0.206 F 
ATOM     82  C   UNL A   1      47.204  29.344  35.205  1.00  0.00     0.040 A 
ATOM     83  C   UNL A   1      45.834  27.663  36.257  1.00  0.00     0.040 A 
ATOM     84  F   UNL A   1      43.504  27.705  35.979  1.00  0.00    -0.206 F 
ATOM     85  C   UNL A   1      47.094  28.199  35.993  1.00  0.00     0.006 A 
ENDBRANCH  64  78
BRANCH  65  86
ATOM     86  C   UNL A   1      36.591  33.200  30.666  1.00  0.00     0.057 A 
ATOM     87  C   UNL A   1      35.322  32.812  31.113  1.00  0.00     0.134 A 
ATOM     88  C   UNL A   1      36.650  34.101  29.597  1.00  0.00     0.134 A 
ATOM     89  F   UNL A   1      35.201  31.929  32.115  1.00  0.00    -0.206 F 
ATOM     90  C   UNL A   1      34.157  33.286  30.508  1.00  0.00     0.040 A 
ATOM     91  C   UNL A   1      35.491  34.599  28.996  1.00  0.00     0.040 A 
ATOM     92  F   UNL A   1      37.834  34.507  29.116  1.00  0.00    -0.206 F 
ATOM     93  C   UNL A   1      34.240  34.185  29.447  1.00  0.00     0.006 A 
ENDBRANCH  65  86
BRANCH  77  94
ATOM     94  C   UNL A   1      39.787  34.282  36.756  1.00  0.00     0.057 A 
ATOM     95  C   UNL A   1      39.130  33.817  37.901  1.00  0.00     0.134 A 
ATOM     96  C   UNL A   1      40.217  35.616  36.749  1.00  0.00     0.134 A 
ATOM     97  F   UNL A   1      38.687  32.553  37.965  1.00  0.00    -0.206 F 
ATOM     98  C   UNL A   1      38.896  34.653  38.994  1.00  0.00     0.040 A 
ATOM     99  C   UNL A   1      40.009  36.454  37.844  1.00  0.00     0.040 A 
ATOM    100  F   UNL A   1      40.862  36.117  35.686  1.00  0.00    -0.206 F 
ATOM    101  C   UNL A   1      39.343  35.973  38.971  1.00  0.00     0.006 A 
ENDBRANCH  77  94
ENDBRANCH  51  52
ENDBRANCH  44  46
ENDBRANCH  43  44
ENDBRANCH  42  43
ENDBRANCH  41  42
ENDBRANCH  40  41
ENDBRANCH  39  40
ENDBRANCH  38  39
ENDBRANCH  37  38
ENDBRANCH   1  37
TORSDOF 24
ENDMDL
