MODEL 1
REMARK VINA RESULT:     -10.7      0.000      0.000
REMARK SMILES O=C(OCCOCCOCCOCCOC(=O)[C@H]1CCCN(c2nc(-c3ccco3)cc(C(F)(F)F)n2)C1)c1ccc(-c2c3nc(c(-c4c(F)cccc4F)c4ccc([nH]4)c(-c4c(F)cccc4F)c4nc(c(-c5c(F)cccc5F)c5ccc2[nH]5)C=C4)C=C3)cc1
REMARK SMILES IDX 9 1 8 2 7 3 6 4 5 5 4 6 3 7 2 8 1 9 39 10 40 11 92 12 41 13
REMARK SMILES IDX 91 14 42 15 43 16 44 17 85 18 45 19 90 20 84 21 86 22 46 23
REMARK SMILES IDX 89 24 83 25 82 26 47 28 73 29 56 30 72 31 57 32 60 33 71 34
REMARK SMILES IDX 87 35 58 36 59 37 70 39 88 40 61 41 48 42 49 43 54 44 50 45
REMARK SMILES IDX 51 46 53 47 55 48 52 49 74 50 75 51 80 52 76 53 77 54 79 55
REMARK SMILES IDX 81 56 78 57 62 58 63 59 68 60 64 61 65 62 67 63 69 64 66 65
REMARK SMILES IDX 10 66 11 67 12 68 13 69 14 70 15 71 16 72 17 73 18 74 19 75
REMARK SMILES IDX 38 76 20 77 22 78 21 79 23 80 24 81 37 82 25 83 32 84 31 85
REMARK SMILES IDX 26 86 27 87 30 88 28 89 29 90 33 91 34 92 35 93 36 94
REMARK H PARENT 86 27 60 38
REMARK Flexibility Score: inf
ROOT
ATOM      1  O   UNL A   1      34.243  31.081  28.215  1.00  0.00    -0.377 OA
ENDROOT
BRANCH   1   2
ATOM      2  C   UNL A   1      34.640  32.347  27.716  1.00  0.00     0.188 C 
BRANCH   2   3
ATOM      3  C   UNL A   1      33.969  33.516  28.402  1.00  0.00     0.188 C 
BRANCH   3   4
ATOM      4  O   UNL A   1      34.004  33.300  29.799  1.00  0.00    -0.376 OA
BRANCH   4   5
ATOM      5  C   UNL A   1      35.227  33.230  30.498  1.00  0.00     0.202 C 
BRANCH   5   6
ATOM      6  C   UNL A   1      35.384  32.137  31.535  1.00  0.00     0.261 C 
BRANCH   6   7
ATOM      7  O   UNL A   1      36.685  31.520  31.710  1.00  0.00    -0.460 OA
BRANCH   7   8
ATOM      8  C   UNL A   1      37.159  30.274  31.941  1.00  0.00     0.338 C 
ATOM      9  O   UNL A   1      36.616  29.564  32.769  1.00  0.00    -0.246 OA
BRANCH   8  10
ATOM     10  C   UNL A   1      38.269  29.695  31.158  1.00  0.00     0.060 A 
ATOM     11  C   UNL A   1      38.968  28.562  31.538  1.00  0.00     0.016 A 
ATOM     12  C   UNL A   1      38.536  30.230  29.897  1.00  0.00     0.016 A 
ATOM     13  C   UNL A   1      40.133  28.195  30.912  1.00  0.00     0.010 A 
ATOM     14  C   UNL A   1      39.596  29.729  29.138  1.00  0.00     0.010 A 
ATOM     15  C   UNL A   1      40.460  28.776  29.698  1.00  0.00    -0.014 A 
BRANCH  15  16
ATOM     16  C   UNL A   1      41.791  28.487  29.140  1.00  0.00     0.031 A 
ATOM     17  C   UNL A   1      41.996  27.138  28.521  1.00  0.00     0.074 A 
ATOM     18  C   UNL A   1      42.712  29.463  29.039  1.00  0.00     0.049 A 
ATOM     19  N   UNL A   1      43.090  26.583  28.084  1.00  0.00    -0.248 NA
ATOM     20  C   UNL A   1      40.796  26.290  28.378  1.00  0.00     0.031 C 
ATOM     21  C   UNL A   1      42.525  30.859  29.454  1.00  0.00     0.029 A 
ATOM     22  N   UNL A   1      43.969  29.448  28.504  1.00  0.00    -0.354 N 
ATOM     23  C   UNL A   1      42.726  25.299  27.698  1.00  0.00     0.074 A 
ATOM     24  C   UNL A   1      41.312  25.154  27.943  1.00  0.00     0.031 C 
ATOM     25  C   UNL A   1      43.601  31.574  29.099  1.00  0.00     0.029 A 
ATOM     26  C   UNL A   1      44.600  30.668  28.555  1.00  0.00     0.049 A 
ATOM     27  H   UNL A   1      44.384  28.642  28.120  1.00  0.00     0.167 HD
ATOM     28  C   UNL A   1      43.522  24.330  27.197  1.00  0.00     0.037 A 
ATOM     29  C   UNL A   1      45.867  30.990  28.244  1.00  0.00     0.037 A 
ATOM     30  C   UNL A   1      44.918  24.544  26.927  1.00  0.00     0.049 A 
ATOM     31  C   UNL A   1      46.759  29.875  27.778  1.00  0.00     0.074 A 
ATOM     32  C   UNL A   1      45.864  23.648  26.476  1.00  0.00     0.029 A 
ATOM     33  N   UNL A   1      45.557  25.771  27.080  1.00  0.00    -0.354 N 
ATOM     34  N   UNL A   1      46.453  28.621  27.530  1.00  0.00    -0.248 NA
ATOM     35  C   UNL A   1      48.172  30.204  27.577  1.00  0.00     0.031 C 
ATOM     36  C   UNL A   1      47.089  24.322  26.405  1.00  0.00     0.029 A 
ATOM     37  C   UNL A   1      46.892  25.652  26.752  1.00  0.00     0.049 A 
ATOM     38  H   UNL A   1      45.121  26.601  27.380  1.00  0.00     0.167 HD
ATOM     39  C   UNL A   1      47.631  28.014  27.125  1.00  0.00     0.074 A 
ATOM     40  C   UNL A   1      48.650  29.048  27.142  1.00  0.00     0.031 C 
ATOM     41  C   UNL A   1      47.859  26.724  26.774  1.00  0.00     0.037 A 
BRANCH  28  42
ATOM     42  C   UNL A   1      42.914  22.969  27.026  1.00  0.00     0.057 A 
ATOM     43  C   UNL A   1      42.591  22.137  28.108  1.00  0.00     0.134 A 
ATOM     44  C   UNL A   1      42.726  22.449  25.738  1.00  0.00     0.134 A 
ATOM     45  F   UNL A   1      42.785  22.555  29.368  1.00  0.00    -0.206 F 
ATOM     46  C   UNL A   1      42.142  20.828  27.914  1.00  0.00     0.040 A 
ATOM     47  C   UNL A   1      42.249  21.153  25.533  1.00  0.00     0.040 A 
ATOM     48  F   UNL A   1      43.027  23.184  24.657  1.00  0.00    -0.206 F 
ATOM     49  C   UNL A   1      41.968  20.334  26.623  1.00  0.00     0.006 A 
ENDBRANCH  28  42
BRANCH  29  50
ATOM     50  C   UNL A   1      46.371  32.377  28.433  1.00  0.00     0.057 A 
ATOM     51  C   UNL A   1      46.411  33.288  27.372  1.00  0.00     0.134 A 
ATOM     52  C   UNL A   1      46.837  32.826  29.678  1.00  0.00     0.134 A 
ATOM     53  F   UNL A   1      45.995  32.921  26.151  1.00  0.00    -0.206 F 
ATOM     54  C   UNL A   1      46.908  34.584  27.535  1.00  0.00     0.040 A 
ATOM     55  C   UNL A   1      47.307  34.128  29.863  1.00  0.00     0.040 A 
ATOM     56  F   UNL A   1      46.828  32.010  30.742  1.00  0.00    -0.206 F 
ATOM     57  C   UNL A   1      47.353  35.009  28.785  1.00  0.00     0.006 A 
ENDBRANCH  29  50
BRANCH  41  58
ATOM     58  C   UNL A   1      49.249  26.392  26.329  1.00  0.00     0.057 A 
ATOM     59  C   UNL A   1      49.681  26.614  25.017  1.00  0.00     0.134 A 
ATOM     60  C   UNL A   1      50.175  25.878  27.245  1.00  0.00     0.134 A 
ATOM     61  F   UNL A   1      48.833  27.091  24.093  1.00  0.00    -0.206 F 
ATOM     62  C   UNL A   1      50.982  26.309  24.622  1.00  0.00     0.040 A 
ATOM     63  C   UNL A   1      51.487  25.601  26.872  1.00  0.00     0.040 A 
ATOM     64  F   UNL A   1      49.820  25.654  28.520  1.00  0.00    -0.206 F 
ATOM     65  C   UNL A   1      51.892  25.809  25.555  1.00  0.00     0.006 A 
ENDBRANCH  41  58
ENDBRANCH  15  16
ENDBRANCH   8  10
ENDBRANCH   7   8
ENDBRANCH   6   7
ENDBRANCH   5   6
ENDBRANCH   4   5
ENDBRANCH   3   4
ENDBRANCH   2   3
ENDBRANCH   1   2
BRANCH   1  66
ATOM     66  C   UNL A   1      33.492  30.182  27.411  1.00  0.00     0.188 C 
BRANCH  66  67
ATOM     67  C   UNL A   1      32.213  30.667  26.699  1.00  0.00     0.188 C 
BRANCH  67  68
ATOM     68  O   UNL A   1      32.036  30.203  25.374  1.00  0.00    -0.376 OA
BRANCH  68  69
ATOM     69  C   UNL A   1      33.028  29.374  24.774  1.00  0.00     0.202 C 
BRANCH  69  70
ATOM     70  C   UNL A   1      32.819  28.582  23.465  1.00  0.00     0.261 C 
BRANCH  70  71
ATOM     71  O   UNL A   1      33.758  27.525  23.207  1.00  0.00    -0.463 OA
BRANCH  71  72
ATOM     72  C   UNL A   1      33.326  26.540  22.373  1.00  0.00     0.310 C 
ATOM     73  O   UNL A   1      33.548  26.535  21.165  1.00  0.00    -0.252 OA
BRANCH  72  74
ATOM     74  C   UNL A   1      32.711  25.349  23.091  1.00  0.00     0.119 C 
ATOM     75  C   UNL A   1      31.201  25.084  22.920  1.00  0.00     0.019 C 
ATOM     76  C   UNL A   1      33.480  24.102  22.666  1.00  0.00     0.135 C 
ATOM     77  C   UNL A   1      30.760  23.848  23.721  1.00  0.00     0.022 C 
ATOM     78  N   UNL A   1      32.946  22.969  23.391  1.00  0.00    -0.340 N 
ATOM     79  C   UNL A   1      31.552  22.627  23.266  1.00  0.00     0.120 C 
BRANCH  78  80
ATOM     80  C   UNL A   1      33.815  22.129  24.007  1.00  0.00     0.226 A 
ATOM     81  N   UNL A   1      34.984  22.618  24.433  1.00  0.00    -0.210 NA
ATOM     82  N   UNL A   1      33.469  20.844  24.085  1.00  0.00    -0.208 NA
ATOM     83  C   UNL A   1      35.847  21.747  24.980  1.00  0.00     0.112 A 
ATOM     84  C   UNL A   1      34.377  19.972  24.574  1.00  0.00     0.150 A 
ATOM     85  C   UNL A   1      35.603  20.395  25.048  1.00  0.00     0.066 A 
BRANCH  83  86
ATOM     86  C   UNL A   1      37.088  22.307  25.490  1.00  0.00     0.152 A 
ATOM     87  C   UNL A   1      38.292  21.759  25.887  1.00  0.00     0.052 A 
ATOM     88  O   UNL A   1      37.100  23.654  25.720  1.00  0.00    -0.463 OA
ATOM     89  C   UNL A   1      39.074  22.823  26.398  1.00  0.00     0.043 A 
ATOM     90  C   UNL A   1      38.304  23.955  26.276  1.00  0.00     0.196 A 
ENDBRANCH  83  86
BRANCH  84  91
ATOM     91  C   UNL A   1      34.029  18.502  24.523  1.00  0.00     0.433 C 
ATOM     92  F   UNL A   1      33.502  18.112  23.329  1.00  0.00    -0.165 F 
ATOM     93  F   UNL A   1      35.111  17.701  24.742  1.00  0.00    -0.165 F 
ATOM     94  F   UNL A   1      33.111  18.137  25.467  1.00  0.00    -0.165 F 
ENDBRANCH  84  91
ENDBRANCH  78  80
ENDBRANCH  72  74
ENDBRANCH  71  72
ENDBRANCH  70  71
ENDBRANCH  69  70
ENDBRANCH  68  69
ENDBRANCH  67  68
ENDBRANCH  66  67
ENDBRANCH   1  66
TORSDOF 23
ENDMDL
MODEL 2
REMARK VINA RESULT:     -10.0      3.082      8.977
REMARK SMILES O=C(OCCOCCOCCOCCOC(=O)[C@H]1CCCN(c2nc(-c3ccco3)cc(C(F)(F)F)n2)C1)c1ccc(-c2c3nc(c(-c4c(F)cccc4F)c4ccc([nH]4)c(-c4c(F)cccc4F)c4nc(c(-c5c(F)cccc5F)c5ccc2[nH]5)C=C4)C=C3)cc1
REMARK SMILES IDX 9 1 8 2 7 3 6 4 5 5 4 6 3 7 2 8 1 9 39 10 40 11 92 12 41 13
REMARK SMILES IDX 91 14 42 15 43 16 44 17 85 18 45 19 90 20 84 21 86 22 46 23
REMARK SMILES IDX 89 24 83 25 82 26 47 28 73 29 56 30 72 31 57 32 60 33 71 34
REMARK SMILES IDX 87 35 58 36 59 37 70 39 88 40 61 41 48 42 49 43 54 44 50 45
REMARK SMILES IDX 51 46 53 47 55 48 52 49 74 50 75 51 80 52 76 53 77 54 79 55
REMARK SMILES IDX 81 56 78 57 62 58 63 59 68 60 64 61 65 62 67 63 69 64 66 65
REMARK SMILES IDX 10 66 11 67 12 68 13 69 14 70 15 71 16 72 17 73 18 74 19 75
REMARK SMILES IDX 38 76 20 77 22 78 21 79 23 80 24 81 37 82 25 83 32 84 31 85
REMARK SMILES IDX 26 86 27 87 30 88 28 89 29 90 33 91 34 92 35 93 36 94
REMARK H PARENT 86 27 60 38
REMARK Flexibility Score: inf
ROOT
ATOM      1  O   UNL A   1      38.048  21.444  25.854  1.00  0.00    -0.377 OA
ENDROOT
BRANCH   1   2
ATOM      2  C   UNL A   1      39.442  21.258  25.677  1.00  0.00     0.188 C 
BRANCH   2   3
ATOM      3  C   UNL A   1      40.255  21.480  26.933  1.00  0.00     0.188 C 
BRANCH   3   4
ATOM      4  O   UNL A   1      41.587  21.075  26.686  1.00  0.00    -0.376 OA
BRANCH   4   5
ATOM      5  C   UNL A   1      42.094  19.869  27.212  1.00  0.00     0.202 C 
BRANCH   5   6
ATOM      6  C   UNL A   1      42.467  18.776  26.232  1.00  0.00     0.261 C 
BRANCH   6   7
ATOM      7  O   UNL A   1      43.025  19.150  24.946  1.00  0.00    -0.460 OA
BRANCH   7   8
ATOM      8  C   UNL A   1      44.207  19.621  24.488  1.00  0.00     0.338 C 
ATOM      9  O   UNL A   1      44.867  18.952  23.713  1.00  0.00    -0.246 OA
BRANCH   8  10
ATOM     10  C   UNL A   1      44.700  20.973  24.822  1.00  0.00     0.060 A 
ATOM     11  C   UNL A   1      45.396  21.272  25.980  1.00  0.00     0.016 A 
ATOM     12  C   UNL A   1      44.586  21.974  23.856  1.00  0.00     0.016 A 
ATOM     13  C   UNL A   1      45.629  22.571  26.362  1.00  0.00     0.010 A 
ATOM     14  C   UNL A   1      45.013  23.272  24.144  1.00  0.00     0.010 A 
ATOM     15  C   UNL A   1      45.441  23.589  25.442  1.00  0.00    -0.014 A 
BRANCH  15  16
ATOM     16  C   UNL A   1      45.536  24.973  25.930  1.00  0.00     0.031 A 
ATOM     17  C   UNL A   1      46.835  25.688  25.717  1.00  0.00     0.074 A 
ATOM     18  C   UNL A   1      44.440  25.612  26.382  1.00  0.00     0.049 A 
ATOM     19  N   UNL A   1      47.228  26.848  26.162  1.00  0.00    -0.248 NA
ATOM     20  C   UNL A   1      47.841  24.993  24.889  1.00  0.00     0.031 C 
ATOM     21  C   UNL A   1      43.089  25.041  26.450  1.00  0.00     0.029 A 
ATOM     22  N   UNL A   1      44.273  26.897  26.816  1.00  0.00    -0.354 N 
ATOM     23  C   UNL A   1      48.545  26.980  25.741  1.00  0.00     0.074 A 
ATOM     24  C   UNL A   1      48.889  25.790  25.002  1.00  0.00     0.031 C 
ATOM     25  C   UNL A   1      42.226  25.991  26.837  1.00  0.00     0.029 A 
ATOM     26  C   UNL A   1      42.978  27.191  27.168  1.00  0.00     0.049 A 
ATOM     27  H   UNL A   1      45.009  27.548  26.871  1.00  0.00     0.167 HD
ATOM     28  C   UNL A   1      49.388  28.009  25.975  1.00  0.00     0.037 A 
ATOM     29  C   UNL A   1      42.479  28.297  27.747  1.00  0.00     0.037 A 
ATOM     30  C   UNL A   1      48.978  29.194  26.679  1.00  0.00     0.049 A 
ATOM     31  C   UNL A   1      43.453  29.390  28.082  1.00  0.00     0.074 A 
ATOM     32  C   UNL A   1      49.728  30.292  27.043  1.00  0.00     0.029 A 
ATOM     33  N   UNL A   1      47.677  29.426  27.112  1.00  0.00    -0.354 N 
ATOM     34  N   UNL A   1      44.735  29.468  27.801  1.00  0.00    -0.248 NA
ATOM     35  C   UNL A   1      42.929  30.529  28.839  1.00  0.00     0.031 C 
ATOM     36  C   UNL A   1      48.890  31.167  27.744  1.00  0.00     0.029 A 
ATOM     37  C   UNL A   1      47.604  30.643  27.760  1.00  0.00     0.049 A 
ATOM     38  H   UNL A   1      46.919  28.813  26.978  1.00  0.00     0.167 HD
ATOM     39  C   UNL A   1      45.167  30.675  28.328  1.00  0.00     0.074 A 
ATOM     40  C   UNL A   1      44.002  31.300  28.928  1.00  0.00     0.031 C 
ATOM     41  C   UNL A   1      46.409  31.221  28.326  1.00  0.00     0.037 A 
BRANCH  28  42
ATOM     42  C   UNL A   1      50.818  27.826  25.560  1.00  0.00     0.057 A 
ATOM     43  C   UNL A   1      51.841  27.512  26.466  1.00  0.00     0.134 A 
ATOM     44  C   UNL A   1      51.190  28.054  24.228  1.00  0.00     0.134 A 
ATOM     45  F   UNL A   1      51.563  27.321  27.765  1.00  0.00    -0.206 F 
ATOM     46  C   UNL A   1      53.181  27.470  26.071  1.00  0.00     0.040 A 
ATOM     47  C   UNL A   1      52.521  27.985  23.815  1.00  0.00     0.040 A 
ATOM     48  F   UNL A   1      50.265  28.373  23.309  1.00  0.00    -0.206 F 
ATOM     49  C   UNL A   1      53.523  27.705  24.741  1.00  0.00     0.006 A 
ENDBRANCH  28  42
BRANCH  29  50
ATOM     50  C   UNL A   1      41.038  28.388  28.105  1.00  0.00     0.057 A 
ATOM     51  C   UNL A   1      40.096  28.902  27.207  1.00  0.00     0.134 A 
ATOM     52  C   UNL A   1      40.564  27.973  29.358  1.00  0.00     0.134 A 
ATOM     53  F   UNL A   1      40.482  29.332  25.996  1.00  0.00    -0.206 F 
ATOM     54  C   UNL A   1      38.745  29.016  27.545  1.00  0.00     0.040 A 
ATOM     55  C   UNL A   1      39.213  28.051  29.698  1.00  0.00     0.040 A 
ATOM     56  F   UNL A   1      41.408  27.468  30.271  1.00  0.00    -0.206 F 
ATOM     57  C   UNL A   1      38.299  28.584  28.793  1.00  0.00     0.006 A 
ENDBRANCH  29  50
BRANCH  41  58
ATOM     58  C   UNL A   1      46.539  32.579  28.941  1.00  0.00     0.057 A 
ATOM     59  C   UNL A   1      46.918  32.756  30.276  1.00  0.00     0.134 A 
ATOM     60  C   UNL A   1      46.315  33.725  28.167  1.00  0.00     0.134 A 
ATOM     61  F   UNL A   1      47.129  31.694  31.070  1.00  0.00    -0.206 F 
ATOM     62  C   UNL A   1      47.043  34.028  30.831  1.00  0.00     0.040 A 
ATOM     63  C   UNL A   1      46.470  35.001  28.700  1.00  0.00     0.040 A 
ATOM     64  F   UNL A   1      45.960  33.617  26.877  1.00  0.00    -0.206 F 
ATOM     65  C   UNL A   1      46.827  35.155  30.038  1.00  0.00     0.006 A 
ENDBRANCH  41  58
ENDBRANCH  15  16
ENDBRANCH   8  10
ENDBRANCH   7   8
ENDBRANCH   6   7
ENDBRANCH   5   6
ENDBRANCH   4   5
ENDBRANCH   3   4
ENDBRANCH   2   3
ENDBRANCH   1   2
BRANCH   1  66
ATOM     66  C   UNL A   1      37.124  21.028  24.857  1.00  0.00     0.188 C 
BRANCH  66  67
ATOM     67  C   UNL A   1      36.640  19.564  24.817  1.00  0.00     0.188 C 
BRANCH  67  68
ATOM     68  O   UNL A   1      35.258  19.369  25.049  1.00  0.00    -0.376 OA
BRANCH  68  69
ATOM     69  C   UNL A   1      34.560  18.342  24.350  1.00  0.00     0.202 C 
BRANCH  69  70
ATOM     70  C   UNL A   1      33.021  18.247  24.262  1.00  0.00     0.261 C 
BRANCH  70  71
ATOM     71  O   UNL A   1      32.282  19.248  24.982  1.00  0.00    -0.463 OA
BRANCH  71  72
ATOM     72  C   UNL A   1      32.378  20.516  24.500  1.00  0.00     0.310 C 
ATOM     73  O   UNL A   1      32.143  20.812  23.331  1.00  0.00    -0.252 OA
BRANCH  72  74
ATOM     74  C   UNL A   1      32.615  21.569  25.572  1.00  0.00     0.119 C 
ATOM     75  C   UNL A   1      33.591  21.245  26.721  1.00  0.00     0.019 C 
ATOM     76  C   UNL A   1      33.080  22.844  24.877  1.00  0.00     0.135 C 
ATOM     77  C   UNL A   1      33.696  22.419  27.708  1.00  0.00     0.022 C 
ATOM     78  N   UNL A   1      33.247  23.873  25.880  1.00  0.00    -0.340 N 
ATOM     79  C   UNL A   1      34.164  23.670  26.973  1.00  0.00     0.120 C 
BRANCH  78  80
ATOM     80  C   UNL A   1      32.695  25.092  25.654  1.00  0.00     0.226 A 
ATOM     81  N   UNL A   1      33.295  26.170  26.169  1.00  0.00    -0.210 NA
ATOM     82  N   UNL A   1      31.542  25.125  24.986  1.00  0.00    -0.208 NA
ATOM     83  C   UNL A   1      32.689  27.354  25.983  1.00  0.00     0.112 A 
ATOM     84  C   UNL A   1      30.912  26.314  24.869  1.00  0.00     0.150 A 
ATOM     85  C   UNL A   1      31.468  27.478  25.360  1.00  0.00     0.066 A 
BRANCH  83  86
ATOM     86  C   UNL A   1      33.385  28.521  26.499  1.00  0.00     0.152 A 
ATOM     87  C   UNL A   1      34.631  28.720  27.060  1.00  0.00     0.052 A 
ATOM     88  O   UNL A   1      32.675  29.689  26.533  1.00  0.00    -0.463 OA
ATOM     89  C   UNL A   1      34.680  30.075  27.470  1.00  0.00     0.043 A 
ATOM     90  C   UNL A   1      33.465  30.621  27.129  1.00  0.00     0.196 A 
ENDBRANCH  83  86
BRANCH  84  91
ATOM     91  C   UNL A   1      29.539  26.316  24.238  1.00  0.00     0.433 C 
ATOM     92  F   UNL A   1      29.189  27.521  23.706  1.00  0.00    -0.165 F 
ATOM     93  F   UNL A   1      29.428  25.407  23.227  1.00  0.00    -0.165 F 
ATOM     94  F   UNL A   1      28.544  26.001  25.120  1.00  0.00    -0.165 F 
ENDBRANCH  84  91
ENDBRANCH  78  80
ENDBRANCH  72  74
ENDBRANCH  71  72
ENDBRANCH  70  71
ENDBRANCH  69  70
ENDBRANCH  68  69
ENDBRANCH  67  68
ENDBRANCH  66  67
ENDBRANCH   1  66
TORSDOF 23
ENDMDL
MODEL 3
REMARK VINA RESULT:      -9.4      1.402      2.051
REMARK SMILES O=C(OCCOCCOCCOCCOC(=O)[C@H]1CCCN(c2nc(-c3ccco3)cc(C(F)(F)F)n2)C1)c1ccc(-c2c3nc(c(-c4c(F)cccc4F)c4ccc([nH]4)c(-c4c(F)cccc4F)c4nc(c(-c5c(F)cccc5F)c5ccc2[nH]5)C=C4)C=C3)cc1
REMARK SMILES IDX 9 1 8 2 7 3 6 4 5 5 4 6 3 7 2 8 1 9 39 10 40 11 92 12 41 13
REMARK SMILES IDX 91 14 42 15 43 16 44 17 85 18 45 19 90 20 84 21 86 22 46 23
REMARK SMILES IDX 89 24 83 25 82 26 47 28 73 29 56 30 72 31 57 32 60 33 71 34
REMARK SMILES IDX 87 35 58 36 59 37 70 39 88 40 61 41 48 42 49 43 54 44 50 45
REMARK SMILES IDX 51 46 53 47 55 48 52 49 74 50 75 51 80 52 76 53 77 54 79 55
REMARK SMILES IDX 81 56 78 57 62 58 63 59 68 60 64 61 65 62 67 63 69 64 66 65
REMARK SMILES IDX 10 66 11 67 12 68 13 69 14 70 15 71 16 72 17 73 18 74 19 75
REMARK SMILES IDX 38 76 20 77 22 78 21 79 23 80 24 81 37 82 25 83 32 84 31 85
REMARK SMILES IDX 26 86 27 87 30 88 28 89 29 90 33 91 34 92 35 93 36 94
REMARK H PARENT 86 27 60 38
REMARK Flexibility Score: inf
ROOT
ATOM      1  O   UNL A   1      34.155  31.063  28.372  1.00  0.00    -0.377 OA
ENDROOT
BRANCH   1   2
ATOM      2  C   UNL A   1      34.688  32.319  27.989  1.00  0.00     0.188 C 
BRANCH   2   3
ATOM      3  C   UNL A   1      33.985  33.502  28.616  1.00  0.00     0.188 C 
BRANCH   3   4
ATOM      4  O   UNL A   1      34.062  33.380  30.023  1.00  0.00    -0.376 OA
BRANCH   4   5
ATOM      5  C   UNL A   1      35.234  33.730  30.724  1.00  0.00     0.202 C 
BRANCH   5   6
ATOM      6  C   UNL A   1      35.547  32.968  31.996  1.00  0.00     0.261 C 
BRANCH   6   7
ATOM      7  O   UNL A   1      36.935  32.751  32.357  1.00  0.00    -0.460 OA
BRANCH   7   8
ATOM      8  C   UNL A   1      37.677  31.725  32.835  1.00  0.00     0.338 C 
ATOM      9  O   UNL A   1      37.458  31.288  33.951  1.00  0.00    -0.246 OA
BRANCH   8  10
ATOM     10  C   UNL A   1      38.699  31.043  32.015  1.00  0.00     0.060 A 
ATOM     11  C   UNL A   1      39.496  30.012  32.483  1.00  0.00     0.016 A 
ATOM     12  C   UNL A   1      38.769  31.352  30.657  1.00  0.00     0.016 A 
ATOM     13  C   UNL A   1      40.583  29.567  31.772  1.00  0.00     0.010 A 
ATOM     14  C   UNL A   1      39.740  30.750  29.854  1.00  0.00     0.010 A 
ATOM     15  C   UNL A   1      40.716  29.932  30.444  1.00  0.00    -0.014 A 
BRANCH  15  16
ATOM     16  C   UNL A   1      41.972  29.580  29.763  1.00  0.00     0.031 A 
ATOM     17  C   UNL A   1      42.055  28.222  29.135  1.00  0.00     0.074 A 
ATOM     18  C   UNL A   1      42.924  30.512  29.567  1.00  0.00     0.049 A 
ATOM     19  N   UNL A   1      43.075  27.616  28.599  1.00  0.00    -0.248 NA
ATOM     20  C   UNL A   1      40.809  27.430  29.113  1.00  0.00     0.031 C 
ATOM     21  C   UNL A   1      42.842  31.916  29.990  1.00  0.00     0.029 A 
ATOM     22  N   UNL A   1      44.122  30.438  28.915  1.00  0.00    -0.354 N 
ATOM     23  C   UNL A   1      42.617  26.350  28.257  1.00  0.00     0.074 A 
ATOM     24  C   UNL A   1      41.228  26.271  28.638  1.00  0.00     0.031 C 
ATOM     25  C   UNL A   1      43.911  32.580  29.529  1.00  0.00     0.029 A 
ATOM     26  C   UNL A   1      44.810  31.627  28.897  1.00  0.00     0.049 A 
ATOM     27  H   UNL A   1      44.460  29.612  28.498  1.00  0.00     0.167 HD
ATOM     28  C   UNL A   1      43.316  25.344  27.688  1.00  0.00     0.037 A 
ATOM     29  C   UNL A   1      46.056  31.889  28.465  1.00  0.00     0.037 A 
ATOM     30  C   UNL A   1      44.688  25.492  27.286  1.00  0.00     0.049 A 
ATOM     31  C   UNL A   1      46.846  30.733  27.922  1.00  0.00     0.074 A 
ATOM     32  C   UNL A   1      45.544  24.552  26.752  1.00  0.00     0.029 A 
ATOM     33  N   UNL A   1      45.394  26.687  27.369  1.00  0.00    -0.354 N 
ATOM     34  N   UNL A   1      46.460  29.494  27.713  1.00  0.00    -0.248 NA
ATOM     35  C   UNL A   1      48.247  30.995  27.585  1.00  0.00     0.031 C 
ATOM     36  C   UNL A   1      46.786  25.167  26.560  1.00  0.00     0.029 A 
ATOM     37  C   UNL A   1      46.685  26.506  26.915  1.00  0.00     0.049 A 
ATOM     38  H   UNL A   1      45.028  27.538  27.703  1.00  0.00     0.167 HD
ATOM     39  C   UNL A   1      47.564  28.832  27.201  1.00  0.00     0.074 A 
ATOM     40  C   UNL A   1      48.628  29.817  27.114  1.00  0.00     0.031 C 
ATOM     41  C   UNL A   1      47.698  27.531  26.838  1.00  0.00     0.037 A 
BRANCH  28  42
ATOM     42  C   UNL A   1      42.632  24.012  27.586  1.00  0.00     0.057 A 
ATOM     43  C   UNL A   1      42.867  22.962  28.485  1.00  0.00     0.134 A 
ATOM     44  C   UNL A   1      41.778  23.751  26.505  1.00  0.00     0.134 A 
ATOM     45  F   UNL A   1      43.705  23.128  29.519  1.00  0.00    -0.206 F 
ATOM     46  C   UNL A   1      42.309  21.695  28.291  1.00  0.00     0.040 A 
ATOM     47  C   UNL A   1      41.192  22.499  26.318  1.00  0.00     0.040 A 
ATOM     48  F   UNL A   1      41.519  24.705  25.597  1.00  0.00    -0.206 F 
ATOM     49  C   UNL A   1      41.468  21.462  27.207  1.00  0.00     0.006 A 
ENDBRANCH  28  42
BRANCH  29  50
ATOM     50  C   UNL A   1      46.639  33.251  28.596  1.00  0.00     0.057 A 
ATOM     51  C   UNL A   1      47.381  33.620  29.724  1.00  0.00     0.134 A 
ATOM     52  C   UNL A   1      46.462  34.225  27.602  1.00  0.00     0.134 A 
ATOM     53  F   UNL A   1      47.576  32.743  30.720  1.00  0.00    -0.206 F 
ATOM     54  C   UNL A   1      47.908  34.906  29.867  1.00  0.00     0.040 A 
ATOM     55  C   UNL A   1      47.011  35.504  27.717  1.00  0.00     0.040 A 
ATOM     56  F   UNL A   1      45.764  33.944  26.492  1.00  0.00    -0.206 F 
ATOM     57  C   UNL A   1      47.729  35.851  28.859  1.00  0.00     0.006 A 
ENDBRANCH  29  50
BRANCH  41  58
ATOM     58  C   UNL A   1      49.022  27.135  26.264  1.00  0.00     0.057 A 
ATOM     59  C   UNL A   1      50.051  26.619  27.060  1.00  0.00     0.134 A 
ATOM     60  C   UNL A   1      49.250  27.239  24.886  1.00  0.00     0.134 A 
ATOM     61  F   UNL A   1      49.894  26.511  28.389  1.00  0.00    -0.206 F 
ATOM     62  C   UNL A   1      51.274  26.245  26.508  1.00  0.00     0.040 A 
ATOM     63  C   UNL A   1      50.456  26.837  24.319  1.00  0.00     0.040 A 
ATOM     64  F   UNL A   1      48.297  27.717  24.072  1.00  0.00    -0.206 F 
ATOM     65  C   UNL A   1      51.475  26.346  25.132  1.00  0.00     0.006 A 
ENDBRANCH  41  58
ENDBRANCH  15  16
ENDBRANCH   8  10
ENDBRANCH   7   8
ENDBRANCH   6   7
ENDBRANCH   5   6
ENDBRANCH   4   5
ENDBRANCH   3   4
ENDBRANCH   2   3
ENDBRANCH   1   2
BRANCH   1  66
ATOM     66  C   UNL A   1      33.278  30.350  27.510  1.00  0.00     0.188 C 
BRANCH  66  67
ATOM     67  C   UNL A   1      32.230  31.111  26.673  1.00  0.00     0.188 C 
BRANCH  67  68
ATOM     68  O   UNL A   1      31.827  30.477  25.473  1.00  0.00    -0.376 OA
BRANCH  68  69
ATOM     69  C   UNL A   1      32.143  29.105  25.255  1.00  0.00     0.202 C 
BRANCH  69  70
ATOM     70  C   UNL A   1      31.558  28.254  24.107  1.00  0.00     0.261 C 
BRANCH  70  71
ATOM     71  O   UNL A   1      31.723  26.831  24.225  1.00  0.00    -0.463 OA
BRANCH  71  72
ATOM     72  C   UNL A   1      30.575  26.111  24.354  1.00  0.00     0.310 C 
ATOM     73  O   UNL A   1      29.594  26.273  23.633  1.00  0.00    -0.252 OA
BRANCH  72  74
ATOM     74  C   UNL A   1      30.677  24.957  25.339  1.00  0.00     0.119 C 
ATOM     75  C   UNL A   1      29.496  24.699  26.297  1.00  0.00     0.019 C 
ATOM     76  C   UNL A   1      30.951  23.687  24.541  1.00  0.00     0.135 C 
ATOM     77  C   UNL A   1      29.782  23.503  27.219  1.00  0.00     0.022 C 
ATOM     78  N   UNL A   1      31.114  22.592  25.472  1.00  0.00    -0.340 N 
ATOM     79  C   UNL A   1      30.049  22.257  26.382  1.00  0.00     0.120 C 
BRANCH  78  80
ATOM     80  C   UNL A   1      32.184  21.771  25.323  1.00  0.00     0.226 A 
ATOM     81  N   UNL A   1      33.409  22.289  25.455  1.00  0.00    -0.210 NA
ATOM     82  N   UNL A   1      31.940  20.505  24.985  1.00  0.00    -0.208 NA
ATOM     83  C   UNL A   1      34.447  21.465  25.239  1.00  0.00     0.112 A 
ATOM     84  C   UNL A   1      32.995  19.710  24.702  1.00  0.00     0.150 A 
ATOM     85  C   UNL A   1      34.293  20.161  24.826  1.00  0.00     0.066 A 
BRANCH  83  86
ATOM     86  C   UNL A   1      35.771  22.031  25.443  1.00  0.00     0.152 A 
ATOM     87  C   UNL A   1      36.231  23.287  25.785  1.00  0.00     0.052 A 
ATOM     88  O   UNL A   1      36.832  21.210  25.179  1.00  0.00    -0.463 OA
ATOM     89  C   UNL A   1      37.644  23.235  25.715  1.00  0.00     0.043 A 
ATOM     90  C   UNL A   1      37.961  21.951  25.340  1.00  0.00     0.196 A 
ENDBRANCH  83  86
BRANCH  84  91
ATOM     91  C   UNL A   1      32.701  18.322  24.180  1.00  0.00     0.433 C 
ATOM     92  F   UNL A   1      33.812  17.659  23.751  1.00  0.00    -0.165 F 
ATOM     93  F   UNL A   1      32.120  17.523  25.119  1.00  0.00    -0.165 F 
ATOM     94  F   UNL A   1      31.840  18.321  23.119  1.00  0.00    -0.165 F 
ENDBRANCH  84  91
ENDBRANCH  78  80
ENDBRANCH  72  74
ENDBRANCH  71  72
ENDBRANCH  70  71
ENDBRANCH  69  70
ENDBRANCH  68  69
ENDBRANCH  67  68
ENDBRANCH  66  67
ENDBRANCH   1  66
TORSDOF 23
ENDMDL
