MODEL 1
REMARK VINA RESULT:      -8.9      0.000      0.000
REMARK SMILES C[C@H]1[NH2+]CC[C@H]1C(=O)N(C)CCCC(=O)OCCOCCOCCOCCOC(=O)c1ccc(-c2c3nc(c(-c4c(F)cccc4F)c4ccc([nH]4)c(-c4c(F)cccc4F)c4nc(c(-c5c(F)cccc5F)c5ccc2[nH]5)C=C4)C=C3)cc1
REMARK SMILES IDX 20 1 19 2 18 3 17 4 16 5 14 6 15 7 13 8 12 9 11 10 9 11
REMARK SMILES IDX 10 12 7 13 8 14 6 15 1 16 2 17 3 18 4 19 5 22 21 23 22 24
REMARK SMILES IDX 23 25 24 26 25 27 26 28 27 29 28 30 29 31 30 32 31 33 32 34
REMARK SMILES IDX 84 35 33 36 83 37 34 38 35 39 36 40 77 41 37 42 82 43 76 44
REMARK SMILES IDX 78 45 38 46 81 47 75 48 74 49 39 51 65 52 48 53 64 54 49 55
REMARK SMILES IDX 52 56 63 57 79 58 50 59 51 60 62 62 80 63 53 64 40 65 41 66
REMARK SMILES IDX 46 67 42 68 43 69 45 70 47 71 44 72 66 73 67 74 72 75 68 76
REMARK SMILES IDX 69 77 71 78 73 79 70 80 54 81 55 82 60 83 56 84 57 85 59 86
REMARK SMILES IDX 61 87 58 88
REMARK H PARENT 3 20 3 21 78 50 52 61
REMARK Flexibility Score: inf
ROOT
ATOM      1  C   UNL A   1      33.677  23.427  22.901  1.00  0.00     0.188 C 
ENDROOT
BRANCH   1   2
ATOM      2  O   UNL A   1      33.006  22.232  23.244  1.00  0.00    -0.376 OA
BRANCH   2   3
ATOM      3  C   UNL A   1      33.289  21.611  24.484  1.00  0.00     0.202 C 
BRANCH   3   4
ATOM      4  C   UNL A   1      32.178  21.296  25.495  1.00  0.00     0.261 C 
BRANCH   4   5
ATOM      5  O   UNL A   1      30.997  22.096  25.394  1.00  0.00    -0.463 OA
BRANCH   5   6
ATOM      6  C   UNL A   1      30.971  23.255  26.081  1.00  0.00     0.305 C 
ATOM      7  O   UNL A   1      30.946  23.328  27.307  1.00  0.00    -0.252 OA
BRANCH   6   8
ATOM      8  C   UNL A   1      31.066  24.495  25.207  1.00  0.00     0.124 C 
BRANCH   8   9
ATOM      9  C   UNL A   1      30.271  25.786  25.468  1.00  0.00     0.033 C 
BRANCH   9  10
ATOM     10  C   UNL A   1      30.017  26.787  24.335  1.00  0.00     0.119 C 
BRANCH  10  11
ATOM     11  N   UNL A   1      31.203  27.573  24.011  1.00  0.00    -0.345 N 
ATOM     12  C   UNL A   1      31.974  27.103  22.871  1.00  0.00     0.146 C 
BRANCH  11  13
ATOM     13  C   UNL A   1      31.295  28.839  24.543  1.00  0.00     0.231 C 
ATOM     14  O   UNL A   1      30.480  29.713  24.232  1.00  0.00    -0.274 OA
BRANCH  13  15
ATOM     15  C   UNL A   1      32.374  29.229  25.530  1.00  0.00     0.142 C 
ATOM     16  C   UNL A   1      31.207  28.202  27.684  1.00  0.00     0.076 C 
ATOM     17  C   UNL A   1      32.187  29.180  27.047  1.00  0.00     0.192 C 
ATOM     18  N   UNL A   1      33.540  28.950  27.601  1.00  0.00    -0.343 N 
ATOM     19  C   UNL A   1      34.502  28.907  26.496  1.00  0.00     0.261 C 
ATOM     20  H   UNL A   1      33.558  28.063  28.105  1.00  0.00     0.346 HD
ATOM     21  H   UNL A   1      33.785  29.702  28.244  1.00  0.00     0.346 HD
ATOM     22  C   UNL A   1      33.723  28.618  25.233  1.00  0.00     0.081 C 
ENDBRANCH  13  15
ENDBRANCH  11  13
ENDBRANCH  10  11
ENDBRANCH   9  10
ENDBRANCH   8   9
ENDBRANCH   6   8
ENDBRANCH   5   6
ENDBRANCH   4   5
ENDBRANCH   3   4
ENDBRANCH   2   3
ENDBRANCH   1   2
BRANCH   1  23
ATOM     23  C   UNL A   1      34.748  23.864  23.921  1.00  0.00     0.188 C 
BRANCH  23  24
ATOM     24  O   UNL A   1      36.127  23.588  23.702  1.00  0.00    -0.377 OA
BRANCH  24  25
ATOM     25  C   UNL A   1      36.987  23.364  24.818  1.00  0.00     0.188 C 
BRANCH  25  26
ATOM     26  C   UNL A   1      36.575  22.367  25.923  1.00  0.00     0.188 C 
BRANCH  26  27
ATOM     27  O   UNL A   1      36.565  21.009  25.520  1.00  0.00    -0.376 OA
BRANCH  27  28
ATOM     28  C   UNL A   1      37.629  20.555  24.698  1.00  0.00     0.202 C 
BRANCH  28  29
ATOM     29  C   UNL A   1      38.616  19.533  25.287  1.00  0.00     0.261 C 
BRANCH  29  30
ATOM     30  O   UNL A   1      39.552  20.035  26.255  1.00  0.00    -0.460 OA
BRANCH  30  31
ATOM     31  C   UNL A   1      40.834  19.640  26.149  1.00  0.00     0.338 C 
ATOM     32  O   UNL A   1      41.252  18.562  25.751  1.00  0.00    -0.246 OA
BRANCH  31  33
ATOM     33  C   UNL A   1      41.686  20.808  26.434  1.00  0.00     0.060 A 
ATOM     34  C   UNL A   1      41.945  21.158  27.767  1.00  0.00     0.016 A 
ATOM     35  C   UNL A   1      42.215  21.561  25.385  1.00  0.00     0.016 A 
ATOM     36  C   UNL A   1      42.705  22.290  28.053  1.00  0.00     0.010 A 
ATOM     37  C   UNL A   1      42.958  22.707  25.673  1.00  0.00     0.010 A 
ATOM     38  C   UNL A   1      43.171  23.096  27.008  1.00  0.00    -0.014 A 
BRANCH  38  39
ATOM     39  C   UNL A   1      43.688  24.451  27.310  1.00  0.00     0.031 A 
ATOM     40  C   UNL A   1      42.710  25.502  27.755  1.00  0.00     0.074 A 
ATOM     41  C   UNL A   1      44.996  24.739  27.211  1.00  0.00     0.049 A 
ATOM     42  N   UNL A   1      42.912  26.764  28.032  1.00  0.00    -0.248 NA
ATOM     43  C   UNL A   1      41.312  25.068  27.901  1.00  0.00     0.031 C 
ATOM     44  C   UNL A   1      46.042  23.797  26.825  1.00  0.00     0.029 A 
ATOM     45  N   UNL A   1      45.660  25.923  27.415  1.00  0.00    -0.354 N 
ATOM     46  C   UNL A   1      41.666  27.278  28.367  1.00  0.00     0.074 A 
ATOM     47  C   UNL A   1      40.711  26.199  28.228  1.00  0.00     0.031 C 
ATOM     48  C   UNL A   1      47.220  24.445  26.799  1.00  0.00     0.029 A 
ATOM     49  C   UNL A   1      47.000  25.852  27.133  1.00  0.00     0.049 A 
ATOM     50  H   UNL A   1      45.217  26.742  27.733  1.00  0.00     0.167 HD
ATOM     51  C   UNL A   1      41.346  28.534  28.758  1.00  0.00     0.037 A 
ATOM     52  C   UNL A   1      47.937  26.820  27.118  1.00  0.00     0.037 A 
ATOM     53  C   UNL A   1      42.301  29.602  28.889  1.00  0.00     0.049 A 
ATOM     54  C   UNL A   1      47.554  28.225  27.501  1.00  0.00     0.074 A 
ATOM     55  C   UNL A   1      42.090  30.901  29.315  1.00  0.00     0.029 A 
ATOM     56  N   UNL A   1      43.649  29.499  28.576  1.00  0.00    -0.354 N 
ATOM     57  N   UNL A   1      46.382  28.698  27.854  1.00  0.00    -0.248 NA
ATOM     58  C   UNL A   1      48.626  29.231  27.489  1.00  0.00     0.031 C 
ATOM     59  C   UNL A   1      43.294  31.602  29.191  1.00  0.00     0.029 A 
ATOM     60  C   UNL A   1      44.274  30.721  28.759  1.00  0.00     0.049 A 
ATOM     61  H   UNL A   1      44.097  28.676  28.270  1.00  0.00     0.167 HD
ATOM     62  C   UNL A   1      46.578  30.046  28.130  1.00  0.00     0.074 A 
ATOM     63  C   UNL A   1      47.986  30.313  27.913  1.00  0.00     0.031 C 
ATOM     64  C   UNL A   1      45.676  30.977  28.530  1.00  0.00     0.037 A 
BRANCH  51  65
ATOM     65  C   UNL A   1      39.894  28.824  29.014  1.00  0.00     0.057 A 
ATOM     66  C   UNL A   1      39.019  29.235  28.000  1.00  0.00     0.134 A 
ATOM     67  C   UNL A   1      39.367  28.703  30.307  1.00  0.00     0.134 A 
ATOM     68  F   UNL A   1      39.459  29.389  26.742  1.00  0.00    -0.206 F 
ATOM     69  C   UNL A   1      37.687  29.557  28.269  1.00  0.00     0.040 A 
ATOM     70  C   UNL A   1      38.030  28.988  30.582  1.00  0.00     0.040 A 
ATOM     71  F   UNL A   1      40.147  28.310  31.327  1.00  0.00    -0.206 F 
ATOM     72  C   UNL A   1      37.188  29.429  29.564  1.00  0.00     0.006 A 
ENDBRANCH  51  65
BRANCH  52  73
ATOM     73  C   UNL A   1      49.324  26.487  26.707  1.00  0.00     0.057 A 
ATOM     74  C   UNL A   1      49.746  26.627  25.379  1.00  0.00     0.134 A 
ATOM     75  C   UNL A   1      50.269  26.041  27.640  1.00  0.00     0.134 A 
ATOM     76  F   UNL A   1      48.883  27.027  24.435  1.00  0.00    -0.206 F 
ATOM     77  C   UNL A   1      51.056  26.331  24.995  1.00  0.00     0.040 A 
ATOM     78  C   UNL A   1      51.587  25.767  27.275  1.00  0.00     0.040 A 
ATOM     79  F   UNL A   1      49.926  25.888  28.929  1.00  0.00    -0.206 F 
ATOM     80  C   UNL A   1      51.982  25.909  25.948  1.00  0.00     0.006 A 
ENDBRANCH  52  73
BRANCH  64  81
ATOM     81  C   UNL A   1      46.184  32.367  28.791  1.00  0.00     0.057 A 
ATOM     82  C   UNL A   1      46.127  33.377  27.820  1.00  0.00     0.134 A 
ATOM     83  C   UNL A   1      46.696  32.715  30.049  1.00  0.00     0.134 A 
ATOM     84  F   UNL A   1      45.657  33.112  26.591  1.00  0.00    -0.206 F 
ATOM     85  C   UNL A   1      46.584  34.670  28.083  1.00  0.00     0.040 A 
ATOM     86  C   UNL A   1      47.126  34.011  30.333  1.00  0.00     0.040 A 
ATOM     87  F   UNL A   1      46.770  31.801  31.030  1.00  0.00    -0.206 F 
ATOM     88  C   UNL A   1      47.077  34.991  29.345  1.00  0.00     0.006 A 
ENDBRANCH  64  81
ENDBRANCH  38  39
ENDBRANCH  31  33
ENDBRANCH  30  31
ENDBRANCH  29  30
ENDBRANCH  28  29
ENDBRANCH  27  28
ENDBRANCH  26  27
ENDBRANCH  25  26
ENDBRANCH  24  25
ENDBRANCH  23  24
ENDBRANCH   1  23
TORSDOF 25
ENDMDL
MODEL 2
REMARK VINA RESULT:      -8.7      1.360      2.207
REMARK SMILES C[C@H]1[NH2+]CC[C@H]1C(=O)N(C)CCCC(=O)OCCOCCOCCOCCOC(=O)c1ccc(-c2c3nc(c(-c4c(F)cccc4F)c4ccc([nH]4)c(-c4c(F)cccc4F)c4nc(c(-c5c(F)cccc5F)c5ccc2[nH]5)C=C4)C=C3)cc1
REMARK SMILES IDX 20 1 19 2 18 3 17 4 16 5 14 6 15 7 13 8 12 9 11 10 9 11
REMARK SMILES IDX 10 12 7 13 8 14 6 15 1 16 2 17 3 18 4 19 5 22 21 23 22 24
REMARK SMILES IDX 23 25 24 26 25 27 26 28 27 29 28 30 29 31 30 32 31 33 32 34
REMARK SMILES IDX 84 35 33 36 83 37 34 38 35 39 36 40 77 41 37 42 82 43 76 44
REMARK SMILES IDX 78 45 38 46 81 47 75 48 74 49 39 51 65 52 48 53 64 54 49 55
REMARK SMILES IDX 52 56 63 57 79 58 50 59 51 60 62 62 80 63 53 64 40 65 41 66
REMARK SMILES IDX 46 67 42 68 43 69 45 70 47 71 44 72 66 73 67 74 72 75 68 76
REMARK SMILES IDX 69 77 71 78 73 79 70 80 54 81 55 82 60 83 56 84 57 85 59 86
REMARK SMILES IDX 61 87 58 88
REMARK H PARENT 3 20 3 21 78 50 52 61
REMARK Flexibility Score: inf
ROOT
ATOM      1  C   UNL A   1      33.679  22.902  22.698  1.00  0.00     0.188 C 
ENDROOT
BRANCH   1   2
ATOM      2  O   UNL A   1      32.895  21.982  23.430  1.00  0.00    -0.376 OA
BRANCH   2   3
ATOM      3  C   UNL A   1      33.539  21.000  24.220  1.00  0.00     0.202 C 
BRANCH   3   4
ATOM      4  C   UNL A   1      33.107  20.727  25.668  1.00  0.00     0.261 C 
BRANCH   4   5
ATOM      5  O   UNL A   1      32.126  21.618  26.205  1.00  0.00    -0.463 OA
BRANCH   5   6
ATOM      6  C   UNL A   1      32.539  22.846  26.576  1.00  0.00     0.305 C 
ATOM      7  O   UNL A   1      33.705  23.130  26.840  1.00  0.00    -0.252 OA
BRANCH   6   8
ATOM      8  C   UNL A   1      31.444  23.900  26.557  1.00  0.00     0.124 C 
BRANCH   8   9
ATOM      9  C   UNL A   1      31.626  25.310  25.969  1.00  0.00     0.033 C 
BRANCH   9  10
ATOM     10  C   UNL A   1      30.473  26.320  25.996  1.00  0.00     0.119 C 
BRANCH  10  11
ATOM     11  N   UNL A   1      30.361  27.070  24.748  1.00  0.00    -0.345 N 
ATOM     12  C   UNL A   1      29.328  26.612  23.833  1.00  0.00     0.146 C 
BRANCH  11  13
ATOM     13  C   UNL A   1      30.954  28.310  24.694  1.00  0.00     0.231 C 
ATOM     14  O   UNL A   1      30.564  29.159  23.886  1.00  0.00    -0.274 OA
BRANCH  13  15
ATOM     15  C   UNL A   1      32.093  28.707  25.607  1.00  0.00     0.142 C 
ATOM     16  C   UNL A   1      34.043  28.362  23.837  1.00  0.00     0.076 C 
ATOM     17  C   UNL A   1      33.565  28.449  25.282  1.00  0.00     0.192 C 
ATOM     18  N   UNL A   1      34.314  29.516  25.983  1.00  0.00    -0.343 N 
ATOM     19  C   UNL A   1      33.365  30.347  26.728  1.00  0.00     0.261 C 
ATOM     20  H   UNL A   1      34.811  30.091  25.302  1.00  0.00     0.346 HD
ATOM     21  H   UNL A   1      34.990  29.102  26.623  1.00  0.00     0.346 HD
ATOM     22  C   UNL A   1      31.998  30.123  26.123  1.00  0.00     0.081 C 
ENDBRANCH  13  15
ENDBRANCH  11  13
ENDBRANCH  10  11
ENDBRANCH   9  10
ENDBRANCH   8   9
ENDBRANCH   6   8
ENDBRANCH   5   6
ENDBRANCH   4   5
ENDBRANCH   3   4
ENDBRANCH   2   3
ENDBRANCH   1   2
BRANCH   1  23
ATOM     23  C   UNL A   1      34.808  23.560  23.517  1.00  0.00     0.188 C 
BRANCH  23  24
ATOM     24  O   UNL A   1      36.160  23.137  23.376  1.00  0.00    -0.377 OA
BRANCH  24  25
ATOM     25  C   UNL A   1      37.044  23.222  24.492  1.00  0.00     0.188 C 
BRANCH  25  26
ATOM     26  C   UNL A   1      36.841  22.296  25.712  1.00  0.00     0.188 C 
BRANCH  26  27
ATOM     27  O   UNL A   1      36.691  20.924  25.393  1.00  0.00    -0.376 OA
BRANCH  27  28
ATOM     28  C   UNL A   1      37.726  20.300  24.650  1.00  0.00     0.202 C 
BRANCH  28  29
ATOM     29  C   UNL A   1      38.619  19.274  25.370  1.00  0.00     0.261 C 
BRANCH  29  30
ATOM     30  O   UNL A   1      39.359  19.757  26.503  1.00  0.00    -0.460 OA
BRANCH  30  31
ATOM     31  C   UNL A   1      40.678  19.968  26.345  1.00  0.00     0.338 C 
ATOM     32  O   UNL A   1      41.494  19.230  25.811  1.00  0.00    -0.246 OA
BRANCH  31  33
ATOM     33  C   UNL A   1      40.963  21.348  26.776  1.00  0.00     0.060 A 
ATOM     34  C   UNL A   1      40.509  22.418  25.992  1.00  0.00     0.016 A 
ATOM     35  C   UNL A   1      41.690  21.580  27.945  1.00  0.00     0.016 A 
ATOM     36  C   UNL A   1      40.815  23.727  26.359  1.00  0.00     0.010 A 
ATOM     37  C   UNL A   1      42.015  22.891  28.298  1.00  0.00     0.010 A 
ATOM     38  C   UNL A   1      41.613  23.965  27.484  1.00  0.00    -0.014 A 
BRANCH  38  39
ATOM     39  C   UNL A   1      42.203  25.308  27.686  1.00  0.00     0.031 A 
ATOM     40  C   UNL A   1      41.380  26.348  28.393  1.00  0.00     0.074 A 
ATOM     41  C   UNL A   1      43.448  25.595  27.270  1.00  0.00     0.049 A 
ATOM     42  N   UNL A   1      41.659  27.600  28.646  1.00  0.00    -0.248 NA
ATOM     43  C   UNL A   1      40.058  25.914  28.872  1.00  0.00     0.031 C 
ATOM     44  C   UNL A   1      44.353  24.662  26.607  1.00  0.00     0.029 A 
ATOM     45  N   UNL A   1      44.155  26.770  27.335  1.00  0.00    -0.354 N 
ATOM     46  C   UNL A   1      40.541  28.107  29.298  1.00  0.00     0.074 A 
ATOM     47  C   UNL A   1      39.571  27.037  29.372  1.00  0.00     0.031 C 
ATOM     48  C   UNL A   1      45.494  25.306  26.305  1.00  0.00     0.029 A 
ATOM     49  C   UNL A   1      45.381  26.704  26.724  1.00  0.00     0.049 A 
ATOM     50  H   UNL A   1      43.814  27.580  27.778  1.00  0.00     0.167 HD
ATOM     51  C   UNL A   1      40.343  29.352  29.793  1.00  0.00     0.037 A 
ATOM     52  C   UNL A   1      46.294  27.669  26.503  1.00  0.00     0.037 A 
ATOM     53  C   UNL A   1      41.312  30.412  29.711  1.00  0.00     0.049 A 
ATOM     54  C   UNL A   1      46.034  29.062  27.010  1.00  0.00     0.074 A 
ATOM     55  C   UNL A   1      41.228  31.699  30.213  1.00  0.00     0.029 A 
ATOM     56  N   UNL A   1      42.538  30.314  29.067  1.00  0.00    -0.354 N 
ATOM     57  N   UNL A   1      44.994  29.528  27.659  1.00  0.00    -0.248 NA
ATOM     58  C   UNL A   1      47.079  30.065  26.758  1.00  0.00     0.031 C 
ATOM     59  C   UNL A   1      42.370  32.399  29.812  1.00  0.00     0.029 A 
ATOM     60  C   UNL A   1      43.201  31.529  29.122  1.00  0.00     0.049 A 
ATOM     61  H   UNL A   1      42.885  29.501  28.634  1.00  0.00     0.167 HD
ATOM     62  C   UNL A   1      45.267  30.867  27.916  1.00  0.00     0.074 A 
ATOM     63  C   UNL A   1      46.578  31.135  27.361  1.00  0.00     0.031 C 
ATOM     64  C   UNL A   1      44.504  31.787  28.556  1.00  0.00     0.037 A 
BRANCH  51  65
ATOM     65  C   UNL A   1      39.005  29.639  30.413  1.00  0.00     0.057 A 
ATOM     66  C   UNL A   1      38.749  29.436  31.776  1.00  0.00     0.134 A 
ATOM     67  C   UNL A   1      37.949  30.116  29.625  1.00  0.00     0.134 A 
ATOM     68  F   UNL A   1      39.710  28.965  32.586  1.00  0.00    -0.206 F 
ATOM     69  C   UNL A   1      37.482  29.653  32.322  1.00  0.00     0.040 A 
ATOM     70  C   UNL A   1      36.689  30.370  30.167  1.00  0.00     0.040 A 
ATOM     71  F   UNL A   1      38.124  30.337  28.313  1.00  0.00    -0.206 F 
ATOM     72  C   UNL A   1      36.448  30.127  31.516  1.00  0.00     0.006 A 
ENDBRANCH  51  65
BRANCH  52  73
ATOM     73  C   UNL A   1      47.529  27.344  25.747  1.00  0.00     0.057 A 
ATOM     74  C   UNL A   1      47.587  27.463  24.353  1.00  0.00     0.134 A 
ATOM     75  C   UNL A   1      48.693  26.928  26.406  1.00  0.00     0.134 A 
ATOM     76  F   UNL A   1      46.499  27.834  23.662  1.00  0.00    -0.206 F 
ATOM     77  C   UNL A   1      48.754  27.175  23.643  1.00  0.00     0.040 A 
ATOM     78  C   UNL A   1      49.874  26.663  25.712  1.00  0.00     0.040 A 
ATOM     79  F   UNL A   1      48.703  26.797  27.742  1.00  0.00    -0.206 F 
ATOM     80  C   UNL A   1      49.905  26.783  24.326  1.00  0.00     0.006 A 
ENDBRANCH  52  73
BRANCH  64  81
ATOM     81  C   UNL A   1      45.076  33.168  28.721  1.00  0.00     0.057 A 
ATOM     82  C   UNL A   1      45.903  33.508  29.801  1.00  0.00     0.134 A 
ATOM     83  C   UNL A   1      44.833  34.159  27.759  1.00  0.00     0.134 A 
ATOM     84  F   UNL A   1      46.169  32.611  30.762  1.00  0.00    -0.206 F 
ATOM     85  C   UNL A   1      46.444  34.789  29.930  1.00  0.00     0.040 A 
ATOM     86  C   UNL A   1      45.395  35.432  27.862  1.00  0.00     0.040 A 
ATOM     87  F   UNL A   1      44.061  33.898  26.694  1.00  0.00    -0.206 F 
ATOM     88  C   UNL A   1      46.196  35.752  28.954  1.00  0.00     0.006 A 
ENDBRANCH  64  81
ENDBRANCH  38  39
ENDBRANCH  31  33
ENDBRANCH  30  31
ENDBRANCH  29  30
ENDBRANCH  28  29
ENDBRANCH  27  28
ENDBRANCH  26  27
ENDBRANCH  25  26
ENDBRANCH  24  25
ENDBRANCH  23  24
ENDBRANCH   1  23
TORSDOF 25
ENDMDL
MODEL 3
REMARK VINA RESULT:      -8.5      1.575      6.409
REMARK SMILES C[C@H]1[NH2+]CC[C@H]1C(=O)N(C)CCCC(=O)OCCOCCOCCOCCOC(=O)c1ccc(-c2c3nc(c(-c4c(F)cccc4F)c4ccc([nH]4)c(-c4c(F)cccc4F)c4nc(c(-c5c(F)cccc5F)c5ccc2[nH]5)C=C4)C=C3)cc1
REMARK SMILES IDX 20 1 19 2 18 3 17 4 16 5 14 6 15 7 13 8 12 9 11 10 9 11
REMARK SMILES IDX 10 12 7 13 8 14 6 15 1 16 2 17 3 18 4 19 5 22 21 23 22 24
REMARK SMILES IDX 23 25 24 26 25 27 26 28 27 29 28 30 29 31 30 32 31 33 32 34
REMARK SMILES IDX 84 35 33 36 83 37 34 38 35 39 36 40 77 41 37 42 82 43 76 44
REMARK SMILES IDX 78 45 38 46 81 47 75 48 74 49 39 51 65 52 48 53 64 54 49 55
REMARK SMILES IDX 52 56 63 57 79 58 50 59 51 60 62 62 80 63 53 64 40 65 41 66
REMARK SMILES IDX 46 67 42 68 43 69 45 70 47 71 44 72 66 73 67 74 72 75 68 76
REMARK SMILES IDX 69 77 71 78 73 79 70 80 54 81 55 82 60 83 56 84 57 85 59 86
REMARK SMILES IDX 61 87 58 88
REMARK H PARENT 3 20 3 21 78 50 52 61
REMARK Flexibility Score: inf
ROOT
ATOM      1  C   UNL A   1      33.679  22.964  22.485  1.00  0.00     0.188 C 
ENDROOT
BRANCH   1   2
ATOM      2  O   UNL A   1      32.744  22.108  23.109  1.00  0.00    -0.376 OA
BRANCH   2   3
ATOM      3  C   UNL A   1      33.199  21.162  24.058  1.00  0.00     0.202 C 
BRANCH   3   4
ATOM      4  C   UNL A   1      32.380  20.828  25.313  1.00  0.00     0.261 C 
BRANCH   4   5
ATOM      5  O   UNL A   1      31.384  21.787  25.681  1.00  0.00    -0.463 OA
BRANCH   5   6
ATOM      6  C   UNL A   1      31.809  23.007  26.063  1.00  0.00     0.305 C 
ATOM      7  O   UNL A   1      32.907  23.228  26.567  1.00  0.00    -0.252 OA
BRANCH   6   8
ATOM      8  C   UNL A   1      30.839  24.131  25.735  1.00  0.00     0.124 C 
BRANCH   8   9
ATOM      9  C   UNL A   1      31.244  25.421  25.001  1.00  0.00     0.033 C 
BRANCH   9  10
ATOM     10  C   UNL A   1      30.586  26.759  25.357  1.00  0.00     0.119 C 
BRANCH  10  11
ATOM     11  N   UNL A   1      30.319  27.579  24.179  1.00  0.00    -0.345 N 
ATOM     12  C   UNL A   1      29.145  27.204  23.408  1.00  0.00     0.146 C 
BRANCH  11  13
ATOM     13  C   UNL A   1      30.946  28.801  24.097  1.00  0.00     0.231 C 
ATOM     14  O   UNL A   1      30.425  29.809  24.586  1.00  0.00    -0.274 OA
BRANCH  13  15
ATOM     15  C   UNL A   1      32.288  28.982  23.424  1.00  0.00     0.142 C 
ATOM     16  C   UNL A   1      33.763  28.813  25.626  1.00  0.00     0.076 C 
ATOM     17  C   UNL A   1      33.581  29.275  24.185  1.00  0.00     0.192 C 
ATOM     18  N   UNL A   1      34.665  28.713  23.348  1.00  0.00    -0.343 N 
ATOM     19  C   UNL A   1      34.076  28.152  22.129  1.00  0.00     0.261 C 
ATOM     20  H   UNL A   1      35.150  27.979  23.863  1.00  0.00     0.346 HD
ATOM     21  H   UNL A   1      35.332  29.445  23.106  1.00  0.00     0.346 HD
ATOM     22  C   UNL A   1      32.609  27.915  22.405  1.00  0.00     0.081 C 
ENDBRANCH  13  15
ENDBRANCH  11  13
ENDBRANCH  10  11
ENDBRANCH   9  10
ENDBRANCH   8   9
ENDBRANCH   6   8
ENDBRANCH   5   6
ENDBRANCH   4   5
ENDBRANCH   3   4
ENDBRANCH   2   3
ENDBRANCH   1   2
BRANCH   1  23
ATOM     23  C   UNL A   1      34.724  23.565  23.447  1.00  0.00     0.188 C 
BRANCH  23  24
ATOM     24  O   UNL A   1      36.062  23.080  23.472  1.00  0.00    -0.377 OA
BRANCH  24  25
ATOM     25  C   UNL A   1      36.774  23.043  24.708  1.00  0.00     0.188 C 
BRANCH  25  26
ATOM     26  C   UNL A   1      36.498  21.915  25.726  1.00  0.00     0.188 C 
BRANCH  26  27
ATOM     27  O   UNL A   1      36.520  20.608  25.180  1.00  0.00    -0.376 OA
BRANCH  27  28
ATOM     28  C   UNL A   1      37.713  20.176  24.546  1.00  0.00     0.202 C 
BRANCH  28  29
ATOM     29  C   UNL A   1      38.648  19.233  25.323  1.00  0.00     0.261 C 
BRANCH  29  30
ATOM     30  O   UNL A   1      39.305  19.791  26.473  1.00  0.00    -0.460 OA
BRANCH  30  31
ATOM     31  C   UNL A   1      40.614  20.085  26.363  1.00  0.00     0.338 C 
ATOM     32  O   UNL A   1      41.489  19.411  25.838  1.00  0.00    -0.246 OA
BRANCH  31  33
ATOM     33  C   UNL A   1      40.802  21.467  26.838  1.00  0.00     0.060 A 
ATOM     34  C   UNL A   1      40.076  22.503  26.235  1.00  0.00     0.016 A 
ATOM     35  C   UNL A   1      41.705  21.736  27.869  1.00  0.00     0.016 A 
ATOM     36  C   UNL A   1      40.281  23.821  26.638  1.00  0.00     0.010 A 
ATOM     37  C   UNL A   1      41.926  23.059  28.255  1.00  0.00     0.010 A 
ATOM     38  C   UNL A   1      41.244  24.108  27.613  1.00  0.00    -0.014 A 
BRANCH  38  39
ATOM     39  C   UNL A   1      41.690  25.507  27.805  1.00  0.00     0.031 A 
ATOM     40  C   UNL A   1      43.029  25.909  27.252  1.00  0.00     0.074 A 
ATOM     41  C   UNL A   1      40.920  26.407  28.437  1.00  0.00     0.049 A 
ATOM     42  N   UNL A   1      43.652  27.055  27.331  1.00  0.00    -0.248 NA
ATOM     43  C   UNL A   1      43.764  24.870  26.514  1.00  0.00     0.031 C 
ATOM     44  C   UNL A   1      39.591  26.147  28.984  1.00  0.00     0.029 A 
ATOM     45  N   UNL A   1      41.161  27.725  28.738  1.00  0.00    -0.354 N 
ATOM     46  C   UNL A   1      44.861  26.870  26.669  1.00  0.00     0.074 A 
ATOM     47  C   UNL A   1      44.893  25.494  26.224  1.00  0.00     0.031 C 
ATOM     48  C   UNL A   1      39.139  27.267  29.575  1.00  0.00     0.029 A 
ATOM     49  C   UNL A   1      40.162  28.308  29.475  1.00  0.00     0.049 A 
ATOM     50  H   UNL A   1      41.971  28.204  28.451  1.00  0.00     0.167 HD
ATOM     51  C   UNL A   1      45.851  27.766  26.451  1.00  0.00     0.037 A 
ATOM     52  C   UNL A   1      40.096  29.533  30.031  1.00  0.00     0.037 A 
ATOM     53  C   UNL A   1      45.812  29.132  26.902  1.00  0.00     0.049 A 
ATOM     54  C   UNL A   1      41.231  30.500  29.827  1.00  0.00     0.074 A 
ATOM     55  C   UNL A   1      46.745  30.134  26.701  1.00  0.00     0.029 A 
ATOM     56  N   UNL A   1      44.792  29.683  27.664  1.00  0.00    -0.354 N 
ATOM     57  N   UNL A   1      42.354  30.334  29.169  1.00  0.00    -0.248 NA
ATOM     58  C   UNL A   1      41.089  31.830  30.438  1.00  0.00     0.031 C 
ATOM     59  C   UNL A   1      46.323  31.269  27.401  1.00  0.00     0.029 A 
ATOM     60  C   UNL A   1      45.091  30.999  27.977  1.00  0.00     0.049 A 
ATOM     61  H   UNL A   1      43.974  29.209  27.941  1.00  0.00     0.167 HD
ATOM     62  C   UNL A   1      43.039  31.539  29.264  1.00  0.00     0.074 A 
ATOM     63  C   UNL A   1      42.199  32.433  30.036  1.00  0.00     0.031 C 
ATOM     64  C   UNL A   1      44.250  31.877  28.756  1.00  0.00     0.037 A 
BRANCH  51  65
ATOM     65  C   UNL A   1      47.079  27.272  25.740  1.00  0.00     0.057 A 
ATOM     66  C   UNL A   1      48.117  26.605  26.406  1.00  0.00     0.134 A 
ATOM     67  C   UNL A   1      47.230  27.482  24.363  1.00  0.00     0.134 A 
ATOM     68  F   UNL A   1      48.047  26.385  27.727  1.00  0.00    -0.206 F 
ATOM     69  C   UNL A   1      49.277  26.206  25.737  1.00  0.00     0.040 A 
ATOM     70  C   UNL A   1      48.368  27.057  23.677  1.00  0.00     0.040 A 
ATOM     71  F   UNL A   1      46.274  28.110  23.660  1.00  0.00    -0.206 F 
ATOM     72  C   UNL A   1      49.402  26.428  24.367  1.00  0.00     0.006 A 
ENDBRANCH  51  65
BRANCH  52  73
ATOM     73  C   UNL A   1      38.913  29.899  30.851  1.00  0.00     0.057 A 
ATOM     74  C   UNL A   1      38.848  29.597  32.216  1.00  0.00     0.134 A 
ATOM     75  C   UNL A   1      37.827  30.582  30.289  1.00  0.00     0.134 A 
ATOM     76  F   UNL A   1      39.845  28.923  32.807  1.00  0.00    -0.206 F 
ATOM     77  C   UNL A   1      37.744  29.957  32.991  1.00  0.00     0.040 A 
ATOM     78  C   UNL A   1      36.730  30.972  31.057  1.00  0.00     0.040 A 
ATOM     79  F   UNL A   1      37.830  30.903  28.986  1.00  0.00    -0.206 F 
ATOM     80  C   UNL A   1      36.685  30.656  32.413  1.00  0.00     0.006 A 
ENDBRANCH  52  73
BRANCH  64  81
ATOM     81  C   UNL A   1      44.733  33.281  28.989  1.00  0.00     0.057 A 
ATOM     82  C   UNL A   1      45.540  33.620  30.084  1.00  0.00     0.134 A 
ATOM     83  C   UNL A   1      44.424  34.301  28.078  1.00  0.00     0.134 A 
ATOM     84  F   UNL A   1      45.867  32.695  30.999  1.00  0.00    -0.206 F 
ATOM     85  C   UNL A   1      45.999  34.925  30.277  1.00  0.00     0.040 A 
ATOM     86  C   UNL A   1      44.903  35.601  28.244  1.00  0.00     0.040 A 
ATOM     87  F   UNL A   1      43.666  34.045  27.001  1.00  0.00    -0.206 F 
ATOM     88  C   UNL A   1      45.687  35.917  29.350  1.00  0.00     0.006 A 
ENDBRANCH  64  81
ENDBRANCH  38  39
ENDBRANCH  31  33
ENDBRANCH  30  31
ENDBRANCH  29  30
ENDBRANCH  28  29
ENDBRANCH  27  28
ENDBRANCH  26  27
ENDBRANCH  25  26
ENDBRANCH  24  25
ENDBRANCH  23  24
ENDBRANCH   1  23
TORSDOF 25
ENDMDL
