MODEL 1
REMARK VINA RESULT:      -9.9      0.000      0.000
REMARK SMILES O=C(OCCOCCOCCOCCOC(=O)c1ccc(COc2cccc(C(F)(F)F)c2)nc1)c1ccc(-c2c3nc(c(-c4c(F)cccc4F)c4ccc([nH]4)c(-c4c(F)cccc4F)c4nc(c(-c5c(F)cccc5F)c5ccc2[nH]5)C=C4)C=C3)cc1
REMARK SMILES IDX 10 1 9 2 8 3 7 4 6 5 5 6 4 7 3 8 2 9 1 10 36 11 37 12 89 13
REMARK SMILES IDX 38 14 88 15 39 16 40 17 41 18 82 19 42 20 87 21 81 22 83 23
REMARK SMILES IDX 43 24 86 25 80 26 79 27 44 29 70 30 53 31 69 32 54 33 57 34
REMARK SMILES IDX 68 35 84 36 55 37 56 38 67 40 85 41 58 42 45 43 46 44 51 45
REMARK SMILES IDX 47 46 48 47 50 48 52 49 49 50 71 51 72 52 77 53 73 54 74 55
REMARK SMILES IDX 76 56 78 57 75 58 59 59 60 60 65 61 61 62 62 63 64 64 66 65
REMARK SMILES IDX 63 66 11 67 12 68 13 69 14 70 15 71 16 72 17 73 18 74 19 75
REMARK SMILES IDX 35 76 20 77 34 78 21 79 22 80 23 81 24 82 25 83 33 84 26 85
REMARK SMILES IDX 28 86 27 87 29 88 30 89 31 90 32 91
REMARK H PARENT 83 28 57 39
REMARK Flexibility Score: inf
ROOT
ATOM      1  C   UNL A   1      33.648  27.713  23.570  1.00  0.00     0.188 C 
ENDROOT
BRANCH   1   2
ATOM      2  O   UNL A   1      32.521  28.456  24.010  1.00  0.00    -0.377 OA
BRANCH   2   3
ATOM      3  C   UNL A   1      32.136  28.257  25.366  1.00  0.00     0.188 C 
BRANCH   3   4
ATOM      4  C   UNL A   1      32.981  29.004  26.398  1.00  0.00     0.188 C 
BRANCH   4   5
ATOM      5  O   UNL A   1      32.241  30.049  27.038  1.00  0.00    -0.376 OA
BRANCH   5   6
ATOM      6  C   UNL A   1      31.782  31.103  26.191  1.00  0.00     0.202 C 
BRANCH   6   7
ATOM      7  C   UNL A   1      31.454  32.407  26.913  1.00  0.00     0.261 C 
BRANCH   7   8
ATOM      8  O   UNL A   1      32.553  33.323  26.935  1.00  0.00    -0.460 OA
BRANCH   8   9
ATOM      9  C   UNL A   1      33.142  33.900  28.009  1.00  0.00     0.338 C 
ATOM     10  O   UNL A   1      32.649  34.944  28.438  1.00  0.00    -0.246 OA
BRANCH   9  11
ATOM     11  C   UNL A   1      34.352  33.369  28.719  1.00  0.00     0.060 A 
ATOM     12  C   UNL A   1      35.690  33.578  28.367  1.00  0.00     0.016 A 
ATOM     13  C   UNL A   1      34.098  32.634  29.892  1.00  0.00     0.016 A 
ATOM     14  C   UNL A   1      36.739  33.064  29.117  1.00  0.00     0.010 A 
ATOM     15  C   UNL A   1      35.139  32.092  30.643  1.00  0.00     0.010 A 
ATOM     16  C   UNL A   1      36.461  32.282  30.229  1.00  0.00    -0.014 A 
BRANCH  16  17
ATOM     17  C   UNL A   1      37.537  31.441  30.763  1.00  0.00     0.031 A 
ATOM     18  C   UNL A   1      37.826  31.573  32.224  1.00  0.00     0.074 A 
ATOM     19  C   UNL A   1      38.152  30.536  29.988  1.00  0.00     0.049 A 
ATOM     20  N   UNL A   1      38.821  31.105  32.923  1.00  0.00    -0.248 NA
ATOM     21  C   UNL A   1      36.846  32.347  33.008  1.00  0.00     0.031 C 
ATOM     22  C   UNL A   1      37.804  30.237  28.600  1.00  0.00     0.029 A 
ATOM     23  N   UNL A   1      39.202  29.707  30.264  1.00  0.00    -0.354 N 
ATOM     24  C   UNL A   1      38.616  31.577  34.213  1.00  0.00     0.074 A 
ATOM     25  C   UNL A   1      37.400  32.352  34.207  1.00  0.00     0.031 C 
ATOM     26  C   UNL A   1      38.648  29.302  28.133  1.00  0.00     0.029 A 
ATOM     27  C   UNL A   1      39.635  29.004  29.167  1.00  0.00     0.049 A 
ATOM     28  H   UNL A   1      39.608  29.621  31.157  1.00  0.00     0.167 HD
ATOM     29  C   UNL A   1      39.405  31.389  35.295  1.00  0.00     0.037 A 
ATOM     30  C   UNL A   1      40.747  28.262  29.017  1.00  0.00     0.037 A 
ATOM     31  C   UNL A   1      40.612  30.614  35.239  1.00  0.00     0.049 A 
ATOM     32  C   UNL A   1      41.669  28.140  30.200  1.00  0.00     0.074 A 
ATOM     33  C   UNL A   1      41.546  30.383  36.227  1.00  0.00     0.029 A 
ATOM     34  N   UNL A   1      41.045  29.940  34.101  1.00  0.00    -0.354 N 
ATOM     35  N   UNL A   1      41.537  28.654  31.403  1.00  0.00    -0.248 NA
ATOM     36  C   UNL A   1      42.895  27.357  30.012  1.00  0.00     0.031 C 
ATOM     37  C   UNL A   1      42.572  29.610  35.670  1.00  0.00     0.029 A 
ATOM     38  C   UNL A   1      42.245  29.307  34.354  1.00  0.00     0.049 A 
ATOM     39  H   UNL A   1      40.566  29.918  33.240  1.00  0.00     0.167 HD
ATOM     40  C   UNL A   1      42.646  28.239  32.124  1.00  0.00     0.074 A 
ATOM     41  C   UNL A   1      43.443  27.429  31.219  1.00  0.00     0.031 C 
ATOM     42  C   UNL A   1      42.982  28.495  33.414  1.00  0.00     0.037 A 
BRANCH  29  43
ATOM     43  C   UNL A   1      39.023  32.127  36.544  1.00  0.00     0.057 A 
ATOM     44  C   UNL A   1      38.074  31.638  37.452  1.00  0.00     0.134 A 
ATOM     45  C   UNL A   1      39.547  33.404  36.791  1.00  0.00     0.134 A 
ATOM     46  F   UNL A   1      37.503  30.438  37.258  1.00  0.00    -0.206 F 
ATOM     47  C   UNL A   1      37.625  32.408  38.528  1.00  0.00     0.040 A 
ATOM     48  C   UNL A   1      39.129  34.170  37.880  1.00  0.00     0.040 A 
ATOM     49  F   UNL A   1      40.452  33.941  35.960  1.00  0.00    -0.206 F 
ATOM     50  C   UNL A   1      38.152  33.679  38.743  1.00  0.00     0.006 A 
ENDBRANCH  29  43
BRANCH  30  51
ATOM     51  C   UNL A   1      41.057  27.659  27.697  1.00  0.00     0.057 A 
ATOM     52  C   UNL A   1      41.927  28.278  26.794  1.00  0.00     0.134 A 
ATOM     53  C   UNL A   1      40.530  26.414  27.326  1.00  0.00     0.134 A 
ATOM     54  F   UNL A   1      42.455  29.477  27.079  1.00  0.00    -0.206 F 
ATOM     55  C   UNL A   1      42.265  27.682  25.576  1.00  0.00     0.040 A 
ATOM     56  C   UNL A   1      40.877  25.794  26.124  1.00  0.00     0.040 A 
ATOM     57  F   UNL A   1      39.692  25.762  28.146  1.00  0.00    -0.206 F 
ATOM     58  C   UNL A   1      41.747  26.432  25.242  1.00  0.00     0.006 A 
ENDBRANCH  30  51
BRANCH  42  59
ATOM     59  C   UNL A   1      44.226  27.847  33.936  1.00  0.00     0.057 A 
ATOM     60  C   UNL A   1      44.224  26.545  34.447  1.00  0.00     0.134 A 
ATOM     61  C   UNL A   1      45.457  28.505  33.821  1.00  0.00     0.134 A 
ATOM     62  F   UNL A   1      43.073  25.871  34.589  1.00  0.00    -0.206 F 
ATOM     63  C   UNL A   1      45.410  25.917  34.828  1.00  0.00     0.040 A 
ATOM     64  C   UNL A   1      46.650  27.878  34.173  1.00  0.00     0.040 A 
ATOM     65  F   UNL A   1      45.521  29.750  33.326  1.00  0.00    -0.206 F 
ATOM     66  C   UNL A   1      46.628  26.580  34.679  1.00  0.00     0.006 A 
ENDBRANCH  42  59
ENDBRANCH  16  17
ENDBRANCH   9  11
ENDBRANCH   8   9
ENDBRANCH   7   8
ENDBRANCH   6   7
ENDBRANCH   5   6
ENDBRANCH   4   5
ENDBRANCH   3   4
ENDBRANCH   2   3
ENDBRANCH   1   2
BRANCH   1  67
ATOM     67  C   UNL A   1      33.731  26.210  23.930  1.00  0.00     0.188 C 
BRANCH  67  68
ATOM     68  O   UNL A   1      33.957  25.351  22.823  1.00  0.00    -0.376 OA
BRANCH  68  69
ATOM     69  C   UNL A   1      32.880  24.480  22.491  1.00  0.00     0.202 C 
BRANCH  69  70
ATOM     70  C   UNL A   1      33.041  22.998  22.884  1.00  0.00     0.261 C 
BRANCH  70  71
ATOM     71  O   UNL A   1      34.348  22.593  23.330  1.00  0.00    -0.460 OA
BRANCH  71  72
ATOM     72  C   UNL A   1      34.471  22.225  24.621  1.00  0.00     0.339 C 
ATOM     73  O   UNL A   1      33.651  21.618  25.288  1.00  0.00    -0.246 OA
BRANCH  72  74
ATOM     74  C   UNL A   1      35.878  22.417  25.017  1.00  0.00     0.078 A 
ATOM     75  C   UNL A   1      36.472  23.663  25.203  1.00  0.00     0.019 A 
ATOM     76  C   UNL A   1      36.676  21.285  25.136  1.00  0.00     0.127 A 
ATOM     77  C   UNL A   1      37.794  23.716  25.657  1.00  0.00     0.028 A 
ATOM     78  N   UNL A   1      37.984  21.316  25.482  1.00  0.00    -0.257 NA
ATOM     79  C   UNL A   1      38.487  22.519  25.866  1.00  0.00     0.078 A 
BRANCH  79  80
ATOM     80  C   UNL A   1      39.689  22.488  26.796  1.00  0.00     0.285 C 
BRANCH  80  81
ATOM     81  O   UNL A   1      40.249  21.172  27.048  1.00  0.00    -0.487 OA
BRANCH  81  82
ATOM     82  C   UNL A   1      41.420  20.842  26.416  1.00  0.00     0.120 A 
ATOM     83  C   UNL A   1      41.767  19.501  26.338  1.00  0.00     0.046 A 
ATOM     84  C   UNL A   1      42.364  21.776  25.999  1.00  0.00     0.059 A 
ATOM     85  C   UNL A   1      43.007  19.123  25.801  1.00  0.00     0.004 A 
ATOM     86  C   UNL A   1      43.596  21.434  25.430  1.00  0.00     0.059 A 
ATOM     87  C   UNL A   1      43.915  20.084  25.340  1.00  0.00     0.013 A 
BRANCH  86  88
ATOM     88  C   UNL A   1      44.538  22.529  24.992  1.00  0.00     0.416 C 
ATOM     89  F   UNL A   1      44.750  22.536  23.648  1.00  0.00    -0.166 F 
ATOM     90  F   UNL A   1      44.089  23.773  25.315  1.00  0.00    -0.166 F 
ATOM     91  F   UNL A   1      45.771  22.431  25.566  1.00  0.00    -0.166 F 
ENDBRANCH  86  88
ENDBRANCH  81  82
ENDBRANCH  80  81
ENDBRANCH  79  80
ENDBRANCH  72  74
ENDBRANCH  71  72
ENDBRANCH  70  71
ENDBRANCH  69  70
ENDBRANCH  68  69
ENDBRANCH  67  68
ENDBRANCH   1  67
TORSDOF 24
ENDMDL
MODEL 2
REMARK VINA RESULT:      -9.4      1.257      2.123
REMARK SMILES O=C(OCCOCCOCCOCCOC(=O)c1ccc(COc2cccc(C(F)(F)F)c2)nc1)c1ccc(-c2c3nc(c(-c4c(F)cccc4F)c4ccc([nH]4)c(-c4c(F)cccc4F)c4nc(c(-c5c(F)cccc5F)c5ccc2[nH]5)C=C4)C=C3)cc1
REMARK SMILES IDX 10 1 9 2 8 3 7 4 6 5 5 6 4 7 3 8 2 9 1 10 36 11 37 12 89 13
REMARK SMILES IDX 38 14 88 15 39 16 40 17 41 18 82 19 42 20 87 21 81 22 83 23
REMARK SMILES IDX 43 24 86 25 80 26 79 27 44 29 70 30 53 31 69 32 54 33 57 34
REMARK SMILES IDX 68 35 84 36 55 37 56 38 67 40 85 41 58 42 45 43 46 44 51 45
REMARK SMILES IDX 47 46 48 47 50 48 52 49 49 50 71 51 72 52 77 53 73 54 74 55
REMARK SMILES IDX 76 56 78 57 75 58 59 59 60 60 65 61 61 62 62 63 64 64 66 65
REMARK SMILES IDX 63 66 11 67 12 68 13 69 14 70 15 71 16 72 17 73 18 74 19 75
REMARK SMILES IDX 35 76 20 77 34 78 21 79 22 80 23 81 24 82 25 83 33 84 26 85
REMARK SMILES IDX 28 86 27 87 29 88 30 89 31 90 32 91
REMARK H PARENT 83 28 57 39
REMARK Flexibility Score: inf
ROOT
ATOM      1  C   UNL A   1      34.209  27.127  24.982  1.00  0.00     0.188 C 
ENDROOT
BRANCH   1   2
ATOM      2  O   UNL A   1      33.633  28.199  24.250  1.00  0.00    -0.377 OA
BRANCH   2   3
ATOM      3  C   UNL A   1      32.616  28.934  24.923  1.00  0.00     0.188 C 
BRANCH   3   4
ATOM      4  C   UNL A   1      33.117  29.901  25.996  1.00  0.00     0.188 C 
BRANCH   4   5
ATOM      5  O   UNL A   1      32.041  30.449  26.765  1.00  0.00    -0.376 OA
BRANCH   5   6
ATOM      6  C   UNL A   1      31.352  31.556  26.181  1.00  0.00     0.202 C 
BRANCH   6   7
ATOM      7  C   UNL A   1      31.383  32.838  27.008  1.00  0.00     0.261 C 
BRANCH   7   8
ATOM      8  O   UNL A   1      32.687  33.421  27.083  1.00  0.00    -0.460 OA
BRANCH   8   9
ATOM      9  C   UNL A   1      33.261  34.059  28.131  1.00  0.00     0.338 C 
ATOM     10  O   UNL A   1      32.779  35.138  28.476  1.00  0.00    -0.246 OA
BRANCH   9  11
ATOM     11  C   UNL A   1      34.443  33.554  28.905  1.00  0.00     0.060 A 
ATOM     12  C   UNL A   1      35.786  33.889  28.699  1.00  0.00     0.016 A 
ATOM     13  C   UNL A   1      34.146  32.702  29.984  1.00  0.00     0.016 A 
ATOM     14  C   UNL A   1      36.803  33.387  29.500  1.00  0.00     0.010 A 
ATOM     15  C   UNL A   1      35.158  32.170  30.783  1.00  0.00     0.010 A 
ATOM     16  C   UNL A   1      36.491  32.491  30.512  1.00  0.00    -0.014 A 
BRANCH  16  17
ATOM     17  C   UNL A   1      37.580  31.685  31.074  1.00  0.00     0.031 A 
ATOM     18  C   UNL A   1      37.954  31.964  32.495  1.00  0.00     0.074 A 
ATOM     19  C   UNL A   1      38.134  30.689  30.368  1.00  0.00     0.049 A 
ATOM     20  N   UNL A   1      38.978  31.549  33.184  1.00  0.00    -0.248 NA
ATOM     21  C   UNL A   1      37.035  32.841  33.243  1.00  0.00     0.031 C 
ATOM     22  C   UNL A   1      37.701  30.253  29.041  1.00  0.00     0.029 A 
ATOM     23  N   UNL A   1      39.182  29.868  30.674  1.00  0.00    -0.354 N 
ATOM     24  C   UNL A   1      38.856  32.159  34.425  1.00  0.00     0.074 A 
ATOM     25  C   UNL A   1      37.655  32.960  34.403  1.00  0.00     0.031 C 
ATOM     26  C   UNL A   1      38.501  29.253  28.632  1.00  0.00     0.029 A 
ATOM     27  C   UNL A   1      39.539  29.043  29.637  1.00  0.00     0.049 A 
ATOM     28  H   UNL A   1      39.636  29.867  31.548  1.00  0.00     0.167 HD
ATOM     29  C   UNL A   1      39.700  32.068  35.477  1.00  0.00     0.037 A 
ATOM     30  C   UNL A   1      40.626  28.262  29.507  1.00  0.00     0.037 A 
ATOM     31  C   UNL A   1      40.887  31.262  35.439  1.00  0.00     0.049 A 
ATOM     32  C   UNL A   1      41.611  28.242  30.644  1.00  0.00     0.074 A 
ATOM     33  C   UNL A   1      41.872  31.114  36.394  1.00  0.00     0.029 A 
ATOM     34  N   UNL A   1      41.244  30.461  34.358  1.00  0.00    -0.354 N 
ATOM     35  N   UNL A   1      41.558  28.884  31.790  1.00  0.00    -0.248 NA
ATOM     36  C   UNL A   1      42.810  27.414  30.476  1.00  0.00     0.031 C 
ATOM     37  C   UNL A   1      42.850  30.262  35.869  1.00  0.00     0.029 A 
ATOM     38  C   UNL A   1      42.444  29.829  34.612  1.00  0.00     0.049 A 
ATOM     39  H   UNL A   1      40.716  30.359  33.532  1.00  0.00     0.167 HD
ATOM     40  C   UNL A   1      42.698  28.521  32.491  1.00  0.00     0.074 A 
ATOM     41  C   UNL A   1      43.427  27.601  31.636  1.00  0.00     0.031 C 
ATOM     42  C   UNL A   1      43.111  28.904  33.726  1.00  0.00     0.037 A 
BRANCH  29  43
ATOM     43  C   UNL A   1      39.404  32.944  36.659  1.00  0.00     0.057 A 
ATOM     44  C   UNL A   1      40.063  34.161  36.884  1.00  0.00     0.134 A 
ATOM     45  C   UNL A   1      38.509  32.508  37.646  1.00  0.00     0.134 A 
ATOM     46  F   UNL A   1      40.961  34.621  35.998  1.00  0.00    -0.206 F 
ATOM     47  C   UNL A   1      39.880  34.885  38.065  1.00  0.00     0.040 A 
ATOM     48  C   UNL A   1      38.296  33.238  38.817  1.00  0.00     0.040 A 
ATOM     49  F   UNL A   1      37.851  31.348  37.505  1.00  0.00    -0.206 F 
ATOM     50  C   UNL A   1      38.995  34.423  39.036  1.00  0.00     0.006 A 
ENDBRANCH  29  43
BRANCH  30  51
ATOM     51  C   UNL A   1      40.850  27.514  28.244  1.00  0.00     0.057 A 
ATOM     52  C   UNL A   1      40.215  26.294  27.992  1.00  0.00     0.134 A 
ATOM     53  C   UNL A   1      41.668  28.031  27.230  1.00  0.00     0.134 A 
ATOM     54  F   UNL A   1      39.431  25.736  28.925  1.00  0.00    -0.206 F 
ATOM     55  C   UNL A   1      40.380  25.619  26.779  1.00  0.00     0.040 A 
ATOM     56  C   UNL A   1      41.824  27.381  26.004  1.00  0.00     0.040 A 
ATOM     57  F   UNL A   1      42.304  29.199  27.403  1.00  0.00    -0.206 F 
ATOM     58  C   UNL A   1      41.179  26.167  25.777  1.00  0.00     0.006 A 
ENDBRANCH  30  51
BRANCH  42  59
ATOM     59  C   UNL A   1      44.371  28.285  34.246  1.00  0.00     0.057 A 
ATOM     60  C   UNL A   1      45.630  28.831  33.974  1.00  0.00     0.134 A 
ATOM     61  C   UNL A   1      44.303  27.193  35.120  1.00  0.00     0.134 A 
ATOM     62  F   UNL A   1      45.755  29.871  33.137  1.00  0.00    -0.206 F 
ATOM     63  C   UNL A   1      46.784  28.307  34.556  1.00  0.00     0.040 A 
ATOM     64  C   UNL A   1      45.447  26.679  35.727  1.00  0.00     0.040 A 
ATOM     65  F   UNL A   1      43.121  26.637  35.426  1.00  0.00    -0.206 F 
ATOM     66  C   UNL A   1      46.692  27.236  35.446  1.00  0.00     0.006 A 
ENDBRANCH  42  59
ENDBRANCH  16  17
ENDBRANCH   9  11
ENDBRANCH   8   9
ENDBRANCH   7   8
ENDBRANCH   6   7
ENDBRANCH   5   6
ENDBRANCH   4   5
ENDBRANCH   3   4
ENDBRANCH   2   3
ENDBRANCH   1   2
BRANCH   1  67
ATOM     67  C   UNL A   1      33.273  26.183  25.775  1.00  0.00     0.188 C 
BRANCH  67  68
ATOM     68  O   UNL A   1      32.743  25.106  25.018  1.00  0.00    -0.376 OA
BRANCH  68  69
ATOM     69  C   UNL A   1      32.120  24.072  25.774  1.00  0.00     0.202 C 
BRANCH  69  70
ATOM     70  C   UNL A   1      32.720  22.659  25.643  1.00  0.00     0.261 C 
BRANCH  70  71
ATOM     71  O   UNL A   1      34.009  22.568  25.009  1.00  0.00    -0.460 OA
BRANCH  71  72
ATOM     72  C   UNL A   1      34.619  21.366  25.024  1.00  0.00     0.339 C 
ATOM     73  O   UNL A   1      34.141  20.301  24.670  1.00  0.00    -0.246 OA
BRANCH  72  74
ATOM     74  C   UNL A   1      36.056  21.587  25.263  1.00  0.00     0.078 A 
ATOM     75  C   UNL A   1      36.603  22.811  25.642  1.00  0.00     0.019 A 
ATOM     76  C   UNL A   1      36.923  20.528  25.020  1.00  0.00     0.127 A 
ATOM     77  C   UNL A   1      37.973  22.877  25.917  1.00  0.00     0.028 A 
ATOM     78  N   UNL A   1      38.264  20.596  25.188  1.00  0.00    -0.257 NA
ATOM     79  C   UNL A   1      38.753  21.727  25.760  1.00  0.00     0.078 A 
BRANCH  79  80
ATOM     80  C   UNL A   1      40.079  21.600  26.493  1.00  0.00     0.285 C 
BRANCH  80  81
ATOM     81  O   UNL A   1      41.103  22.551  26.099  1.00  0.00    -0.487 OA
BRANCH  81  82
ATOM     82  C   UNL A   1      42.395  22.101  26.007  1.00  0.00     0.120 A 
ATOM     83  C   UNL A   1      43.421  23.026  26.129  1.00  0.00     0.046 A 
ATOM     84  C   UNL A   1      42.738  20.806  25.631  1.00  0.00     0.059 A 
ATOM     85  C   UNL A   1      44.753  22.633  25.930  1.00  0.00     0.004 A 
ATOM     86  C   UNL A   1      44.056  20.371  25.456  1.00  0.00     0.059 A 
ATOM     87  C   UNL A   1      45.072  21.309  25.604  1.00  0.00     0.013 A 
BRANCH  86  88
ATOM     88  C   UNL A   1      44.317  18.937  25.067  1.00  0.00     0.416 C 
ATOM     89  F   UNL A   1      44.571  18.787  23.739  1.00  0.00    -0.166 F 
ATOM     90  F   UNL A   1      45.382  18.398  25.724  1.00  0.00    -0.166 F 
ATOM     91  F   UNL A   1      43.269  18.110  25.344  1.00  0.00    -0.166 F 
ENDBRANCH  86  88
ENDBRANCH  81  82
ENDBRANCH  80  81
ENDBRANCH  79  80
ENDBRANCH  72  74
ENDBRANCH  71  72
ENDBRANCH  70  71
ENDBRANCH  69  70
ENDBRANCH  68  69
ENDBRANCH  67  68
ENDBRANCH   1  67
TORSDOF 24
ENDMDL
MODEL 3
REMARK VINA RESULT:      -9.4      1.600      2.277
REMARK SMILES O=C(OCCOCCOCCOCCOC(=O)c1ccc(COc2cccc(C(F)(F)F)c2)nc1)c1ccc(-c2c3nc(c(-c4c(F)cccc4F)c4ccc([nH]4)c(-c4c(F)cccc4F)c4nc(c(-c5c(F)cccc5F)c5ccc2[nH]5)C=C4)C=C3)cc1
REMARK SMILES IDX 10 1 9 2 8 3 7 4 6 5 5 6 4 7 3 8 2 9 1 10 36 11 37 12 89 13
REMARK SMILES IDX 38 14 88 15 39 16 40 17 41 18 82 19 42 20 87 21 81 22 83 23
REMARK SMILES IDX 43 24 86 25 80 26 79 27 44 29 70 30 53 31 69 32 54 33 57 34
REMARK SMILES IDX 68 35 84 36 55 37 56 38 67 40 85 41 58 42 45 43 46 44 51 45
REMARK SMILES IDX 47 46 48 47 50 48 52 49 49 50 71 51 72 52 77 53 73 54 74 55
REMARK SMILES IDX 76 56 78 57 75 58 59 59 60 60 65 61 61 62 62 63 64 64 66 65
REMARK SMILES IDX 63 66 11 67 12 68 13 69 14 70 15 71 16 72 17 73 18 74 19 75
REMARK SMILES IDX 35 76 20 77 34 78 21 79 22 80 23 81 24 82 25 83 33 84 26 85
REMARK SMILES IDX 28 86 27 87 29 88 30 89 31 90 32 91
REMARK H PARENT 83 28 57 39
REMARK Flexibility Score: inf
ROOT
ATOM      1  C   UNL A   1      33.602  27.132  24.056  1.00  0.00     0.188 C 
ENDROOT
BRANCH   1   2
ATOM      2  O   UNL A   1      32.564  28.065  23.793  1.00  0.00    -0.377 OA
BRANCH   2   3
ATOM      3  C   UNL A   1      32.020  28.725  24.932  1.00  0.00     0.188 C 
BRANCH   3   4
ATOM      4  C   UNL A   1      32.995  29.633  25.683  1.00  0.00     0.188 C 
BRANCH   4   5
ATOM      5  O   UNL A   1      32.338  30.392  26.704  1.00  0.00    -0.376 OA
BRANCH   5   6
ATOM      6  C   UNL A   1      31.464  31.427  26.252  1.00  0.00     0.202 C 
BRANCH   6   7
ATOM      7  C   UNL A   1      31.388  32.645  27.169  1.00  0.00     0.261 C 
BRANCH   7   8
ATOM      8  O   UNL A   1      32.572  33.447  27.130  1.00  0.00    -0.460 OA
BRANCH   8   9
ATOM      9  C   UNL A   1      33.159  34.123  28.145  1.00  0.00     0.338 C 
ATOM     10  O   UNL A   1      32.641  35.182  28.501  1.00  0.00    -0.246 OA
BRANCH   9  11
ATOM     11  C   UNL A   1      34.396  33.685  28.872  1.00  0.00     0.060 A 
ATOM     12  C   UNL A   1      35.718  34.027  28.561  1.00  0.00     0.016 A 
ATOM     13  C   UNL A   1      34.184  32.897  30.018  1.00  0.00     0.016 A 
ATOM     14  C   UNL A   1      36.792  33.590  29.324  1.00  0.00     0.010 A 
ATOM     15  C   UNL A   1      35.253  32.431  30.781  1.00  0.00     0.010 A 
ATOM     16  C   UNL A   1      36.561  32.754  30.407  1.00  0.00    -0.014 A 
BRANCH  16  17
ATOM     17  C   UNL A   1      37.698  32.000  30.946  1.00  0.00     0.031 A 
ATOM     18  C   UNL A   1      38.247  32.465  32.257  1.00  0.00     0.074 A 
ATOM     19  C   UNL A   1      38.145  30.896  30.331  1.00  0.00     0.049 A 
ATOM     20  N   UNL A   1      39.341  32.118  32.873  1.00  0.00    -0.248 NA
ATOM     21  C   UNL A   1      37.440  33.469  32.975  1.00  0.00     0.031 C 
ATOM     22  C   UNL A   1      37.547  30.291  29.142  1.00  0.00     0.029 A 
ATOM     23  N   UNL A   1      39.210  30.093  30.625  1.00  0.00    -0.354 N 
ATOM     24  C   UNL A   1      39.380  32.902  34.018  1.00  0.00     0.074 A 
ATOM     25  C   UNL A   1      38.199  33.730  34.023  1.00  0.00     0.031 C 
ATOM     26  C   UNL A   1      38.275  29.218  28.790  1.00  0.00     0.029 A 
ATOM     27  C   UNL A   1      39.424  29.118  29.684  1.00  0.00     0.049 A 
ATOM     28  H   UNL A   1      39.767  30.201  31.430  1.00  0.00     0.167 HD
ATOM     29  C   UNL A   1      40.346  32.933  34.964  1.00  0.00     0.037 A 
ATOM     30  C   UNL A   1      40.476  28.291  29.540  1.00  0.00     0.037 A 
ATOM     31  C   UNL A   1      41.507  32.091  34.902  1.00  0.00     0.049 A 
ATOM     32  C   UNL A   1      41.592  28.401  30.543  1.00  0.00     0.074 A 
ATOM     33  C   UNL A   1      42.598  32.048  35.745  1.00  0.00     0.029 A 
ATOM     34  N   UNL A   1      41.716  31.134  33.914  1.00  0.00    -0.354 N 
ATOM     35  N   UNL A   1      41.689  29.200  31.583  1.00  0.00    -0.248 NA
ATOM     36  C   UNL A   1      42.748  27.518  30.355  1.00  0.00     0.031 C 
ATOM     37  C   UNL A   1      43.492  31.098  35.236  1.00  0.00     0.029 A 
ATOM     38  C   UNL A   1      42.928  30.505  34.112  1.00  0.00     0.049 A 
ATOM     39  H   UNL A   1      41.090  30.933  33.180  1.00  0.00     0.167 HD
ATOM     40  C   UNL A   1      42.901  28.902  32.188  1.00  0.00     0.074 A 
ATOM     41  C   UNL A   1      43.505  27.846  31.395  1.00  0.00     0.031 C 
ATOM     42  C   UNL A   1      43.467  29.442  33.296  1.00  0.00     0.037 A 
BRANCH  29  43
ATOM     43  C   UNL A   1      40.210  33.977  36.034  1.00  0.00     0.057 A 
ATOM     44  C   UNL A   1      40.729  35.272  35.898  1.00  0.00     0.134 A 
ATOM     45  C   UNL A   1      39.633  33.644  37.267  1.00  0.00     0.134 A 
ATOM     46  F   UNL A   1      41.329  35.648  34.758  1.00  0.00    -0.206 F 
ATOM     47  C   UNL A   1      40.723  36.178  36.962  1.00  0.00     0.040 A 
ATOM     48  C   UNL A   1      39.594  34.550  38.327  1.00  0.00     0.040 A 
ATOM     49  F   UNL A   1      39.125  32.420  37.473  1.00  0.00    -0.206 F 
ATOM     50  C   UNL A   1      40.155  35.817  38.181  1.00  0.00     0.006 A 
ENDBRANCH  29  43
BRANCH  30  51
ATOM     51  C   UNL A   1      40.532  27.365  28.381  1.00  0.00     0.057 A 
ATOM     52  C   UNL A   1      39.824  26.159  28.371  1.00  0.00     0.134 A 
ATOM     53  C   UNL A   1      41.257  27.691  27.226  1.00  0.00     0.134 A 
ATOM     54  F   UNL A   1      39.122  25.780  29.448  1.00  0.00    -0.206 F 
ATOM     55  C   UNL A   1      39.830  25.316  27.257  1.00  0.00     0.040 A 
ATOM     56  C   UNL A   1      41.254  26.870  26.097  1.00  0.00     0.040 A 
ATOM     57  F   UNL A   1      41.956  28.834  27.165  1.00  0.00    -0.206 F 
ATOM     58  C   UNL A   1      40.539  25.675  26.112  1.00  0.00     0.006 A 
ENDBRANCH  30  51
BRANCH  42  59
ATOM     59  C   UNL A   1      44.771  28.862  33.748  1.00  0.00     0.057 A 
ATOM     60  C   UNL A   1      44.833  27.739  34.579  1.00  0.00     0.134 A 
ATOM     61  C   UNL A   1      45.974  29.377  33.248  1.00  0.00     0.134 A 
ATOM     62  F   UNL A   1      43.713  27.211  35.094  1.00  0.00    -0.206 F 
ATOM     63  C   UNL A   1      46.053  27.146  34.901  1.00  0.00     0.040 A 
ATOM     64  C   UNL A   1      47.197  28.776  33.542  1.00  0.00     0.040 A 
ATOM     65  F   UNL A   1      45.974  30.444  32.436  1.00  0.00    -0.206 F 
ATOM     66  C   UNL A   1      47.238  27.657  34.371  1.00  0.00     0.006 A 
ENDBRANCH  42  59
ENDBRANCH  16  17
ENDBRANCH   9  11
ENDBRANCH   8   9
ENDBRANCH   7   8
ENDBRANCH   6   7
ENDBRANCH   5   6
ENDBRANCH   4   5
ENDBRANCH   3   4
ENDBRANCH   2   3
ENDBRANCH   1   2
BRANCH   1  67
ATOM     67  C   UNL A   1      33.461  26.190  25.276  1.00  0.00     0.188 C 
BRANCH  67  68
ATOM     68  O   UNL A   1      33.508  24.807  24.962  1.00  0.00    -0.376 OA
BRANCH  68  69
ATOM     69  C   UNL A   1      32.519  24.000  25.593  1.00  0.00     0.202 C 
BRANCH  69  70
ATOM     70  C   UNL A   1      32.693  22.473  25.476  1.00  0.00     0.261 C 
BRANCH  70  71
ATOM     71  O   UNL A   1      33.829  22.015  24.721  1.00  0.00    -0.460 OA
BRANCH  71  72
ATOM     72  C   UNL A   1      34.328  20.802  25.035  1.00  0.00     0.339 C 
ATOM     73  O   UNL A   1      33.735  19.737  24.997  1.00  0.00    -0.246 OA
BRANCH  72  74
ATOM     74  C   UNL A   1      35.792  20.928  25.151  1.00  0.00     0.078 A 
ATOM     75  C   UNL A   1      36.449  22.118  25.457  1.00  0.00     0.019 A 
ATOM     76  C   UNL A   1      36.562  19.808  24.863  1.00  0.00     0.127 A 
ATOM     77  C   UNL A   1      37.838  22.095  25.619  1.00  0.00     0.028 A 
ATOM     78  N   UNL A   1      37.915  19.787  24.921  1.00  0.00    -0.257 NA
ATOM     79  C   UNL A   1      38.524  20.891  25.425  1.00  0.00     0.078 A 
BRANCH  79  80
ATOM     80  C   UNL A   1      39.894  20.687  26.051  1.00  0.00     0.285 C 
BRANCH  80  81
ATOM     81  O   UNL A   1      40.240  21.615  27.112  1.00  0.00    -0.487 OA
BRANCH  81  82
ATOM     82  C   UNL A   1      41.459  22.241  27.045  1.00  0.00     0.120 A 
ATOM     83  C   UNL A   1      42.083  22.328  25.810  1.00  0.00     0.046 A 
ATOM     84  C   UNL A   1      42.184  22.641  28.163  1.00  0.00     0.059 A 
ATOM     85  C   UNL A   1      43.378  22.857  25.710  1.00  0.00     0.004 A 
ATOM     86  C   UNL A   1      43.464  23.202  28.097  1.00  0.00     0.059 A 
ATOM     87  C   UNL A   1      44.064  23.302  26.847  1.00  0.00     0.013 A 
BRANCH  86  88
ATOM     88  C   UNL A   1      44.155  23.623  29.372  1.00  0.00     0.416 C 
ATOM     89  F   UNL A   1      43.326  24.274  30.231  1.00  0.00    -0.166 F 
ATOM     90  F   UNL A   1      44.674  22.571  30.063  1.00  0.00    -0.166 F 
ATOM     91  F   UNL A   1      45.206  24.464  29.155  1.00  0.00    -0.166 F 
ENDBRANCH  86  88
ENDBRANCH  81  82
ENDBRANCH  80  81
ENDBRANCH  79  80
ENDBRANCH  72  74
ENDBRANCH  71  72
ENDBRANCH  70  71
ENDBRANCH  69  70
ENDBRANCH  68  69
ENDBRANCH  67  68
ENDBRANCH   1  67
TORSDOF 24
ENDMDL
