MODEL 1
REMARK VINA RESULT:     -10.0      0.000      0.000
REMARK SMILES [NH3+]C[C@@H]1CC[C@H](C(=O)N[C@@H](Cc2ccccc2)C(=O)OCCOCCOCCOCCOC(=O)c2ccc(-c3c4nc(c(-c5c(F)cccc5F)c5ccc([nH]5)c(-c5c(F)cccc5F)c5nc(c(-c6c(F)cccc6F)c6ccc3[nH]6)C=C5)C=C4)cc2)O1
REMARK SMILES IDX 25 1 24 2 23 3 22 4 21 5 20 6 18 7 19 8 10 9 9 10 7 11 8 12
REMARK SMILES IDX 6 14 3 15 4 16 89 17 5 18 2 19 1 20 11 24 12 25 13 26 17 27
REMARK SMILES IDX 14 28 16 29 15 30 26 31 27 32 28 33 29 34 30 35 31 36 32 37
REMARK SMILES IDX 33 38 34 39 35 40 36 41 88 42 37 43 87 44 38 45 39 46 40 47
REMARK SMILES IDX 81 48 41 49 86 50 80 51 82 52 42 53 85 54 79 55 78 56 43 58
REMARK SMILES IDX 69 59 52 60 68 61 53 62 56 63 67 64 83 65 54 66 55 67 66 69
REMARK SMILES IDX 84 70 57 71 44 72 45 73 50 74 46 75 47 76 49 77 51 78 48 79
REMARK SMILES IDX 70 80 71 81 76 82 72 83 73 84 75 85 77 86 74 87 58 88 59 89
REMARK SMILES IDX 64 90 60 91 61 92 63 93 65 94 62 95
REMARK H PARENT 9 13 1 21 1 22 1 23 82 57 56 68
REMARK Flexibility Score: inf
ROOT
ATOM      1  C   UNL A   1      33.601  32.642  27.824  1.00  0.00     0.188 C 
ENDROOT
BRANCH   1   2
ATOM      2  C   UNL A   1      34.134  31.204  27.900  1.00  0.00     0.188 C 
BRANCH   2   3
ATOM      3  O   UNL A   1      33.347  30.158  27.366  1.00  0.00    -0.376 OA
BRANCH   3   4
ATOM      4  C   UNL A   1      33.950  29.001  26.812  1.00  0.00     0.202 C 
BRANCH   4   5
ATOM      5  C   UNL A   1      33.952  28.627  25.318  1.00  0.00     0.261 C 
BRANCH   5   6
ATOM      6  O   UNL A   1      32.861  29.082  24.505  1.00  0.00    -0.462 OA
BRANCH   6   7
ATOM      7  C   UNL A   1      32.853  28.658  23.221  1.00  0.00     0.329 C 
ATOM      8  O   UNL A   1      33.816  28.742  22.463  1.00  0.00    -0.250 OA
BRANCH   7   9
ATOM      9  C   UNL A   1      31.477  28.187  22.718  1.00  0.00     0.196 C 
BRANCH   9  10
ATOM     10  N   UNL A   1      31.181  26.787  22.399  1.00  0.00    -0.340 N 
ATOM     11  C   UNL A   1      31.497  25.646  23.088  1.00  0.00     0.249 C 
ATOM     12  O   UNL A   1      31.302  24.560  22.532  1.00  0.00    -0.272 OA
ATOM     13  H   UNL A   1      30.678  26.645  21.564  1.00  0.00     0.164 HD
BRANCH  11  14
ATOM     14  C   UNL A   1      32.075  25.685  24.528  1.00  0.00     0.207 C 
ATOM     15  C   UNL A   1      32.620  24.189  26.238  1.00  0.00     0.174 C 
ATOM     16  C   UNL A   1      31.209  24.664  26.533  1.00  0.00     0.041 C 
ATOM     17  O   UNL A   1      32.874  24.545  24.867  1.00  0.00    -0.359 OA
ATOM     18  C   UNL A   1      31.045  25.873  25.634  1.00  0.00     0.045 C 
BRANCH  15  19
ATOM     19  C   UNL A   1      32.805  22.672  26.406  1.00  0.00     0.291 C 
BRANCH  19  20
ATOM     20  N   UNL A   1      32.486  22.215  27.761  1.00  0.00    -0.355 N 
ATOM     21  H   UNL A   1      31.521  22.453  27.983  1.00  0.00     0.344 HD
ATOM     22  H   UNL A   1      33.110  22.668  28.428  1.00  0.00     0.344 HD
ATOM     23  H   UNL A   1      32.608  21.203  27.815  1.00  0.00     0.344 HD
ENDBRANCH  19  20
ENDBRANCH  15  19
ENDBRANCH  11  14
ENDBRANCH   9  10
BRANCH   9  24
ATOM     24  C   UNL A   1      30.409  28.749  23.680  1.00  0.00     0.072 C 
BRANCH  24  25
ATOM     25  C   UNL A   1      29.634  29.916  23.105  1.00  0.00    -0.045 A 
ATOM     26  C   UNL A   1      29.198  29.888  21.775  1.00  0.00     0.004 A 
ATOM     27  C   UNL A   1      29.297  31.022  23.901  1.00  0.00     0.004 A 
ATOM     28  C   UNL A   1      28.406  30.922  21.272  1.00  0.00     0.000 A 
ATOM     29  C   UNL A   1      28.471  32.029  23.411  1.00  0.00     0.000 A 
ATOM     30  C   UNL A   1      28.024  31.980  22.095  1.00  0.00     0.000 A 
ENDBRANCH  24  25
ENDBRANCH   9  24
ENDBRANCH   7   9
ENDBRANCH   6   7
ENDBRANCH   5   6
ENDBRANCH   4   5
ENDBRANCH   3   4
ENDBRANCH   2   3
ENDBRANCH   1   2
BRANCH   1  31
ATOM     31  O   UNL A   1      34.590  33.642  27.701  1.00  0.00    -0.377 OA
BRANCH  31  32
ATOM     32  C   UNL A   1      34.804  34.503  28.805  1.00  0.00     0.188 C 
BRANCH  32  33
ATOM     33  C   UNL A   1      33.602  35.102  29.566  1.00  0.00     0.188 C 
BRANCH  33  34
ATOM     34  O   UNL A   1      33.530  34.755  30.940  1.00  0.00    -0.376 OA
BRANCH  34  35
ATOM     35  C   UNL A   1      34.136  35.606  31.900  1.00  0.00     0.202 C 
BRANCH  35  36
ATOM     36  C   UNL A   1      35.378  35.091  32.646  1.00  0.00     0.261 C 
BRANCH  36  37
ATOM     37  O   UNL A   1      36.122  34.040  32.012  1.00  0.00    -0.460 OA
BRANCH  37  38
ATOM     38  C   UNL A   1      35.837  32.762  32.344  1.00  0.00     0.338 C 
ATOM     39  O   UNL A   1      34.847  32.346  32.904  1.00  0.00    -0.246 OA
BRANCH  38  40
ATOM     40  C   UNL A   1      36.869  31.909  31.708  1.00  0.00     0.060 A 
ATOM     41  C   UNL A   1      37.834  31.294  32.517  1.00  0.00     0.016 A 
ATOM     42  C   UNL A   1      36.865  31.699  30.327  1.00  0.00     0.016 A 
ATOM     43  C   UNL A   1      38.821  30.493  31.942  1.00  0.00     0.010 A 
ATOM     44  C   UNL A   1      37.872  30.924  29.748  1.00  0.00     0.010 A 
ATOM     45  C   UNL A   1      38.875  30.350  30.550  1.00  0.00    -0.014 A 
BRANCH  45  46
ATOM     46  C   UNL A   1      40.104  29.810  29.921  1.00  0.00     0.031 A 
ATOM     47  C   UNL A   1      41.265  30.750  29.736  1.00  0.00     0.074 A 
ATOM     48  C   UNL A   1      40.202  28.525  29.543  1.00  0.00     0.049 A 
ATOM     49  N   UNL A   1      42.420  30.544  29.159  1.00  0.00    -0.248 NA
ATOM     50  C   UNL A   1      41.096  32.111  30.274  1.00  0.00     0.031 C 
ATOM     51  C   UNL A   1      39.166  27.508  29.713  1.00  0.00     0.029 A 
ATOM     52  N   UNL A   1      41.231  27.859  28.922  1.00  0.00    -0.354 N 
ATOM     53  C   UNL A   1      43.107  31.747  29.256  1.00  0.00     0.074 A 
ATOM     54  C   UNL A   1      42.235  32.687  29.923  1.00  0.00     0.031 C 
ATOM     55  C   UNL A   1      39.606  26.349  29.190  1.00  0.00     0.029 A 
ATOM     56  C   UNL A   1      40.937  26.552  28.619  1.00  0.00     0.049 A 
ATOM     57  H   UNL A   1      42.097  28.279  28.716  1.00  0.00     0.167 HD
ATOM     58  C   UNL A   1      44.358  32.041  28.832  1.00  0.00     0.037 A 
ATOM     59  C   UNL A   1      41.652  25.640  27.931  1.00  0.00     0.037 A 
ATOM     60  C   UNL A   1      45.224  31.104  28.170  1.00  0.00     0.049 A 
ATOM     61  C   UNL A   1      43.014  26.016  27.400  1.00  0.00     0.074 A 
ATOM     62  C   UNL A   1      46.517  31.299  27.718  1.00  0.00     0.029 A 
ATOM     63  N   UNL A   1      44.880  29.797  27.858  1.00  0.00    -0.354 N 
ATOM     64  N   UNL A   1      43.668  27.148  27.520  1.00  0.00    -0.248 NA
ATOM     65  C   UNL A   1      43.738  24.987  26.640  1.00  0.00     0.031 C 
ATOM     66  C   UNL A   1      46.935  30.128  27.079  1.00  0.00     0.029 A 
ATOM     67  C   UNL A   1      45.927  29.183  27.191  1.00  0.00     0.049 A 
ATOM     68  H   UNL A   1      44.021  29.371  28.077  1.00  0.00     0.167 HD
ATOM     69  C   UNL A   1      44.890  26.953  26.885  1.00  0.00     0.074 A 
ATOM     70  C   UNL A   1      44.891  25.592  26.393  1.00  0.00     0.031 C 
ATOM     71  C   UNL A   1      45.919  27.821  26.723  1.00  0.00     0.037 A 
BRANCH  58  72
ATOM     72  C   UNL A   1      44.853  33.441  29.041  1.00  0.00     0.057 A 
ATOM     73  C   UNL A   1      44.694  34.439  28.070  1.00  0.00     0.134 A 
ATOM     74  C   UNL A   1      45.456  33.807  30.251  1.00  0.00     0.134 A 
ATOM     75  F   UNL A   1      44.142  34.151  26.883  1.00  0.00    -0.206 F 
ATOM     76  C   UNL A   1      45.130  35.747  28.291  1.00  0.00     0.040 A 
ATOM     77  C   UNL A   1      45.870  35.117  30.494  1.00  0.00     0.040 A 
ATOM     78  F   UNL A   1      45.638  32.900  31.223  1.00  0.00    -0.206 F 
ATOM     79  C   UNL A   1      45.711  36.090  29.510  1.00  0.00     0.006 A 
ENDBRANCH  58  72
BRANCH  59  80
ATOM     80  C   UNL A   1      41.095  24.286  27.671  1.00  0.00     0.057 A 
ATOM     81  C   UNL A   1      41.584  23.155  28.335  1.00  0.00     0.134 A 
ATOM     82  C   UNL A   1      40.097  24.083  26.709  1.00  0.00     0.134 A 
ATOM     83  F   UNL A   1      42.558  23.278  29.249  1.00  0.00    -0.206 F 
ATOM     84  C   UNL A   1      41.125  21.871  28.033  1.00  0.00     0.040 A 
ATOM     85  C   UNL A   1      39.607  22.808  26.418  1.00  0.00     0.040 A 
ATOM     86  F   UNL A   1      39.585  25.122  26.033  1.00  0.00    -0.206 F 
ATOM     87  C   UNL A   1      40.130  21.697  27.074  1.00  0.00     0.006 A 
ENDBRANCH  59  80
BRANCH  71  88
ATOM     88  C   UNL A   1      47.152  27.314  26.031  1.00  0.00     0.057 A 
ATOM     89  C   UNL A   1      48.167  26.638  26.720  1.00  0.00     0.134 A 
ATOM     90  C   UNL A   1      47.301  27.463  24.646  1.00  0.00     0.134 A 
ATOM     91  F   UNL A   1      48.092  26.468  28.048  1.00  0.00    -0.206 F 
ATOM     92  C   UNL A   1      49.298  26.152  26.060  1.00  0.00     0.040 A 
ATOM     93  C   UNL A   1      48.411  26.953  23.970  1.00  0.00     0.040 A 
ATOM     94  F   UNL A   1      46.360  28.088  23.922  1.00  0.00    -0.206 F 
ATOM     95  C   UNL A   1      49.417  26.303  24.679  1.00  0.00     0.006 A 
ENDBRANCH  71  88
ENDBRANCH  45  46
ENDBRANCH  38  40
ENDBRANCH  37  38
ENDBRANCH  36  37
ENDBRANCH  35  36
ENDBRANCH  34  35
ENDBRANCH  33  34
ENDBRANCH  32  33
ENDBRANCH  31  32
ENDBRANCH   1  31
TORSDOF 26
ENDMDL
MODEL 2
REMARK VINA RESULT:     -10.0      3.953      8.361
REMARK SMILES [NH3+]C[C@@H]1CC[C@H](C(=O)N[C@@H](Cc2ccccc2)C(=O)OCCOCCOCCOCCOC(=O)c2ccc(-c3c4nc(c(-c5c(F)cccc5F)c5ccc([nH]5)c(-c5c(F)cccc5F)c5nc(c(-c6c(F)cccc6F)c6ccc3[nH]6)C=C5)C=C4)cc2)O1
REMARK SMILES IDX 25 1 24 2 23 3 22 4 21 5 20 6 18 7 19 8 10 9 9 10 7 11 8 12
REMARK SMILES IDX 6 14 3 15 4 16 89 17 5 18 2 19 1 20 11 24 12 25 13 26 17 27
REMARK SMILES IDX 14 28 16 29 15 30 26 31 27 32 28 33 29 34 30 35 31 36 32 37
REMARK SMILES IDX 33 38 34 39 35 40 36 41 88 42 37 43 87 44 38 45 39 46 40 47
REMARK SMILES IDX 81 48 41 49 86 50 80 51 82 52 42 53 85 54 79 55 78 56 43 58
REMARK SMILES IDX 69 59 52 60 68 61 53 62 56 63 67 64 83 65 54 66 55 67 66 69
REMARK SMILES IDX 84 70 57 71 44 72 45 73 50 74 46 75 47 76 49 77 51 78 48 79
REMARK SMILES IDX 70 80 71 81 76 82 72 83 73 84 75 85 77 86 74 87 58 88 59 89
REMARK SMILES IDX 64 90 60 91 61 92 63 93 65 94 62 95
REMARK H PARENT 9 13 1 21 1 22 1 23 82 57 56 68
REMARK Flexibility Score: inf
ROOT
ATOM      1  C   UNL A   1      31.113  26.517  26.041  1.00  0.00     0.188 C 
ENDROOT
BRANCH   1   2
ATOM      2  C   UNL A   1      30.461  27.122  24.790  1.00  0.00     0.188 C 
BRANCH   2   3
ATOM      3  O   UNL A   1      31.286  27.483  23.700  1.00  0.00    -0.376 OA
BRANCH   3   4
ATOM      4  C   UNL A   1      31.334  26.689  22.527  1.00  0.00     0.202 C 
BRANCH   4   5
ATOM      5  C   UNL A   1      31.783  25.216  22.468  1.00  0.00     0.261 C 
BRANCH   5   6
ATOM      6  O   UNL A   1      32.819  24.788  23.363  1.00  0.00    -0.462 OA
BRANCH   6   7
ATOM      7  C   UNL A   1      33.314  23.547  23.156  1.00  0.00     0.329 C 
ATOM      8  O   UNL A   1      34.101  23.262  22.256  1.00  0.00    -0.250 OA
BRANCH   7   9
ATOM      9  C   UNL A   1      32.698  22.460  24.055  1.00  0.00     0.196 C 
BRANCH   9  10
ATOM     10  N   UNL A   1      31.758  22.761  25.141  1.00  0.00    -0.340 N 
ATOM     11  C   UNL A   1      31.993  22.934  26.479  1.00  0.00     0.249 C 
ATOM     12  O   UNL A   1      31.018  23.000  27.235  1.00  0.00    -0.272 OA
ATOM     13  H   UNL A   1      30.817  22.854  24.866  1.00  0.00     0.164 HD
BRANCH  11  14
ATOM     14  C   UNL A   1      33.429  23.057  27.055  1.00  0.00     0.207 C 
ATOM     15  C   UNL A   1      35.616  23.309  26.271  1.00  0.00     0.174 C 
ATOM     16  C   UNL A   1      35.409  21.816  26.459  1.00  0.00     0.041 C 
ATOM     17  O   UNL A   1      34.299  23.889  26.279  1.00  0.00    -0.359 OA
ATOM     18  C   UNL A   1      34.147  21.735  27.294  1.00  0.00     0.045 C 
BRANCH  15  19
ATOM     19  C   UNL A   1      36.316  23.669  24.950  1.00  0.00     0.291 C 
BRANCH  19  20
ATOM     20  N   UNL A   1      37.776  23.628  25.060  1.00  0.00    -0.355 N 
ATOM     21  H   UNL A   1      38.192  23.875  24.162  1.00  0.00     0.344 HD
ATOM     22  H   UNL A   1      38.071  22.688  25.324  1.00  0.00     0.344 HD
ATOM     23  H   UNL A   1      38.083  24.292  25.771  1.00  0.00     0.344 HD
ENDBRANCH  19  20
ENDBRANCH  15  19
ENDBRANCH  11  14
ENDBRANCH   9  10
BRANCH   9  24
ATOM     24  C   UNL A   1      32.112  21.369  23.135  1.00  0.00     0.072 C 
BRANCH  24  25
ATOM     25  C   UNL A   1      32.660  19.985  23.417  1.00  0.00    -0.045 A 
ATOM     26  C   UNL A   1      32.206  18.882  22.686  1.00  0.00     0.004 A 
ATOM     27  C   UNL A   1      33.665  19.789  24.378  1.00  0.00     0.004 A 
ATOM     28  C   UNL A   1      32.777  17.624  22.882  1.00  0.00     0.000 A 
ATOM     29  C   UNL A   1      34.263  18.543  24.541  1.00  0.00     0.000 A 
ATOM     30  C   UNL A   1      33.820  17.458  23.792  1.00  0.00     0.000 A 
ENDBRANCH  24  25
ENDBRANCH   9  24
ENDBRANCH   7   9
ENDBRANCH   6   7
ENDBRANCH   5   6
ENDBRANCH   4   5
ENDBRANCH   3   4
ENDBRANCH   2   3
ENDBRANCH   1   2
BRANCH   1  31
ATOM     31  O   UNL A   1      31.468  27.448  27.042  1.00  0.00    -0.377 OA
BRANCH  31  32
ATOM     32  C   UNL A   1      31.752  28.777  26.641  1.00  0.00     0.188 C 
BRANCH  32  33
ATOM     33  C   UNL A   1      33.028  29.482  27.144  1.00  0.00     0.188 C 
BRANCH  33  34
ATOM     34  O   UNL A   1      33.028  30.894  26.999  1.00  0.00    -0.376 OA
BRANCH  34  35
ATOM     35  C   UNL A   1      31.801  31.564  26.757  1.00  0.00     0.202 C 
BRANCH  35  36
ATOM     36  C   UNL A   1      31.724  33.070  27.053  1.00  0.00     0.261 C 
BRANCH  36  37
ATOM     37  O   UNL A   1      32.973  33.767  27.181  1.00  0.00    -0.460 OA
BRANCH  37  38
ATOM     38  C   UNL A   1      33.317  34.250  28.394  1.00  0.00     0.338 C 
ATOM     39  O   UNL A   1      32.689  35.017  29.090  1.00  0.00    -0.246 OA
BRANCH  38  40
ATOM     40  C   UNL A   1      34.521  33.505  28.832  1.00  0.00     0.060 A 
ATOM     41  C   UNL A   1      34.358  32.303  29.534  1.00  0.00     0.016 A 
ATOM     42  C   UNL A   1      35.799  33.978  28.528  1.00  0.00     0.016 A 
ATOM     43  C   UNL A   1      35.475  31.587  29.964  1.00  0.00     0.010 A 
ATOM     44  C   UNL A   1      36.917  33.279  28.987  1.00  0.00     0.010 A 
ATOM     45  C   UNL A   1      36.758  32.101  29.739  1.00  0.00    -0.014 A 
BRANCH  45  46
ATOM     46  C   UNL A   1      37.908  31.545  30.491  1.00  0.00     0.031 A 
ATOM     47  C   UNL A   1      38.755  30.506  29.806  1.00  0.00     0.074 A 
ATOM     48  C   UNL A   1      38.209  31.957  31.734  1.00  0.00     0.049 A 
ATOM     49  N   UNL A   1      39.770  29.824  30.266  1.00  0.00    -0.248 NA
ATOM     50  C   UNL A   1      38.404  30.196  28.409  1.00  0.00     0.031 C 
ATOM     51  C   UNL A   1      37.495  32.988  32.483  1.00  0.00     0.029 A 
ATOM     52  N   UNL A   1      39.199  31.542  32.590  1.00  0.00    -0.354 N 
ATOM     53  C   UNL A   1      40.170  28.999  29.223  1.00  0.00     0.074 A 
ATOM     54  C   UNL A   1      39.276  29.245  28.114  1.00  0.00     0.031 C 
ATOM     55  C   UNL A   1      38.059  33.112  33.699  1.00  0.00     0.029 A 
ATOM     56  C   UNL A   1      39.150  32.146  33.823  1.00  0.00     0.049 A 
ATOM     57  H   UNL A   1      39.880  30.874  32.343  1.00  0.00     0.167 HD
ATOM     58  C   UNL A   1      41.196  28.117  29.190  1.00  0.00     0.037 A 
ATOM     59  C   UNL A   1      39.884  31.917  34.930  1.00  0.00     0.037 A 
ATOM     60  C   UNL A   1      42.084  27.875  30.294  1.00  0.00     0.049 A 
ATOM     61  C   UNL A   1      40.973  30.873  34.892  1.00  0.00     0.074 A 
ATOM     62  C   UNL A   1      43.167  27.016  30.354  1.00  0.00     0.029 A 
ATOM     63  N   UNL A   1      41.987  28.488  31.534  1.00  0.00    -0.354 N 
ATOM     64  N   UNL A   1      41.364  30.116  33.892  1.00  0.00    -0.248 NA
ATOM     65  C   UNL A   1      41.726  30.652  36.135  1.00  0.00     0.031 C 
ATOM     66  C   UNL A   1      43.688  27.064  31.650  1.00  0.00     0.029 A 
ATOM     67  C   UNL A   1      42.972  28.002  32.376  1.00  0.00     0.049 A 
ATOM     68  H   UNL A   1      41.317  29.166  31.778  1.00  0.00     0.167 HD
ATOM     69  C   UNL A   1      42.427  29.361  34.376  1.00  0.00     0.074 A 
ATOM     70  C   UNL A   1      42.628  29.760  35.753  1.00  0.00     0.031 C 
ATOM     71  C   UNL A   1      43.170  28.422  33.740  1.00  0.00     0.037 A 
BRANCH  58  72
ATOM     72  C   UNL A   1      41.394  27.326  27.931  1.00  0.00     0.057 A 
ATOM     73  C   UNL A   1      40.770  26.088  27.725  1.00  0.00     0.134 A 
ATOM     74  C   UNL A   1      42.184  27.832  26.892  1.00  0.00     0.134 A 
ATOM     75  F   UNL A   1      40.016  25.538  28.688  1.00  0.00    -0.206 F 
ATOM     76  C   UNL A   1      40.937  25.377  26.536  1.00  0.00     0.040 A 
ATOM     77  C   UNL A   1      42.335  27.144  25.688  1.00  0.00     0.040 A 
ATOM     78  F   UNL A   1      42.809  29.012  27.024  1.00  0.00    -0.206 F 
ATOM     79  C   UNL A   1      41.713  25.911  25.509  1.00  0.00     0.006 A 
ENDBRANCH  58  72
BRANCH  59  80
ATOM     80  C   UNL A   1      39.605  32.662  36.186  1.00  0.00     0.057 A 
ATOM     81  C   UNL A   1      38.613  32.242  37.080  1.00  0.00     0.134 A 
ATOM     82  C   UNL A   1      40.286  33.847  36.496  1.00  0.00     0.134 A 
ATOM     83  F   UNL A   1      37.906  31.130  36.828  1.00  0.00    -0.206 F 
ATOM     84  C   UNL A   1      38.287  32.984  38.217  1.00  0.00     0.040 A 
ATOM     85  C   UNL A   1      39.992  34.583  37.645  1.00  0.00     0.040 A 
ATOM     86  F   UNL A   1      41.247  34.309  35.683  1.00  0.00    -0.206 F 
ATOM     87  C   UNL A   1      38.982  34.157  38.504  1.00  0.00     0.006 A 
ENDBRANCH  59  80
BRANCH  71  88
ATOM     88  C   UNL A   1      44.303  27.799  34.504  1.00  0.00     0.057 A 
ATOM     89  C   UNL A   1      44.166  26.577  35.174  1.00  0.00     0.134 A 
ATOM     90  C   UNL A   1      45.564  28.409  34.526  1.00  0.00     0.134 A 
ATOM     91  F   UNL A   1      42.984  25.943  35.200  1.00  0.00    -0.206 F 
ATOM     92  C   UNL A   1      45.235  25.998  35.861  1.00  0.00     0.040 A 
ATOM     93  C   UNL A   1      46.648  27.825  35.182  1.00  0.00     0.040 A 
ATOM     94  F   UNL A   1      45.770  29.574  33.893  1.00  0.00    -0.206 F 
ATOM     95  C   UNL A   1      46.484  26.620  35.859  1.00  0.00     0.006 A 
ENDBRANCH  71  88
ENDBRANCH  45  46
ENDBRANCH  38  40
ENDBRANCH  37  38
ENDBRANCH  36  37
ENDBRANCH  35  36
ENDBRANCH  34  35
ENDBRANCH  33  34
ENDBRANCH  32  33
ENDBRANCH  31  32
ENDBRANCH   1  31
TORSDOF 26
ENDMDL
MODEL 3
REMARK VINA RESULT:     -10.0      4.614     10.291
REMARK SMILES [NH3+]C[C@@H]1CC[C@H](C(=O)N[C@@H](Cc2ccccc2)C(=O)OCCOCCOCCOCCOC(=O)c2ccc(-c3c4nc(c(-c5c(F)cccc5F)c5ccc([nH]5)c(-c5c(F)cccc5F)c5nc(c(-c6c(F)cccc6F)c6ccc3[nH]6)C=C5)C=C4)cc2)O1
REMARK SMILES IDX 25 1 24 2 23 3 22 4 21 5 20 6 18 7 19 8 10 9 9 10 7 11 8 12
REMARK SMILES IDX 6 14 3 15 4 16 89 17 5 18 2 19 1 20 11 24 12 25 13 26 17 27
REMARK SMILES IDX 14 28 16 29 15 30 26 31 27 32 28 33 29 34 30 35 31 36 32 37
REMARK SMILES IDX 33 38 34 39 35 40 36 41 88 42 37 43 87 44 38 45 39 46 40 47
REMARK SMILES IDX 81 48 41 49 86 50 80 51 82 52 42 53 85 54 79 55 78 56 43 58
REMARK SMILES IDX 69 59 52 60 68 61 53 62 56 63 67 64 83 65 54 66 55 67 66 69
REMARK SMILES IDX 84 70 57 71 44 72 45 73 50 74 46 75 47 76 49 77 51 78 48 79
REMARK SMILES IDX 70 80 71 81 76 82 72 83 73 84 75 85 77 86 74 87 58 88 59 89
REMARK SMILES IDX 64 90 60 91 61 92 63 93 65 94 62 95
REMARK H PARENT 9 13 1 21 1 22 1 23 82 57 56 68
REMARK Flexibility Score: inf
ROOT
ATOM      1  C   UNL A   1      40.446  20.319  26.734  1.00  0.00     0.188 C 
ENDROOT
BRANCH   1   2
ATOM      2  C   UNL A   1      40.115  21.774  26.376  1.00  0.00     0.188 C 
BRANCH   2   3
ATOM      3  O   UNL A   1      38.908  22.049  25.692  1.00  0.00    -0.376 OA
BRANCH   3   4
ATOM      4  C   UNL A   1      38.054  23.099  26.112  1.00  0.00     0.202 C 
BRANCH   4   5
ATOM      5  C   UNL A   1      36.563  23.231  25.748  1.00  0.00     0.261 C 
BRANCH   5   6
ATOM      6  O   UNL A   1      36.034  22.364  24.735  1.00  0.00    -0.462 OA
BRANCH   6   7
ATOM      7  C   UNL A   1      35.817  22.922  23.522  1.00  0.00     0.329 C 
ATOM      8  O   UNL A   1      36.698  23.115  22.687  1.00  0.00    -0.250 OA
BRANCH   7   9
ATOM      9  C   UNL A   1      34.386  23.446  23.312  1.00  0.00     0.196 C 
BRANCH   9  10
ATOM     10  N   UNL A   1      33.944  24.082  22.066  1.00  0.00    -0.340 N 
ATOM     11  C   UNL A   1      33.107  25.149  21.877  1.00  0.00     0.249 C 
ATOM     12  O   UNL A   1      32.733  25.396  20.725  1.00  0.00    -0.272 OA
ATOM     13  H   UNL A   1      34.305  23.682  21.242  1.00  0.00     0.164 HD
BRANCH  11  14
ATOM     14  C   UNL A   1      32.634  26.046  23.053  1.00  0.00     0.207 C 
ATOM     15  C   UNL A   1      31.423  28.019  23.375  1.00  0.00     0.174 C 
ATOM     16  C   UNL A   1      32.885  28.427  23.334  1.00  0.00     0.041 C 
ATOM     17  O   UNL A   1      31.374  26.689  22.825  1.00  0.00    -0.359 OA
ATOM     18  C   UNL A   1      33.626  27.115  23.491  1.00  0.00     0.045 C 
BRANCH  15  19
ATOM     19  C   UNL A   1      30.506  28.937  22.551  1.00  0.00     0.291 C 
BRANCH  19  20
ATOM     20  N   UNL A   1      31.257  29.833  21.668  1.00  0.00    -0.355 N 
ATOM     21  H   UNL A   1      31.811  30.479  22.229  1.00  0.00     0.344 HD
ATOM     22  H   UNL A   1      30.606  30.361  21.086  1.00  0.00     0.344 HD
ATOM     23  H   UNL A   1      31.876  29.283  21.071  1.00  0.00     0.344 HD
ENDBRANCH  19  20
ENDBRANCH  15  19
ENDBRANCH  11  14
ENDBRANCH   9  10
BRANCH   9  24
ATOM     24  C   UNL A   1      33.411  22.317  23.705  1.00  0.00     0.072 C 
BRANCH  24  25
ATOM     25  C   UNL A   1      32.506  22.679  24.864  1.00  0.00    -0.045 A 
ATOM     26  C   UNL A   1      31.213  23.162  24.628  1.00  0.00     0.004 A 
ATOM     27  C   UNL A   1      32.923  22.493  26.192  1.00  0.00     0.004 A 
ATOM     28  C   UNL A   1      30.348  23.408  25.695  1.00  0.00     0.000 A 
ATOM     29  C   UNL A   1      32.044  22.697  27.252  1.00  0.00     0.000 A 
ATOM     30  C   UNL A   1      30.754  23.154  27.004  1.00  0.00     0.000 A 
ENDBRANCH  24  25
ENDBRANCH   9  24
ENDBRANCH   7   9
ENDBRANCH   6   7
ENDBRANCH   5   6
ENDBRANCH   4   5
ENDBRANCH   3   4
ENDBRANCH   2   3
ENDBRANCH   1   2
BRANCH   1  31
ATOM     31  O   UNL A   1      41.653  20.136  27.444  1.00  0.00    -0.377 OA
BRANCH  31  32
ATOM     32  C   UNL A   1      42.629  19.276  26.882  1.00  0.00     0.188 C 
BRANCH  32  33
ATOM     33  C   UNL A   1      43.091  19.476  25.424  1.00  0.00     0.188 C 
BRANCH  33  34
ATOM     34  O   UNL A   1      44.257  20.271  25.269  1.00  0.00    -0.376 OA
BRANCH  34  35
ATOM     35  C   UNL A   1      44.184  21.663  25.534  1.00  0.00     0.202 C 
BRANCH  35  36
ATOM     36  C   UNL A   1      43.859  22.609  24.366  1.00  0.00     0.261 C 
BRANCH  36  37
ATOM     37  O   UNL A   1      43.346  23.904  24.710  1.00  0.00    -0.460 OA
BRANCH  37  38
ATOM     38  C   UNL A   1      44.209  24.836  25.168  1.00  0.00     0.338 C 
ATOM     39  O   UNL A   1      45.303  25.111  24.727  1.00  0.00    -0.246 OA
BRANCH  38  40
ATOM     40  C   UNL A   1      43.491  25.625  26.196  1.00  0.00     0.060 A 
ATOM     41  C   UNL A   1      43.848  26.966  26.396  1.00  0.00     0.016 A 
ATOM     42  C   UNL A   1      42.455  25.052  26.937  1.00  0.00     0.016 A 
ATOM     43  C   UNL A   1      43.193  27.727  27.363  1.00  0.00     0.010 A 
ATOM     44  C   UNL A   1      41.821  25.804  27.928  1.00  0.00     0.010 A 
ATOM     45  C   UNL A   1      42.214  27.133  28.170  1.00  0.00    -0.014 A 
BRANCH  45  46
ATOM     46  C   UNL A   1      41.779  27.817  29.411  1.00  0.00     0.031 A 
ATOM     47  C   UNL A   1      40.560  28.696  29.334  1.00  0.00     0.074 A 
ATOM     48  C   UNL A   1      42.427  27.651  30.577  1.00  0.00     0.049 A 
ATOM     49  N   UNL A   1      40.017  29.448  30.256  1.00  0.00    -0.248 NA
ATOM     50  C   UNL A   1      39.862  28.733  28.038  1.00  0.00     0.031 C 
ATOM     51  C   UNL A   1      43.588  26.790  30.788  1.00  0.00     0.029 A 
ATOM     52  N   UNL A   1      42.198  28.218  31.806  1.00  0.00    -0.354 N 
ATOM     53  C   UNL A   1      38.924  30.052  29.648  1.00  0.00     0.074 A 
ATOM     54  C   UNL A   1      38.892  29.602  28.275  1.00  0.00     0.031 C 
ATOM     55  C   UNL A   1      43.984  26.900  32.069  1.00  0.00     0.029 A 
ATOM     56  C   UNL A   1      43.126  27.864  32.756  1.00  0.00     0.049 A 
ATOM     57  H   UNL A   1      41.441  28.819  31.990  1.00  0.00     0.167 HD
ATOM     58  C   UNL A   1      38.021  30.903  30.189  1.00  0.00     0.037 A 
ATOM     59  C   UNL A   1      43.277  28.298  34.023  1.00  0.00     0.037 A 
ATOM     60  C   UNL A   1      38.054  31.348  31.555  1.00  0.00     0.049 A 
ATOM     61  C   UNL A   1      42.302  29.307  34.580  1.00  0.00     0.074 A 
ATOM     62  C   UNL A   1      37.174  32.196  32.206  1.00  0.00     0.029 A 
ATOM     63  N   UNL A   1      39.024  30.989  32.479  1.00  0.00    -0.354 N 
ATOM     64  N   UNL A   1      41.254  29.853  34.008  1.00  0.00    -0.248 NA
ATOM     65  C   UNL A   1      42.530  29.760  35.961  1.00  0.00     0.031 C 
ATOM     66  C   UNL A   1      37.645  32.396  33.506  1.00  0.00     0.029 A 
ATOM     67  C   UNL A   1      38.780  31.622  33.686  1.00  0.00     0.049 A 
ATOM     68  H   UNL A   1      39.773  30.376  32.303  1.00  0.00     0.167 HD
ATOM     69  C   UNL A   1      40.681  30.680  34.968  1.00  0.00     0.074 A 
ATOM     70  C   UNL A   1      41.490  30.555  36.162  1.00  0.00     0.031 C 
ATOM     71  C   UNL A   1      39.585  31.473  34.871  1.00  0.00     0.037 A 
BRANCH  58  72
ATOM     72  C   UNL A   1      36.941  31.434  29.294  1.00  0.00     0.057 A 
ATOM     73  C   UNL A   1      35.819  30.668  28.948  1.00  0.00     0.134 A 
ATOM     74  C   UNL A   1      37.002  32.747  28.811  1.00  0.00     0.134 A 
ATOM     75  F   UNL A   1      35.709  29.397  29.361  1.00  0.00    -0.206 F 
ATOM     76  C   UNL A   1      34.805  31.186  28.140  1.00  0.00     0.040 A 
ATOM     77  C   UNL A   1      35.981  33.284  28.027  1.00  0.00     0.040 A 
ATOM     78  F   UNL A   1      38.047  33.533  29.106  1.00  0.00    -0.206 F 
ATOM     79  C   UNL A   1      34.880  32.501  27.687  1.00  0.00     0.006 A 
ENDBRANCH  58  72
BRANCH  59  80
ATOM     80  C   UNL A   1      44.409  27.813  34.856  1.00  0.00     0.057 A 
ATOM     81  C   UNL A   1      45.661  28.439  34.823  1.00  0.00     0.134 A 
ATOM     82  C   UNL A   1      44.283  26.675  35.663  1.00  0.00     0.134 A 
ATOM     83  F   UNL A   1      45.855  29.517  34.049  1.00  0.00    -0.206 F 
ATOM     84  C   UNL A   1      46.752  27.937  35.536  1.00  0.00     0.040 A 
ATOM     85  C   UNL A   1      45.357  26.179  36.405  1.00  0.00     0.040 A 
ATOM     86  F   UNL A   1      43.113  26.024  35.740  1.00  0.00    -0.206 F 
ATOM     87  C   UNL A   1      46.599  26.805  36.334  1.00  0.00     0.006 A 
ENDBRANCH  59  80
BRANCH  71  88
ATOM     88  C   UNL A   1      39.162  32.225  36.101  1.00  0.00     0.057 A 
ATOM     89  C   UNL A   1      39.607  33.524  36.369  1.00  0.00     0.134 A 
ATOM     90  C   UNL A   1      38.253  31.655  37.003  1.00  0.00     0.134 A 
ATOM     91  F   UNL A   1      40.484  34.126  35.552  1.00  0.00    -0.206 F 
ATOM     92  C   UNL A   1      39.187  34.220  37.505  1.00  0.00     0.040 A 
ATOM     93  C   UNL A   1      37.801  32.351  38.125  1.00  0.00     0.040 A 
ATOM     94  F   UNL A   1      37.774  30.418  36.800  1.00  0.00    -0.206 F 
ATOM     95  C   UNL A   1      38.274  33.635  38.382  1.00  0.00     0.006 A 
ENDBRANCH  71  88
ENDBRANCH  45  46
ENDBRANCH  38  40
ENDBRANCH  37  38
ENDBRANCH  36  37
ENDBRANCH  35  36
ENDBRANCH  34  35
ENDBRANCH  33  34
ENDBRANCH  32  33
ENDBRANCH  31  32
ENDBRANCH   1  31
TORSDOF 26
ENDMDL
