MODEL 1
REMARK VINA RESULT:     -10.6      0.000      0.000
REMARK SMILES CCc1ccc(S(=O)(=O)c2nnn(-c3ccc(C(=O)OCCOCCOCCOCCOC(=O)c4ccc(-c5c6nc(c(-c7c(F)cccc7F)c7ccc([nH]7)c(-c7c(F)cccc7F)c7nc(c(-c8c(F)cccc8F)c8ccc5[nH]8)C=C7)C=C6)cc4)cc3)c2C)cc1
REMARK SMILES IDX 25 1 24 2 23 3 22 4 21 5 20 6 18 7 19 8 17 9 14 10 15 11
REMARK SMILES IDX 90 12 16 13 89 14 13 15 10 16 11 17 91 18 12 19 92 20 7 21
REMARK SMILES IDX 8 22 9 23 6 24 3 25 4 26 94 27 5 28 93 29 2 30 1 31 26 32
REMARK SMILES IDX 27 33 28 34 29 35 30 36 31 37 32 38 33 39 34 40 35 41 36 42
REMARK SMILES IDX 88 43 37 44 87 45 38 46 39 47 40 48 81 49 41 50 86 51 80 52
REMARK SMILES IDX 82 53 42 54 85 55 79 56 78 57 43 59 69 60 52 61 68 62 53 63
REMARK SMILES IDX 56 64 67 65 83 66 54 67 55 68 66 70 84 71 57 72 44 73 45 74
REMARK SMILES IDX 50 75 46 76 47 77 49 78 51 79 48 80 70 81 71 82 76 83 72 84
REMARK SMILES IDX 73 85 75 86 77 87 74 88 58 89 59 90 64 91 60 92 61 93 63 94
REMARK SMILES IDX 65 95 62 96
REMARK H PARENT 82 58 56 69
REMARK Flexibility Score: inf
ROOT
ATOM      1  C   UNL A   1      33.619  36.760  31.164  1.00  0.00     0.188 C 
ENDROOT
BRANCH   1   2
ATOM      2  C   UNL A   1      32.340  35.990  30.768  1.00  0.00     0.188 C 
BRANCH   2   3
ATOM      3  O   UNL A   1      32.573  34.980  29.803  1.00  0.00    -0.376 OA
BRANCH   3   4
ATOM      4  C   UNL A   1      33.134  35.292  28.548  1.00  0.00     0.202 C 
BRANCH   4   5
ATOM      5  C   UNL A   1      34.545  34.822  28.177  1.00  0.00     0.261 C 
BRANCH   5   6
ATOM      6  O   UNL A   1      34.661  33.499  27.654  1.00  0.00    -0.460 OA
BRANCH   6   7
ATOM      7  C   UNL A   1      34.557  32.479  28.526  1.00  0.00     0.338 C 
ATOM      8  O   UNL A   1      34.718  32.522  29.739  1.00  0.00    -0.246 OA
BRANCH   7   9
ATOM      9  C   UNL A   1      34.025  31.311  27.791  1.00  0.00     0.060 A 
ATOM     10  C   UNL A   1      32.929  29.070  26.593  1.00  0.00     0.067 A 
ATOM     11  C   UNL A   1      32.183  30.252  26.623  1.00  0.00     0.029 A 
ATOM     12  C   UNL A   1      34.267  29.049  27.008  1.00  0.00     0.029 A 
ATOM     13  C   UNL A   1      32.728  31.368  27.258  1.00  0.00     0.018 A 
ATOM     14  C   UNL A   1      34.819  30.174  27.605  1.00  0.00     0.018 A 
BRANCH  10  15
ATOM     15  N   UNL A   1      32.266  27.849  26.351  1.00  0.00    -0.216 N 
ATOM     16  C   UNL A   1      31.750  25.870  25.608  1.00  0.00     0.205 A 
ATOM     17  N   UNL A   1      31.101  26.074  26.797  1.00  0.00    -0.117 NA
ATOM     18  C   UNL A   1      32.546  26.964  25.321  1.00  0.00     0.081 A 
ATOM     19  N   UNL A   1      31.484  27.251  27.276  1.00  0.00    -0.061 NA
ATOM     20  C   UNL A   1      33.629  27.154  24.320  1.00  0.00     0.070 C 
BRANCH  16  21
ATOM     21  S   UNL A   1      31.708  24.361  24.770  1.00  0.00     0.227 S 
ATOM     22  O   UNL A   1      31.469  24.735  23.389  1.00  0.00    -0.217 OA
ATOM     23  O   UNL A   1      30.802  23.510  25.514  1.00  0.00    -0.217 OA
BRANCH  21  24
ATOM     24  C   UNL A   1      33.331  23.650  24.865  1.00  0.00     0.073 A 
ATOM     25  C   UNL A   1      35.909  22.527  24.890  1.00  0.00    -0.048 A 
ATOM     26  C   UNL A   1      35.111  22.454  23.741  1.00  0.00     0.005 A 
ATOM     27  C   UNL A   1      35.400  23.193  26.019  1.00  0.00     0.005 A 
ATOM     28  C   UNL A   1      33.830  23.016  23.724  1.00  0.00     0.021 A 
ATOM     29  C   UNL A   1      34.116  23.740  26.016  1.00  0.00     0.021 A 
BRANCH  25  30
ATOM     30  C   UNL A   1      37.297  21.932  24.984  1.00  0.00     0.032 C 
ATOM     31  C   UNL A   1      37.397  20.412  24.959  1.00  0.00     0.009 C 
ENDBRANCH  25  30
ENDBRANCH  21  24
ENDBRANCH  16  21
ENDBRANCH  10  15
ENDBRANCH   7   9
ENDBRANCH   6   7
ENDBRANCH   5   6
ENDBRANCH   4   5
ENDBRANCH   3   4
ENDBRANCH   2   3
ENDBRANCH   1   2
BRANCH   1  32
ATOM     32  O   UNL A   1      33.574  37.554  32.339  1.00  0.00    -0.377 OA
BRANCH  32  33
ATOM     33  C   UNL A   1      33.815  36.955  33.613  1.00  0.00     0.188 C 
BRANCH  33  34
ATOM     34  C   UNL A   1      34.452  35.548  33.810  1.00  0.00     0.188 C 
BRANCH  34  35
ATOM     35  O   UNL A   1      35.823  35.433  33.464  1.00  0.00    -0.376 OA
BRANCH  35  36
ATOM     36  C   UNL A   1      36.533  34.215  33.539  1.00  0.00     0.202 C 
BRANCH  36  37
ATOM     37  C   UNL A   1      36.017  33.065  32.685  1.00  0.00     0.261 C 
BRANCH  37  38
ATOM     38  O   UNL A   1      37.040  32.421  31.956  1.00  0.00    -0.460 OA
BRANCH  38  39
ATOM     39  C   UNL A   1      36.884  31.098  31.820  1.00  0.00     0.338 C 
ATOM     40  O   UNL A   1      36.196  30.352  32.515  1.00  0.00    -0.246 OA
BRANCH  39  41
ATOM     41  C   UNL A   1      37.781  30.644  30.762  1.00  0.00     0.060 A 
ATOM     42  C   UNL A   1      37.459  29.416  30.188  1.00  0.00     0.016 A 
ATOM     43  C   UNL A   1      39.077  31.186  30.737  1.00  0.00     0.016 A 
ATOM     44  C   UNL A   1      38.498  28.571  29.908  1.00  0.00     0.010 A 
ATOM     45  C   UNL A   1      40.111  30.331  30.491  1.00  0.00     0.010 A 
ATOM     46  C   UNL A   1      39.794  29.009  30.197  1.00  0.00    -0.014 A 
BRANCH  46  47
ATOM     47  C   UNL A   1      40.845  28.032  30.175  1.00  0.00     0.031 A 
ATOM     48  C   UNL A   1      41.481  27.864  31.490  1.00  0.00     0.074 A 
ATOM     49  C   UNL A   1      41.114  27.308  29.075  1.00  0.00     0.049 A 
ATOM     50  N   UNL A   1      42.673  28.218  31.835  1.00  0.00    -0.248 NA
ATOM     51  C   UNL A   1      40.622  27.439  32.606  1.00  0.00     0.031 C 
ATOM     52  C   UNL A   1      40.351  27.211  27.828  1.00  0.00     0.029 A 
ATOM     53  N   UNL A   1      42.108  26.405  28.898  1.00  0.00    -0.354 N 
ATOM     54  C   UNL A   1      42.782  27.853  33.169  1.00  0.00     0.074 A 
ATOM     55  C   UNL A   1      41.449  27.590  33.638  1.00  0.00     0.031 C 
ATOM     56  C   UNL A   1      40.781  26.130  27.133  1.00  0.00     0.029 A 
ATOM     57  C   UNL A   1      41.915  25.545  27.827  1.00  0.00     0.049 A 
ATOM     58  H   UNL A   1      42.900  26.362  29.481  1.00  0.00     0.167 HD
ATOM     59  C   UNL A   1      43.985  27.516  33.701  1.00  0.00     0.037 A 
ATOM     60  C   UNL A   1      42.593  24.387  27.635  1.00  0.00     0.037 A 
ATOM     61  C   UNL A   1      45.075  28.003  32.893  1.00  0.00     0.049 A 
ATOM     62  C   UNL A   1      43.829  24.456  28.469  1.00  0.00     0.074 A 
ATOM     63  C   UNL A   1      45.463  29.256  32.454  1.00  0.00     0.029 A 
ATOM     64  N   UNL A   1      45.733  27.105  32.087  1.00  0.00    -0.354 N 
ATOM     65  N   UNL A   1      44.826  25.259  28.220  1.00  0.00    -0.248 NA
ATOM     66  C   UNL A   1      43.742  23.985  29.847  1.00  0.00     0.031 C 
ATOM     67  C   UNL A   1      45.932  29.053  31.123  1.00  0.00     0.029 A 
ATOM     68  C   UNL A   1      45.856  27.687  30.850  1.00  0.00     0.049 A 
ATOM     69  H   UNL A   1      46.055  26.212  32.348  1.00  0.00     0.167 HD
ATOM     70  C   UNL A   1      45.235  25.722  29.464  1.00  0.00     0.074 A 
ATOM     71  C   UNL A   1      44.579  24.846  30.432  1.00  0.00     0.031 C 
ATOM     72  C   UNL A   1      45.818  26.949  29.610  1.00  0.00     0.037 A 
BRANCH  59  73
ATOM     73  C   UNL A   1      44.147  26.418  34.714  1.00  0.00     0.057 A 
ATOM     74  C   UNL A   1      44.740  26.717  35.950  1.00  0.00     0.134 A 
ATOM     75  C   UNL A   1      44.010  25.041  34.429  1.00  0.00     0.134 A 
ATOM     76  F   UNL A   1      44.945  27.988  36.323  1.00  0.00    -0.206 F 
ATOM     77  C   UNL A   1      45.222  25.721  36.806  1.00  0.00     0.040 A 
ATOM     78  C   UNL A   1      44.433  24.041  35.302  1.00  0.00     0.040 A 
ATOM     79  F   UNL A   1      43.559  24.587  33.253  1.00  0.00    -0.206 F 
ATOM     80  C   UNL A   1      45.072  24.378  36.481  1.00  0.00     0.006 A 
ENDBRANCH  59  73
BRANCH  60  81
ATOM     81  C   UNL A   1      42.090  23.117  27.062  1.00  0.00     0.057 A 
ATOM     82  C   UNL A   1      42.954  22.231  26.404  1.00  0.00     0.134 A 
ATOM     83  C   UNL A   1      40.812  22.615  27.370  1.00  0.00     0.134 A 
ATOM     84  F   UNL A   1      44.208  22.599  26.106  1.00  0.00    -0.206 F 
ATOM     85  C   UNL A   1      42.579  20.917  26.089  1.00  0.00     0.040 A 
ATOM     86  C   UNL A   1      40.420  21.310  27.052  1.00  0.00     0.040 A 
ATOM     87  F   UNL A   1      39.926  23.340  28.067  1.00  0.00    -0.206 F 
ATOM     88  C   UNL A   1      41.311  20.451  26.423  1.00  0.00     0.006 A 
ENDBRANCH  60  81
BRANCH  72  89
ATOM     89  C   UNL A   1      46.209  27.698  28.367  1.00  0.00     0.057 A 
ATOM     90  C   UNL A   1      45.306  28.431  27.581  1.00  0.00     0.134 A 
ATOM     91  C   UNL A   1      47.565  27.821  28.051  1.00  0.00     0.134 A 
ATOM     92  F   UNL A   1      44.000  28.462  27.874  1.00  0.00    -0.206 F 
ATOM     93  C   UNL A   1      45.731  29.214  26.503  1.00  0.00     0.040 A 
ATOM     94  C   UNL A   1      48.007  28.627  26.998  1.00  0.00     0.040 A 
ATOM     95  F   UNL A   1      48.493  27.198  28.796  1.00  0.00    -0.206 F 
ATOM     96  C   UNL A   1      47.088  29.320  26.214  1.00  0.00     0.006 A 
ENDBRANCH  72  89
ENDBRANCH  46  47
ENDBRANCH  39  41
ENDBRANCH  38  39
ENDBRANCH  37  38
ENDBRANCH  36  37
ENDBRANCH  35  36
ENDBRANCH  34  35
ENDBRANCH  33  34
ENDBRANCH  32  33
ENDBRANCH   1  32
TORSDOF 24
ENDMDL
MODEL 2
REMARK VINA RESULT:      -9.6      1.907      2.670
REMARK SMILES CCc1ccc(S(=O)(=O)c2nnn(-c3ccc(C(=O)OCCOCCOCCOCCOC(=O)c4ccc(-c5c6nc(c(-c7c(F)cccc7F)c7ccc([nH]7)c(-c7c(F)cccc7F)c7nc(c(-c8c(F)cccc8F)c8ccc5[nH]8)C=C7)C=C6)cc4)cc3)c2C)cc1
REMARK SMILES IDX 25 1 24 2 23 3 22 4 21 5 20 6 18 7 19 8 17 9 14 10 15 11
REMARK SMILES IDX 90 12 16 13 89 14 13 15 10 16 11 17 91 18 12 19 92 20 7 21
REMARK SMILES IDX 8 22 9 23 6 24 3 25 4 26 94 27 5 28 93 29 2 30 1 31 26 32
REMARK SMILES IDX 27 33 28 34 29 35 30 36 31 37 32 38 33 39 34 40 35 41 36 42
REMARK SMILES IDX 88 43 37 44 87 45 38 46 39 47 40 48 81 49 41 50 86 51 80 52
REMARK SMILES IDX 82 53 42 54 85 55 79 56 78 57 43 59 69 60 52 61 68 62 53 63
REMARK SMILES IDX 56 64 67 65 83 66 54 67 55 68 66 70 84 71 57 72 44 73 45 74
REMARK SMILES IDX 50 75 46 76 47 77 49 78 51 79 48 80 70 81 71 82 76 83 72 84
REMARK SMILES IDX 73 85 75 86 77 87 74 88 58 89 59 90 64 91 60 92 61 93 63 94
REMARK SMILES IDX 65 95 62 96
REMARK H PARENT 82 58 56 69
REMARK Flexibility Score: inf
ROOT
ATOM      1  C   UNL A   1      34.092  35.433  31.840  1.00  0.00     0.188 C 
ENDROOT
BRANCH   1   2
ATOM      2  C   UNL A   1      32.998  35.823  30.822  1.00  0.00     0.188 C 
BRANCH   2   3
ATOM      3  O   UNL A   1      32.725  34.803  29.879  1.00  0.00    -0.376 OA
BRANCH   3   4
ATOM      4  C   UNL A   1      33.231  34.877  28.565  1.00  0.00     0.202 C 
BRANCH   4   5
ATOM      5  C   UNL A   1      34.704  34.571  28.270  1.00  0.00     0.261 C 
BRANCH   5   6
ATOM      6  O   UNL A   1      34.992  33.286  27.721  1.00  0.00    -0.460 OA
BRANCH   6   7
ATOM      7  C   UNL A   1      34.903  32.228  28.548  1.00  0.00     0.338 C 
ATOM      8  O   UNL A   1      35.121  32.209  29.752  1.00  0.00    -0.246 OA
BRANCH   7   9
ATOM      9  C   UNL A   1      34.309  31.109  27.785  1.00  0.00     0.060 A 
ATOM     10  C   UNL A   1      33.085  28.968  26.529  1.00  0.00     0.067 A 
ATOM     11  C   UNL A   1      32.433  30.204  26.544  1.00  0.00     0.029 A 
ATOM     12  C   UNL A   1      34.402  28.840  26.991  1.00  0.00     0.029 A 
ATOM     13  C   UNL A   1      33.039  31.270  27.208  1.00  0.00     0.018 A 
ATOM     14  C   UNL A   1      35.018  29.915  27.616  1.00  0.00     0.018 A 
BRANCH  10  15
ATOM     15  N   UNL A   1      32.339  27.804  26.254  1.00  0.00    -0.216 N 
ATOM     16  C   UNL A   1      31.673  25.900  25.437  1.00  0.00     0.205 A 
ATOM     17  N   UNL A   1      31.079  26.084  26.657  1.00  0.00    -0.117 NA
ATOM     18  C   UNL A   1      32.527  26.956  25.173  1.00  0.00     0.081 A 
ATOM     19  N   UNL A   1      31.552  27.209  27.178  1.00  0.00    -0.061 NA
ATOM     20  C   UNL A   1      33.586  27.129  24.144  1.00  0.00     0.070 C 
BRANCH  16  21
ATOM     21  S   UNL A   1      31.508  24.440  24.530  1.00  0.00     0.227 S 
ATOM     22  O   UNL A   1      31.101  24.892  23.212  1.00  0.00    -0.217 OA
ATOM     23  O   UNL A   1      30.693  23.554  25.334  1.00  0.00    -0.217 OA
BRANCH  21  24
ATOM     24  C   UNL A   1      33.121  23.717  24.378  1.00  0.00     0.073 A 
ATOM     25  C   UNL A   1      35.688  22.625  24.026  1.00  0.00    -0.048 A 
ATOM     26  C   UNL A   1      34.930  23.035  22.922  1.00  0.00     0.005 A 
ATOM     27  C   UNL A   1      35.145  22.792  25.312  1.00  0.00     0.005 A 
ATOM     28  C   UNL A   1      33.655  23.583  23.094  1.00  0.00     0.021 A 
ATOM     29  C   UNL A   1      33.865  23.322  25.492  1.00  0.00     0.021 A 
BRANCH  25  30
ATOM     30  C   UNL A   1      37.068  22.012  23.914  1.00  0.00     0.032 C 
ATOM     31  C   UNL A   1      37.582  21.248  25.127  1.00  0.00     0.009 C 
ENDBRANCH  25  30
ENDBRANCH  21  24
ENDBRANCH  16  21
ENDBRANCH  10  15
ENDBRANCH   7   9
ENDBRANCH   6   7
ENDBRANCH   5   6
ENDBRANCH   4   5
ENDBRANCH   3   4
ENDBRANCH   2   3
ENDBRANCH   1   2
BRANCH   1  32
ATOM     32  O   UNL A   1      33.674  34.893  33.084  1.00  0.00    -0.377 OA
BRANCH  32  33
ATOM     33  C   UNL A   1      33.935  33.523  33.390  1.00  0.00     0.188 C 
BRANCH  33  34
ATOM     34  C   UNL A   1      35.242  32.774  32.995  1.00  0.00     0.188 C 
BRANCH  34  35
ATOM     35  O   UNL A   1      36.455  33.373  33.424  1.00  0.00    -0.376 OA
BRANCH  35  36
ATOM     36  C   UNL A   1      37.621  33.394  32.629  1.00  0.00     0.202 C 
BRANCH  36  37
ATOM     37  C   UNL A   1      38.758  34.290  33.102  1.00  0.00     0.261 C 
BRANCH  37  38
ATOM     38  O   UNL A   1      39.557  33.683  34.096  1.00  0.00    -0.460 OA
BRANCH  38  39
ATOM     39  C   UNL A   1      40.874  33.717  33.854  1.00  0.00     0.338 C 
ATOM     40  O   UNL A   1      41.513  34.626  33.326  1.00  0.00    -0.246 OA
BRANCH  39  41
ATOM     41  C   UNL A   1      41.433  32.418  34.215  1.00  0.00     0.060 A 
ATOM     42  C   UNL A   1      42.809  32.287  34.038  1.00  0.00     0.016 A 
ATOM     43  C   UNL A   1      40.556  31.322  34.240  1.00  0.00     0.016 A 
ATOM     44  C   UNL A   1      43.258  31.099  33.531  1.00  0.00     0.010 A 
ATOM     45  C   UNL A   1      40.998  30.150  33.701  1.00  0.00     0.010 A 
ATOM     46  C   UNL A   1      42.313  30.108  33.249  1.00  0.00    -0.014 A 
BRANCH  46  47
ATOM     47  C   UNL A   1      42.740  28.988  32.460  1.00  0.00     0.031 A 
ATOM     48  C   UNL A   1      43.541  28.029  33.236  1.00  0.00     0.074 A 
ATOM     49  C   UNL A   1      42.345  28.830  31.186  1.00  0.00     0.049 A 
ATOM     50  N   UNL A   1      44.803  27.789  33.122  1.00  0.00    -0.248 NA
ATOM     51  C   UNL A   1      42.905  27.415  34.412  1.00  0.00     0.031 C 
ATOM     52  C   UNL A   1      41.331  29.577  30.436  1.00  0.00     0.029 A 
ATOM     53  N   UNL A   1      42.719  27.862  30.314  1.00  0.00    -0.354 N 
ATOM     54  C   UNL A   1      45.071  26.822  34.080  1.00  0.00     0.074 A 
ATOM     55  C   UNL A   1      43.942  26.795  34.970  1.00  0.00     0.031 C 
ATOM     56  C   UNL A   1      41.011  28.883  29.318  1.00  0.00     0.029 A 
ATOM     57  C   UNL A   1      41.877  27.721  29.221  1.00  0.00     0.049 A 
ATOM     58  H   UNL A   1      43.520  27.305  30.447  1.00  0.00     0.167 HD
ATOM     59  C   UNL A   1      46.069  25.920  33.896  1.00  0.00     0.037 A 
ATOM     60  C   UNL A   1      41.861  26.647  28.393  1.00  0.00     0.037 A 
ATOM     61  C   UNL A   1      47.009  26.367  32.900  1.00  0.00     0.049 A 
ATOM     62  C   UNL A   1      43.154  25.926  28.580  1.00  0.00     0.074 A 
ATOM     63  C   UNL A   1      47.808  27.488  32.763  1.00  0.00     0.029 A 
ATOM     64  N   UNL A   1      46.937  25.806  31.646  1.00  0.00    -0.354 N 
ATOM     65  N   UNL A   1      44.308  26.399  28.194  1.00  0.00    -0.248 NA
ATOM     66  C   UNL A   1      43.218  24.912  29.626  1.00  0.00     0.031 C 
ATOM     67  C   UNL A   1      47.765  27.807  31.374  1.00  0.00     0.029 A 
ATOM     68  C   UNL A   1      46.993  26.834  30.739  1.00  0.00     0.049 A 
ATOM     69  H   UNL A   1      46.862  24.847  31.439  1.00  0.00     0.167 HD
ATOM     70  C   UNL A   1      45.192  26.064  29.212  1.00  0.00     0.074 A 
ATOM     71  C   UNL A   1      44.480  25.085  30.031  1.00  0.00     0.031 C 
ATOM     72  C   UNL A   1      46.295  26.825  29.476  1.00  0.00     0.037 A 
BRANCH  59  73
ATOM     73  C   UNL A   1      45.957  24.484  34.326  1.00  0.00     0.057 A 
ATOM     74  C   UNL A   1      47.105  23.820  34.781  1.00  0.00     0.134 A 
ATOM     75  C   UNL A   1      44.849  23.652  34.049  1.00  0.00     0.134 A 
ATOM     76  F   UNL A   1      48.228  24.500  35.057  1.00  0.00    -0.206 F 
ATOM     77  C   UNL A   1      47.168  22.427  34.888  1.00  0.00     0.040 A 
ATOM     78  C   UNL A   1      44.883  22.268  34.208  1.00  0.00     0.040 A 
ATOM     79  F   UNL A   1      43.714  24.113  33.511  1.00  0.00    -0.206 F 
ATOM     80  C   UNL A   1      46.056  21.646  34.596  1.00  0.00     0.006 A 
ENDBRANCH  59  73
BRANCH  60  81
ATOM     81  C   UNL A   1      40.695  26.027  27.722  1.00  0.00     0.057 A 
ATOM     82  C   UNL A   1      40.786  25.559  26.404  1.00  0.00     0.134 A 
ATOM     83  C   UNL A   1      39.544  25.641  28.433  1.00  0.00     0.134 A 
ATOM     84  F   UNL A   1      41.864  25.836  25.657  1.00  0.00    -0.206 F 
ATOM     85  C   UNL A   1      39.804  24.737  25.834  1.00  0.00     0.040 A 
ATOM     86  C   UNL A   1      38.551  24.830  27.873  1.00  0.00     0.040 A 
ATOM     87  F   UNL A   1      39.381  25.961  29.725  1.00  0.00    -0.206 F 
ATOM     88  C   UNL A   1      38.686  24.362  26.573  1.00  0.00     0.006 A 
ENDBRANCH  60  81
BRANCH  72  89
ATOM     89  C   UNL A   1      46.653  27.911  28.500  1.00  0.00     0.057 A 
ATOM     90  C   UNL A   1      46.133  29.214  28.557  1.00  0.00     0.134 A 
ATOM     91  C   UNL A   1      47.680  27.682  27.580  1.00  0.00     0.134 A 
ATOM     92  F   UNL A   1      45.224  29.557  29.477  1.00  0.00    -0.206 F 
ATOM     93  C   UNL A   1      46.585  30.228  27.706  1.00  0.00     0.040 A 
ATOM     94  C   UNL A   1      48.166  28.694  26.748  1.00  0.00     0.040 A 
ATOM     95  F   UNL A   1      48.270  26.477  27.511  1.00  0.00    -0.206 F 
ATOM     96  C   UNL A   1      47.611  29.970  26.803  1.00  0.00     0.006 A 
ENDBRANCH  72  89
ENDBRANCH  46  47
ENDBRANCH  39  41
ENDBRANCH  38  39
ENDBRANCH  37  38
ENDBRANCH  36  37
ENDBRANCH  35  36
ENDBRANCH  34  35
ENDBRANCH  33  34
ENDBRANCH  32  33
ENDBRANCH   1  32
TORSDOF 24
ENDMDL
MODEL 3
REMARK VINA RESULT:      -9.4      4.305      9.641
REMARK SMILES CCc1ccc(S(=O)(=O)c2nnn(-c3ccc(C(=O)OCCOCCOCCOCCOC(=O)c4ccc(-c5c6nc(c(-c7c(F)cccc7F)c7ccc([nH]7)c(-c7c(F)cccc7F)c7nc(c(-c8c(F)cccc8F)c8ccc5[nH]8)C=C7)C=C6)cc4)cc3)c2C)cc1
REMARK SMILES IDX 25 1 24 2 23 3 22 4 21 5 20 6 18 7 19 8 17 9 14 10 15 11
REMARK SMILES IDX 90 12 16 13 89 14 13 15 10 16 11 17 91 18 12 19 92 20 7 21
REMARK SMILES IDX 8 22 9 23 6 24 3 25 4 26 94 27 5 28 93 29 2 30 1 31 26 32
REMARK SMILES IDX 27 33 28 34 29 35 30 36 31 37 32 38 33 39 34 40 35 41 36 42
REMARK SMILES IDX 88 43 37 44 87 45 38 46 39 47 40 48 81 49 41 50 86 51 80 52
REMARK SMILES IDX 82 53 42 54 85 55 79 56 78 57 43 59 69 60 52 61 68 62 53 63
REMARK SMILES IDX 56 64 67 65 83 66 54 67 55 68 66 70 84 71 57 72 44 73 45 74
REMARK SMILES IDX 50 75 46 76 47 77 49 78 51 79 48 80 70 81 71 82 76 83 72 84
REMARK SMILES IDX 73 85 75 86 77 87 74 88 58 89 59 90 64 91 60 92 61 93 63 94
REMARK SMILES IDX 65 95 62 96
REMARK H PARENT 82 58 56 69
REMARK Flexibility Score: inf
ROOT
ATOM      1  C   UNL A   1      32.896  36.672  31.483  1.00  0.00     0.188 C 
ENDROOT
BRANCH   1   2
ATOM      2  C   UNL A   1      34.163  36.570  32.361  1.00  0.00     0.188 C 
BRANCH   2   3
ATOM      3  O   UNL A   1      34.260  35.342  33.060  1.00  0.00    -0.376 OA
BRANCH   3   4
ATOM      4  C   UNL A   1      35.338  34.463  32.834  1.00  0.00     0.202 C 
BRANCH   4   5
ATOM      5  C   UNL A   1      35.251  32.988  33.241  1.00  0.00     0.261 C 
BRANCH   5   6
ATOM      6  O   UNL A   1      36.481  32.340  33.562  1.00  0.00    -0.460 OA
BRANCH   6   7
ATOM      7  C   UNL A   1      37.173  32.816  34.614  1.00  0.00     0.338 C 
ATOM      8  O   UNL A   1      36.780  32.931  35.768  1.00  0.00    -0.246 OA
BRANCH   7   9
ATOM      9  C   UNL A   1      38.573  33.010  34.181  1.00  0.00     0.060 A 
ATOM     10  C   UNL A   1      41.121  33.407  33.175  1.00  0.00     0.067 A 
ATOM     11  C   UNL A   1      40.366  34.519  33.559  1.00  0.00     0.029 A 
ATOM     12  C   UNL A   1      40.676  32.105  33.441  1.00  0.00     0.029 A 
ATOM     13  C   UNL A   1      39.071  34.315  34.033  1.00  0.00     0.018 A 
ATOM     14  C   UNL A   1      39.400  31.905  33.950  1.00  0.00     0.018 A 
BRANCH  10  15
ATOM     15  N   UNL A   1      42.228  33.592  32.322  1.00  0.00    -0.216 N 
ATOM     16  C   UNL A   1      43.509  34.218  30.678  1.00  0.00     0.205 A 
ATOM     17  N   UNL A   1      44.297  33.922  31.759  1.00  0.00    -0.117 NA
ATOM     18  C   UNL A   1      42.177  34.069  31.021  1.00  0.00     0.081 A 
ATOM     19  N   UNL A   1      43.500  33.618  32.775  1.00  0.00    -0.061 NA
ATOM     20  C   UNL A   1      40.933  34.498  30.330  1.00  0.00     0.070 C 
BRANCH  16  21
ATOM     21  S   UNL A   1      44.144  34.886  29.217  1.00  0.00     0.227 S 
ATOM     22  O   UNL A   1      43.479  34.131  28.171  1.00  0.00    -0.217 OA
ATOM     23  O   UNL A   1      45.584  34.901  29.371  1.00  0.00    -0.217 OA
BRANCH  21  24
ATOM     24  C   UNL A   1      43.584  36.567  29.110  1.00  0.00     0.073 A 
ATOM     25  C   UNL A   1      42.798  39.264  29.006  1.00  0.00    -0.048 A 
ATOM     26  C   UNL A   1      43.675  38.815  30.002  1.00  0.00     0.005 A 
ATOM     27  C   UNL A   1      42.340  38.341  28.050  1.00  0.00     0.005 A 
ATOM     28  C   UNL A   1      44.072  37.475  30.053  1.00  0.00     0.021 A 
ATOM     29  C   UNL A   1      42.717  36.998  28.104  1.00  0.00     0.021 A 
BRANCH  25  30
ATOM     30  C   UNL A   1      42.317  40.695  28.897  1.00  0.00     0.032 C 
ATOM     31  C   UNL A   1      40.818  40.929  29.030  1.00  0.00     0.009 C 
ENDBRANCH  25  30
ENDBRANCH  21  24
ENDBRANCH  16  21
ENDBRANCH  10  15
ENDBRANCH   7   9
ENDBRANCH   6   7
ENDBRANCH   5   6
ENDBRANCH   4   5
ENDBRANCH   3   4
ENDBRANCH   2   3
ENDBRANCH   1   2
BRANCH   1  32
ATOM     32  O   UNL A   1      33.067  37.011  30.115  1.00  0.00    -0.377 OA
BRANCH  32  33
ATOM     33  C   UNL A   1      33.231  35.979  29.141  1.00  0.00     0.188 C 
BRANCH  33  34
ATOM     34  C   UNL A   1      34.042  34.672  29.382  1.00  0.00     0.188 C 
BRANCH  34  35
ATOM     35  O   UNL A   1      34.214  33.831  28.252  1.00  0.00    -0.376 OA
BRANCH  35  36
ATOM     36  C   UNL A   1      35.305  32.947  28.113  1.00  0.00     0.202 C 
BRANCH  36  37
ATOM     37  C   UNL A   1      35.359  31.765  29.072  1.00  0.00     0.261 C 
BRANCH  37  38
ATOM     38  O   UNL A   1      36.608  31.107  29.062  1.00  0.00    -0.460 OA
BRANCH  38  39
ATOM     39  C   UNL A   1      36.720  30.103  29.942  1.00  0.00     0.338 C 
ATOM     40  O   UNL A   1      36.332  30.087  31.109  1.00  0.00    -0.246 OA
BRANCH  39  41
ATOM     41  C   UNL A   1      37.508  29.044  29.320  1.00  0.00     0.060 A 
ATOM     42  C   UNL A   1      38.044  28.102  30.196  1.00  0.00     0.016 A 
ATOM     43  C   UNL A   1      38.043  29.299  28.047  1.00  0.00     0.016 A 
ATOM     44  C   UNL A   1      39.320  27.678  29.944  1.00  0.00     0.010 A 
ATOM     45  C   UNL A   1      39.328  28.904  27.814  1.00  0.00     0.010 A 
ATOM     46  C   UNL A   1      39.975  28.201  28.825  1.00  0.00    -0.014 A 
BRANCH  46  47
ATOM     47  C   UNL A   1      41.390  27.983  28.722  1.00  0.00     0.031 A 
ATOM     48  C   UNL A   1      41.715  26.745  27.998  1.00  0.00     0.074 A 
ATOM     49  C   UNL A   1      42.278  28.887  29.168  1.00  0.00     0.049 A 
ATOM     50  N   UNL A   1      42.219  25.662  28.484  1.00  0.00    -0.248 NA
ATOM     51  C   UNL A   1      41.234  26.628  26.612  1.00  0.00     0.031 C 
ATOM     52  C   UNL A   1      42.043  30.256  29.636  1.00  0.00     0.029 A 
ATOM     53  N   UNL A   1      43.629  28.784  29.190  1.00  0.00    -0.354 N 
ATOM     54  C   UNL A   1      42.320  24.798  27.404  1.00  0.00     0.074 A 
ATOM     55  C   UNL A   1      41.512  25.353  26.352  1.00  0.00     0.031 C 
ATOM     56  C   UNL A   1      43.224  30.920  29.664  1.00  0.00     0.029 A 
ATOM     57  C   UNL A   1      44.293  29.992  29.337  1.00  0.00     0.049 A 
ATOM     58  H   UNL A   1      44.099  27.923  29.108  1.00  0.00     0.167 HD
ATOM     59  C   UNL A   1      43.288  23.847  27.363  1.00  0.00     0.037 A 
ATOM     60  C   UNL A   1      45.611  30.185  29.083  1.00  0.00     0.037 A 
ATOM     61  C   UNL A   1      43.828  23.586  28.673  1.00  0.00     0.049 A 
ATOM     62  C   UNL A   1      46.262  28.842  29.086  1.00  0.00     0.074 A 
ATOM     63  C   UNL A   1      43.283  23.176  29.876  1.00  0.00     0.029 A 
ATOM     64  N   UNL A   1      45.056  24.123  28.984  1.00  0.00    -0.354 N 
ATOM     65  N   UNL A   1      46.417  28.116  30.160  1.00  0.00    -0.248 NA
ATOM     66  C   UNL A   1      46.296  28.103  27.829  1.00  0.00     0.031 C 
ATOM     67  C   UNL A   1      43.979  23.922  30.872  1.00  0.00     0.029 A 
ATOM     68  C   UNL A   1      44.943  24.697  30.225  1.00  0.00     0.049 A 
ATOM     69  H   UNL A   1      45.863  24.100  28.422  1.00  0.00     0.167 HD
ATOM     70  C   UNL A   1      46.152  26.814  29.755  1.00  0.00     0.074 A 
ATOM     71  C   UNL A   1      46.156  26.859  28.294  1.00  0.00     0.031 C 
ATOM     72  C   UNL A   1      45.656  25.886  30.626  1.00  0.00     0.037 A 
BRANCH  59  73
ATOM     73  C   UNL A   1      44.001  23.467  26.095  1.00  0.00     0.057 A 
ATOM     74  C   UNL A   1      44.071  22.112  25.737  1.00  0.00     0.134 A 
ATOM     75  C   UNL A   1      44.853  24.328  25.369  1.00  0.00     0.134 A 
ATOM     76  F   UNL A   1      43.326  21.195  26.370  1.00  0.00    -0.206 F 
ATOM     77  C   UNL A   1      44.972  21.642  24.775  1.00  0.00     0.040 A 
ATOM     78  C   UNL A   1      45.711  23.877  24.368  1.00  0.00     0.040 A 
ATOM     79  F   UNL A   1      44.982  25.629  25.655  1.00  0.00    -0.206 F 
ATOM     80  C   UNL A   1      45.798  22.525  24.090  1.00  0.00     0.006 A 
ENDBRANCH  59  73
BRANCH  60  81
ATOM     81  C   UNL A   1      46.267  31.385  28.513  1.00  0.00     0.057 A 
ATOM     82  C   UNL A   1      47.453  31.888  29.065  1.00  0.00     0.134 A 
ATOM     83  C   UNL A   1      45.898  31.914  27.263  1.00  0.00     0.134 A 
ATOM     84  F   UNL A   1      47.914  31.417  30.232  1.00  0.00    -0.206 F 
ATOM     85  C   UNL A   1      48.238  32.843  28.403  1.00  0.00     0.040 A 
ATOM     86  C   UNL A   1      46.665  32.875  26.597  1.00  0.00     0.040 A 
ATOM     87  F   UNL A   1      44.827  31.456  26.600  1.00  0.00    -0.206 F 
ATOM     88  C   UNL A   1      47.848  33.332  27.160  1.00  0.00     0.006 A 
ENDBRANCH  60  81
BRANCH  72  89
ATOM     89  C   UNL A   1      45.609  26.241  32.086  1.00  0.00     0.057 A 
ATOM     90  C   UNL A   1      44.487  26.801  32.717  1.00  0.00     0.134 A 
ATOM     91  C   UNL A   1      46.668  25.850  32.911  1.00  0.00     0.134 A 
ATOM     92  F   UNL A   1      43.384  27.107  32.025  1.00  0.00    -0.206 F 
ATOM     93  C   UNL A   1      44.442  27.002  34.101  1.00  0.00     0.040 A 
ATOM     94  C   UNL A   1      46.621  26.012  34.298  1.00  0.00     0.040 A 
ATOM     95  F   UNL A   1      47.749  25.251  32.386  1.00  0.00    -0.206 F 
ATOM     96  C   UNL A   1      45.509  26.599  34.897  1.00  0.00     0.006 A 
ENDBRANCH  72  89
ENDBRANCH  46  47
ENDBRANCH  39  41
ENDBRANCH  38  39
ENDBRANCH  37  38
ENDBRANCH  36  37
ENDBRANCH  35  36
ENDBRANCH  34  35
ENDBRANCH  33  34
ENDBRANCH  32  33
ENDBRANCH   1  32
TORSDOF 24
ENDMDL
