MODEL 1
REMARK VINA RESULT:      -8.3      0.000      0.000
REMARK SMILES COc1ccc(C)cc1[C@@H](C)[C@@](O)(C(=O)OCCOCCOCCOCCOC(=O)c1ccc(-c2c3nc(c(-c4c(F)cccc4F)c4ccc([nH]4)c(-c4c(F)cccc4F)c4nc(c(-c5c(F)cccc5F)c5ccc2[nH]5)C=C4)C=C3)cc1)C(C)C
REMARK SMILES IDX 21 1 20 2 19 3 18 4 17 5 16 6 14 7 15 8 12 9 10 10 11 11
REMARK SMILES IDX 9 12 3 13 4 14 5 15 8 16 6 17 7 18 2 19 1 20 13 21 85 23
REMARK SMILES IDX 86 24 87 25 22 26 23 27 24 28 25 29 26 30 27 31 28 32 29 33
REMARK SMILES IDX 30 34 31 35 32 36 84 37 33 38 83 39 34 40 35 41 36 42 77 43
REMARK SMILES IDX 37 44 82 45 76 46 78 47 38 48 81 49 75 50 74 51 39 53 65 54
REMARK SMILES IDX 48 55 64 56 49 57 52 58 63 59 79 60 50 61 51 62 62 64 80 65
REMARK SMILES IDX 53 66 40 67 41 68 46 69 42 70 43 71 45 72 47 73 44 74 66 75
REMARK SMILES IDX 67 76 72 77 68 78 69 79 71 80 73 81 70 82 54 83 55 84 60 85
REMARK SMILES IDX 56 86 57 87 59 88 61 89 58 90
REMARK H PARENT 13 22 78 52 52 63
REMARK Flexibility Score: inf
ROOT
ATOM      1  C   UNL A   1      50.699  19.740  36.900  1.00  0.00     0.188 C 
ENDROOT
BRANCH   1   2
ATOM      2  C   UNL A   1      50.262  20.381  38.211  1.00  0.00     0.188 C 
BRANCH   2   3
ATOM      3  O   UNL A   1      49.310  19.642  38.955  1.00  0.00    -0.376 OA
BRANCH   3   4
ATOM      4  C   UNL A   1      49.845  18.961  40.077  1.00  0.00     0.202 C 
BRANCH   4   5
ATOM      5  C   UNL A   1      49.123  19.245  41.391  1.00  0.00     0.261 C 
BRANCH   5   6
ATOM      6  O   UNL A   1      47.718  19.438  41.179  1.00  0.00    -0.461 OA
BRANCH   6   7
ATOM      7  C   UNL A   1      46.973  18.935  42.160  1.00  0.00     0.339 C 
ATOM      8  O   UNL A   1      47.241  19.068  43.368  1.00  0.00    -0.249 OA
BRANCH   7   9
ATOM      9  C   UNL A   1      45.672  18.295  41.673  1.00  0.00     0.170 C 
BRANCH   9  10
ATOM     10  C   UNL A   1      44.410  18.120  42.640  1.00  0.00     0.063 C 
ATOM     11  C   UNL A   1      44.059  19.014  43.815  1.00  0.00     0.016 C 
BRANCH  10  12
ATOM     12  C   UNL A   1      44.422  16.754  43.305  1.00  0.00     0.001 A 
ATOM     13  C   UNL A   1      43.540  15.724  43.009  1.00  0.00     0.122 A 
ATOM     14  C   UNL A   1      43.802  14.454  43.525  1.00  0.00     0.047 A 
ATOM     15  C   UNL A   1      44.912  14.234  44.360  1.00  0.00     0.007 A 
ATOM     16  C   UNL A   1      45.367  16.557  44.316  1.00  0.00     0.011 A 
ATOM     17  C   UNL A   1      45.693  15.301  44.782  1.00  0.00    -0.051 A 
ATOM     18  C   UNL A   1      46.969  15.195  45.559  1.00  0.00     0.044 C 
BRANCH  13  19
ATOM     19  O   UNL A   1      42.475  15.977  42.187  1.00  0.00    -0.496 OA
ATOM     20  C   UNL A   1      42.028  14.799  41.508  1.00  0.00     0.278 C 
ENDBRANCH  13  19
ENDBRANCH  10  12
ENDBRANCH   9  10
BRANCH   9  21
ATOM     21  O   UNL A   1      45.247  19.418  40.807  1.00  0.00    -0.377 OA
ATOM     22  H   UNL A   1      44.867  19.066  39.986  1.00  0.00     0.212 HD
ENDBRANCH   9  21
BRANCH   9  23
ATOM     23  C   UNL A   1      46.219  17.135  40.738  1.00  0.00     0.027 C 
ATOM     24  C   UNL A   1      47.163  16.067  41.309  1.00  0.00     0.011 C 
ATOM     25  C   UNL A   1      45.157  16.617  39.767  1.00  0.00     0.011 C 
ENDBRANCH   9  23
ENDBRANCH   7   9
ENDBRANCH   6   7
ENDBRANCH   5   6
ENDBRANCH   4   5
ENDBRANCH   3   4
ENDBRANCH   2   3
ENDBRANCH   1   2
BRANCH   1  26
ATOM     26  O   UNL A   1      50.312  20.603  35.825  1.00  0.00    -0.377 OA
BRANCH  26  27
ATOM     27  C   UNL A   1      49.067  20.338  35.194  1.00  0.00     0.188 C 
BRANCH  27  28
ATOM     28  C   UNL A   1      48.201  21.541  35.194  1.00  0.00     0.188 C 
BRANCH  28  29
ATOM     29  O   UNL A   1      47.325  21.677  36.298  1.00  0.00    -0.376 OA
BRANCH  29  30
ATOM     30  C   UNL A   1      47.635  22.811  37.062  1.00  0.00     0.202 C 
BRANCH  30  31
ATOM     31  C   UNL A   1      46.463  23.353  37.876  1.00  0.00     0.261 C 
BRANCH  31  32
ATOM     32  O   UNL A   1      45.560  24.473  37.472  1.00  0.00    -0.460 OA
BRANCH  32  33
ATOM     33  C   UNL A   1      44.523  25.315  37.367  1.00  0.00     0.338 C 
ATOM     34  O   UNL A   1      43.990  25.715  38.402  1.00  0.00    -0.246 OA
BRANCH  33  35
ATOM     35  C   UNL A   1      43.826  25.699  36.107  1.00  0.00     0.060 A 
ATOM     36  C   UNL A   1      44.579  26.262  35.061  1.00  0.00     0.016 A 
ATOM     37  C   UNL A   1      42.461  25.531  35.903  1.00  0.00     0.016 A 
ATOM     38  C   UNL A   1      43.952  26.893  33.969  1.00  0.00     0.010 A 
ATOM     39  C   UNL A   1      41.832  26.222  34.836  1.00  0.00     0.010 A 
ATOM     40  C   UNL A   1      42.560  27.023  33.930  1.00  0.00    -0.014 A 
BRANCH  40  41
ATOM     41  C   UNL A   1      41.892  28.210  33.278  1.00  0.00     0.031 A 
ATOM     42  C   UNL A   1      41.281  29.388  34.072  1.00  0.00     0.074 A 
ATOM     43  C   UNL A   1      42.177  28.373  31.953  1.00  0.00     0.049 A 
ATOM     44  N   UNL A   1      40.707  30.466  33.600  1.00  0.00    -0.248 NA
ATOM     45  C   UNL A   1      41.214  29.375  35.540  1.00  0.00     0.031 C 
ATOM     46  C   UNL A   1      42.672  29.577  31.343  1.00  0.00     0.029 A 
ATOM     47  N   UNL A   1      42.262  27.508  30.864  1.00  0.00    -0.354 N 
ATOM     48  C   UNL A   1      40.490  31.380  34.659  1.00  0.00     0.074 A 
ATOM     49  C   UNL A   1      40.721  30.584  35.840  1.00  0.00     0.031 C 
ATOM     50  C   UNL A   1      42.627  29.570  30.014  1.00  0.00     0.029 A 
ATOM     51  C   UNL A   1      42.112  28.292  29.679  1.00  0.00     0.049 A 
ATOM     52  H   UNL A   1      42.400  26.534  30.904  1.00  0.00     0.167 HD
ATOM     53  C   UNL A   1      40.339  32.745  34.456  1.00  0.00     0.037 A 
ATOM     54  C   UNL A   1      41.150  28.076  28.754  1.00  0.00     0.037 A 
ATOM     55  C   UNL A   1      40.101  33.101  33.040  1.00  0.00     0.049 A 
ATOM     56  C   UNL A   1      40.050  29.128  28.787  1.00  0.00     0.074 A 
ATOM     57  C   UNL A   1      40.483  34.130  32.185  1.00  0.00     0.029 A 
ATOM     58  N   UNL A   1      39.407  32.216  32.231  1.00  0.00    -0.354 N 
ATOM     59  N   UNL A   1      40.065  30.264  29.455  1.00  0.00    -0.248 NA
ATOM     60  C   UNL A   1      38.782  28.910  28.100  1.00  0.00     0.031 C 
ATOM     61  C   UNL A   1      40.057  33.819  30.862  1.00  0.00     0.029 A 
ATOM     62  C   UNL A   1      39.337  32.645  30.927  1.00  0.00     0.049 A 
ATOM     63  H   UNL A   1      39.006  31.377  32.554  1.00  0.00     0.167 HD
ATOM     64  C   UNL A   1      38.811  30.849  29.383  1.00  0.00     0.074 A 
ATOM     65  C   UNL A   1      38.056  29.956  28.522  1.00  0.00     0.031 C 
ATOM     66  C   UNL A   1      38.406  31.975  30.054  1.00  0.00     0.037 A 
BRANCH  53  67
ATOM     67  C   UNL A   1      40.624  33.886  35.501  1.00  0.00     0.057 A 
ATOM     68  C   UNL A   1      39.568  34.679  36.031  1.00  0.00     0.134 A 
ATOM     69  C   UNL A   1      41.893  34.368  35.890  1.00  0.00     0.134 A 
ATOM     70  F   UNL A   1      38.285  34.321  35.889  1.00  0.00    -0.206 F 
ATOM     71  C   UNL A   1      39.756  35.876  36.757  1.00  0.00     0.040 A 
ATOM     72  C   UNL A   1      42.092  35.517  36.694  1.00  0.00     0.040 A 
ATOM     73  F   UNL A   1      43.029  33.786  35.493  1.00  0.00    -0.206 F 
ATOM     74  C   UNL A   1      41.025  36.301  37.099  1.00  0.00     0.006 A 
ENDBRANCH  53  67
BRANCH  54  75
ATOM     75  C   UNL A   1      41.148  26.613  28.431  1.00  0.00     0.057 A 
ATOM     76  C   UNL A   1      39.923  25.980  28.768  1.00  0.00     0.134 A 
ATOM     77  C   UNL A   1      41.760  26.203  27.240  1.00  0.00     0.134 A 
ATOM     78  F   UNL A   1      39.299  26.296  29.916  1.00  0.00    -0.206 F 
ATOM     79  C   UNL A   1      39.189  25.262  27.817  1.00  0.00     0.040 A 
ATOM     80  C   UNL A   1      41.038  25.461  26.291  1.00  0.00     0.040 A 
ATOM     81  F   UNL A   1      42.922  26.754  26.860  1.00  0.00    -0.206 F 
ATOM     82  C   UNL A   1      39.723  25.060  26.549  1.00  0.00     0.006 A 
ENDBRANCH  54  75
BRANCH  66  83
ATOM     83  C   UNL A   1      36.992  32.532  30.061  1.00  0.00     0.057 A 
ATOM     84  C   UNL A   1      35.966  32.028  30.862  1.00  0.00     0.134 A 
ATOM     85  C   UNL A   1      36.602  33.576  29.181  1.00  0.00     0.134 A 
ATOM     86  F   UNL A   1      36.148  30.929  31.606  1.00  0.00    -0.206 F 
ATOM     87  C   UNL A   1      34.695  32.619  30.905  1.00  0.00     0.040 A 
ATOM     88  C   UNL A   1      35.322  34.134  29.174  1.00  0.00     0.040 A 
ATOM     89  F   UNL A   1      37.440  34.121  28.290  1.00  0.00    -0.206 F 
ATOM     90  C   UNL A   1      34.373  33.684  30.071  1.00  0.00     0.006 A 
ENDBRANCH  66  83
ENDBRANCH  40  41
ENDBRANCH  33  35
ENDBRANCH  32  33
ENDBRANCH  31  32
ENDBRANCH  30  31
ENDBRANCH  29  30
ENDBRANCH  28  29
ENDBRANCH  27  28
ENDBRANCH  26  27
ENDBRANCH   1  26
TORSDOF 25
ENDMDL
MODEL 2
REMARK VINA RESULT:      -8.0      9.750     15.776
REMARK SMILES COc1ccc(C)cc1[C@@H](C)[C@@](O)(C(=O)OCCOCCOCCOCCOC(=O)c1ccc(-c2c3nc(c(-c4c(F)cccc4F)c4ccc([nH]4)c(-c4c(F)cccc4F)c4nc(c(-c5c(F)cccc5F)c5ccc2[nH]5)C=C4)C=C3)cc1)C(C)C
REMARK SMILES IDX 21 1 20 2 19 3 18 4 17 5 16 6 14 7 15 8 12 9 10 10 11 11
REMARK SMILES IDX 9 12 3 13 4 14 5 15 8 16 6 17 7 18 2 19 1 20 13 21 85 23
REMARK SMILES IDX 86 24 87 25 22 26 23 27 24 28 25 29 26 30 27 31 28 32 29 33
REMARK SMILES IDX 30 34 31 35 32 36 84 37 33 38 83 39 34 40 35 41 36 42 77 43
REMARK SMILES IDX 37 44 82 45 76 46 78 47 38 48 81 49 75 50 74 51 39 53 65 54
REMARK SMILES IDX 48 55 64 56 49 57 52 58 63 59 79 60 50 61 51 62 62 64 80 65
REMARK SMILES IDX 53 66 40 67 41 68 46 69 42 70 43 71 45 72 47 73 44 74 66 75
REMARK SMILES IDX 67 76 72 77 68 78 69 79 71 80 73 81 70 82 54 83 55 84 60 85
REMARK SMILES IDX 56 86 57 87 59 88 61 89 58 90
REMARK H PARENT 13 22 78 52 52 63
REMARK Flexibility Score: inf
ROOT
ATOM      1  C   UNL A   1      35.142  31.743  29.309  1.00  0.00     0.188 C 
ENDROOT
BRANCH   1   2
ATOM      2  C   UNL A   1      34.779  32.097  27.872  1.00  0.00     0.188 C 
BRANCH   2   3
ATOM      3  O   UNL A   1      33.795  31.269  27.278  1.00  0.00    -0.376 OA
BRANCH   3   4
ATOM      4  C   UNL A   1      33.892  29.900  27.629  1.00  0.00     0.202 C 
BRANCH   4   5
ATOM      5  C   UNL A   1      34.416  28.998  26.514  1.00  0.00     0.261 C 
BRANCH   5   6
ATOM      6  O   UNL A   1      33.422  28.049  26.105  1.00  0.00    -0.461 OA
BRANCH   6   7
ATOM      7  C   UNL A   1      33.282  27.981  24.785  1.00  0.00     0.339 C 
ATOM      8  O   UNL A   1      34.124  28.416  23.978  1.00  0.00    -0.249 OA
BRANCH   7   9
ATOM      9  C   UNL A   1      32.052  27.189  24.339  1.00  0.00     0.170 C 
BRANCH   9  10
ATOM     10  C   UNL A   1      32.153  25.651  23.916  1.00  0.00     0.063 C 
ATOM     11  C   UNL A   1      30.983  24.731  23.616  1.00  0.00     0.016 C 
BRANCH  10  12
ATOM     12  C   UNL A   1      32.894  24.845  24.970  1.00  0.00     0.001 A 
ATOM     13  C   UNL A   1      32.292  24.218  26.053  1.00  0.00     0.122 A 
ATOM     14  C   UNL A   1      33.051  23.327  26.813  1.00  0.00     0.047 A 
ATOM     15  C   UNL A   1      34.406  23.102  26.513  1.00  0.00     0.007 A 
ATOM     16  C   UNL A   1      34.284  24.781  24.848  1.00  0.00     0.011 A 
ATOM     17  C   UNL A   1      35.041  23.854  25.533  1.00  0.00    -0.051 A 
ATOM     18  C   UNL A   1      36.432  23.632  25.027  1.00  0.00     0.044 C 
BRANCH  13  19
ATOM     19  O   UNL A   1      30.968  24.459  26.308  1.00  0.00    -0.496 OA
ATOM     20  C   UNL A   1      30.312  23.316  26.867  1.00  0.00     0.278 C 
ENDBRANCH  13  19
ENDBRANCH  10  12
ENDBRANCH   9  10
BRANCH   9  21
ATOM     21  O   UNL A   1      31.415  27.104  25.673  1.00  0.00    -0.377 OA
ATOM     22  H   UNL A   1      31.255  27.999  26.012  1.00  0.00     0.212 HD
ENDBRANCH   9  21
BRANCH   9  23
ATOM     23  C   UNL A   1      31.265  28.275  23.490  1.00  0.00     0.027 C 
ATOM     24  C   UNL A   1      30.301  27.833  22.379  1.00  0.00     0.011 C 
ATOM     25  C   UNL A   1      30.785  29.450  24.342  1.00  0.00     0.011 C 
ENDBRANCH   9  23
ENDBRANCH   7   9
ENDBRANCH   6   7
ENDBRANCH   5   6
ENDBRANCH   4   5
ENDBRANCH   3   4
ENDBRANCH   2   3
ENDBRANCH   1   2
BRANCH   1  26
ATOM     26  O   UNL A   1      36.013  32.759  29.817  1.00  0.00    -0.377 OA
BRANCH  26  27
ATOM     27  C   UNL A   1      35.481  34.072  29.933  1.00  0.00     0.188 C 
BRANCH  27  28
ATOM     28  C   UNL A   1      34.541  34.168  31.075  1.00  0.00     0.188 C 
BRANCH  28  29
ATOM     29  O   UNL A   1      34.438  33.019  31.894  1.00  0.00    -0.376 OA
BRANCH  29  30
ATOM     30  C   UNL A   1      35.082  33.208  33.125  1.00  0.00     0.202 C 
BRANCH  30  31
ATOM     31  C   UNL A   1      36.299  32.310  33.336  1.00  0.00     0.261 C 
BRANCH  31  32
ATOM     32  O   UNL A   1      37.726  32.713  33.155  1.00  0.00    -0.460 OA
BRANCH  32  33
ATOM     33  C   UNL A   1      39.031  32.947  33.349  1.00  0.00     0.338 C 
ATOM     34  O   UNL A   1      39.393  33.361  34.450  1.00  0.00    -0.246 OA
BRANCH  33  35
ATOM     35  C   UNL A   1      40.094  32.918  32.304  1.00  0.00     0.060 A 
ATOM     36  C   UNL A   1      39.713  32.857  30.952  1.00  0.00     0.016 A 
ATOM     37  C   UNL A   1      41.454  32.948  32.591  1.00  0.00     0.016 A 
ATOM     38  C   UNL A   1      40.648  32.551  29.943  1.00  0.00     0.010 A 
ATOM     39  C   UNL A   1      42.381  32.577  31.584  1.00  0.00     0.010 A 
ATOM     40  C   UNL A   1      41.971  32.244  30.275  1.00  0.00    -0.014 A 
BRANCH  40  41
ATOM     41  C   UNL A   1      42.786  31.266  29.462  1.00  0.00     0.031 A 
ATOM     42  C   UNL A   1      42.589  29.733  29.524  1.00  0.00     0.074 A 
ATOM     43  C   UNL A   1      43.450  31.813  28.403  1.00  0.00     0.049 A 
ATOM     44  N   UNL A   1      43.224  28.811  28.844  1.00  0.00    -0.248 NA
ATOM     45  C   UNL A   1      41.653  29.114  30.472  1.00  0.00     0.031 C 
ATOM     46  C   UNL A   1      43.381  31.356  27.042  1.00  0.00     0.029 A 
ATOM     47  N   UNL A   1      44.203  32.972  28.222  1.00  0.00    -0.354 N 
ATOM     48  C   UNL A   1      42.585  27.564  29.040  1.00  0.00     0.074 A 
ATOM     49  C   UNL A   1      41.698  27.814  30.151  1.00  0.00     0.031 C 
ATOM     50  C   UNL A   1      44.307  31.881  26.245  1.00  0.00     0.029 A 
ATOM     51  C   UNL A   1      45.033  32.771  27.077  1.00  0.00     0.049 A 
ATOM     52  H   UNL A   1      44.167  33.782  28.781  1.00  0.00     0.167 HD
ATOM     53  C   UNL A   1      42.701  26.509  28.146  1.00  0.00     0.037 A 
ATOM     54  C   UNL A   1      46.382  32.861  27.104  1.00  0.00     0.037 A 
ATOM     55  C   UNL A   1      43.792  26.695  27.164  1.00  0.00     0.049 A 
ATOM     56  C   UNL A   1      47.067  31.503  27.009  1.00  0.00     0.074 A 
ATOM     57  C   UNL A   1      43.987  26.421  25.814  1.00  0.00     0.029 A 
ATOM     58  N   UNL A   1      44.931  27.386  27.546  1.00  0.00    -0.354 N 
ATOM     59  N   UNL A   1      46.498  30.352  26.714  1.00  0.00    -0.248 NA
ATOM     60  C   UNL A   1      48.481  31.353  27.333  1.00  0.00     0.031 C 
ATOM     61  C   UNL A   1      45.218  27.000  25.394  1.00  0.00     0.029 A 
ATOM     62  C   UNL A   1      45.816  27.549  26.508  1.00  0.00     0.049 A 
ATOM     63  H   UNL A   1      45.089  27.720  28.459  1.00  0.00     0.167 HD
ATOM     64  C   UNL A   1      47.412  29.330  26.916  1.00  0.00     0.074 A 
ATOM     65  C   UNL A   1      48.631  30.020  27.301  1.00  0.00     0.031 C 
ATOM     66  C   UNL A   1      47.151  27.986  26.833  1.00  0.00     0.037 A 
BRANCH  53  67
ATOM     67  C   UNL A   1      41.680  25.328  27.950  1.00  0.00     0.057 A 
ATOM     68  C   UNL A   1      42.052  23.982  28.220  1.00  0.00     0.134 A 
ATOM     69  C   UNL A   1      40.405  25.413  27.348  1.00  0.00     0.134 A 
ATOM     70  F   UNL A   1      43.166  23.687  28.904  1.00  0.00    -0.206 F 
ATOM     71  C   UNL A   1      41.301  22.852  27.827  1.00  0.00     0.040 A 
ATOM     72  C   UNL A   1      39.602  24.291  27.031  1.00  0.00     0.040 A 
ATOM     73  F   UNL A   1      39.862  26.582  26.992  1.00  0.00    -0.206 F 
ATOM     74  C   UNL A   1      40.064  23.001  27.232  1.00  0.00     0.006 A 
ENDBRANCH  53  67
BRANCH  54  75
ATOM     75  C   UNL A   1      46.741  34.133  27.808  1.00  0.00     0.057 A 
ATOM     76  C   UNL A   1      47.355  33.907  29.068  1.00  0.00     0.134 A 
ATOM     77  C   UNL A   1      47.252  35.186  27.040  1.00  0.00     0.134 A 
ATOM     78  F   UNL A   1      46.891  32.938  29.875  1.00  0.00    -0.206 F 
ATOM     79  C   UNL A   1      48.606  34.451  29.376  1.00  0.00     0.040 A 
ATOM     80  C   UNL A   1      48.497  35.755  27.357  1.00  0.00     0.040 A 
ATOM     81  F   UNL A   1      46.719  35.461  25.840  1.00  0.00    -0.206 F 
ATOM     82  C   UNL A   1      49.210  35.329  28.482  1.00  0.00     0.006 A 
ENDBRANCH  54  75
BRANCH  66  83
ATOM     83  C   UNL A   1      48.131  26.878  27.179  1.00  0.00     0.057 A 
ATOM     84  C   UNL A   1      48.864  26.167  26.228  1.00  0.00     0.134 A 
ATOM     85  C   UNL A   1      48.312  26.439  28.518  1.00  0.00     0.134 A 
ATOM     86  F   UNL A   1      48.657  26.354  24.917  1.00  0.00    -0.206 F 
ATOM     87  C   UNL A   1      49.822  25.208  26.586  1.00  0.00     0.040 A 
ATOM     88  C   UNL A   1      49.221  25.444  28.882  1.00  0.00     0.040 A 
ATOM     89  F   UNL A   1      47.629  26.957  29.547  1.00  0.00    -0.206 F 
ATOM     90  C   UNL A   1      50.014  24.854  27.918  1.00  0.00     0.006 A 
ENDBRANCH  66  83
ENDBRANCH  40  41
ENDBRANCH  33  35
ENDBRANCH  32  33
ENDBRANCH  31  32
ENDBRANCH  30  31
ENDBRANCH  29  30
ENDBRANCH  28  29
ENDBRANCH  27  28
ENDBRANCH  26  27
ENDBRANCH   1  26
TORSDOF 25
ENDMDL
MODEL 3
REMARK VINA RESULT:      -7.8      9.237     15.878
REMARK SMILES COc1ccc(C)cc1[C@@H](C)[C@@](O)(C(=O)OCCOCCOCCOCCOC(=O)c1ccc(-c2c3nc(c(-c4c(F)cccc4F)c4ccc([nH]4)c(-c4c(F)cccc4F)c4nc(c(-c5c(F)cccc5F)c5ccc2[nH]5)C=C4)C=C3)cc1)C(C)C
REMARK SMILES IDX 21 1 20 2 19 3 18 4 17 5 16 6 14 7 15 8 12 9 10 10 11 11
REMARK SMILES IDX 9 12 3 13 4 14 5 15 8 16 6 17 7 18 2 19 1 20 13 21 85 23
REMARK SMILES IDX 86 24 87 25 22 26 23 27 24 28 25 29 26 30 27 31 28 32 29 33
REMARK SMILES IDX 30 34 31 35 32 36 84 37 33 38 83 39 34 40 35 41 36 42 77 43
REMARK SMILES IDX 37 44 82 45 76 46 78 47 38 48 81 49 75 50 74 51 39 53 65 54
REMARK SMILES IDX 48 55 64 56 49 57 52 58 63 59 79 60 50 61 51 62 62 64 80 65
REMARK SMILES IDX 53 66 40 67 41 68 46 69 42 70 43 71 45 72 47 73 44 74 66 75
REMARK SMILES IDX 67 76 72 77 68 78 69 79 71 80 73 81 70 82 54 83 55 84 60 85
REMARK SMILES IDX 56 86 57 87 59 88 61 89 58 90
REMARK H PARENT 13 22 78 52 52 63
REMARK Flexibility Score: inf
ROOT
ATOM      1  C   UNL A   1      33.330  28.298  27.145  1.00  0.00     0.188 C 
ENDROOT
BRANCH   1   2
ATOM      2  C   UNL A   1      32.941  28.087  25.688  1.00  0.00     0.188 C 
BRANCH   2   3
ATOM      3  O   UNL A   1      34.014  27.773  24.817  1.00  0.00    -0.376 OA
BRANCH   3   4
ATOM      4  C   UNL A   1      34.040  26.424  24.384  1.00  0.00     0.202 C 
BRANCH   4   5
ATOM      5  C   UNL A   1      34.407  25.418  25.472  1.00  0.00     0.261 C 
BRANCH   5   6
ATOM      6  O   UNL A   1      34.877  24.189  24.903  1.00  0.00    -0.461 OA
BRANCH   6   7
ATOM      7  C   UNL A   1      34.192  23.129  25.322  1.00  0.00     0.339 C 
ATOM      8  O   UNL A   1      33.728  23.018  26.472  1.00  0.00    -0.249 OA
BRANCH   7   9
ATOM      9  C   UNL A   1      33.899  22.112  24.218  1.00  0.00     0.170 C 
BRANCH   9  10
ATOM     10  C   UNL A   1      32.427  21.915  23.628  1.00  0.00     0.063 C 
ATOM     11  C   UNL A   1      32.084  21.522  22.202  1.00  0.00     0.016 C 
BRANCH  10  12
ATOM     12  C   UNL A   1      31.605  23.183  23.785  1.00  0.00     0.001 A 
ATOM     13  C   UNL A   1      30.812  23.479  24.887  1.00  0.00     0.122 A 
ATOM     14  C   UNL A   1      30.294  24.769  25.007  1.00  0.00     0.047 A 
ATOM     15  C   UNL A   1      30.535  25.735  24.013  1.00  0.00     0.007 A 
ATOM     16  C   UNL A   1      31.626  24.082  22.716  1.00  0.00     0.011 A 
ATOM     17  C   UNL A   1      31.190  25.384  22.840  1.00  0.00    -0.051 A 
ATOM     18  C   UNL A   1      31.624  26.333  21.766  1.00  0.00     0.044 C 
BRANCH  13  19
ATOM     19  O   UNL A   1      30.606  22.513  25.835  1.00  0.00    -0.496 OA
ATOM     20  C   UNL A   1      30.137  23.064  27.070  1.00  0.00     0.278 C 
ENDBRANCH  13  19
ENDBRANCH  10  12
ENDBRANCH   9  10
BRANCH   9  21
ATOM     21  O   UNL A   1      34.576  22.850  23.128  1.00  0.00    -0.377 OA
ATOM     22  H   UNL A   1      34.649  22.278  22.347  1.00  0.00     0.212 HD
ENDBRANCH   9  21
BRANCH   9  23
ATOM     23  C   UNL A   1      34.835  20.902  24.644  1.00  0.00     0.027 C 
ATOM     24  C   UNL A   1      36.168  21.174  25.355  1.00  0.00     0.011 C 
ATOM     25  C   UNL A   1      34.042  19.708  25.175  1.00  0.00     0.011 C 
ENDBRANCH   9  23
ENDBRANCH   7   9
ENDBRANCH   6   7
ENDBRANCH   5   6
ENDBRANCH   4   5
ENDBRANCH   3   4
ENDBRANCH   2   3
ENDBRANCH   1   2
BRANCH   1  26
ATOM     26  O   UNL A   1      32.687  29.487  27.616  1.00  0.00    -0.377 OA
BRANCH  26  27
ATOM     27  C   UNL A   1      33.356  30.721  27.390  1.00  0.00     0.188 C 
BRANCH  27  28
ATOM     28  C   UNL A   1      34.705  30.717  28.003  1.00  0.00     0.188 C 
BRANCH  28  29
ATOM     29  O   UNL A   1      35.293  31.986  28.219  1.00  0.00    -0.376 OA
BRANCH  29  30
ATOM     30  C   UNL A   1      34.511  32.775  29.074  1.00  0.00     0.202 C 
BRANCH  30  31
ATOM     31  C   UNL A   1      34.625  32.397  30.549  1.00  0.00     0.261 C 
BRANCH  31  32
ATOM     32  O   UNL A   1      35.791  31.718  31.190  1.00  0.00    -0.460 OA
BRANCH  32  33
ATOM     33  C   UNL A   1      36.826  30.907  31.445  1.00  0.00     0.338 C 
ATOM     34  O   UNL A   1      36.657  29.972  32.228  1.00  0.00    -0.246 OA
BRANCH  33  35
ATOM     35  C   UNL A   1      38.235  31.114  31.003  1.00  0.00     0.060 A 
ATOM     36  C   UNL A   1      38.500  31.247  29.628  1.00  0.00     0.016 A 
ATOM     37  C   UNL A   1      39.312  31.184  31.879  1.00  0.00     0.016 A 
ATOM     38  C   UNL A   1      39.815  31.168  29.129  1.00  0.00     0.010 A 
ATOM     39  C   UNL A   1      40.627  31.040  31.370  1.00  0.00     0.010 A 
ATOM     40  C   UNL A   1      40.884  30.897  29.988  1.00  0.00    -0.014 A 
BRANCH  40  41
ATOM     41  C   UNL A   1      42.093  30.116  29.530  1.00  0.00     0.031 A 
ATOM     42  C   UNL A   1      42.151  28.570  29.506  1.00  0.00     0.074 A 
ATOM     43  C   UNL A   1      42.993  30.831  28.794  1.00  0.00     0.049 A 
ATOM     44  N   UNL A   1      43.137  27.808  29.104  1.00  0.00    -0.248 NA
ATOM     45  C   UNL A   1      41.056  27.749  30.038  1.00  0.00     0.031 C 
ATOM     46  C   UNL A   1      43.502  30.462  27.501  1.00  0.00     0.029 A 
ATOM     47  N   UNL A   1      43.550  32.103  28.910  1.00  0.00    -0.354 N 
ATOM     48  C   UNL A   1      42.694  26.465  29.044  1.00  0.00     0.074 A 
ATOM     49  C   UNL A   1      41.436  26.497  29.749  1.00  0.00     0.031 C 
ATOM     50  C   UNL A   1      44.550  31.179  27.106  1.00  0.00     0.029 A 
ATOM     51  C   UNL A   1      44.760  32.113  28.152  1.00  0.00     0.049 A 
ATOM     52  H   UNL A   1      43.176  32.857  29.421  1.00  0.00     0.167 HD
ATOM     53  C   UNL A   1      43.305  25.505  28.250  1.00  0.00     0.037 A 
ATOM     54  C   UNL A   1      45.971  32.411  28.676  1.00  0.00     0.037 A 
ATOM     55  C   UNL A   1      44.630  25.925  27.742  1.00  0.00     0.049 A 
ATOM     56  C   UNL A   1      46.864  31.188  28.834  1.00  0.00     0.074 A 
ATOM     57  C   UNL A   1      45.346  25.778  26.559  1.00  0.00     0.029 A 
ATOM     58  N   UNL A   1      45.416  26.759  28.522  1.00  0.00    -0.354 N 
ATOM     59  N   UNL A   1      46.647  29.984  28.344  1.00  0.00    -0.248 NA
ATOM     60  C   UNL A   1      48.067  31.239  29.658  1.00  0.00     0.031 C 
ATOM     61  C   UNL A   1      46.528  26.570  26.626  1.00  0.00     0.029 A 
ATOM     62  C   UNL A   1      46.576  27.129  27.886  1.00  0.00     0.049 A 
ATOM     63  H   UNL A   1      45.172  27.051  29.430  1.00  0.00     0.167 HD
ATOM     64  C   UNL A   1      47.586  29.107  28.864  1.00  0.00     0.074 A 
ATOM     65  C   UNL A   1      48.444  29.952  29.676  1.00  0.00     0.031 C 
ATOM     66  C   UNL A   1      47.606  27.747  28.683  1.00  0.00     0.037 A 
BRANCH  53  67
ATOM     67  C   UNL A   1      42.644  24.194  27.684  1.00  0.00     0.057 A 
ATOM     68  C   UNL A   1      42.605  22.999  28.453  1.00  0.00     0.134 A 
ATOM     69  C   UNL A   1      42.194  23.987  26.361  1.00  0.00     0.134 A 
ATOM     70  F   UNL A   1      42.868  23.002  29.767  1.00  0.00    -0.206 F 
ATOM     71  C   UNL A   1      42.275  21.727  27.935  1.00  0.00     0.040 A 
ATOM     72  C   UNL A   1      41.775  22.733  25.855  1.00  0.00     0.040 A 
ATOM     73  F   UNL A   1      42.161  24.970  25.457  1.00  0.00    -0.206 F 
ATOM     74  C   UNL A   1      41.852  21.586  26.628  1.00  0.00     0.006 A 
ENDBRANCH  53  67
BRANCH  54  75
ATOM     75  C   UNL A   1      45.826  33.673  29.470  1.00  0.00     0.057 A 
ATOM     76  C   UNL A   1      45.971  33.462  30.867  1.00  0.00     0.134 A 
ATOM     77  C   UNL A   1      46.392  34.844  28.950  1.00  0.00     0.134 A 
ATOM     78  F   UNL A   1      45.420  32.378  31.441  1.00  0.00    -0.206 F 
ATOM     79  C   UNL A   1      46.913  34.173  31.616  1.00  0.00     0.040 A 
ATOM     80  C   UNL A   1      47.320  35.579  29.706  1.00  0.00     0.040 A 
ATOM     81  F   UNL A   1      46.290  35.112  27.640  1.00  0.00    -0.206 F 
ATOM     82  C   UNL A   1      47.639  35.195  31.013  1.00  0.00     0.006 A 
ENDBRANCH  54  75
BRANCH  66  83
ATOM     83  C   UNL A   1      48.567  26.786  29.362  1.00  0.00     0.057 A 
ATOM     84  C   UNL A   1      49.639  26.174  28.710  1.00  0.00     0.134 A 
ATOM     85  C   UNL A   1      48.387  26.387  30.713  1.00  0.00     0.134 A 
ATOM     86  F   UNL A   1      49.818  26.320  27.390  1.00  0.00    -0.206 F 
ATOM     87  C   UNL A   1      50.556  25.357  29.386  1.00  0.00     0.040 A 
ATOM     88  C   UNL A   1      49.261  25.527  31.382  1.00  0.00     0.040 A 
ATOM     89  F   UNL A   1      47.363  26.815  31.462  1.00  0.00    -0.206 F 
ATOM     90  C   UNL A   1      50.378  25.042  30.730  1.00  0.00     0.006 A 
ENDBRANCH  66  83
ENDBRANCH  40  41
ENDBRANCH  33  35
ENDBRANCH  32  33
ENDBRANCH  31  32
ENDBRANCH  30  31
ENDBRANCH  29  30
ENDBRANCH  28  29
ENDBRANCH  27  28
ENDBRANCH  26  27
ENDBRANCH   1  26
TORSDOF 25
ENDMDL
