MODEL 1
REMARK VINA RESULT:     -11.6      0.000      0.000
REMARK SMILES Cc1c(CC(=O)OCCOCCOCCOCCOC(=O)c2ccc(-c3c4nc(c(-c5c(F)cccc5F)c5ccc([nH]5)c(-c5c(F)cccc5F)c5nc(c(-c6c(F)cccc6F)c6ccc3[nH]6)C=C5)C=C4)cc2)cc(-c2ccccc2)cc1-c1ccccc1
REMARK SMILES IDX 13 1 12 2 11 3 10 4 9 5 8 6 7 7 5 8 6 9 4 10 3 11 1 12 2 13
REMARK SMILES IDX 85 14 76 15 84 16 77 17 86 18 87 19 91 20 88 21 90 22 89 23
REMARK SMILES IDX 78 24 79 25 83 26 80 27 82 28 81 29 14 30 15 31 16 32 17 33
REMARK SMILES IDX 18 34 19 35 20 36 21 37 22 38 23 39 75 40 24 41 74 42 25 43
REMARK SMILES IDX 26 44 27 45 68 46 28 47 73 48 67 49 69 50 29 51 72 52 66 53
REMARK SMILES IDX 65 54 30 56 56 57 39 58 55 59 40 60 43 61 54 62 70 63 41 64
REMARK SMILES IDX 42 65 53 67 71 68 44 69 31 70 32 71 37 72 33 73 34 74 36 75
REMARK SMILES IDX 38 76 35 77 57 78 58 79 63 80 59 81 60 82 62 83 64 84 61 85
REMARK SMILES IDX 45 86 46 87 51 88 47 89 48 90 50 91 52 92 49 93
REMARK H PARENT 69 55 43 66
REMARK Flexibility Score: inf
ROOT
ATOM      1  O   UNL A   1      37.411  20.818  25.336  1.00  0.00    -0.377 OA
ENDROOT
BRANCH   1   2
ATOM      2  C   UNL A   1      36.218  21.211  24.694  1.00  0.00     0.188 C 
BRANCH   2   3
ATOM      3  C   UNL A   1      34.788  20.744  25.034  1.00  0.00     0.188 C 
BRANCH   3   4
ATOM      4  O   UNL A   1      33.659  21.106  24.259  1.00  0.00    -0.376 OA
BRANCH   4   5
ATOM      5  C   UNL A   1      33.381  22.485  24.142  1.00  0.00     0.202 C 
BRANCH   5   6
ATOM      6  C   UNL A   1      33.264  23.298  25.432  1.00  0.00     0.261 C 
BRANCH   6   7
ATOM      7  O   UNL A   1      32.385  24.438  25.325  1.00  0.00    -0.463 OA
BRANCH   7   8
ATOM      8  C   UNL A   1      31.437  24.569  26.285  1.00  0.00     0.310 C 
ATOM      9  O   UNL A   1      31.359  23.861  27.285  1.00  0.00    -0.252 OA
BRANCH   8  10
ATOM     10  C   UNL A   1      30.401  25.625  25.964  1.00  0.00     0.158 C 
BRANCH  10  11
ATOM     11  C   UNL A   1      30.858  27.027  25.575  1.00  0.00    -0.033 A 
ATOM     12  C   UNL A   1      29.502  26.938  23.422  1.00  0.00     0.045 C 
ATOM     13  C   UNL A   1      30.354  27.681  24.424  1.00  0.00    -0.039 A 
ATOM     14  C   UNL A   1      30.631  29.055  24.233  1.00  0.00    -0.015 A 
ATOM     15  C   UNL A   1      31.749  27.737  26.423  1.00  0.00     0.013 A 
ATOM     16  C   UNL A   1      31.618  29.670  25.020  1.00  0.00     0.017 A 
ATOM     17  C   UNL A   1      32.228  29.022  26.093  1.00  0.00    -0.017 A 
BRANCH  14  18
ATOM     18  C   UNL A   1      29.789  29.947  23.417  1.00  0.00    -0.018 A 
ATOM     19  C   UNL A   1      29.532  29.717  22.058  1.00  0.00     0.009 A 
ATOM     20  C   UNL A   1      29.394  31.178  23.973  1.00  0.00     0.009 A 
ATOM     21  C   UNL A   1      28.932  30.708  21.274  1.00  0.00     0.001 A 
ATOM     22  C   UNL A   1      28.789  32.161  23.195  1.00  0.00     0.001 A 
ATOM     23  C   UNL A   1      28.569  31.930  21.842  1.00  0.00     0.000 A 
ENDBRANCH  14  18
BRANCH  17  24
ATOM     24  C   UNL A   1      33.368  29.681  26.773  1.00  0.00    -0.018 A 
ATOM     25  C   UNL A   1      34.585  28.981  26.940  1.00  0.00     0.009 A 
ATOM     26  C   UNL A   1      33.296  30.974  27.298  1.00  0.00     0.009 A 
ATOM     27  C   UNL A   1      35.670  29.534  27.630  1.00  0.00     0.001 A 
ATOM     28  C   UNL A   1      34.387  31.538  27.975  1.00  0.00     0.001 A 
ATOM     29  C   UNL A   1      35.566  30.816  28.153  1.00  0.00     0.000 A 
ENDBRANCH  17  24
ENDBRANCH  10  11
ENDBRANCH   8  10
ENDBRANCH   7   8
ENDBRANCH   6   7
ENDBRANCH   5   6
ENDBRANCH   4   5
ENDBRANCH   3   4
ENDBRANCH   2   3
ENDBRANCH   1   2
BRANCH   1  30
ATOM     30  C   UNL A   1      38.336  21.798  25.724  1.00  0.00     0.188 C 
BRANCH  30  31
ATOM     31  C   UNL A   1      39.645  21.391  26.340  1.00  0.00     0.188 C 
BRANCH  31  32
ATOM     32  O   UNL A   1      40.027  20.172  25.722  1.00  0.00    -0.376 OA
BRANCH  32  33
ATOM     33  C   UNL A   1      40.954  19.405  26.472  1.00  0.00     0.202 C 
BRANCH  33  34
ATOM     34  C   UNL A   1      42.275  19.206  25.717  1.00  0.00     0.261 C 
BRANCH  34  35
ATOM     35  O   UNL A   1      43.272  20.081  26.293  1.00  0.00    -0.460 OA
BRANCH  35  36
ATOM     36  C   UNL A   1      43.821  21.002  25.464  1.00  0.00     0.338 C 
ATOM     37  O   UNL A   1      44.877  20.850  24.834  1.00  0.00    -0.246 OA
BRANCH  36  38
ATOM     38  C   UNL A   1      43.160  22.331  25.630  1.00  0.00     0.060 A 
ATOM     39  C   UNL A   1      43.380  23.352  24.683  1.00  0.00     0.016 A 
ATOM     40  C   UNL A   1      42.609  22.662  26.864  1.00  0.00     0.016 A 
ATOM     41  C   UNL A   1      43.205  24.708  25.031  1.00  0.00     0.010 A 
ATOM     42  C   UNL A   1      42.506  24.001  27.223  1.00  0.00     0.010 A 
ATOM     43  C   UNL A   1      42.848  25.050  26.338  1.00  0.00    -0.014 A 
BRANCH  43  44
ATOM     44  C   UNL A   1      43.036  26.390  26.962  1.00  0.00     0.031 A 
ATOM     45  C   UNL A   1      41.827  27.241  27.239  1.00  0.00     0.074 A 
ATOM     46  C   UNL A   1      44.204  26.712  27.597  1.00  0.00     0.049 A 
ATOM     47  N   UNL A   1      41.866  28.364  27.874  1.00  0.00    -0.248 NA
ATOM     48  C   UNL A   1      40.455  26.905  26.853  1.00  0.00     0.031 C 
ATOM     49  C   UNL A   1      44.361  27.655  28.717  1.00  0.00     0.029 A 
ATOM     50  N   UNL A   1      45.509  26.195  27.470  1.00  0.00    -0.354 N 
ATOM     51  C   UNL A   1      40.599  28.686  28.294  1.00  0.00     0.074 A 
ATOM     52  C   UNL A   1      39.742  27.805  27.545  1.00  0.00     0.031 C 
ATOM     53  C   UNL A   1      45.639  27.742  29.105  1.00  0.00     0.029 A 
ATOM     54  C   UNL A   1      46.404  27.128  28.055  1.00  0.00     0.049 A 
ATOM     55  H   UNL A   1      45.755  25.339  27.051  1.00  0.00     0.167 HD
ATOM     56  C   UNL A   1      40.459  29.586  29.312  1.00  0.00     0.037 A 
ATOM     57  C   UNL A   1      47.319  27.808  27.306  1.00  0.00     0.037 A 
ATOM     58  C   UNL A   1      41.722  30.309  29.576  1.00  0.00     0.049 A 
ATOM     59  C   UNL A   1      46.979  29.281  27.237  1.00  0.00     0.074 A 
ATOM     60  C   UNL A   1      42.490  30.584  30.695  1.00  0.00     0.029 A 
ATOM     61  N   UNL A   1      42.471  30.783  28.489  1.00  0.00    -0.354 N 
ATOM     62  N   UNL A   1      45.790  29.727  27.557  1.00  0.00    -0.248 NA
ATOM     63  C   UNL A   1      47.891  30.374  26.918  1.00  0.00     0.031 C 
ATOM     64  C   UNL A   1      43.759  31.071  30.251  1.00  0.00     0.029 A 
ATOM     65  C   UNL A   1      43.732  31.190  28.870  1.00  0.00     0.049 A 
ATOM     66  H   UNL A   1      42.136  30.820  27.563  1.00  0.00     0.167 HD
ATOM     67  C   UNL A   1      45.766  31.081  27.551  1.00  0.00     0.074 A 
ATOM     68  C   UNL A   1      47.095  31.450  27.097  1.00  0.00     0.031 C 
ATOM     69  C   UNL A   1      44.652  31.786  27.901  1.00  0.00     0.037 A 
BRANCH  56  70
ATOM     70  C   UNL A   1      39.201  29.746  30.161  1.00  0.00     0.057 A 
ATOM     71  C   UNL A   1      38.587  31.006  30.319  1.00  0.00     0.134 A 
ATOM     72  C   UNL A   1      38.598  28.724  30.928  1.00  0.00     0.134 A 
ATOM     73  F   UNL A   1      39.050  32.092  29.685  1.00  0.00    -0.206 F 
ATOM     74  C   UNL A   1      37.469  31.224  31.146  1.00  0.00     0.040 A 
ATOM     75  C   UNL A   1      37.445  28.915  31.711  1.00  0.00     0.040 A 
ATOM     76  F   UNL A   1      39.121  27.495  31.015  1.00  0.00    -0.206 F 
ATOM     77  C   UNL A   1      36.879  30.173  31.829  1.00  0.00     0.006 A 
ENDBRANCH  56  70
BRANCH  57  78
ATOM     78  C   UNL A   1      48.014  26.885  26.368  1.00  0.00     0.057 A 
ATOM     79  C   UNL A   1      47.742  27.124  25.003  1.00  0.00     0.134 A 
ATOM     80  C   UNL A   1      49.283  26.377  26.675  1.00  0.00     0.134 A 
ATOM     81  F   UNL A   1      46.536  27.588  24.632  1.00  0.00    -0.206 F 
ATOM     82  C   UNL A   1      48.745  27.087  24.030  1.00  0.00     0.040 A 
ATOM     83  C   UNL A   1      50.292  26.319  25.700  1.00  0.00     0.040 A 
ATOM     84  F   UNL A   1      49.620  26.111  27.945  1.00  0.00    -0.206 F 
ATOM     85  C   UNL A   1      50.041  26.735  24.392  1.00  0.00     0.006 A 
ENDBRANCH  57  78
BRANCH  69  86
ATOM     86  C   UNL A   1      44.344  33.142  27.340  1.00  0.00     0.057 A 
ATOM     87  C   UNL A   1      43.887  33.326  26.025  1.00  0.00     0.134 A 
ATOM     88  C   UNL A   1      44.264  34.272  28.178  1.00  0.00     0.134 A 
ATOM     89  F   UNL A   1      43.806  32.305  25.160  1.00  0.00    -0.206 F 
ATOM     90  C   UNL A   1      43.427  34.560  25.561  1.00  0.00     0.040 A 
ATOM     91  C   UNL A   1      43.760  35.497  27.737  1.00  0.00     0.040 A 
ATOM     92  F   UNL A   1      44.629  34.223  29.468  1.00  0.00    -0.206 F 
ATOM     93  C   UNL A   1      43.350  35.647  26.421  1.00  0.00     0.006 A 
ENDBRANCH  69  86
ENDBRANCH  43  44
ENDBRANCH  36  38
ENDBRANCH  35  36
ENDBRANCH  34  35
ENDBRANCH  33  34
ENDBRANCH  32  33
ENDBRANCH  31  32
ENDBRANCH  30  31
ENDBRANCH   1  30
TORSDOF 23
ENDMDL
MODEL 2
REMARK VINA RESULT:     -10.7      1.441      3.465
REMARK SMILES Cc1c(CC(=O)OCCOCCOCCOCCOC(=O)c2ccc(-c3c4nc(c(-c5c(F)cccc5F)c5ccc([nH]5)c(-c5c(F)cccc5F)c5nc(c(-c6c(F)cccc6F)c6ccc3[nH]6)C=C5)C=C4)cc2)cc(-c2ccccc2)cc1-c1ccccc1
REMARK SMILES IDX 13 1 12 2 11 3 10 4 9 5 8 6 7 7 5 8 6 9 4 10 3 11 1 12 2 13
REMARK SMILES IDX 85 14 76 15 84 16 77 17 86 18 87 19 91 20 88 21 90 22 89 23
REMARK SMILES IDX 78 24 79 25 83 26 80 27 82 28 81 29 14 30 15 31 16 32 17 33
REMARK SMILES IDX 18 34 19 35 20 36 21 37 22 38 23 39 75 40 24 41 74 42 25 43
REMARK SMILES IDX 26 44 27 45 68 46 28 47 73 48 67 49 69 50 29 51 72 52 66 53
REMARK SMILES IDX 65 54 30 56 56 57 39 58 55 59 40 60 43 61 54 62 70 63 41 64
REMARK SMILES IDX 42 65 53 67 71 68 44 69 31 70 32 71 37 72 33 73 34 74 36 75
REMARK SMILES IDX 38 76 35 77 57 78 58 79 63 80 59 81 60 82 62 83 64 84 61 85
REMARK SMILES IDX 45 86 46 87 51 88 47 89 48 90 50 91 52 92 49 93
REMARK H PARENT 69 55 43 66
REMARK Flexibility Score: inf
ROOT
ATOM      1  O   UNL A   1      34.456  21.562  26.798  1.00  0.00    -0.377 OA
ENDROOT
BRANCH   1   2
ATOM      2  C   UNL A   1      33.334  22.410  26.702  1.00  0.00     0.188 C 
BRANCH   2   3
ATOM      3  C   UNL A   1      31.993  22.097  26.007  1.00  0.00     0.188 C 
BRANCH   3   4
ATOM      4  O   UNL A   1      31.867  21.122  24.989  1.00  0.00    -0.376 OA
BRANCH   4   5
ATOM      5  C   UNL A   1      32.509  21.393  23.761  1.00  0.00     0.202 C 
BRANCH   5   6
ATOM      6  C   UNL A   1      31.776  22.288  22.759  1.00  0.00     0.261 C 
BRANCH   6   7
ATOM      7  O   UNL A   1      32.408  23.569  22.552  1.00  0.00    -0.463 OA
BRANCH   7   8
ATOM      8  C   UNL A   1      31.899  24.619  23.243  1.00  0.00     0.310 C 
ATOM      9  O   UNL A   1      30.748  24.677  23.668  1.00  0.00    -0.252 OA
BRANCH   8  10
ATOM     10  C   UNL A   1      32.861  25.781  23.362  1.00  0.00     0.158 C 
BRANCH  10  11
ATOM     11  C   UNL A   1      32.394  27.074  24.023  1.00  0.00    -0.033 A 
ATOM     12  C   UNL A   1      33.824  26.609  26.078  1.00  0.00     0.045 C 
ATOM     13  C   UNL A   1      32.927  27.510  25.261  1.00  0.00    -0.039 A 
ATOM     14  C   UNL A   1      32.634  28.816  25.718  1.00  0.00    -0.015 A 
ATOM     15  C   UNL A   1      31.464  27.910  23.352  1.00  0.00     0.013 A 
ATOM     16  C   UNL A   1      31.611  29.546  25.091  1.00  0.00     0.017 A 
ATOM     17  C   UNL A   1      30.976  29.099  23.934  1.00  0.00    -0.017 A 
BRANCH  14  18
ATOM     18  C   UNL A   1      33.489  29.557  26.662  1.00  0.00    -0.018 A 
ATOM     19  C   UNL A   1      33.123  30.796  27.207  1.00  0.00     0.009 A 
ATOM     20  C   UNL A   1      34.803  29.098  26.867  1.00  0.00     0.009 A 
ATOM     21  C   UNL A   1      34.061  31.567  27.903  1.00  0.00     0.001 A 
ATOM     22  C   UNL A   1      35.734  29.861  27.566  1.00  0.00     0.001 A 
ATOM     23  C   UNL A   1      35.365  31.102  28.073  1.00  0.00     0.000 A 
ENDBRANCH  14  18
BRANCH  17  24
ATOM     24  C   UNL A   1      29.802  29.849  23.426  1.00  0.00    -0.018 A 
ATOM     25  C   UNL A   1      29.045  29.324  22.354  1.00  0.00     0.009 A 
ATOM     26  C   UNL A   1      29.413  31.090  23.939  1.00  0.00     0.009 A 
ATOM     27  C   UNL A   1      27.967  30.022  21.797  1.00  0.00     0.001 A 
ATOM     28  C   UNL A   1      28.323  31.784  23.394  1.00  0.00     0.001 A 
ATOM     29  C   UNL A   1      27.611  31.259  22.316  1.00  0.00     0.000 A 
ENDBRANCH  17  24
ENDBRANCH  10  11
ENDBRANCH   8  10
ENDBRANCH   7   8
ENDBRANCH   6   7
ENDBRANCH   5   6
ENDBRANCH   4   5
ENDBRANCH   3   4
ENDBRANCH   2   3
ENDBRANCH   1   2
BRANCH   1  30
ATOM     30  C   UNL A   1      35.604  21.855  26.047  1.00  0.00     0.188 C 
BRANCH  30  31
ATOM     31  C   UNL A   1      36.231  20.793  25.190  1.00  0.00     0.188 C 
BRANCH  31  32
ATOM     32  O   UNL A   1      37.632  20.870  25.402  1.00  0.00    -0.376 OA
BRANCH  32  33
ATOM     33  C   UNL A   1      38.145  22.192  25.426  1.00  0.00     0.202 C 
BRANCH  33  34
ATOM     34  C   UNL A   1      39.227  22.367  26.500  1.00  0.00     0.261 C 
BRANCH  34  35
ATOM     35  O   UNL A   1      39.829  21.078  26.761  1.00  0.00    -0.460 OA
BRANCH  35  36
ATOM     36  C   UNL A   1      41.067  20.873  26.246  1.00  0.00     0.338 C 
ATOM     37  O   UNL A   1      41.403  19.887  25.577  1.00  0.00    -0.246 OA
BRANCH  36  38
ATOM     38  C   UNL A   1      42.051  21.833  26.829  1.00  0.00     0.060 A 
ATOM     39  C   UNL A   1      42.123  22.008  28.226  1.00  0.00     0.016 A 
ATOM     40  C   UNL A   1      42.649  22.777  25.999  1.00  0.00     0.016 A 
ATOM     41  C   UNL A   1      42.642  23.198  28.778  1.00  0.00     0.010 A 
ATOM     42  C   UNL A   1      43.094  23.975  26.545  1.00  0.00     0.010 A 
ATOM     43  C   UNL A   1      43.054  24.234  27.935  1.00  0.00    -0.014 A 
BRANCH  43  44
ATOM     44  C   UNL A   1      43.214  25.660  28.335  1.00  0.00     0.031 A 
ATOM     45  C   UNL A   1      42.026  26.579  28.253  1.00  0.00     0.074 A 
ATOM     46  C   UNL A   1      44.282  26.062  29.090  1.00  0.00     0.049 A 
ATOM     47  N   UNL A   1      42.025  27.797  28.678  1.00  0.00    -0.248 NA
ATOM     48  C   UNL A   1      40.716  26.213  27.708  1.00  0.00     0.031 C 
ATOM     49  C   UNL A   1      44.310  27.189  30.037  1.00  0.00     0.029 A 
ATOM     50  N   UNL A   1      45.560  25.497  29.275  1.00  0.00    -0.354 N 
ATOM     51  C   UNL A   1      40.728  28.223  28.817  1.00  0.00     0.074 A 
ATOM     52  C   UNL A   1      39.954  27.243  28.102  1.00  0.00     0.031 C 
ATOM     53  C   UNL A   1      45.513  27.313  30.612  1.00  0.00     0.029 A 
ATOM     54  C   UNL A   1      46.401  26.498  29.828  1.00  0.00     0.049 A 
ATOM     55  H   UNL A   1      45.822  24.573  29.060  1.00  0.00     0.167 HD
ATOM     56  C   UNL A   1      40.477  29.297  29.623  1.00  0.00     0.037 A 
ATOM     57  C   UNL A   1      47.460  27.005  29.135  1.00  0.00     0.037 A 
ATOM     58  C   UNL A   1      41.720  30.024  29.963  1.00  0.00     0.049 A 
ATOM     59  C   UNL A   1      47.217  28.449  28.752  1.00  0.00     0.074 A 
ATOM     60  C   UNL A   1      42.314  30.478  31.128  1.00  0.00     0.029 A 
ATOM     61  N   UNL A   1      42.659  30.272  28.950  1.00  0.00    -0.354 N 
ATOM     62  N   UNL A   1      46.019  28.977  28.786  1.00  0.00    -0.248 NA
ATOM     63  C   UNL A   1      48.228  29.442  28.403  1.00  0.00     0.031 C 
ATOM     64  C   UNL A   1      43.662  30.843  30.824  1.00  0.00     0.029 A 
ATOM     65  C   UNL A   1      43.863  30.708  29.459  1.00  0.00     0.049 A 
ATOM     66  H   UNL A   1      42.478  30.147  27.989  1.00  0.00     0.167 HD
ATOM     67  C   UNL A   1      46.072  30.307  28.539  1.00  0.00     0.074 A 
ATOM     68  C   UNL A   1      47.475  30.553  28.255  1.00  0.00     0.031 C 
ATOM     69  C   UNL A   1      44.958  31.093  28.568  1.00  0.00     0.037 A 
BRANCH  56  70
ATOM     70  C   UNL A   1      39.111  29.642  30.209  1.00  0.00     0.057 A 
ATOM     71  C   UNL A   1      38.665  30.979  30.275  1.00  0.00     0.134 A 
ATOM     72  C   UNL A   1      38.225  28.722  30.813  1.00  0.00     0.134 A 
ATOM     73  F   UNL A   1      39.398  31.983  29.775  1.00  0.00    -0.206 F 
ATOM     74  C   UNL A   1      37.448  31.361  30.868  1.00  0.00     0.040 A 
ATOM     75  C   UNL A   1      36.979  29.082  31.355  1.00  0.00     0.040 A 
ATOM     76  F   UNL A   1      38.537  27.430  30.969  1.00  0.00    -0.206 F 
ATOM     77  C   UNL A   1      36.587  30.410  31.392  1.00  0.00     0.006 A 
ENDBRANCH  56  70
BRANCH  57  78
ATOM     78  C   UNL A   1      48.243  25.909  28.504  1.00  0.00     0.057 A 
ATOM     79  C   UNL A   1      48.211  25.906  27.092  1.00  0.00     0.134 A 
ATOM     80  C   UNL A   1      49.413  25.429  29.106  1.00  0.00     0.134 A 
ATOM     81  F   UNL A   1      47.111  26.329  26.446  1.00  0.00    -0.206 F 
ATOM     82  C   UNL A   1      49.356  25.666  26.325  1.00  0.00     0.040 A 
ATOM     83  C   UNL A   1      50.562  25.167  28.342  1.00  0.00     0.040 A 
ATOM     84  F   UNL A   1      49.523  25.386  30.441  1.00  0.00    -0.206 F 
ATOM     85  C   UNL A   1      50.552  25.348  26.958  1.00  0.00     0.006 A 
ENDBRANCH  57  78
BRANCH  69  86
ATOM     86  C   UNL A   1      44.819  32.332  27.734  1.00  0.00     0.057 A 
ATOM     87  C   UNL A   1      44.167  32.332  26.490  1.00  0.00     0.134 A 
ATOM     88  C   UNL A   1      45.120  33.602  28.266  1.00  0.00     0.134 A 
ATOM     89  F   UNL A   1      43.727  31.198  25.927  1.00  0.00    -0.206 F 
ATOM     90  C   UNL A   1      43.876  33.510  25.801  1.00  0.00     0.040 A 
ATOM     91  C   UNL A   1      44.789  34.787  27.607  1.00  0.00     0.040 A 
ATOM     92  F   UNL A   1      45.704  33.745  29.465  1.00  0.00    -0.206 F 
ATOM     93  C   UNL A   1      44.176  34.744  26.364  1.00  0.00     0.006 A 
ENDBRANCH  69  86
ENDBRANCH  43  44
ENDBRANCH  36  38
ENDBRANCH  35  36
ENDBRANCH  34  35
ENDBRANCH  33  34
ENDBRANCH  32  33
ENDBRANCH  31  32
ENDBRANCH  30  31
ENDBRANCH   1  30
TORSDOF 23
ENDMDL
MODEL 3
REMARK VINA RESULT:     -10.1      4.116      6.483
REMARK SMILES Cc1c(CC(=O)OCCOCCOCCOCCOC(=O)c2ccc(-c3c4nc(c(-c5c(F)cccc5F)c5ccc([nH]5)c(-c5c(F)cccc5F)c5nc(c(-c6c(F)cccc6F)c6ccc3[nH]6)C=C5)C=C4)cc2)cc(-c2ccccc2)cc1-c1ccccc1
REMARK SMILES IDX 13 1 12 2 11 3 10 4 9 5 8 6 7 7 5 8 6 9 4 10 3 11 1 12 2 13
REMARK SMILES IDX 85 14 76 15 84 16 77 17 86 18 87 19 91 20 88 21 90 22 89 23
REMARK SMILES IDX 78 24 79 25 83 26 80 27 82 28 81 29 14 30 15 31 16 32 17 33
REMARK SMILES IDX 18 34 19 35 20 36 21 37 22 38 23 39 75 40 24 41 74 42 25 43
REMARK SMILES IDX 26 44 27 45 68 46 28 47 73 48 67 49 69 50 29 51 72 52 66 53
REMARK SMILES IDX 65 54 30 56 56 57 39 58 55 59 40 60 43 61 54 62 70 63 41 64
REMARK SMILES IDX 42 65 53 67 71 68 44 69 31 70 32 71 37 72 33 73 34 74 36 75
REMARK SMILES IDX 38 76 35 77 57 78 58 79 63 80 59 81 60 82 62 83 64 84 61 85
REMARK SMILES IDX 45 86 46 87 51 88 47 89 48 90 50 91 52 92 49 93
REMARK H PARENT 69 55 43 66
REMARK Flexibility Score: inf
ROOT
ATOM      1  O   UNL A   1      36.204  21.720  25.283  1.00  0.00    -0.377 OA
ENDROOT
BRANCH   1   2
ATOM      2  C   UNL A   1      35.051  21.508  26.065  1.00  0.00     0.188 C 
BRANCH   2   3
ATOM      3  C   UNL A   1      33.641  21.143  25.556  1.00  0.00     0.188 C 
BRANCH   3   4
ATOM      4  O   UNL A   1      33.396  20.690  24.237  1.00  0.00    -0.376 OA
BRANCH   4   5
ATOM      5  C   UNL A   1      32.232  21.174  23.602  1.00  0.00     0.202 C 
BRANCH   5   6
ATOM      6  C   UNL A   1      32.231  22.633  23.138  1.00  0.00     0.261 C 
BRANCH   6   7
ATOM      7  O   UNL A   1      31.553  23.530  24.043  1.00  0.00    -0.463 OA
BRANCH   7   8
ATOM      8  C   UNL A   1      31.435  24.821  23.647  1.00  0.00     0.310 C 
ATOM      9  O   UNL A   1      32.106  25.338  22.758  1.00  0.00    -0.252 OA
BRANCH   8  10
ATOM     10  C   UNL A   1      30.452  25.615  24.480  1.00  0.00     0.158 C 
BRANCH  10  11
ATOM     11  C   UNL A   1      30.660  27.117  24.652  1.00  0.00    -0.033 A 
ATOM     12  C   UNL A   1      31.997  26.748  26.788  1.00  0.00     0.045 C 
ATOM     13  C   UNL A   1      31.472  27.641  25.687  1.00  0.00    -0.039 A 
ATOM     14  C   UNL A   1      31.818  29.013  25.668  1.00  0.00    -0.015 A 
ATOM     15  C   UNL A   1      30.098  28.017  23.710  1.00  0.00     0.013 A 
ATOM     16  C   UNL A   1      31.132  29.878  24.800  1.00  0.00     0.017 A 
ATOM     17  C   UNL A   1      30.232  29.415  23.841  1.00  0.00    -0.017 A 
BRANCH  14  18
ATOM     18  C   UNL A   1      33.013  29.559  26.334  1.00  0.00    -0.018 A 
ATOM     19  C   UNL A   1      34.233  28.870  26.390  1.00  0.00     0.009 A 
ATOM     20  C   UNL A   1      32.866  30.721  27.113  1.00  0.00     0.009 A 
ATOM     21  C   UNL A   1      35.259  29.315  27.230  1.00  0.00     0.001 A 
ATOM     22  C   UNL A   1      33.889  31.169  27.943  1.00  0.00     0.001 A 
ATOM     23  C   UNL A   1      35.082  30.458  28.011  1.00  0.00     0.000 A 
ENDBRANCH  14  18
BRANCH  17  24
ATOM     24  C   UNL A   1      29.434  30.401  23.074  1.00  0.00    -0.018 A 
ATOM     25  C   UNL A   1      29.120  30.146  21.719  1.00  0.00     0.009 A 
ATOM     26  C   UNL A   1      28.992  31.610  23.618  1.00  0.00     0.009 A 
ATOM     27  C   UNL A   1      28.423  31.072  20.933  1.00  0.00     0.001 A 
ATOM     28  C   UNL A   1      28.279  32.532  22.838  1.00  0.00     0.001 A 
ATOM     29  C   UNL A   1      28.008  32.271  21.495  1.00  0.00     0.000 A 
ENDBRANCH  17  24
ENDBRANCH  10  11
ENDBRANCH   8  10
ENDBRANCH   7   8
ENDBRANCH   6   7
ENDBRANCH   5   6
ENDBRANCH   4   5
ENDBRANCH   3   4
ENDBRANCH   2   3
ENDBRANCH   1   2
BRANCH   1  30
ATOM     30  C   UNL A   1      37.023  20.628  24.957  1.00  0.00     0.188 C 
BRANCH  30  31
ATOM     31  C   UNL A   1      38.469  20.627  25.363  1.00  0.00     0.188 C 
BRANCH  31  32
ATOM     32  O   UNL A   1      38.573  21.458  26.509  1.00  0.00    -0.376 OA
BRANCH  32  33
ATOM     33  C   UNL A   1      39.807  22.148  26.617  1.00  0.00     0.202 C 
BRANCH  33  34
ATOM     34  C   UNL A   1      39.609  23.668  26.666  1.00  0.00     0.261 C 
BRANCH  34  35
ATOM     35  O   UNL A   1      40.865  24.307  26.339  1.00  0.00    -0.460 OA
BRANCH  35  36
ATOM     36  C   UNL A   1      40.897  25.660  26.429  1.00  0.00     0.338 C 
ATOM     37  O   UNL A   1      41.207  26.426  25.507  1.00  0.00    -0.246 OA
BRANCH  36  38
ATOM     38  C   UNL A   1      40.801  26.100  27.853  1.00  0.00     0.060 A 
ATOM     39  C   UNL A   1      39.544  26.164  28.489  1.00  0.00     0.016 A 
ATOM     40  C   UNL A   1      41.885  26.754  28.433  1.00  0.00     0.016 A 
ATOM     41  C   UNL A   1      39.341  27.008  29.601  1.00  0.00     0.010 A 
ATOM     42  C   UNL A   1      41.662  27.636  29.484  1.00  0.00     0.010 A 
ATOM     43  C   UNL A   1      40.382  27.821  30.056  1.00  0.00    -0.014 A 
BRANCH  43  44
ATOM     44  C   UNL A   1      40.221  29.035  30.906  1.00  0.00     0.031 A 
ATOM     45  C   UNL A   1      39.519  30.237  30.335  1.00  0.00     0.074 A 
ATOM     46  C   UNL A   1      40.368  28.966  32.264  1.00  0.00     0.049 A 
ATOM     47  N   UNL A   1      39.228  31.293  31.016  1.00  0.00    -0.248 NA
ATOM     48  C   UNL A   1      39.055  30.361  28.951  1.00  0.00     0.031 C 
ATOM     49  C   UNL A   1      39.701  29.820  33.262  1.00  0.00     0.029 A 
ATOM     50  N   UNL A   1      41.059  28.051  33.083  1.00  0.00    -0.354 N 
ATOM     51  C   UNL A   1      38.276  32.015  30.340  1.00  0.00     0.074 A 
ATOM     52  C   UNL A   1      38.280  31.452  29.015  1.00  0.00     0.031 C 
ATOM     53  C   UNL A   1      40.067  29.490  34.507  1.00  0.00     0.029 A 
ATOM     54  C   UNL A   1      41.222  28.648  34.360  1.00  0.00     0.049 A 
ATOM     55  H   UNL A   1      41.372  27.156  32.817  1.00  0.00     0.167 HD
ATOM     56  C   UNL A   1      37.531  32.924  31.035  1.00  0.00     0.037 A 
ATOM     57  C   UNL A   1      42.454  28.983  34.841  1.00  0.00     0.037 A 
ATOM     58  C   UNL A   1      38.113  33.199  32.367  1.00  0.00     0.049 A 
ATOM     59  C   UNL A   1      42.614  30.486  34.924  1.00  0.00     0.074 A 
ATOM     60  C   UNL A   1      37.640  33.222  33.668  1.00  0.00     0.029 A 
ATOM     61  N   UNL A   1      39.498  33.390  32.474  1.00  0.00    -0.354 N 
ATOM     62  N   UNL A   1      41.810  31.299  34.285  1.00  0.00    -0.248 NA
ATOM     63  C   UNL A   1      43.567  31.219  35.752  1.00  0.00     0.031 C 
ATOM     64  C   UNL A   1      38.767  33.264  34.547  1.00  0.00     0.029 A 
ATOM     65  C   UNL A   1      39.921  33.368  33.786  1.00  0.00     0.049 A 
ATOM     66  H   UNL A   1      40.098  33.523  31.704  1.00  0.00     0.167 HD
ATOM     67  C   UNL A   1      42.061  32.586  34.621  1.00  0.00     0.074 A 
ATOM     68  C   UNL A   1      43.206  32.497  35.510  1.00  0.00     0.031 C 
ATOM     69  C   UNL A   1      41.322  33.620  34.127  1.00  0.00     0.037 A 
BRANCH  56  70
ATOM     70  C   UNL A   1      36.197  33.495  30.563  1.00  0.00     0.057 A 
ATOM     71  C   UNL A   1      36.061  34.054  29.275  1.00  0.00     0.134 A 
ATOM     72  C   UNL A   1      35.033  33.614  31.354  1.00  0.00     0.134 A 
ATOM     73  F   UNL A   1      37.080  34.052  28.403  1.00  0.00    -0.206 F 
ATOM     74  C   UNL A   1      34.877  34.658  28.813  1.00  0.00     0.040 A 
ATOM     75  C   UNL A   1      33.825  34.160  30.885  1.00  0.00     0.040 A 
ATOM     76  F   UNL A   1      35.011  33.266  32.646  1.00  0.00    -0.206 F 
ATOM     77  C   UNL A   1      33.744  34.693  29.610  1.00  0.00     0.006 A 
ENDBRANCH  56  70
BRANCH  57  78
ATOM     78  C   UNL A   1      43.419  27.873  34.621  1.00  0.00     0.057 A 
ATOM     79  C   UNL A   1      44.397  28.135  33.635  1.00  0.00     0.134 A 
ATOM     80  C   UNL A   1      43.803  27.039  35.679  1.00  0.00     0.134 A 
ATOM     81  F   UNL A   1      44.091  28.907  32.578  1.00  0.00    -0.206 F 
ATOM     82  C   UNL A   1      45.739  27.788  33.812  1.00  0.00     0.040 A 
ATOM     83  C   UNL A   1      45.147  26.670  35.855  1.00  0.00     0.040 A 
ATOM     84  F   UNL A   1      42.934  26.730  36.651  1.00  0.00    -0.206 F 
ATOM     85  C   UNL A   1      46.125  27.098  34.956  1.00  0.00     0.006 A 
ENDBRANCH  57  78
BRANCH  69  86
ATOM     86  C   UNL A   1      41.885  34.996  33.929  1.00  0.00     0.057 A 
ATOM     87  C   UNL A   1      41.676  36.034  34.851  1.00  0.00     0.134 A 
ATOM     88  C   UNL A   1      42.853  35.247  32.936  1.00  0.00     0.134 A 
ATOM     89  F   UNL A   1      40.865  35.882  35.909  1.00  0.00    -0.206 F 
ATOM     90  C   UNL A   1      42.346  37.255  34.765  1.00  0.00     0.040 A 
ATOM     91  C   UNL A   1      43.564  36.447  32.870  1.00  0.00     0.040 A 
ATOM     92  F   UNL A   1      43.179  34.325  32.018  1.00  0.00    -0.206 F 
ATOM     93  C   UNL A   1      43.303  37.461  33.780  1.00  0.00     0.006 A 
ENDBRANCH  69  86
ENDBRANCH  43  44
ENDBRANCH  36  38
ENDBRANCH  35  36
ENDBRANCH  34  35
ENDBRANCH  33  34
ENDBRANCH  32  33
ENDBRANCH  31  32
ENDBRANCH  30  31
ENDBRANCH   1  30
TORSDOF 23
ENDMDL
