MODEL 1
REMARK VINA RESULT:     -10.3      0.000      0.000
REMARK SMILES C[C@@H]1CC[C@@]1(SC1CCCCC1)C(=O)OCCOCCOCCOCCOC(=O)c1ccc(-c2c3nc(c(-c4c(F)cccc4F)c4ccc([nH]4)c(-c4c(F)cccc4F)c4nc(c(-c5c(F)cccc5F)c5ccc2[nH]5)C=C4)C=C3)cc1
REMARK SMILES IDX 21 1 20 2 19 3 18 4 17 5 16 6 15 7 13 8 14 9 5 10 1 11 2 12
REMARK SMILES IDX 3 13 4 14 6 15 7 16 8 17 12 18 9 19 11 20 10 21 22 22 23 23
REMARK SMILES IDX 24 24 25 25 26 26 27 27 28 28 29 29 30 30 31 31 83 32 32 33
REMARK SMILES IDX 82 34 33 35 34 36 35 37 76 38 36 39 81 40 75 41 77 42 37 43
REMARK SMILES IDX 80 44 74 45 73 46 38 48 64 49 47 50 63 51 48 52 51 53 62 54
REMARK SMILES IDX 78 55 49 56 50 57 61 59 79 60 52 61 39 62 40 63 45 64 41 65
REMARK SMILES IDX 42 66 44 67 46 68 43 69 65 70 66 71 71 72 67 73 68 74 70 75
REMARK SMILES IDX 72 76 69 77 53 78 54 79 59 80 55 81 56 82 58 83 60 84 57 85
REMARK H PARENT 77 47 51 58
REMARK Flexibility Score: inf
ROOT
ATOM      1  O   UNL A   1      42.160  19.303  25.365  1.00  0.00    -0.377 OA
ENDROOT
BRANCH   1   2
ATOM      2  C   UNL A   1      41.338  19.796  26.413  1.00  0.00     0.188 C 
BRANCH   2   3
ATOM      3  C   UNL A   1      41.081  21.309  26.633  1.00  0.00     0.188 C 
BRANCH   3   4
ATOM      4  O   UNL A   1      40.052  21.852  25.817  1.00  0.00    -0.376 OA
BRANCH   4   5
ATOM      5  C   UNL A   1      39.000  22.579  26.425  1.00  0.00     0.202 C 
BRANCH   5   6
ATOM      6  C   UNL A   1      37.909  23.130  25.503  1.00  0.00     0.261 C 
BRANCH   6   7
ATOM      7  O   UNL A   1      37.266  22.187  24.629  1.00  0.00    -0.462 OA
BRANCH   7   8
ATOM      8  C   UNL A   1      36.322  22.644  23.752  1.00  0.00     0.322 C 
ATOM      9  O   UNL A   1      36.630  23.208  22.703  1.00  0.00    -0.251 OA
BRANCH   8  10
ATOM     10  C   UNL A   1      34.850  22.365  24.262  1.00  0.00     0.116 C 
ATOM     11  C   UNL A   1      33.997  24.212  26.137  1.00  0.00     0.010 C 
ATOM     12  C   UNL A   1      34.094  23.683  24.720  1.00  0.00     0.013 C 
ATOM     13  C   UNL A   1      32.805  23.151  24.077  1.00  0.00     0.007 C 
ATOM     14  C   UNL A   1      33.652  22.148  23.278  1.00  0.00     0.030 C 
BRANCH  10  15
ATOM     15  S   UNL A   1      34.872  21.042  25.572  1.00  0.00    -0.140 SA
BRANCH  15  16
ATOM     16  C   UNL A   1      34.127  19.581  24.717  1.00  0.00     0.048 C 
ATOM     17  C   UNL A   1      35.107  18.405  24.681  1.00  0.00     0.014 C 
ATOM     18  C   UNL A   1      32.743  19.100  25.171  1.00  0.00     0.014 C 
ATOM     19  C   UNL A   1      34.575  17.266  23.815  1.00  0.00     0.001 C 
ATOM     20  C   UNL A   1      32.208  17.939  24.336  1.00  0.00     0.001 C 
ATOM     21  C   UNL A   1      33.212  16.790  24.308  1.00  0.00     0.000 C 
ENDBRANCH  15  16
ENDBRANCH  10  15
ENDBRANCH   8  10
ENDBRANCH   7   8
ENDBRANCH   6   7
ENDBRANCH   5   6
ENDBRANCH   4   5
ENDBRANCH   3   4
ENDBRANCH   2   3
ENDBRANCH   1   2
BRANCH   1  22
ATOM     22  C   UNL A   1      43.318  18.580  25.733  1.00  0.00     0.188 C 
BRANCH  22  23
ATOM     23  C   UNL A   1      44.487  18.780  24.751  1.00  0.00     0.188 C 
BRANCH  23  24
ATOM     24  O   UNL A   1      44.381  19.918  23.920  1.00  0.00    -0.376 OA
BRANCH  24  25
ATOM     25  C   UNL A   1      44.945  21.172  24.263  1.00  0.00     0.202 C 
BRANCH  25  26
ATOM     26  C   UNL A   1      44.563  22.047  25.474  1.00  0.00     0.261 C 
BRANCH  26  27
ATOM     27  O   UNL A   1      43.786  23.223  25.262  1.00  0.00    -0.460 OA
BRANCH  27  28
ATOM     28  C   UNL A   1      44.424  24.409  25.314  1.00  0.00     0.338 C 
ATOM     29  O   UNL A   1      45.328  24.794  24.608  1.00  0.00    -0.246 OA
BRANCH  28  30
ATOM     30  C   UNL A   1      43.659  25.250  26.261  1.00  0.00     0.060 A 
ATOM     31  C   UNL A   1      44.060  26.580  26.444  1.00  0.00     0.016 A 
ATOM     32  C   UNL A   1      42.529  24.751  26.915  1.00  0.00     0.016 A 
ATOM     33  C   UNL A   1      43.340  27.413  27.292  1.00  0.00     0.010 A 
ATOM     34  C   UNL A   1      41.834  25.573  27.804  1.00  0.00     0.010 A 
ATOM     35  C   UNL A   1      42.259  26.896  28.015  1.00  0.00    -0.014 A 
BRANCH  35  36
ATOM     36  C   UNL A   1      41.733  27.688  29.145  1.00  0.00     0.031 A 
ATOM     37  C   UNL A   1      42.442  27.590  30.464  1.00  0.00     0.074 A 
ATOM     38  C   UNL A   1      40.694  28.522  28.985  1.00  0.00     0.049 A 
ATOM     39  N   UNL A   1      42.199  28.212  31.587  1.00  0.00    -0.248 NA
ATOM     40  C   UNL A   1      43.580  26.659  30.520  1.00  0.00     0.031 C 
ATOM     41  C   UNL A   1      39.955  28.722  27.742  1.00  0.00     0.029 A 
ATOM     42  N   UNL A   1      40.084  29.356  29.885  1.00  0.00    -0.354 N 
ATOM     43  C   UNL A   1      43.152  27.748  32.484  1.00  0.00     0.074 A 
ATOM     44  C   UNL A   1      43.952  26.766  31.785  1.00  0.00     0.031 C 
ATOM     45  C   UNL A   1      38.973  29.614  27.962  1.00  0.00     0.029 A 
ATOM     46  C   UNL A   1      39.005  30.024  29.366  1.00  0.00     0.049 A 
ATOM     47  H   UNL A   1      40.389  29.463  30.815  1.00  0.00     0.167 HD
ATOM     48  C   UNL A   1      43.347  28.113  33.772  1.00  0.00     0.037 A 
ATOM     49  C   UNL A   1      38.133  30.856  29.965  1.00  0.00     0.037 A 
ATOM     50  C   UNL A   1      42.531  29.078  34.464  1.00  0.00     0.049 A 
ATOM     51  C   UNL A   1      38.326  31.204  31.417  1.00  0.00     0.074 A 
ATOM     52  C   UNL A   1      42.657  29.542  35.760  1.00  0.00     0.029 A 
ATOM     53  N   UNL A   1      41.422  29.707  33.919  1.00  0.00    -0.354 N 
ATOM     54  N   UNL A   1      39.256  30.798  32.249  1.00  0.00    -0.248 NA
ATOM     55  C   UNL A   1      37.354  32.133  32.008  1.00  0.00     0.031 C 
ATOM     56  C   UNL A   1      41.581  30.398  36.022  1.00  0.00     0.029 A 
ATOM     57  C   UNL A   1      40.826  30.525  34.866  1.00  0.00     0.049 A 
ATOM     58  H   UNL A   1      41.103  29.591  32.994  1.00  0.00     0.167 HD
ATOM     59  C   UNL A   1      38.991  31.431  33.458  1.00  0.00     0.074 A 
ATOM     60  C   UNL A   1      37.828  32.268  33.238  1.00  0.00     0.031 C 
ATOM     61  C   UNL A   1      39.650  31.332  34.641  1.00  0.00     0.037 A 
BRANCH  48  62
ATOM     62  C   UNL A   1      44.449  27.416  34.518  1.00  0.00     0.057 A 
ATOM     63  C   UNL A   1      44.233  26.236  35.245  1.00  0.00     0.134 A 
ATOM     64  C   UNL A   1      45.742  27.953  34.534  1.00  0.00     0.134 A 
ATOM     65  F   UNL A   1      43.013  25.678  35.290  1.00  0.00    -0.206 F 
ATOM     66  C   UNL A   1      45.251  25.642  35.993  1.00  0.00     0.040 A 
ATOM     67  C   UNL A   1      46.776  27.348  35.250  1.00  0.00     0.040 A 
ATOM     68  F   UNL A   1      46.021  29.079  33.860  1.00  0.00    -0.206 F 
ATOM     69  C   UNL A   1      46.529  26.197  35.994  1.00  0.00     0.006 A 
ENDBRANCH  48  62
BRANCH  49  70
ATOM     70  C   UNL A   1      36.994  31.400  29.185  1.00  0.00     0.057 A 
ATOM     71  C   UNL A   1      35.851  30.636  28.928  1.00  0.00     0.134 A 
ATOM     72  C   UNL A   1      37.015  32.715  28.702  1.00  0.00     0.134 A 
ATOM     73  F   UNL A   1      35.781  29.364  29.345  1.00  0.00    -0.206 F 
ATOM     74  C   UNL A   1      34.770  31.159  28.215  1.00  0.00     0.040 A 
ATOM     75  C   UNL A   1      35.931  33.259  28.012  1.00  0.00     0.040 A 
ATOM     76  F   UNL A   1      38.081  33.499  28.920  1.00  0.00    -0.206 F 
ATOM     77  C   UNL A   1      34.805  32.478  27.764  1.00  0.00     0.006 A 
ENDBRANCH  49  70
BRANCH  61  78
ATOM     78  C   UNL A   1      39.130  32.159  35.784  1.00  0.00     0.057 A 
ATOM     79  C   UNL A   1      38.238  31.637  36.732  1.00  0.00     0.134 A 
ATOM     80  C   UNL A   1      39.538  33.488  35.950  1.00  0.00     0.134 A 
ATOM     81  F   UNL A   1      37.798  30.374  36.628  1.00  0.00    -0.206 F 
ATOM     82  C   UNL A   1      37.742  32.419  37.777  1.00  0.00     0.040 A 
ATOM     83  C   UNL A   1      39.076  34.270  37.011  1.00  0.00     0.040 A 
ATOM     84  F   UNL A   1      40.401  34.050  35.089  1.00  0.00    -0.206 F 
ATOM     85  C   UNL A   1      38.167  33.738  37.921  1.00  0.00     0.006 A 
ENDBRANCH  61  78
ENDBRANCH  35  36
ENDBRANCH  28  30
ENDBRANCH  27  28
ENDBRANCH  26  27
ENDBRANCH  25  26
ENDBRANCH  24  25
ENDBRANCH  23  24
ENDBRANCH  22  23
ENDBRANCH   1  22
TORSDOF 22
ENDMDL
MODEL 2
REMARK VINA RESULT:     -10.0      1.167      2.974
REMARK SMILES C[C@@H]1CC[C@@]1(SC1CCCCC1)C(=O)OCCOCCOCCOCCOC(=O)c1ccc(-c2c3nc(c(-c4c(F)cccc4F)c4ccc([nH]4)c(-c4c(F)cccc4F)c4nc(c(-c5c(F)cccc5F)c5ccc2[nH]5)C=C4)C=C3)cc1
REMARK SMILES IDX 21 1 20 2 19 3 18 4 17 5 16 6 15 7 13 8 14 9 5 10 1 11 2 12
REMARK SMILES IDX 3 13 4 14 6 15 7 16 8 17 12 18 9 19 11 20 10 21 22 22 23 23
REMARK SMILES IDX 24 24 25 25 26 26 27 27 28 28 29 29 30 30 31 31 83 32 32 33
REMARK SMILES IDX 82 34 33 35 34 36 35 37 76 38 36 39 81 40 75 41 77 42 37 43
REMARK SMILES IDX 80 44 74 45 73 46 38 48 64 49 47 50 63 51 48 52 51 53 62 54
REMARK SMILES IDX 78 55 49 56 50 57 61 59 79 60 52 61 39 62 40 63 45 64 41 65
REMARK SMILES IDX 42 66 44 67 46 68 43 69 65 70 66 71 71 72 67 73 68 74 70 75
REMARK SMILES IDX 72 76 69 77 53 78 54 79 59 80 55 81 56 82 58 83 60 84 57 85
REMARK H PARENT 77 47 51 58
REMARK Flexibility Score: inf
ROOT
ATOM      1  O   UNL A   1      42.100  19.381  25.345  1.00  0.00    -0.377 OA
ENDROOT
BRANCH   1   2
ATOM      2  C   UNL A   1      41.137  19.732  26.328  1.00  0.00     0.188 C 
BRANCH   2   3
ATOM      3  C   UNL A   1      40.860  21.201  26.739  1.00  0.00     0.188 C 
BRANCH   3   4
ATOM      4  O   UNL A   1      39.914  21.869  25.916  1.00  0.00    -0.376 OA
BRANCH   4   5
ATOM      5  C   UNL A   1      38.986  22.757  26.512  1.00  0.00     0.202 C 
BRANCH   5   6
ATOM      6  C   UNL A   1      37.945  23.400  25.590  1.00  0.00     0.261 C 
BRANCH   6   7
ATOM      7  O   UNL A   1      37.045  22.508  24.911  1.00  0.00    -0.462 OA
BRANCH   7   8
ATOM      8  C   UNL A   1      36.134  23.036  24.039  1.00  0.00     0.322 C 
ATOM      9  O   UNL A   1      36.430  23.304  22.876  1.00  0.00    -0.251 OA
BRANCH   8  10
ATOM     10  C   UNL A   1      34.717  23.248  24.714  1.00  0.00     0.116 C 
ATOM     11  C   UNL A   1      33.098  21.013  24.529  1.00  0.00     0.010 C 
ATOM     12  C   UNL A   1      34.085  21.898  25.261  1.00  0.00     0.013 C 
ATOM     13  C   UNL A   1      33.573  22.655  26.495  1.00  0.00     0.007 C 
ATOM     14  C   UNL A   1      34.560  23.788  26.174  1.00  0.00     0.030 C 
BRANCH  10  15
ATOM     15  S   UNL A   1      33.590  24.163  23.549  1.00  0.00    -0.140 SA
BRANCH  15  16
ATOM     16  C   UNL A   1      33.887  25.938  23.974  1.00  0.00     0.048 C 
ATOM     17  C   UNL A   1      33.579  26.849  22.782  1.00  0.00     0.014 C 
ATOM     18  C   UNL A   1      33.241  26.500  25.248  1.00  0.00     0.014 C 
ATOM     19  C   UNL A   1      34.001  28.290  23.062  1.00  0.00     0.001 C 
ATOM     20  C   UNL A   1      33.626  27.951  25.526  1.00  0.00     0.001 C 
ATOM     21  C   UNL A   1      33.321  28.829  24.317  1.00  0.00     0.000 C 
ENDBRANCH  15  16
ENDBRANCH  10  15
ENDBRANCH   8  10
ENDBRANCH   7   8
ENDBRANCH   6   7
ENDBRANCH   5   6
ENDBRANCH   4   5
ENDBRANCH   3   4
ENDBRANCH   2   3
ENDBRANCH   1   2
BRANCH   1  22
ATOM     22  C   UNL A   1      43.199  18.596  25.762  1.00  0.00     0.188 C 
BRANCH  22  23
ATOM     23  C   UNL A   1      44.433  18.761  24.857  1.00  0.00     0.188 C 
BRANCH  23  24
ATOM     24  O   UNL A   1      44.391  19.876  23.990  1.00  0.00    -0.376 OA
BRANCH  24  25
ATOM     25  C   UNL A   1      44.900  21.149  24.352  1.00  0.00     0.202 C 
BRANCH  25  26
ATOM     26  C   UNL A   1      44.375  22.055  25.483  1.00  0.00     0.261 C 
BRANCH  26  27
ATOM     27  O   UNL A   1      43.677  23.251  25.145  1.00  0.00    -0.460 OA
BRANCH  27  28
ATOM     28  C   UNL A   1      44.350  24.415  25.245  1.00  0.00     0.338 C 
ATOM     29  O   UNL A   1      45.279  24.791  24.568  1.00  0.00    -0.246 OA
BRANCH  28  30
ATOM     30  C   UNL A   1      43.594  25.251  26.203  1.00  0.00     0.060 A 
ATOM     31  C   UNL A   1      43.991  26.583  26.382  1.00  0.00     0.016 A 
ATOM     32  C   UNL A   1      42.475  24.746  26.872  1.00  0.00     0.016 A 
ATOM     33  C   UNL A   1      43.278  27.411  27.240  1.00  0.00     0.010 A 
ATOM     34  C   UNL A   1      41.788  25.564  27.771  1.00  0.00     0.010 A 
ATOM     35  C   UNL A   1      42.209  26.888  27.977  1.00  0.00    -0.014 A 
BRANCH  35  36
ATOM     36  C   UNL A   1      41.695  27.678  29.115  1.00  0.00     0.031 A 
ATOM     37  C   UNL A   1      42.417  27.576  30.426  1.00  0.00     0.074 A 
ATOM     38  C   UNL A   1      40.653  28.511  28.967  1.00  0.00     0.049 A 
ATOM     39  N   UNL A   1      42.185  28.195  31.553  1.00  0.00    -0.248 NA
ATOM     40  C   UNL A   1      43.556  26.646  30.467  1.00  0.00     0.031 C 
ATOM     41  C   UNL A   1      39.902  28.713  27.732  1.00  0.00     0.029 A 
ATOM     42  N   UNL A   1      40.052  29.342  29.876  1.00  0.00    -0.354 N 
ATOM     43  C   UNL A   1      43.147  27.729  32.438  1.00  0.00     0.074 A 
ATOM     44  C   UNL A   1      43.941  26.749  31.728  1.00  0.00     0.031 C 
ATOM     45  C   UNL A   1      38.922  29.604  27.965  1.00  0.00     0.029 A 
ATOM     46  C   UNL A   1      38.968  30.011  29.369  1.00  0.00     0.049 A 
ATOM     47  H   UNL A   1      40.367  29.447  30.803  1.00  0.00     0.167 HD
ATOM     48  C   UNL A   1      43.355  28.091  33.726  1.00  0.00     0.037 A 
ATOM     49  C   UNL A   1      38.101  30.840  29.979  1.00  0.00     0.037 A 
ATOM     50  C   UNL A   1      42.546  29.053  34.429  1.00  0.00     0.049 A 
ATOM     51  C   UNL A   1      38.308  31.184  31.430  1.00  0.00     0.074 A 
ATOM     52  C   UNL A   1      42.684  29.514  35.725  1.00  0.00     0.029 A 
ATOM     53  N   UNL A   1      41.431  29.683  33.897  1.00  0.00    -0.354 N 
ATOM     54  N   UNL A   1      39.247  30.777  32.252  1.00  0.00    -0.248 NA
ATOM     55  C   UNL A   1      37.342  32.111  32.034  1.00  0.00     0.031 C 
ATOM     56  C   UNL A   1      41.611  30.369  36.000  1.00  0.00     0.029 A 
ATOM     57  C   UNL A   1      40.844  30.498  34.852  1.00  0.00     0.049 A 
ATOM     58  H   UNL A   1      41.103  29.569  32.975  1.00  0.00     0.167 HD
ATOM     59  C   UNL A   1      38.994  31.406  33.465  1.00  0.00     0.074 A 
ATOM     60  C   UNL A   1      37.828  32.243  33.260  1.00  0.00     0.031 C 
ATOM     61  C   UNL A   1      39.666  31.305  34.641  1.00  0.00     0.037 A 
BRANCH  48  62
ATOM     62  C   UNL A   1      44.465  27.393  34.459  1.00  0.00     0.057 A 
ATOM     63  C   UNL A   1      44.266  26.188  35.150  1.00  0.00     0.134 A 
ATOM     64  C   UNL A   1      45.748  27.952  34.498  1.00  0.00     0.134 A 
ATOM     65  F   UNL A   1      43.057  25.607  35.171  1.00  0.00    -0.206 F 
ATOM     66  C   UNL A   1      45.291  25.591  35.887  1.00  0.00     0.040 A 
ATOM     67  C   UNL A   1      46.789  27.346  35.203  1.00  0.00     0.040 A 
ATOM     68  F   UNL A   1      46.011  29.102  33.859  1.00  0.00    -0.206 F 
ATOM     69  C   UNL A   1      46.559  26.169  35.912  1.00  0.00     0.006 A 
ENDBRANCH  48  62
BRANCH  49  70
ATOM     70  C   UNL A   1      36.953  31.386  29.214  1.00  0.00     0.057 A 
ATOM     71  C   UNL A   1      36.957  32.695  28.722  1.00  0.00     0.134 A 
ATOM     72  C   UNL A   1      35.833  30.593  28.932  1.00  0.00     0.134 A 
ATOM     73  F   UNL A   1      37.990  33.510  28.977  1.00  0.00    -0.206 F 
ATOM     74  C   UNL A   1      35.886  33.198  27.980  1.00  0.00     0.040 A 
ATOM     75  C   UNL A   1      34.769  31.074  28.170  1.00  0.00     0.040 A 
ATOM     76  F   UNL A   1      35.772  29.328  29.373  1.00  0.00    -0.206 F 
ATOM     77  C   UNL A   1      34.792  32.382  27.694  1.00  0.00     0.006 A 
ENDBRANCH  49  70
BRANCH  61  78
ATOM     78  C   UNL A   1      39.156  32.128  35.792  1.00  0.00     0.057 A 
ATOM     79  C   UNL A   1      39.535  33.466  35.974  1.00  0.00     0.134 A 
ATOM     80  C   UNL A   1      38.261  31.582  36.721  1.00  0.00     0.134 A 
ATOM     81  F   UNL A   1      40.396  34.049  35.127  1.00  0.00    -0.206 F 
ATOM     82  C   UNL A   1      39.074  34.215  37.058  1.00  0.00     0.040 A 
ATOM     83  C   UNL A   1      37.767  32.331  37.790  1.00  0.00     0.040 A 
ATOM     84  F   UNL A   1      37.844  30.312  36.602  1.00  0.00    -0.206 F 
ATOM     85  C   UNL A   1      38.183  33.648  37.967  1.00  0.00     0.006 A 
ENDBRANCH  61  78
ENDBRANCH  35  36
ENDBRANCH  28  30
ENDBRANCH  27  28
ENDBRANCH  26  27
ENDBRANCH  25  26
ENDBRANCH  24  25
ENDBRANCH  23  24
ENDBRANCH  22  23
ENDBRANCH   1  22
TORSDOF 22
ENDMDL
MODEL 3
REMARK VINA RESULT:      -9.7      1.689      7.018
REMARK SMILES C[C@@H]1CC[C@@]1(SC1CCCCC1)C(=O)OCCOCCOCCOCCOC(=O)c1ccc(-c2c3nc(c(-c4c(F)cccc4F)c4ccc([nH]4)c(-c4c(F)cccc4F)c4nc(c(-c5c(F)cccc5F)c5ccc2[nH]5)C=C4)C=C3)cc1
REMARK SMILES IDX 21 1 20 2 19 3 18 4 17 5 16 6 15 7 13 8 14 9 5 10 1 11 2 12
REMARK SMILES IDX 3 13 4 14 6 15 7 16 8 17 12 18 9 19 11 20 10 21 22 22 23 23
REMARK SMILES IDX 24 24 25 25 26 26 27 27 28 28 29 29 30 30 31 31 83 32 32 33
REMARK SMILES IDX 82 34 33 35 34 36 35 37 76 38 36 39 81 40 75 41 77 42 37 43
REMARK SMILES IDX 80 44 74 45 73 46 38 48 64 49 47 50 63 51 48 52 51 53 62 54
REMARK SMILES IDX 78 55 49 56 50 57 61 59 79 60 52 61 39 62 40 63 45 64 41 65
REMARK SMILES IDX 42 66 44 67 46 68 43 69 65 70 66 71 71 72 67 73 68 74 70 75
REMARK SMILES IDX 72 76 69 77 53 78 54 79 59 80 55 81 56 82 58 83 60 84 57 85
REMARK H PARENT 77 47 51 58
REMARK Flexibility Score: inf
ROOT
ATOM      1  O   UNL A   1      39.895  23.078  26.391  1.00  0.00    -0.377 OA
ENDROOT
BRANCH   1   2
ATOM      2  C   UNL A   1      38.744  23.817  26.772  1.00  0.00     0.188 C 
BRANCH   2   3
ATOM      3  C   UNL A   1      37.341  23.551  26.166  1.00  0.00     0.188 C 
BRANCH   3   4
ATOM      4  O   UNL A   1      37.221  22.305  25.495  1.00  0.00    -0.376 OA
BRANCH   4   5
ATOM      5  C   UNL A   1      35.999  21.594  25.570  1.00  0.00     0.202 C 
BRANCH   5   6
ATOM      6  C   UNL A   1      34.897  22.194  26.448  1.00  0.00     0.261 C 
BRANCH   6   7
ATOM      7  O   UNL A   1      33.569  22.210  25.897  1.00  0.00    -0.462 OA
BRANCH   7   8
ATOM      8  C   UNL A   1      32.696  23.173  26.319  1.00  0.00     0.322 C 
ATOM      9  O   UNL A   1      32.342  23.257  27.494  1.00  0.00    -0.251 OA
BRANCH   8  10
ATOM     10  C   UNL A   1      32.223  24.110  25.134  1.00  0.00     0.116 C 
ATOM     11  C   UNL A   1      32.949  23.139  22.647  1.00  0.00     0.010 C 
ATOM     12  C   UNL A   1      31.964  23.315  23.784  1.00  0.00     0.013 C 
ATOM     13  C   UNL A   1      30.732  24.193  23.520  1.00  0.00     0.007 C 
ATOM     14  C   UNL A   1      30.744  24.606  25.000  1.00  0.00     0.030 C 
BRANCH  10  15
ATOM     15  S   UNL A   1      33.413  25.526  24.931  1.00  0.00    -0.140 SA
BRANCH  15  16
ATOM     16  C   UNL A   1      32.401  27.004  25.392  1.00  0.00     0.048 C 
ATOM     17  C   UNL A   1      32.774  27.514  26.787  1.00  0.00     0.014 C 
ATOM     18  C   UNL A   1      32.330  28.175  24.404  1.00  0.00     0.014 C 
ATOM     19  C   UNL A   1      31.818  28.610  27.251  1.00  0.00     0.001 C 
ATOM     20  C   UNL A   1      31.402  29.296  24.867  1.00  0.00     0.001 C 
ATOM     21  C   UNL A   1      31.791  29.773  26.263  1.00  0.00     0.000 C 
ENDBRANCH  15  16
ENDBRANCH  10  15
ENDBRANCH   8  10
ENDBRANCH   7   8
ENDBRANCH   6   7
ENDBRANCH   5   6
ENDBRANCH   4   5
ENDBRANCH   3   4
ENDBRANCH   2   3
ENDBRANCH   1   2
BRANCH   1  22
ATOM     22  C   UNL A   1      40.392  22.128  27.312  1.00  0.00     0.188 C 
BRANCH  22  23
ATOM     23  C   UNL A   1      40.816  20.808  26.642  1.00  0.00     0.188 C 
BRANCH  23  24
ATOM     24  O   UNL A   1      41.827  20.933  25.663  1.00  0.00    -0.376 OA
BRANCH  24  25
ATOM     25  C   UNL A   1      43.007  21.691  25.872  1.00  0.00     0.202 C 
BRANCH  25  26
ATOM     26  C   UNL A   1      43.669  22.651  24.863  1.00  0.00     0.261 C 
BRANCH  26  27
ATOM     27  O   UNL A   1      43.279  24.022  24.853  1.00  0.00    -0.460 OA
BRANCH  27  28
ATOM     28  C   UNL A   1      44.173  24.926  25.301  1.00  0.00     0.338 C 
ATOM     29  O   UNL A   1      45.259  25.187  24.834  1.00  0.00    -0.246 OA
BRANCH  28  30
ATOM     30  C   UNL A   1      43.483  25.706  26.352  1.00  0.00     0.060 A 
ATOM     31  C   UNL A   1      43.779  27.070  26.471  1.00  0.00     0.016 A 
ATOM     32  C   UNL A   1      42.515  25.113  27.168  1.00  0.00     0.016 A 
ATOM     33  C   UNL A   1      43.118  27.845  27.417  1.00  0.00     0.010 A 
ATOM     34  C   UNL A   1      41.887  25.881  28.151  1.00  0.00     0.010 A 
ATOM     35  C   UNL A   1      42.211  27.240  28.294  1.00  0.00    -0.014 A 
BRANCH  35  36
ATOM     36  C   UNL A   1      41.788  27.997  29.490  1.00  0.00     0.031 A 
ATOM     37  C   UNL A   1      40.550  28.838  29.391  1.00  0.00     0.074 A 
ATOM     38  C   UNL A   1      42.452  27.889  30.651  1.00  0.00     0.049 A 
ATOM     39  N   UNL A   1      39.957  29.558  30.306  1.00  0.00    -0.248 NA
ATOM     40  C   UNL A   1      39.892  28.868  28.074  1.00  0.00     0.031 C 
ATOM     41  C   UNL A   1      43.645  27.076  30.870  1.00  0.00     0.029 A 
ATOM     42  N   UNL A   1      42.208  28.474  31.866  1.00  0.00    -0.354 N 
ATOM     43  C   UNL A   1      38.858  30.128  29.677  1.00  0.00     0.074 A 
ATOM     44  C   UNL A   1      38.889  29.700  28.295  1.00  0.00     0.031 C 
ATOM     45  C   UNL A   1      44.042  27.226  32.146  1.00  0.00     0.029 A 
ATOM     46  C   UNL A   1      43.144  28.163  32.819  1.00  0.00     0.049 A 
ATOM     47  H   UNL A   1      41.436  29.060  32.038  1.00  0.00     0.167 HD
ATOM     48  C   UNL A   1      37.906  30.931  30.206  1.00  0.00     0.037 A 
ATOM     49  C   UNL A   1      43.269  28.605  34.084  1.00  0.00     0.037 A 
ATOM     50  C   UNL A   1      37.897  31.366  31.579  1.00  0.00     0.049 A 
ATOM     51  C   UNL A   1      42.235  29.549  34.640  1.00  0.00     0.074 A 
ATOM     52  C   UNL A   1      36.967  32.157  32.227  1.00  0.00     0.029 A 
ATOM     53  N   UNL A   1      38.883  31.065  32.508  1.00  0.00    -0.354 N 
ATOM     54  N   UNL A   1      41.172  30.050  34.056  1.00  0.00    -0.248 NA
ATOM     55  C   UNL A   1      42.414  29.978  36.033  1.00  0.00     0.031 C 
ATOM     56  C   UNL A   1      37.426  32.393  33.528  1.00  0.00     0.029 A 
ATOM     57  C   UNL A   1      38.607  31.689  33.714  1.00  0.00     0.049 A 
ATOM     58  H   UNL A   1      39.665  30.492  32.336  1.00  0.00     0.167 HD
ATOM     59  C   UNL A   1      40.548  30.843  35.012  1.00  0.00     0.074 A 
ATOM     60  C   UNL A   1      41.340  30.732  36.221  1.00  0.00     0.031 C 
ATOM     61  C   UNL A   1      39.421  31.592  34.902  1.00  0.00     0.037 A 
BRANCH  48  62
ATOM     62  C   UNL A   1      36.838  31.428  29.274  1.00  0.00     0.057 A 
ATOM     63  C   UNL A   1      36.840  32.733  28.759  1.00  0.00     0.134 A 
ATOM     64  C   UNL A   1      35.775  30.594  28.908  1.00  0.00     0.134 A 
ATOM     65  F   UNL A   1      37.818  33.592  29.085  1.00  0.00    -0.206 F 
ATOM     66  C   UNL A   1      35.800  33.201  27.953  1.00  0.00     0.040 A 
ATOM     67  C   UNL A   1      34.748  31.041  28.074  1.00  0.00     0.040 A 
ATOM     68  F   UNL A   1      35.710  29.333  29.361  1.00  0.00    -0.206 F 
ATOM     69  C   UNL A   1      34.752  32.353  27.605  1.00  0.00     0.006 A 
ENDBRANCH  48  62
BRANCH  49  70
ATOM     70  C   UNL A   1      44.428  28.165  34.898  1.00  0.00     0.057 A 
ATOM     71  C   UNL A   1      44.416  26.952  35.593  1.00  0.00     0.134 A 
ATOM     72  C   UNL A   1      45.591  28.942  34.975  1.00  0.00     0.134 A 
ATOM     73  F   UNL A   1      43.325  26.174  35.577  1.00  0.00    -0.206 F 
ATOM     74  C   UNL A   1      45.519  26.527  36.339  1.00  0.00     0.040 A 
ATOM     75  C   UNL A   1      46.709  28.518  35.694  1.00  0.00     0.040 A 
ATOM     76  F   UNL A   1      45.666  30.114  34.327  1.00  0.00    -0.206 F 
ATOM     77  C   UNL A   1      46.673  27.308  36.381  1.00  0.00     0.006 A 
ENDBRANCH  49  70
BRANCH  61  78
ATOM     78  C   UNL A   1      38.977  32.342  36.127  1.00  0.00     0.057 A 
ATOM     79  C   UNL A   1      38.155  31.756  37.101  1.00  0.00     0.134 A 
ATOM     80  C   UNL A   1      39.391  33.662  36.347  1.00  0.00     0.134 A 
ATOM     81  F   UNL A   1      37.714  30.498  36.949  1.00  0.00    -0.206 F 
ATOM     82  C   UNL A   1      37.730  32.469  38.224  1.00  0.00     0.040 A 
ATOM     83  C   UNL A   1      39.000  34.373  37.483  1.00  0.00     0.040 A 
ATOM     84  F   UNL A   1      40.190  34.283  35.465  1.00  0.00    -0.206 F 
ATOM     85  C   UNL A   1      38.158  33.779  38.419  1.00  0.00     0.006 A 
ENDBRANCH  61  78
ENDBRANCH  35  36
ENDBRANCH  28  30
ENDBRANCH  27  28
ENDBRANCH  26  27
ENDBRANCH  25  26
ENDBRANCH  24  25
ENDBRANCH  23  24
ENDBRANCH  22  23
ENDBRANCH   1  22
TORSDOF 22
ENDMDL
