MODEL 1
REMARK VINA RESULT:      -8.7      0.000      0.000
REMARK SMILES CC1=C(CC(=O)OCCOCCOCCOCCOC(=O)c2ccc(-c3c4nc(c(-c5c(F)cccc5F)c5ccc([nH]5)c(-c5c(F)cccc5F)c5nc(c(-c6c(F)cccc6F)c6ccc3[nH]6)C=C5)C=C4)cc2)c2cc(F)ccc2/C1=C\c1cccc(OCc2ccccc2)c1
REMARK SMILES IDX 11 1 10 2 9 3 8 4 7 5 5 6 6 7 4 8 3 9 1 10 2 11 83 12 76 13
REMARK SMILES IDX 82 14 84 15 77 16 81 17 78 18 80 19 79 20 85 21 86 22 98 23
REMARK SMILES IDX 87 24 89 25 88 26 90 27 91 28 92 29 93 30 97 31 94 32 96 33
REMARK SMILES IDX 95 34 12 35 13 36 14 37 15 38 16 39 17 40 18 41 19 42 20 43
REMARK SMILES IDX 21 44 22 45 23 46 75 47 24 48 74 49 25 50 26 51 27 52 68 53
REMARK SMILES IDX 28 54 73 55 67 56 69 57 29 58 72 59 66 60 65 61 30 63 56 64
REMARK SMILES IDX 39 65 55 66 40 67 43 68 54 69 70 70 41 71 42 72 53 74 71 75
REMARK SMILES IDX 44 76 31 77 32 78 37 79 33 80 34 81 36 82 38 83 35 84 57 85
REMARK SMILES IDX 58 86 63 87 59 88 60 89 62 90 64 91 61 92 45 93 46 94 51 95
REMARK SMILES IDX 47 96 48 97 50 98 52 99 49 100
REMARK H PARENT 69 62 43 73
REMARK Flexibility Score: inf
ROOT
ATOM      1  C   UNL A   1      33.161  36.634  33.101  1.00  0.00     0.188 C 
ENDROOT
BRANCH   1   2
ATOM      2  O   UNL A   1      34.422  36.393  33.687  1.00  0.00    -0.376 OA
BRANCH   2   3
ATOM      3  C   UNL A   1      34.899  35.065  33.754  1.00  0.00     0.202 C 
BRANCH   3   4
ATOM      4  C   UNL A   1      35.908  34.519  32.726  1.00  0.00     0.261 C 
BRANCH   4   5
ATOM      5  O   UNL A   1      36.676  33.352  33.086  1.00  0.00    -0.463 OA
BRANCH   5   6
ATOM      6  C   UNL A   1      38.007  33.489  33.286  1.00  0.00     0.310 C 
ATOM      7  O   UNL A   1      38.486  34.112  34.228  1.00  0.00    -0.252 OA
BRANCH   6   8
ATOM      8  C   UNL A   1      38.894  32.781  32.240  1.00  0.00     0.159 C 
BRANCH   8   9
ATOM      9  C   UNL A   1      39.788  33.548  31.302  1.00  0.00    -0.025 C 
ATOM     10  C   UNL A   1      38.188  34.052  29.380  1.00  0.00     0.045 C 
ATOM     11  C   UNL A   1      39.501  34.081  30.087  1.00  0.00    -0.039 C 
ATOM     12  C   UNL A   1      40.693  34.753  29.530  1.00  0.00    -0.014 C 
ATOM     13  C   UNL A   1      41.182  33.940  31.625  1.00  0.00    -0.011 A 
ATOM     14  C   UNL A   1      41.759  34.626  30.539  1.00  0.00    -0.010 A 
ATOM     15  C   UNL A   1      40.760  35.361  28.329  1.00  0.00     0.017 C 
ATOM     16  C   UNL A   1      41.938  33.684  32.763  1.00  0.00     0.048 A 
ATOM     17  C   UNL A   1      43.094  35.021  30.566  1.00  0.00     0.012 A 
ATOM     18  C   UNL A   1      43.275  34.086  32.780  1.00  0.00     0.123 A 
ATOM     19  C   UNL A   1      43.857  34.745  31.698  1.00  0.00     0.040 A 
ATOM     20  F   UNL A   1      44.032  33.801  33.847  1.00  0.00    -0.207 F 
BRANCH  15  21
ATOM     21  C   UNL A   1      41.944  36.028  27.774  1.00  0.00    -0.021 A 
ATOM     22  C   UNL A   1      42.798  35.327  26.914  1.00  0.00     0.008 A 
ATOM     23  C   UNL A   1      42.269  37.337  28.163  1.00  0.00     0.054 A 
ATOM     24  C   UNL A   1      43.988  35.911  26.481  1.00  0.00     0.004 A 
ATOM     25  C   UNL A   1      43.455  37.928  27.718  1.00  0.00     0.120 A 
ATOM     26  C   UNL A   1      44.318  37.201  26.894  1.00  0.00     0.046 A 
BRANCH  25  27
ATOM     27  O   UNL A   1      43.879  39.201  27.990  1.00  0.00    -0.489 OA
BRANCH  27  28
ATOM     28  C   UNL A   1      43.573  39.772  29.268  1.00  0.00     0.265 C 
BRANCH  28  29
ATOM     29  C   UNL A   1      44.298  39.145  30.442  1.00  0.00    -0.011 A 
ATOM     30  C   UNL A   1      43.775  39.178  31.744  1.00  0.00     0.007 A 
ATOM     31  C   UNL A   1      45.533  38.515  30.231  1.00  0.00     0.007 A 
ATOM     32  C   UNL A   1      44.434  38.535  32.792  1.00  0.00     0.000 A 
ATOM     33  C   UNL A   1      46.201  37.887  31.284  1.00  0.00     0.000 A 
ATOM     34  C   UNL A   1      45.642  37.885  32.562  1.00  0.00     0.000 A 
ENDBRANCH  28  29
ENDBRANCH  27  28
ENDBRANCH  25  27
ENDBRANCH  15  21
ENDBRANCH   8   9
ENDBRANCH   6   8
ENDBRANCH   5   6
ENDBRANCH   4   5
ENDBRANCH   3   4
ENDBRANCH   2   3
ENDBRANCH   1   2
BRANCH   1  35
ATOM     35  C   UNL A   1      33.231  37.509  31.834  1.00  0.00     0.188 C 
BRANCH  35  36
ATOM     36  O   UNL A   1      32.962  37.025  30.525  1.00  0.00    -0.377 OA
BRANCH  36  37
ATOM     37  C   UNL A   1      33.448  35.756  30.149  1.00  0.00     0.188 C 
BRANCH  37  38
ATOM     38  C   UNL A   1      33.272  35.352  28.678  1.00  0.00     0.188 C 
BRANCH  38  39
ATOM     39  O   UNL A   1      34.380  34.648  28.128  1.00  0.00    -0.376 OA
BRANCH  39  40
ATOM     40  C   UNL A   1      34.306  33.227  28.150  1.00  0.00     0.202 C 
BRANCH  40  41
ATOM     41  C   UNL A   1      34.765  32.540  29.444  1.00  0.00     0.261 C 
BRANCH  41  42
ATOM     42  O   UNL A   1      35.748  31.511  29.291  1.00  0.00    -0.460 OA
BRANCH  42  43
ATOM     43  C   UNL A   1      36.274  30.964  30.403  1.00  0.00     0.338 C 
ATOM     44  O   UNL A   1      35.768  30.893  31.510  1.00  0.00    -0.246 OA
BRANCH  43  45
ATOM     45  C   UNL A   1      37.514  30.282  29.988  1.00  0.00     0.060 A 
ATOM     46  C   UNL A   1      37.923  30.318  28.651  1.00  0.00     0.016 A 
ATOM     47  C   UNL A   1      38.231  29.539  30.934  1.00  0.00     0.016 A 
ATOM     48  C   UNL A   1      39.069  29.628  28.265  1.00  0.00     0.010 A 
ATOM     49  C   UNL A   1      39.365  28.828  30.542  1.00  0.00     0.010 A 
ATOM     50  C   UNL A   1      39.806  28.897  29.212  1.00  0.00    -0.014 A 
BRANCH  50  51
ATOM     51  C   UNL A   1      41.167  28.429  28.868  1.00  0.00     0.031 A 
ATOM     52  C   UNL A   1      41.464  27.020  28.472  1.00  0.00     0.074 A 
ATOM     53  C   UNL A   1      42.152  29.342  28.956  1.00  0.00     0.049 A 
ATOM     54  N   UNL A   1      42.602  26.504  28.078  1.00  0.00    -0.248 NA
ATOM     55  C   UNL A   1      40.355  26.060  28.539  1.00  0.00     0.031 C 
ATOM     56  C   UNL A   1      41.966  30.732  29.383  1.00  0.00     0.029 A 
ATOM     57  N   UNL A   1      43.491  29.246  28.699  1.00  0.00    -0.354 N 
ATOM     58  C   UNL A   1      42.348  25.163  27.830  1.00  0.00     0.074 A 
ATOM     59  C   UNL A   1      40.954  24.936  28.163  1.00  0.00     0.031 C 
ATOM     60  C   UNL A   1      43.147  31.363  29.343  1.00  0.00     0.029 A 
ATOM     61  C   UNL A   1      44.169  30.420  28.909  1.00  0.00     0.049 A 
ATOM     62  H   UNL A   1      43.926  28.417  28.393  1.00  0.00     0.167 HD
ATOM     63  C   UNL A   1      43.201  24.219  27.360  1.00  0.00     0.037 A 
ATOM     64  C   UNL A   1      45.474  30.707  28.764  1.00  0.00     0.037 A 
ATOM     65  C   UNL A   1      44.596  24.460  27.068  1.00  0.00     0.049 A 
ATOM     66  C   UNL A   1      46.397  29.638  28.266  1.00  0.00     0.074 A 
ATOM     67  C   UNL A   1      45.534  23.590  26.536  1.00  0.00     0.029 A 
ATOM     68  N   UNL A   1      45.261  25.657  27.309  1.00  0.00    -0.354 N 
ATOM     69  N   UNL A   1      46.124  28.399  27.934  1.00  0.00    -0.248 NA
ATOM     70  C   UNL A   1      47.807  30.010  28.109  1.00  0.00     0.031 C 
ATOM     71  C   UNL A   1      46.774  24.240  26.509  1.00  0.00     0.029 A 
ATOM     72  C   UNL A   1      46.602  25.534  26.972  1.00  0.00     0.049 A 
ATOM     73  H   UNL A   1      44.842  26.472  27.666  1.00  0.00     0.167 HD
ATOM     74  C   UNL A   1      47.326  27.846  27.516  1.00  0.00     0.074 A 
ATOM     75  C   UNL A   1      48.321  28.897  27.607  1.00  0.00     0.031 C 
ATOM     76  C   UNL A   1      47.585  26.583  27.097  1.00  0.00     0.037 A 
BRANCH  63  77
ATOM     77  C   UNL A   1      42.656  22.836  27.142  1.00  0.00     0.057 A 
ATOM     78  C   UNL A   1      42.580  21.916  28.196  1.00  0.00     0.134 A 
ATOM     79  C   UNL A   1      42.241  22.397  25.876  1.00  0.00     0.134 A 
ATOM     80  F   UNL A   1      42.971  22.262  29.432  1.00  0.00    -0.206 F 
ATOM     81  C   UNL A   1      42.111  20.614  28.001  1.00  0.00     0.040 A 
ATOM     82  C   UNL A   1      41.746  21.106  25.675  1.00  0.00     0.040 A 
ATOM     83  F   UNL A   1      42.284  23.225  24.822  1.00  0.00    -0.206 F 
ATOM     84  C   UNL A   1      41.684  20.209  26.738  1.00  0.00     0.006 A 
ENDBRANCH  63  77
BRANCH  64  85
ATOM     85  C   UNL A   1      45.963  32.072  29.067  1.00  0.00     0.057 A 
ATOM     86  C   UNL A   1      45.899  33.096  28.116  1.00  0.00     0.134 A 
ATOM     87  C   UNL A   1      46.522  32.378  30.313  1.00  0.00     0.134 A 
ATOM     88  F   UNL A   1      45.389  32.860  26.898  1.00  0.00    -0.206 F 
ATOM     89  C   UNL A   1      46.379  34.376  28.390  1.00  0.00     0.040 A 
ATOM     90  C   UNL A   1      46.982  33.661  30.610  1.00  0.00     0.040 A 
ATOM     91  F   UNL A   1      46.602  31.438  31.266  1.00  0.00    -0.206 F 
ATOM     92  C   UNL A   1      46.914  34.664  29.643  1.00  0.00     0.006 A 
ENDBRANCH  64  85
BRANCH  76  93
ATOM     93  C   UNL A   1      49.006  26.288  26.709  1.00  0.00     0.057 A 
ATOM     94  C   UNL A   1      49.461  26.538  25.409  1.00  0.00     0.134 A 
ATOM     95  C   UNL A   1      49.932  25.783  27.632  1.00  0.00     0.134 A 
ATOM     96  F   UNL A   1      48.627  27.017  24.475  1.00  0.00    -0.206 F 
ATOM     97  C   UNL A   1      50.787  26.306  25.043  1.00  0.00     0.040 A 
ATOM     98  C   UNL A   1      51.269  25.576  27.286  1.00  0.00     0.040 A 
ATOM     99  F   UNL A   1      49.566  25.542  28.900  1.00  0.00    -0.206 F 
ATOM    100  C   UNL A   1      51.699  25.834  25.986  1.00  0.00     0.006 A 
ENDBRANCH  76  93
ENDBRANCH  50  51
ENDBRANCH  43  45
ENDBRANCH  42  43
ENDBRANCH  41  42
ENDBRANCH  40  41
ENDBRANCH  39  40
ENDBRANCH  38  39
ENDBRANCH  37  38
ENDBRANCH  36  37
ENDBRANCH  35  36
ENDBRANCH   1  35
TORSDOF 25
ENDMDL
MODEL 2
REMARK VINA RESULT:      -8.2      5.926     11.720
REMARK SMILES CC1=C(CC(=O)OCCOCCOCCOCCOC(=O)c2ccc(-c3c4nc(c(-c5c(F)cccc5F)c5ccc([nH]5)c(-c5c(F)cccc5F)c5nc(c(-c6c(F)cccc6F)c6ccc3[nH]6)C=C5)C=C4)cc2)c2cc(F)ccc2/C1=C\c1cccc(OCc2ccccc2)c1
REMARK SMILES IDX 11 1 10 2 9 3 8 4 7 5 5 6 6 7 4 8 3 9 1 10 2 11 83 12 76 13
REMARK SMILES IDX 82 14 84 15 77 16 81 17 78 18 80 19 79 20 85 21 86 22 98 23
REMARK SMILES IDX 87 24 89 25 88 26 90 27 91 28 92 29 93 30 97 31 94 32 96 33
REMARK SMILES IDX 95 34 12 35 13 36 14 37 15 38 16 39 17 40 18 41 19 42 20 43
REMARK SMILES IDX 21 44 22 45 23 46 75 47 24 48 74 49 25 50 26 51 27 52 68 53
REMARK SMILES IDX 28 54 73 55 67 56 69 57 29 58 72 59 66 60 65 61 30 63 56 64
REMARK SMILES IDX 39 65 55 66 40 67 43 68 54 69 70 70 41 71 42 72 53 74 71 75
REMARK SMILES IDX 44 76 31 77 32 78 37 79 33 80 34 81 36 82 38 83 35 84 57 85
REMARK SMILES IDX 58 86 63 87 59 88 60 89 62 90 64 91 61 92 45 93 46 94 51 95
REMARK SMILES IDX 47 96 48 97 50 98 52 99 49 100
REMARK H PARENT 69 62 43 73
REMARK Flexibility Score: inf
ROOT
ATOM      1  C   UNL A   1      34.396  28.600  26.421  1.00  0.00     0.188 C 
ENDROOT
BRANCH   1   2
ATOM      2  O   UNL A   1      33.127  28.364  25.851  1.00  0.00    -0.376 OA
BRANCH   2   3
ATOM      3  C   UNL A   1      32.953  28.570  24.465  1.00  0.00     0.202 C 
BRANCH   3   4
ATOM      4  C   UNL A   1      31.845  29.491  23.920  1.00  0.00     0.261 C 
BRANCH   4   5
ATOM      5  O   UNL A   1      30.953  28.956  22.920  1.00  0.00    -0.463 OA
BRANCH   5   6
ATOM      6  C   UNL A   1      29.678  28.675  23.274  1.00  0.00     0.310 C 
ATOM      7  O   UNL A   1      28.812  29.534  23.412  1.00  0.00    -0.252 OA
BRANCH   6   8
ATOM      8  C   UNL A   1      29.378  27.175  23.478  1.00  0.00     0.159 C 
BRANCH   8   9
ATOM      9  C   UNL A   1      30.466  26.175  23.765  1.00  0.00    -0.025 C 
ATOM     10  C   UNL A   1      30.007  25.619  26.212  1.00  0.00     0.045 C 
ATOM     11  C   UNL A   1      30.746  25.519  24.919  1.00  0.00    -0.039 C 
ATOM     12  C   UNL A   1      31.907  24.625  24.731  1.00  0.00    -0.014 C 
ATOM     13  C   UNL A   1      31.400  25.653  22.737  1.00  0.00    -0.011 A 
ATOM     14  C   UNL A   1      32.313  24.751  23.320  1.00  0.00    -0.010 A 
ATOM     15  C   UNL A   1      32.462  23.850  25.685  1.00  0.00     0.017 C 
ATOM     16  C   UNL A   1      31.504  25.965  21.386  1.00  0.00     0.048 A 
ATOM     17  C   UNL A   1      33.347  24.194  22.575  1.00  0.00     0.012 A 
ATOM     18  C   UNL A   1      32.544  25.398  20.648  1.00  0.00     0.123 A 
ATOM     19  C   UNL A   1      33.463  24.524  21.227  1.00  0.00     0.040 A 
ATOM     20  F   UNL A   1      32.690  25.728  19.359  1.00  0.00    -0.207 F 
BRANCH  15  21
ATOM     21  C   UNL A   1      33.617  22.963  25.498  1.00  0.00    -0.021 A 
ATOM     22  C   UNL A   1      33.413  21.606  25.220  1.00  0.00     0.008 A 
ATOM     23  C   UNL A   1      34.921  23.449  25.676  1.00  0.00     0.054 A 
ATOM     24  C   UNL A   1      34.499  20.733  25.163  1.00  0.00     0.004 A 
ATOM     25  C   UNL A   1      36.011  22.577  25.605  1.00  0.00     0.120 A 
ATOM     26  C   UNL A   1      35.791  21.218  25.368  1.00  0.00     0.046 A 
BRANCH  25  27
ATOM     27  O   UNL A   1      37.333  22.918  25.725  1.00  0.00    -0.489 OA
BRANCH  27  28
ATOM     28  C   UNL A   1      38.313  21.875  25.774  1.00  0.00     0.265 C 
BRANCH  28  29
ATOM     29  C   UNL A   1      39.537  22.182  26.614  1.00  0.00    -0.011 A 
ATOM     30  C   UNL A   1      40.499  21.206  26.912  1.00  0.00     0.007 A 
ATOM     31  C   UNL A   1      39.717  23.478  27.117  1.00  0.00     0.007 A 
ATOM     32  C   UNL A   1      41.648  21.534  27.632  1.00  0.00     0.000 A 
ATOM     33  C   UNL A   1      40.859  23.802  27.854  1.00  0.00     0.000 A 
ATOM     34  C   UNL A   1      41.831  22.833  28.097  1.00  0.00     0.000 A 
ENDBRANCH  28  29
ENDBRANCH  27  28
ENDBRANCH  25  27
ENDBRANCH  15  21
ENDBRANCH   8   9
ENDBRANCH   6   8
ENDBRANCH   5   6
ENDBRANCH   4   5
ENDBRANCH   3   4
ENDBRANCH   2   3
ENDBRANCH   1   2
BRANCH   1  35
ATOM     35  C   UNL A   1      34.374  29.635  27.563  1.00  0.00     0.188 C 
BRANCH  35  36
ATOM     36  O   UNL A   1      34.062  31.009  27.377  1.00  0.00    -0.377 OA
BRANCH  36  37
ATOM     37  C   UNL A   1      34.375  31.927  28.400  1.00  0.00     0.188 C 
BRANCH  37  38
ATOM     38  C   UNL A   1      34.389  33.415  28.018  1.00  0.00     0.188 C 
BRANCH  38  39
ATOM     39  O   UNL A   1      33.279  34.156  28.512  1.00  0.00    -0.376 OA
BRANCH  39  40
ATOM     40  C   UNL A   1      33.554  35.466  28.997  1.00  0.00     0.202 C 
BRANCH  40  41
ATOM     41  C   UNL A   1      32.721  35.934  30.199  1.00  0.00     0.261 C 
BRANCH  41  42
ATOM     42  O   UNL A   1      32.898  35.193  31.410  1.00  0.00    -0.460 OA
BRANCH  42  43
ATOM     43  C   UNL A   1      33.334  35.851  32.501  1.00  0.00     0.338 C 
ATOM     44  O   UNL A   1      32.765  36.737  33.114  1.00  0.00    -0.246 OA
BRANCH  43  45
ATOM     45  C   UNL A   1      34.560  35.160  32.945  1.00  0.00     0.060 A 
ATOM     46  C   UNL A   1      34.519  34.289  34.037  1.00  0.00     0.016 A 
ATOM     47  C   UNL A   1      35.772  35.447  32.304  1.00  0.00     0.016 A 
ATOM     48  C   UNL A   1      35.693  33.682  34.475  1.00  0.00     0.010 A 
ATOM     49  C   UNL A   1      36.951  34.858  32.758  1.00  0.00     0.010 A 
ATOM     50  C   UNL A   1      36.911  33.948  33.826  1.00  0.00    -0.014 A 
BRANCH  50  51
ATOM     51  C   UNL A   1      38.079  33.080  34.092  1.00  0.00     0.031 A 
ATOM     52  C   UNL A   1      38.478  31.958  33.191  1.00  0.00     0.074 A 
ATOM     53  C   UNL A   1      38.765  33.333  35.222  1.00  0.00     0.049 A 
ATOM     54  N   UNL A   1      39.522  31.172  33.277  1.00  0.00    -0.248 NA
ATOM     55  C   UNL A   1      37.591  31.665  32.058  1.00  0.00     0.031 C 
ATOM     56  C   UNL A   1      38.422  34.377  36.192  1.00  0.00     0.029 A 
ATOM     57  N   UNL A   1      39.880  32.741  35.747  1.00  0.00    -0.354 N 
ATOM     58  C   UNL A   1      39.434  30.300  32.201  1.00  0.00     0.074 A 
ATOM     59  C   UNL A   1      38.206  30.628  31.501  1.00  0.00     0.031 C 
ATOM     60  C   UNL A   1      39.318  34.362  37.187  1.00  0.00     0.029 A 
ATOM     61  C   UNL A   1      40.282  33.300  36.935  1.00  0.00     0.049 A 
ATOM     62  H   UNL A   1      40.349  31.991  35.316  1.00  0.00     0.167 HD
ATOM     63  C   UNL A   1      40.305  29.328  31.835  1.00  0.00     0.037 A 
ATOM     64  C   UNL A   1      41.317  32.990  37.732  1.00  0.00     0.037 A 
ATOM     65  C   UNL A   1      41.506  28.995  32.568  1.00  0.00     0.049 A 
ATOM     66  C   UNL A   1      42.250  31.896  37.313  1.00  0.00     0.074 A 
ATOM     67  C   UNL A   1      42.485  28.067  32.254  1.00  0.00     0.029 A 
ATOM     68  N   UNL A   1      41.878  29.566  33.779  1.00  0.00    -0.354 N 
ATOM     69  N   UNL A   1      42.215  31.146  36.237  1.00  0.00    -0.248 NA
ATOM     70  C   UNL A   1      43.373  31.611  38.213  1.00  0.00     0.031 C 
ATOM     71  C   UNL A   1      43.415  28.036  33.300  1.00  0.00     0.029 A 
ATOM     72  C   UNL A   1      43.050  28.982  34.243  1.00  0.00     0.049 A 
ATOM     73  H   UNL A   1      41.383  30.279  34.241  1.00  0.00     0.167 HD
ATOM     74  C   UNL A   1      43.319  30.311  36.323  1.00  0.00     0.074 A 
ATOM     75  C   UNL A   1      44.019  30.670  37.541  1.00  0.00     0.031 C 
ATOM     76  C   UNL A   1      43.716  29.332  35.473  1.00  0.00     0.037 A 
BRANCH  63  77
ATOM     77  C   UNL A   1      39.990  28.544  30.592  1.00  0.00     0.057 A 
ATOM     78  C   UNL A   1      40.494  28.936  29.345  1.00  0.00     0.134 A 
ATOM     79  C   UNL A   1      39.151  27.421  30.620  1.00  0.00     0.134 A 
ATOM     80  F   UNL A   1      41.293  30.009  29.239  1.00  0.00    -0.206 F 
ATOM     81  C   UNL A   1      40.179  28.240  28.174  1.00  0.00     0.040 A 
ATOM     82  C   UNL A   1      38.850  26.702  29.460  1.00  0.00     0.040 A 
ATOM     83  F   UNL A   1      38.634  26.988  31.779  1.00  0.00    -0.206 F 
ATOM     84  C   UNL A   1      39.361  27.114  28.232  1.00  0.00     0.006 A 
ENDBRANCH  63  77
BRANCH  64  85
ATOM     85  C   UNL A   1      41.533  33.753  38.984  1.00  0.00     0.057 A 
ATOM     86  C   UNL A   1      42.306  34.920  39.002  1.00  0.00     0.134 A 
ATOM     87  C   UNL A   1      40.983  33.321  40.196  1.00  0.00     0.134 A 
ATOM     88  F   UNL A   1      42.874  35.374  37.875  1.00  0.00    -0.206 F 
ATOM     89  C   UNL A   1      42.529  35.628  40.182  1.00  0.00     0.040 A 
ATOM     90  C   UNL A   1      41.176  34.034  41.379  1.00  0.00     0.040 A 
ATOM     91  F   UNL A   1      40.227  32.214  40.237  1.00  0.00    -0.206 F 
ATOM     92  C   UNL A   1      41.956  35.190  41.374  1.00  0.00     0.006 A 
ENDBRANCH  64  85
BRANCH  76  93
ATOM     93  C   UNL A   1      44.969  28.592  35.849  1.00  0.00     0.057 A 
ATOM     94  C   UNL A   1      46.226  29.060  35.446  1.00  0.00     0.134 A 
ATOM     95  C   UNL A   1      44.933  27.432  36.634  1.00  0.00     0.134 A 
ATOM     96  F   UNL A   1      46.333  30.162  34.688  1.00  0.00    -0.206 F 
ATOM     97  C   UNL A   1      47.401  28.406  35.817  1.00  0.00     0.040 A 
ATOM     98  C   UNL A   1      46.103  26.787  37.039  1.00  0.00     0.040 A 
ATOM     99  F   UNL A   1      43.762  26.943  37.071  1.00  0.00    -0.206 F 
ATOM    100  C   UNL A   1      47.342  27.272  36.626  1.00  0.00     0.006 A 
ENDBRANCH  76  93
ENDBRANCH  50  51
ENDBRANCH  43  45
ENDBRANCH  42  43
ENDBRANCH  41  42
ENDBRANCH  40  41
ENDBRANCH  39  40
ENDBRANCH  38  39
ENDBRANCH  37  38
ENDBRANCH  36  37
ENDBRANCH  35  36
ENDBRANCH   1  35
TORSDOF 25
ENDMDL
MODEL 3
REMARK VINA RESULT:      -8.1      5.863     12.470
REMARK SMILES CC1=C(CC(=O)OCCOCCOCCOCCOC(=O)c2ccc(-c3c4nc(c(-c5c(F)cccc5F)c5ccc([nH]5)c(-c5c(F)cccc5F)c5nc(c(-c6c(F)cccc6F)c6ccc3[nH]6)C=C5)C=C4)cc2)c2cc(F)ccc2/C1=C\c1cccc(OCc2ccccc2)c1
REMARK SMILES IDX 11 1 10 2 9 3 8 4 7 5 5 6 6 7 4 8 3 9 1 10 2 11 83 12 76 13
REMARK SMILES IDX 82 14 84 15 77 16 81 17 78 18 80 19 79 20 85 21 86 22 98 23
REMARK SMILES IDX 87 24 89 25 88 26 90 27 91 28 92 29 93 30 97 31 94 32 96 33
REMARK SMILES IDX 95 34 12 35 13 36 14 37 15 38 16 39 17 40 18 41 19 42 20 43
REMARK SMILES IDX 21 44 22 45 23 46 75 47 24 48 74 49 25 50 26 51 27 52 68 53
REMARK SMILES IDX 28 54 73 55 67 56 69 57 29 58 72 59 66 60 65 61 30 63 56 64
REMARK SMILES IDX 39 65 55 66 40 67 43 68 54 69 70 70 41 71 42 72 53 74 71 75
REMARK SMILES IDX 44 76 31 77 32 78 37 79 33 80 34 81 36 82 38 83 35 84 57 85
REMARK SMILES IDX 58 86 63 87 59 88 60 89 62 90 64 91 61 92 45 93 46 94 51 95
REMARK SMILES IDX 47 96 48 97 50 98 52 99 49 100
REMARK H PARENT 69 62 43 73
REMARK Flexibility Score: inf
ROOT
ATOM      1  C   UNL A   1      34.369  28.820  26.518  1.00  0.00     0.188 C 
ENDROOT
BRANCH   1   2
ATOM      2  O   UNL A   1      33.163  28.474  25.873  1.00  0.00    -0.376 OA
BRANCH   2   3
ATOM      3  C   UNL A   1      33.035  28.720  24.488  1.00  0.00     0.202 C 
BRANCH   3   4
ATOM      4  C   UNL A   1      31.932  29.639  23.930  1.00  0.00     0.261 C 
BRANCH   4   5
ATOM      5  O   UNL A   1      31.032  29.093  22.944  1.00  0.00    -0.463 OA
BRANCH   5   6
ATOM      6  C   UNL A   1      29.765  28.797  23.316  1.00  0.00     0.310 C 
ATOM      7  O   UNL A   1      28.894  29.647  23.474  1.00  0.00    -0.252 OA
BRANCH   6   8
ATOM      8  C   UNL A   1      29.483  27.293  23.513  1.00  0.00     0.159 C 
BRANCH   8   9
ATOM      9  C   UNL A   1      30.581  26.307  23.813  1.00  0.00    -0.025 C 
ATOM     10  C   UNL A   1      30.225  25.900  26.306  1.00  0.00     0.045 C 
ATOM     11  C   UNL A   1      30.908  25.720  24.992  1.00  0.00    -0.039 C 
ATOM     12  C   UNL A   1      32.059  24.811  24.809  1.00  0.00    -0.014 C 
ATOM     13  C   UNL A   1      31.470  25.721  22.780  1.00  0.00    -0.011 A 
ATOM     14  C   UNL A   1      32.404  24.852  23.377  1.00  0.00    -0.010 A 
ATOM     15  C   UNL A   1      32.652  24.093  25.783  1.00  0.00     0.017 C 
ATOM     16  C   UNL A   1      31.517  25.952  21.410  1.00  0.00     0.048 A 
ATOM     17  C   UNL A   1      33.406  24.246  22.624  1.00  0.00     0.012 A 
ATOM     18  C   UNL A   1      32.525  25.337  20.664  1.00  0.00     0.123 A 
ATOM     19  C   UNL A   1      33.466  24.495  21.255  1.00  0.00     0.040 A 
ATOM     20  F   UNL A   1      32.616  25.589  19.352  1.00  0.00    -0.207 F 
BRANCH  15  21
ATOM     21  C   UNL A   1      33.797  23.191  25.602  1.00  0.00    -0.021 A 
ATOM     22  C   UNL A   1      33.579  21.821  25.414  1.00  0.00     0.008 A 
ATOM     23  C   UNL A   1      35.108  23.681  25.696  1.00  0.00     0.054 A 
ATOM     24  C   UNL A   1      34.660  20.942  25.364  1.00  0.00     0.004 A 
ATOM     25  C   UNL A   1      36.193  22.802  25.632  1.00  0.00     0.120 A 
ATOM     26  C   UNL A   1      35.960  21.432  25.485  1.00  0.00     0.046 A 
BRANCH  25  27
ATOM     27  O   UNL A   1      37.518  23.144  25.676  1.00  0.00    -0.489 OA
BRANCH  27  28
ATOM     28  C   UNL A   1      38.496  22.103  25.780  1.00  0.00     0.265 C 
BRANCH  28  29
ATOM     29  C   UNL A   1      39.677  22.418  26.678  1.00  0.00    -0.011 A 
ATOM     30  C   UNL A   1      40.474  21.410  27.241  1.00  0.00     0.007 A 
ATOM     31  C   UNL A   1      39.984  23.756  26.965  1.00  0.00     0.007 A 
ATOM     32  C   UNL A   1      41.592  21.732  28.010  1.00  0.00     0.000 A 
ATOM     33  C   UNL A   1      41.094  24.077  27.750  1.00  0.00     0.000 A 
ATOM     34  C   UNL A   1      41.906  23.065  28.259  1.00  0.00     0.000 A 
ENDBRANCH  28  29
ENDBRANCH  27  28
ENDBRANCH  25  27
ENDBRANCH  15  21
ENDBRANCH   8   9
ENDBRANCH   6   8
ENDBRANCH   5   6
ENDBRANCH   4   5
ENDBRANCH   3   4
ENDBRANCH   2   3
ENDBRANCH   1   2
BRANCH   1  35
ATOM     35  C   UNL A   1      34.199  29.912  27.593  1.00  0.00     0.188 C 
BRANCH  35  36
ATOM     36  O   UNL A   1      33.664  31.202  27.330  1.00  0.00    -0.377 OA
BRANCH  36  37
ATOM     37  C   UNL A   1      34.038  32.281  28.156  1.00  0.00     0.188 C 
BRANCH  37  38
ATOM     38  C   UNL A   1      33.744  33.694  27.630  1.00  0.00     0.188 C 
BRANCH  38  39
ATOM     39  O   UNL A   1      32.797  34.421  28.404  1.00  0.00    -0.376 OA
BRANCH  39  40
ATOM     40  C   UNL A   1      33.302  35.504  29.177  1.00  0.00     0.202 C 
BRANCH  40  41
ATOM     41  C   UNL A   1      32.546  35.824  30.474  1.00  0.00     0.261 C 
BRANCH  41  42
ATOM     42  O   UNL A   1      32.973  35.111  31.639  1.00  0.00    -0.460 OA
BRANCH  42  43
ATOM     43  C   UNL A   1      33.449  35.820  32.680  1.00  0.00     0.338 C 
ATOM     44  O   UNL A   1      32.891  36.718  33.287  1.00  0.00    -0.246 OA
BRANCH  43  45
ATOM     45  C   UNL A   1      34.709  35.171  33.088  1.00  0.00     0.060 A 
ATOM     46  C   UNL A   1      34.779  34.468  34.295  1.00  0.00     0.016 A 
ATOM     47  C   UNL A   1      35.846  35.331  32.287  1.00  0.00     0.016 A 
ATOM     48  C   UNL A   1      35.989  33.903  34.690  1.00  0.00     0.010 A 
ATOM     49  C   UNL A   1      37.063  34.785  32.695  1.00  0.00     0.010 A 
ATOM     50  C   UNL A   1      37.131  34.041  33.883  1.00  0.00    -0.014 A 
BRANCH  50  51
ATOM     51  C   UNL A   1      38.314  33.193  34.148  1.00  0.00     0.031 A 
ATOM     52  C   UNL A   1      39.217  33.404  35.319  1.00  0.00     0.074 A 
ATOM     53  C   UNL A   1      38.563  32.220  33.253  1.00  0.00     0.049 A 
ATOM     54  N   UNL A   1      40.242  32.684  35.701  1.00  0.00    -0.248 NA
ATOM     55  C   UNL A   1      38.950  34.575  36.165  1.00  0.00     0.031 C 
ATOM     56  C   UNL A   1      37.766  31.968  32.048  1.00  0.00     0.029 A 
ATOM     57  N   UNL A   1      39.546  31.270  33.209  1.00  0.00    -0.354 N 
ATOM     58  C   UNL A   1      40.738  33.299  36.841  1.00  0.00     0.074 A 
ATOM     59  C   UNL A   1      39.923  34.480  37.063  1.00  0.00     0.031 C 
ATOM     60  C   UNL A   1      38.283  30.922  31.392  1.00  0.00     0.029 A 
ATOM     61  C   UNL A   1      39.453  30.445  32.117  1.00  0.00     0.049 A 
ATOM     62  H   UNL A   1      40.249  31.186  33.893  1.00  0.00     0.167 HD
ATOM     63  C   UNL A   1      41.770  32.904  37.627  1.00  0.00     0.037 A 
ATOM     64  C   UNL A   1      40.227  29.412  31.742  1.00  0.00     0.037 A 
ATOM     65  C   UNL A   1      42.590  31.743  37.367  1.00  0.00     0.049 A 
ATOM     66  C   UNL A   1      41.374  29.013  32.618  1.00  0.00     0.074 A 
ATOM     67  C   UNL A   1      43.623  31.223  38.129  1.00  0.00     0.029 A 
ATOM     68  N   UNL A   1      42.485  30.935  36.241  1.00  0.00    -0.354 N 
ATOM     69  N   UNL A   1      41.769  29.540  33.752  1.00  0.00    -0.248 NA
ATOM     70  C   UNL A   1      42.174  27.868  32.170  1.00  0.00     0.031 C 
ATOM     71  C   UNL A   1      44.178  30.138  37.438  1.00  0.00     0.029 A 
ATOM     72  C   UNL A   1      43.458  29.945  36.271  1.00  0.00     0.049 A 
ATOM     73  H   UNL A   1      41.818  31.048  35.527  1.00  0.00     0.167 HD
ATOM     74  C   UNL A   1      42.857  28.781  34.161  1.00  0.00     0.074 A 
ATOM     75  C   UNL A   1      43.036  27.741  33.168  1.00  0.00     0.031 C 
ATOM     76  C   UNL A   1      43.640  28.935  35.258  1.00  0.00     0.037 A 
BRANCH  63  77
ATOM     77  C   UNL A   1      42.079  33.738  38.839  1.00  0.00     0.057 A 
ATOM     78  C   UNL A   1      43.074  34.724  38.801  1.00  0.00     0.134 A 
ATOM     79  C   UNL A   1      41.420  33.539  40.061  1.00  0.00     0.134 A 
ATOM     80  F   UNL A   1      43.755  34.962  37.670  1.00  0.00    -0.206 F 
ATOM     81  C   UNL A   1      43.399  35.482  39.929  1.00  0.00     0.040 A 
ATOM     82  C   UNL A   1      41.718  34.308  41.188  1.00  0.00     0.040 A 
ATOM     83  F   UNL A   1      40.455  32.614  40.169  1.00  0.00    -0.206 F 
ATOM     84  C   UNL A   1      42.713  35.280  41.125  1.00  0.00     0.006 A 
ENDBRANCH  63  77
BRANCH  64  85
ATOM     85  C   UNL A   1      39.913  28.675  30.495  1.00  0.00     0.057 A 
ATOM     86  C   UNL A   1      39.104  27.533  30.509  1.00  0.00     0.134 A 
ATOM     87  C   UNL A   1      40.431  29.089  29.263  1.00  0.00     0.134 A 
ATOM     88  F   UNL A   1      38.592  27.078  31.662  1.00  0.00    -0.206 F 
ATOM     89  C   UNL A   1      38.824  26.824  29.341  1.00  0.00     0.040 A 
ATOM     90  C   UNL A   1      40.137  28.405  28.083  1.00  0.00     0.040 A 
ATOM     91  F   UNL A   1      41.205  30.181  29.188  1.00  0.00    -0.206 F 
ATOM     92  C   UNL A   1      39.335  27.265  28.122  1.00  0.00     0.006 A 
ENDBRANCH  64  85
BRANCH  76  93
ATOM     93  C   UNL A   1      44.755  27.942  35.423  1.00  0.00     0.057 A 
ATOM     94  C   UNL A   1      44.543  26.728  36.087  1.00  0.00     0.134 A 
ATOM     95  C   UNL A   1      46.034  28.176  34.899  1.00  0.00     0.134 A 
ATOM     96  F   UNL A   1      43.344  26.442  36.617  1.00  0.00    -0.206 F 
ATOM     97  C   UNL A   1      45.557  25.779  36.216  1.00  0.00     0.040 A 
ATOM     98  C   UNL A   1      47.049  27.221  34.994  1.00  0.00     0.040 A 
ATOM     99  F   UNL A   1      46.299  29.310  34.233  1.00  0.00    -0.206 F 
ATOM    100  C   UNL A   1      46.812  26.020  35.658  1.00  0.00     0.006 A 
ENDBRANCH  76  93
ENDBRANCH  50  51
ENDBRANCH  43  45
ENDBRANCH  42  43
ENDBRANCH  41  42
ENDBRANCH  40  41
ENDBRANCH  39  40
ENDBRANCH  38  39
ENDBRANCH  37  38
ENDBRANCH  36  37
ENDBRANCH  35  36
ENDBRANCH   1  35
TORSDOF 25
ENDMDL
