MODEL 1
REMARK VINA RESULT:     -12.6      0.000      0.000
REMARK SMILES Cc1ccc(S(=O)(=O)N2c3ccc(C(=O)OCCOCCOCCOCCOC(=O)c4ccc(-c5c6nc(c(-c7c(F)cccc7F)c7ccc([nH]7)c(-c7c(F)cccc7F)c7nc(c(-c8c(F)cccc8F)c8ccc5[nH]8)C=C7)C=C6)cc4)cc3C[C@H]2C)cc1
REMARK SMILES IDX 22 1 21 2 20 3 19 4 18 5 17 6 16 7 14 8 15 9 13 10 9 11
REMARK SMILES IDX 10 12 88 13 11 14 86 15 87 16 89 17 12 18 85 19 6 20 7 21
REMARK SMILES IDX 8 22 5 23 1 24 2 25 3 26 91 27 4 28 90 29 23 30 24 31 25 32
REMARK SMILES IDX 26 33 27 34 28 35 29 36 30 37 31 38 32 39 84 40 33 41 83 42
REMARK SMILES IDX 34 43 35 44 36 45 77 46 37 47 82 48 76 49 78 50 38 51 81 52
REMARK SMILES IDX 75 53 74 54 39 56 65 57 48 58 64 59 49 60 52 61 63 62 79 63
REMARK SMILES IDX 50 64 51 65 62 67 80 68 53 69 40 70 41 71 46 72 42 73 43 74
REMARK SMILES IDX 45 75 47 76 44 77 66 78 67 79 72 80 68 81 69 82 71 83 73 84
REMARK SMILES IDX 70 85 54 86 55 87 60 88 56 89 57 90 59 91 61 92 58 93
REMARK H PARENT 78 55 52 66
REMARK Flexibility Score: inf
ROOT
ATOM      1  O   UNL A   1      41.378  18.955  25.417  1.00  0.00    -0.377 OA
ENDROOT
BRANCH   1   2
ATOM      2  C   UNL A   1      40.313  19.633  26.121  1.00  0.00     0.188 C 
BRANCH   2   3
ATOM      3  C   UNL A   1      38.912  19.964  25.283  1.00  0.00     0.188 C 
BRANCH   3   4
ATOM      4  O   UNL A   1      37.672  21.080  25.586  1.00  0.00    -0.376 OA
BRANCH   4   5
ATOM      5  C   UNL A   1      35.942  21.076  25.568  1.00  0.00     0.202 C 
BRANCH   5   6
ATOM      6  C   UNL A   1      34.716  19.984  24.619  1.00  0.00     0.261 C 
BRANCH   6   7
ATOM      7  O   UNL A   1      33.090  20.527  23.957  1.00  0.00    -0.460 OA
BRANCH   7   8
ATOM      8  C   UNL A   1      32.310  21.568  23.163  1.00  0.00     0.338 C 
ATOM      9  O   UNL A   1      31.840  21.342  22.040  1.00  0.00    -0.246 OA
BRANCH   8  10
ATOM     10  C   UNL A   1      31.935  23.107  23.536  1.00  0.00     0.060 A 
ATOM     11  N   UNL A   1      31.700  27.183  24.852  1.00  0.00    -0.263 N 
ATOM     12  C   UNL A   1      31.657  25.812  24.432  1.00  0.00     0.055 A 
ATOM     13  C   UNL A   1      32.564  27.815  23.797  1.00  0.00     0.101 C 
ATOM     14  C   UNL A   1      30.668  24.937  24.710  1.00  0.00     0.028 A 
ATOM     15  C   UNL A   1      32.689  25.449  23.582  1.00  0.00    -0.021 A 
ATOM     16  C   UNL A   1      33.443  26.679  23.192  1.00  0.00     0.063 C 
ATOM     17  C   UNL A   1      31.564  28.397  22.773  1.00  0.00     0.032 C 
ATOM     18  C   UNL A   1      30.777  23.677  24.118  1.00  0.00     0.018 A 
ATOM     19  C   UNL A   1      32.888  24.105  23.208  1.00  0.00     0.021 A 
BRANCH  11  20
ATOM     20  S   UNL A   1      32.202  27.272  26.499  1.00  0.00     0.264 S 
ATOM     21  O   UNL A   1      33.209  26.250  26.706  1.00  0.00    -0.201 OA
ATOM     22  O   UNL A   1      31.007  27.320  27.322  1.00  0.00    -0.201 OA
BRANCH  20  23
ATOM     23  C   UNL A   1      33.032  28.820  26.787  1.00  0.00     0.088 A 
ATOM     24  C   UNL A   1      34.606  32.568  28.184  1.00  0.00     0.044 C 
ATOM     25  C   UNL A   1      34.077  31.277  27.636  1.00  0.00    -0.051 A 
ATOM     26  C   UNL A   1      32.735  31.180  27.253  1.00  0.00     0.005 A 
ATOM     27  C   UNL A   1      34.909  30.158  27.493  1.00  0.00     0.005 A 
ATOM     28  C   UNL A   1      32.212  29.956  26.841  1.00  0.00     0.022 A 
ATOM     29  C   UNL A   1      34.394  28.937  27.048  1.00  0.00     0.022 A 
ENDBRANCH  20  23
ENDBRANCH  11  20
ENDBRANCH   8  10
ENDBRANCH   7   8
ENDBRANCH   6   7
ENDBRANCH   5   6
ENDBRANCH   4   5
ENDBRANCH   3   4
ENDBRANCH   2   3
ENDBRANCH   1   2
BRANCH   1  30
ATOM     30  C   UNL A   1      42.700  19.090  25.967  1.00  0.00     0.188 C 
BRANCH  30  31
ATOM     31  C   UNL A   1      43.147  20.537  25.826  1.00  0.00     0.188 C 
BRANCH  31  32
ATOM     32  O   UNL A   1      43.925  20.572  24.639  1.00  0.00    -0.376 OA
BRANCH  32  33
ATOM     33  C   UNL A   1      44.622  21.778  24.387  1.00  0.00     0.202 C 
BRANCH  33  34
ATOM     34  C   UNL A   1      44.412  22.737  25.557  1.00  0.00     0.261 C 
BRANCH  34  35
ATOM     35  O   UNL A   1      45.655  23.434  25.819  1.00  0.00    -0.460 OA
BRANCH  35  36
ATOM     36  C   UNL A   1      45.735  24.004  27.055  1.00  0.00     0.338 C 
ATOM     37  O   UNL A   1      45.404  23.465  28.106  1.00  0.00    -0.246 OA
BRANCH  36  38
ATOM     38  C   UNL A   1      45.959  25.468  26.926  1.00  0.00     0.060 A 
ATOM     39  C   UNL A   1      45.920  26.300  28.029  1.00  0.00     0.016 A 
ATOM     40  C   UNL A   1      45.960  26.104  25.720  1.00  0.00     0.016 A 
ATOM     41  C   UNL A   1      45.465  27.647  27.908  1.00  0.00     0.010 A 
ATOM     42  C   UNL A   1      45.526  27.450  25.675  1.00  0.00     0.010 A 
ATOM     43  C   UNL A   1      44.895  28.197  26.750  1.00  0.00    -0.014 A 
BRANCH  43  44
ATOM     44  C   UNL A   1      43.661  29.567  26.782  1.00  0.00     0.031 A 
ATOM     45  C   UNL A   1      44.042  31.435  27.307  1.00  0.00     0.074 A 
ATOM     46  C   UNL A   1      42.346  28.948  26.706  1.00  0.00     0.049 A 
ATOM     47  N   UNL A   1      43.783  31.879  28.561  1.00  0.00    -0.248 NA
ATOM     48  C   UNL A   1      44.955  32.665  26.911  1.00  0.00     0.031 C 
ATOM     49  C   UNL A   1      40.920  29.375  27.002  1.00  0.00     0.029 A 
ATOM     50  N   UNL A   1      41.998  27.604  26.454  1.00  0.00    -0.354 N 
ATOM     51  C   UNL A   1      44.115  33.097  28.991  1.00  0.00     0.074 A 
ATOM     52  C   UNL A   1      45.067  33.475  28.004  1.00  0.00     0.031 C 
ATOM     53  C   UNL A   1      39.977  28.452  26.876  1.00  0.00     0.029 A 
ATOM     54  C   UNL A   1      40.705  27.262  26.894  1.00  0.00     0.049 A 
ATOM     55  H   UNL A   1      42.602  26.964  26.011  1.00  0.00     0.167 HD
ATOM     56  C   UNL A   1      43.499  33.641  30.090  1.00  0.00     0.037 A 
ATOM     57  C   UNL A   1      40.462  26.458  27.959  1.00  0.00     0.037 A 
ATOM     58  C   UNL A   1      42.159  33.072  30.431  1.00  0.00     0.049 A 
ATOM     59  C   UNL A   1      40.117  27.237  29.257  1.00  0.00     0.074 A 
ATOM     60  C   UNL A   1      40.909  33.406  29.919  1.00  0.00     0.029 A 
ATOM     61  N   UNL A   1      41.918  31.892  31.159  1.00  0.00    -0.354 N 
ATOM     62  N   UNL A   1      40.620  28.405  29.637  1.00  0.00    -0.248 NA
ATOM     63  C   UNL A   1      38.974  26.847  30.080  1.00  0.00     0.031 C 
ATOM     64  C   UNL A   1      40.050  32.275  30.032  1.00  0.00     0.029 A 
ATOM     65  C   UNL A   1      40.682  31.302  30.798  1.00  0.00     0.049 A 
ATOM     66  H   UNL A   1      42.530  31.524  31.836  1.00  0.00     0.167 HD
ATOM     67  C   UNL A   1      39.910  28.906  30.722  1.00  0.00     0.074 A 
ATOM     68  C   UNL A   1      38.878  27.886  30.928  1.00  0.00     0.031 C 
ATOM     69  C   UNL A   1      40.095  30.093  31.419  1.00  0.00     0.037 A 
BRANCH  56  70
ATOM     70  C   UNL A   1      44.006  34.990  30.474  1.00  0.00     0.057 A 
ATOM     71  C   UNL A   1      44.850  35.205  31.570  1.00  0.00     0.134 A 
ATOM     72  C   UNL A   1      43.490  36.136  29.844  1.00  0.00     0.134 A 
ATOM     73  F   UNL A   1      45.419  34.185  32.223  1.00  0.00    -0.206 F 
ATOM     74  C   UNL A   1      45.087  36.490  32.074  1.00  0.00     0.040 A 
ATOM     75  C   UNL A   1      43.712  37.423  30.345  1.00  0.00     0.040 A 
ATOM     76  F   UNL A   1      42.702  36.020  28.763  1.00  0.00    -0.206 F 
ATOM     77  C   UNL A   1      44.495  37.602  31.480  1.00  0.00     0.006 A 
ENDBRANCH  56  70
BRANCH  57  78
ATOM     78  C   UNL A   1      40.936  25.099  27.615  1.00  0.00     0.057 A 
ATOM     79  C   UNL A   1      42.078  24.644  28.335  1.00  0.00     0.134 A 
ATOM     80  C   UNL A   1      40.095  24.128  27.092  1.00  0.00     0.134 A 
ATOM     81  F   UNL A   1      42.946  25.531  28.857  1.00  0.00    -0.206 F 
ATOM     82  C   UNL A   1      42.228  23.317  28.730  1.00  0.00     0.040 A 
ATOM     83  C   UNL A   1      40.279  22.777  27.426  1.00  0.00     0.040 A 
ATOM     84  F   UNL A   1      38.994  24.476  26.414  1.00  0.00    -0.206 F 
ATOM     85  C   UNL A   1      41.303  22.380  28.296  1.00  0.00     0.006 A 
ENDBRANCH  57  78
BRANCH  69  86
ATOM     86  C   UNL A   1      39.509  30.288  32.816  1.00  0.00     0.057 A 
ATOM     87  C   UNL A   1      40.243  30.035  33.986  1.00  0.00     0.134 A 
ATOM     88  C   UNL A   1      38.261  30.920  33.027  1.00  0.00     0.134 A 
ATOM     89  F   UNL A   1      41.483  29.528  33.937  1.00  0.00    -0.206 F 
ATOM     90  C   UNL A   1      39.757  30.335  35.264  1.00  0.00     0.040 A 
ATOM     91  C   UNL A   1      37.794  31.282  34.294  1.00  0.00     0.040 A 
ATOM     92  F   UNL A   1      37.441  31.242  32.019  1.00  0.00    -0.206 F 
ATOM     93  C   UNL A   1      38.538  30.980  35.421  1.00  0.00     0.006 A 
ENDBRANCH  69  86
ENDBRANCH  43  44
ENDBRANCH  36  38
ENDBRANCH  35  36
ENDBRANCH  34  35
ENDBRANCH  33  34
ENDBRANCH  32  33
ENDBRANCH  31  32
ENDBRANCH  30  31
ENDBRANCH   1  30
TORSDOF 22
ENDMDL
MODEL 2
REMARK VINA RESULT:     -12.1      2.180      5.572
REMARK SMILES Cc1ccc(S(=O)(=O)N2c3ccc(C(=O)OCCOCCOCCOCCOC(=O)c4ccc(-c5c6nc(c(-c7c(F)cccc7F)c7ccc([nH]7)c(-c7c(F)cccc7F)c7nc(c(-c8c(F)cccc8F)c8ccc5[nH]8)C=C7)C=C6)cc4)cc3C[C@H]2C)cc1
REMARK SMILES IDX 22 1 21 2 20 3 19 4 18 5 17 6 16 7 14 8 15 9 13 10 9 11
REMARK SMILES IDX 10 12 88 13 11 14 86 15 87 16 89 17 12 18 85 19 6 20 7 21
REMARK SMILES IDX 8 22 5 23 1 24 2 25 3 26 91 27 4 28 90 29 23 30 24 31 25 32
REMARK SMILES IDX 26 33 27 34 28 35 29 36 30 37 31 38 32 39 84 40 33 41 83 42
REMARK SMILES IDX 34 43 35 44 36 45 77 46 37 47 82 48 76 49 78 50 38 51 81 52
REMARK SMILES IDX 75 53 74 54 39 56 65 57 48 58 64 59 49 60 52 61 63 62 79 63
REMARK SMILES IDX 50 64 51 65 62 67 80 68 53 69 40 70 41 71 46 72 42 73 43 74
REMARK SMILES IDX 45 75 47 76 44 77 66 78 67 79 72 80 68 81 69 82 71 83 73 84
REMARK SMILES IDX 70 85 54 86 55 87 60 88 56 89 57 90 59 91 61 92 58 93
REMARK H PARENT 78 55 52 66
REMARK Flexibility Score: inf
ROOT
ATOM      1  O   UNL A   1      40.315  21.046  25.753  1.00  0.00    -0.377 OA
ENDROOT
BRANCH   1   2
ATOM      2  C   UNL A   1      39.270  21.972  26.129  1.00  0.00     0.188 C 
BRANCH   2   3
ATOM      3  C   UNL A   1      37.757  21.753  25.467  1.00  0.00     0.188 C 
BRANCH   3   4
ATOM      4  O   UNL A   1      36.212  21.997  26.118  1.00  0.00    -0.376 OA
BRANCH   4   5
ATOM      5  C   UNL A   1      34.725  21.116  26.199  1.00  0.00     0.202 C 
BRANCH   5   6
ATOM      6  C   UNL A   1      33.975  19.842  25.012  1.00  0.00     0.261 C 
BRANCH   6   7
ATOM      7  O   UNL A   1      33.026  20.229  23.487  1.00  0.00    -0.460 OA
BRANCH   7   8
ATOM      8  C   UNL A   1      32.235  21.264  22.694  1.00  0.00     0.338 C 
ATOM      9  O   UNL A   1      31.773  21.036  21.568  1.00  0.00    -0.246 OA
BRANCH   8  10
ATOM     10  C   UNL A   1      31.839  22.796  23.072  1.00  0.00     0.060 A 
ATOM     11  N   UNL A   1      31.531  26.851  24.438  1.00  0.00    -0.263 N 
ATOM     12  C   UNL A   1      31.512  25.486  23.995  1.00  0.00     0.055 A 
ATOM     13  C   UNL A   1      32.443  27.500  23.435  1.00  0.00     0.101 C 
ATOM     14  C   UNL A   1      30.513  24.605  24.213  1.00  0.00     0.028 A 
ATOM     15  C   UNL A   1      32.584  25.138  23.190  1.00  0.00    -0.021 A 
ATOM     16  C   UNL A   1      33.352  26.375  22.855  1.00  0.00     0.063 C 
ATOM     17  C   UNL A   1      31.491  28.096  22.373  1.00  0.00     0.032 C 
ATOM     18  C   UNL A   1      30.654  23.354  23.607  1.00  0.00     0.018 A 
ATOM     19  C   UNL A   1      32.804  23.800  22.805  1.00  0.00     0.021 A 
BRANCH  11  20
ATOM     20  S   UNL A   1      31.955  26.916  26.108  1.00  0.00     0.264 S 
ATOM     21  O   UNL A   1      32.978  25.916  26.339  1.00  0.00    -0.201 OA
ATOM     22  O   UNL A   1      30.722  26.915  26.875  1.00  0.00    -0.201 OA
BRANCH  20  23
ATOM     23  C   UNL A   1      32.730  28.477  26.466  1.00  0.00     0.088 A 
ATOM     24  C   UNL A   1      34.116  32.246  28.000  1.00  0.00     0.044 C 
ATOM     25  C   UNL A   1      33.656  30.948  27.406  1.00  0.00    -0.051 A 
ATOM     26  C   UNL A   1      32.350  30.827  26.922  1.00  0.00     0.005 A 
ATOM     27  C   UNL A   1      34.519  29.847  27.322  1.00  0.00     0.005 A 
ATOM     28  C   UNL A   1      31.884  29.596  26.464  1.00  0.00     0.022 A 
ATOM     29  C   UNL A   1      34.064  28.619  26.831  1.00  0.00     0.022 A 
ENDBRANCH  20  23
ENDBRANCH  11  20
ENDBRANCH   8  10
ENDBRANCH   7   8
ENDBRANCH   6   7
ENDBRANCH   5   6
ENDBRANCH   4   5
ENDBRANCH   3   4
ENDBRANCH   2   3
ENDBRANCH   1   2
BRANCH   1  30
ATOM     30  C   UNL A   1      41.235  20.660  26.787  1.00  0.00     0.188 C 
BRANCH  30  31
ATOM     31  C   UNL A   1      42.390  21.649  26.816  1.00  0.00     0.188 C 
BRANCH  31  32
ATOM     32  O   UNL A   1      42.666  21.938  25.455  1.00  0.00    -0.376 OA
BRANCH  32  33
ATOM     33  C   UNL A   1      43.391  23.128  25.205  1.00  0.00     0.202 C 
BRANCH  33  34
ATOM     34  C   UNL A   1      42.414  24.290  25.043  1.00  0.00     0.261 C 
BRANCH  34  35
ATOM     35  O   UNL A   1      43.128  25.534  25.246  1.00  0.00    -0.460 OA
BRANCH  35  36
ATOM     36  C   UNL A   1      42.330  26.632  25.375  1.00  0.00     0.338 C 
ATOM     37  O   UNL A   1      42.342  27.605  24.629  1.00  0.00    -0.246 OA
BRANCH  36  38
ATOM     38  C   UNL A   1      41.690  26.640  26.716  1.00  0.00     0.060 A 
ATOM     39  C   UNL A   1      40.608  27.455  26.990  1.00  0.00     0.016 A 
ATOM     40  C   UNL A   1      42.268  26.058  27.805  1.00  0.00     0.016 A 
ATOM     41  C   UNL A   1      40.412  27.989  28.298  1.00  0.00     0.010 A 
ATOM     42  C   UNL A   1      42.007  26.619  29.078  1.00  0.00     0.010 A 
ATOM     43  C   UNL A   1      41.329  27.875  29.353  1.00  0.00    -0.014 A 
BRANCH  43  44
ATOM     44  C   UNL A   1      41.479  29.123  30.704  1.00  0.00     0.031 A 
ATOM     45  C   UNL A   1      39.964  30.031  31.592  1.00  0.00     0.074 A 
ATOM     46  C   UNL A   1      42.869  29.552  30.724  1.00  0.00     0.049 A 
ATOM     47  N   UNL A   1      39.566  31.269  31.210  1.00  0.00    -0.248 NA
ATOM     48  C   UNL A   1      38.659  29.719  32.429  1.00  0.00     0.031 C 
ATOM     49  C   UNL A   1      43.640  30.728  31.296  1.00  0.00     0.029 A 
ATOM     50  N   UNL A   1      43.983  29.030  30.030  1.00  0.00    -0.354 N 
ATOM     51  C   UNL A   1      38.490  31.880  31.708  1.00  0.00     0.074 A 
ATOM     52  C   UNL A   1      37.808  30.777  32.292  1.00  0.00     0.031 C 
ATOM     53  C   UNL A   1      44.933  30.795  31.012  1.00  0.00     0.029 A 
ATOM     54  C   UNL A   1      45.055  29.936  29.920  1.00  0.00     0.049 A 
ATOM     55  H   UNL A   1      44.007  28.120  29.658  1.00  0.00     0.167 HD
ATOM     56  C   UNL A   1      38.351  33.241  31.606  1.00  0.00     0.037 A 
ATOM     57  C   UNL A   1      45.417  30.534  28.757  1.00  0.00     0.037 A 
ATOM     58  C   UNL A   1      39.618  34.010  31.411  1.00  0.00     0.049 A 
ATOM     59  C   UNL A   1      44.879  31.984  28.614  1.00  0.00     0.074 A 
ATOM     60  C   UNL A   1      40.527  34.460  32.363  1.00  0.00     0.029 A 
ATOM     61  N   UNL A   1      40.287  34.213  30.189  1.00  0.00    -0.354 N 
ATOM     62  N   UNL A   1      43.714  32.444  29.054  1.00  0.00    -0.248 NA
ATOM     63  C   UNL A   1      45.760  33.067  28.184  1.00  0.00     0.031 C 
ATOM     64  C   UNL A   1      41.811  34.574  31.756  1.00  0.00     0.029 A 
ATOM     65  C   UNL A   1      41.678  34.401  30.382  1.00  0.00     0.049 A 
ATOM     66  H   UNL A   1      39.844  34.224  29.310  1.00  0.00     0.167 HD
ATOM     67  C   UNL A   1      43.676  33.830  28.960  1.00  0.00     0.074 A 
ATOM     68  C   UNL A   1      45.003  34.152  28.428  1.00  0.00     0.031 C 
ATOM     69  C   UNL A   1      42.659  34.706  29.316  1.00  0.00     0.037 A 
BRANCH  56  70
ATOM     70  C   UNL A   1      37.077  33.773  32.170  1.00  0.00     0.057 A 
ATOM     71  C   UNL A   1      36.878  33.985  33.539  1.00  0.00     0.134 A 
ATOM     72  C   UNL A   1      35.947  33.903  31.344  1.00  0.00     0.134 A 
ATOM     73  F   UNL A   1      37.892  33.916  34.410  1.00  0.00    -0.206 F 
ATOM     74  C   UNL A   1      35.603  34.217  34.070  1.00  0.00     0.040 A 
ATOM     75  C   UNL A   1      34.667  34.123  31.863  1.00  0.00     0.040 A 
ATOM     76  F   UNL A   1      36.057  33.751  30.014  1.00  0.00    -0.206 F 
ATOM     77  C   UNL A   1      34.488  34.257  33.236  1.00  0.00     0.006 A 
ENDBRANCH  56  70
BRANCH  57  78
ATOM     78  C   UNL A   1      45.930  29.484  27.851  1.00  0.00     0.057 A 
ATOM     79  C   UNL A   1      47.205  28.945  28.192  1.00  0.00     0.134 A 
ATOM     80  C   UNL A   1      45.092  28.682  27.091  1.00  0.00     0.134 A 
ATOM     81  F   UNL A   1      48.075  29.674  28.915  1.00  0.00    -0.206 F 
ATOM     82  C   UNL A   1      47.516  27.600  28.011  1.00  0.00     0.040 A 
ATOM     83  C   UNL A   1      45.430  27.342  26.840  1.00  0.00     0.040 A 
ATOM     84  F   UNL A   1      43.874  29.111  26.740  1.00  0.00    -0.206 F 
ATOM     85  C   UNL A   1      46.606  26.784  27.355  1.00  0.00     0.006 A 
ENDBRANCH  57  78
BRANCH  69  86
ATOM     86  C   UNL A   1      42.616  36.132  28.770  1.00  0.00     0.057 A 
ATOM     87  C   UNL A   1      43.210  37.215  29.438  1.00  0.00     0.134 A 
ATOM     88  C   UNL A   1      42.149  36.425  27.467  1.00  0.00     0.134 A 
ATOM     89  F   UNL A   1      43.783  37.067  30.641  1.00  0.00    -0.206 F 
ATOM     90  C   UNL A   1      43.287  38.497  28.880  1.00  0.00     0.040 A 
ATOM     91  C   UNL A   1      42.278  37.685  26.876  1.00  0.00     0.040 A 
ATOM     92  F   UNL A   1      41.567  35.503  26.690  1.00  0.00    -0.206 F 
ATOM     93  C   UNL A   1      42.840  38.731  27.587  1.00  0.00     0.006 A 
ENDBRANCH  69  86
ENDBRANCH  43  44
ENDBRANCH  36  38
ENDBRANCH  35  36
ENDBRANCH  34  35
ENDBRANCH  33  34
ENDBRANCH  32  33
ENDBRANCH  31  32
ENDBRANCH  30  31
ENDBRANCH   1  30
TORSDOF 22
ENDMDL
MODEL 3
REMARK VINA RESULT:     -11.8      2.307      5.874
REMARK SMILES Cc1ccc(S(=O)(=O)N2c3ccc(C(=O)OCCOCCOCCOCCOC(=O)c4ccc(-c5c6nc(c(-c7c(F)cccc7F)c7ccc([nH]7)c(-c7c(F)cccc7F)c7nc(c(-c8c(F)cccc8F)c8ccc5[nH]8)C=C7)C=C6)cc4)cc3C[C@H]2C)cc1
REMARK SMILES IDX 22 1 21 2 20 3 19 4 18 5 17 6 16 7 14 8 15 9 13 10 9 11
REMARK SMILES IDX 10 12 88 13 11 14 86 15 87 16 89 17 12 18 85 19 6 20 7 21
REMARK SMILES IDX 8 22 5 23 1 24 2 25 3 26 91 27 4 28 90 29 23 30 24 31 25 32
REMARK SMILES IDX 26 33 27 34 28 35 29 36 30 37 31 38 32 39 84 40 33 41 83 42
REMARK SMILES IDX 34 43 35 44 36 45 77 46 37 47 82 48 76 49 78 50 38 51 81 52
REMARK SMILES IDX 75 53 74 54 39 56 65 57 48 58 64 59 49 60 52 61 63 62 79 63
REMARK SMILES IDX 50 64 51 65 62 67 80 68 53 69 40 70 41 71 46 72 42 73 43 74
REMARK SMILES IDX 45 75 47 76 44 77 66 78 67 79 72 80 68 81 69 82 71 83 73 84
REMARK SMILES IDX 70 85 54 86 55 87 60 88 56 89 57 90 59 91 61 92 58 93
REMARK H PARENT 78 55 52 66
REMARK Flexibility Score: inf
ROOT
ATOM      1  O   UNL A   1      34.203  24.453  25.536  1.00  0.00    -0.377 OA
ENDROOT
BRANCH   1   2
ATOM      2  C   UNL A   1      34.250  23.603  26.704  1.00  0.00     0.188 C 
BRANCH   2   3
ATOM      3  C   UNL A   1      32.868  22.771  27.119  1.00  0.00     0.188 C 
BRANCH   3   4
ATOM      4  O   UNL A   1      31.933  21.661  26.244  1.00  0.00    -0.376 OA
BRANCH   4   5
ATOM      5  C   UNL A   1      32.227  20.348  25.155  1.00  0.00     0.202 C 
BRANCH   5   6
ATOM      6  C   UNL A   1      32.493  20.332  23.278  1.00  0.00     0.261 C 
BRANCH   6   7
ATOM      7  O   UNL A   1      32.390  21.794  22.170  1.00  0.00    -0.460 OA
BRANCH   7   8
ATOM      8  C   UNL A   1      32.630  23.289  21.989  1.00  0.00     0.338 C 
ATOM      9  O   UNL A   1      33.423  23.745  21.155  1.00  0.00    -0.246 OA
BRANCH   8  10
ATOM     10  C   UNL A   1      31.984  24.557  22.778  1.00  0.00     0.060 A 
ATOM     11  N   UNL A   1      31.064  28.120  24.982  1.00  0.00    -0.263 N 
ATOM     12  C   UNL A   1      31.270  26.879  24.293  1.00  0.00     0.055 A 
ATOM     13  C   UNL A   1      31.352  29.133  23.910  1.00  0.00     0.101 C 
ATOM     14  C   UNL A   1      30.695  25.700  24.611  1.00  0.00     0.028 A 
ATOM     15  C   UNL A   1      32.045  26.989  23.150  1.00  0.00    -0.021 A 
ATOM     16  C   UNL A   1      32.274  28.437  22.865  1.00  0.00     0.063 C 
ATOM     17  C   UNL A   1      29.964  29.488  23.329  1.00  0.00     0.032 C 
ATOM     18  C   UNL A   1      30.955  24.635  23.746  1.00  0.00     0.018 A 
ATOM     19  C   UNL A   1      32.478  25.845  22.449  1.00  0.00     0.021 A 
BRANCH  11  20
ATOM     20  S   UNL A   1      32.008  28.148  26.425  1.00  0.00     0.264 S 
ATOM     21  O   UNL A   1      33.211  27.379  26.176  1.00  0.00    -0.201 OA
ATOM     22  O   UNL A   1      31.128  27.822  27.532  1.00  0.00    -0.201 OA
BRANCH  20  23
ATOM     23  C   UNL A   1      32.564  29.809  26.741  1.00  0.00     0.088 A 
ATOM     24  C   UNL A   1      33.345  33.809  28.108  1.00  0.00     0.044 C 
ATOM     25  C   UNL A   1      33.102  32.429  27.574  1.00  0.00    -0.051 A 
ATOM     26  C   UNL A   1      31.888  32.127  26.950  1.00  0.00     0.005 A 
ATOM     27  C   UNL A   1      34.078  31.430  27.686  1.00  0.00     0.005 A 
ATOM     28  C   UNL A   1      31.615  30.822  26.544  1.00  0.00     0.022 A 
ATOM     29  C   UNL A   1      33.820  30.126  27.250  1.00  0.00     0.022 A 
ENDBRANCH  20  23
ENDBRANCH  11  20
ENDBRANCH   8  10
ENDBRANCH   7   8
ENDBRANCH   6   7
ENDBRANCH   5   6
ENDBRANCH   4   5
ENDBRANCH   3   4
ENDBRANCH   2   3
ENDBRANCH   1   2
BRANCH   1  30
ATOM     30  C   UNL A   1      35.191  24.207  24.521  1.00  0.00     0.188 C 
BRANCH  30  31
ATOM     31  C   UNL A   1      35.312  22.707  24.303  1.00  0.00     0.188 C 
BRANCH  31  32
ATOM     32  O   UNL A   1      36.637  22.503  23.841  1.00  0.00    -0.376 OA
BRANCH  32  33
ATOM     33  C   UNL A   1      37.395  21.527  24.533  1.00  0.00     0.202 C 
BRANCH  33  34
ATOM     34  C   UNL A   1      37.542  21.944  25.995  1.00  0.00     0.261 C 
BRANCH  34  35
ATOM     35  O   UNL A   1      38.501  23.025  26.079  1.00  0.00    -0.460 OA
BRANCH  35  36
ATOM     36  C   UNL A   1      39.689  22.686  26.655  1.00  0.00     0.338 C 
ATOM     37  O   UNL A   1      39.942  21.601  27.167  1.00  0.00    -0.246 OA
BRANCH  36  38
ATOM     38  C   UNL A   1      40.512  23.904  26.878  1.00  0.00     0.060 A 
ATOM     39  C   UNL A   1      41.662  23.863  27.644  1.00  0.00     0.016 A 
ATOM     40  C   UNL A   1      40.065  25.155  26.570  1.00  0.00     0.016 A 
ATOM     41  C   UNL A   1      42.068  24.997  28.409  1.00  0.00     0.010 A 
ATOM     42  C   UNL A   1      40.531  26.240  27.349  1.00  0.00     0.010 A 
ATOM     43  C   UNL A   1      41.304  26.161  28.577  1.00  0.00    -0.014 A 
BRANCH  43  44
ATOM     44  C   UNL A   1      41.410  27.233  30.075  1.00  0.00     0.031 A 
ATOM     45  C   UNL A   1      39.894  28.206  30.891  1.00  0.00     0.074 A 
ATOM     46  C   UNL A   1      42.822  27.498  30.301  1.00  0.00     0.049 A 
ATOM     47  N   UNL A   1      39.671  29.514  30.618  1.00  0.00    -0.248 NA
ATOM     48  C   UNL A   1      38.471  27.955  31.535  1.00  0.00     0.031 C 
ATOM     49  C   UNL A   1      43.630  28.512  31.092  1.00  0.00     0.029 A 
ATOM     50  N   UNL A   1      43.956  26.932  29.678  1.00  0.00    -0.354 N 
ATOM     51  C   UNL A   1      38.608  30.186  31.062  1.00  0.00     0.074 A 
ATOM     52  C   UNL A   1      37.753  29.110  31.431  1.00  0.00     0.031 C 
ATOM     53  C   UNL A   1      44.948  28.463  30.964  1.00  0.00     0.029 A 
ATOM     54  C   UNL A   1      45.118  27.717  29.797  1.00  0.00     0.049 A 
ATOM     55  H   UNL A   1      43.936  26.069  29.205  1.00  0.00     0.167 HD
ATOM     56  C   UNL A   1      38.618  31.557  31.109  1.00  0.00     0.037 A 
ATOM     57  C   UNL A   1      45.678  28.392  28.762  1.00  0.00     0.037 A 
ATOM     58  C   UNL A   1      39.970  32.195  31.149  1.00  0.00     0.049 A 
ATOM     59  C   UNL A   1      45.309  29.900  28.734  1.00  0.00     0.074 A 
ATOM     60  C   UNL A   1      40.794  32.435  32.244  1.00  0.00     0.029 A 
ATOM     61  N   UNL A   1      40.801  32.451  30.043  1.00  0.00    -0.354 N 
ATOM     62  N   UNL A   1      44.150  30.438  29.093  1.00  0.00    -0.248 NA
ATOM     63  C   UNL A   1      46.339  30.917  28.537  1.00  0.00     0.031 C 
ATOM     64  C   UNL A   1      42.148  32.468  31.801  1.00  0.00     0.029 A 
ATOM     65  C   UNL A   1      42.169  32.459  30.411  1.00  0.00     0.049 A 
ATOM     66  H   UNL A   1      40.473  32.605  29.128  1.00  0.00     0.167 HD
ATOM     67  C   UNL A   1      44.261  31.822  29.162  1.00  0.00     0.074 A 
ATOM     68  C   UNL A   1      45.669  32.048  28.824  1.00  0.00     0.031 C 
ATOM     69  C   UNL A   1      43.299  32.764  29.505  1.00  0.00     0.037 A 
BRANCH  56  70
ATOM     70  C   UNL A   1      37.344  32.165  31.588  1.00  0.00     0.057 A 
ATOM     71  C   UNL A   1      37.051  32.360  32.942  1.00  0.00     0.134 A 
ATOM     72  C   UNL A   1      36.295  32.395  30.680  1.00  0.00     0.134 A 
ATOM     73  F   UNL A   1      37.985  32.198  33.888  1.00  0.00    -0.206 F 
ATOM     74  C   UNL A   1      35.757  32.670  33.379  1.00  0.00     0.040 A 
ATOM     75  C   UNL A   1      34.996  32.695  31.104  1.00  0.00     0.040 A 
ATOM     76  F   UNL A   1      36.500  32.266  29.359  1.00  0.00    -0.206 F 
ATOM     77  C   UNL A   1      34.718  32.809  32.462  1.00  0.00     0.006 A 
ENDBRANCH  56  70
BRANCH  57  78
ATOM     78  C   UNL A   1      46.192  27.394  27.799  1.00  0.00     0.057 A 
ATOM     79  C   UNL A   1      47.371  26.700  28.202  1.00  0.00     0.134 A 
ATOM     80  C   UNL A   1      45.375  26.759  26.876  1.00  0.00     0.134 A 
ATOM     81  F   UNL A   1      48.218  27.263  29.083  1.00  0.00    -0.206 F 
ATOM     82  C   UNL A   1      47.581  25.356  27.904  1.00  0.00     0.040 A 
ATOM     83  C   UNL A   1      45.619  25.425  26.513  1.00  0.00     0.040 A 
ATOM     84  F   UNL A   1      44.243  27.339  26.458  1.00  0.00    -0.206 F 
ATOM     85  C   UNL A   1      46.680  24.705  27.075  1.00  0.00     0.006 A 
ENDBRANCH  57  78
BRANCH  69  86
ATOM     86  C   UNL A   1      43.466  34.236  29.131  1.00  0.00     0.057 A 
ATOM     87  C   UNL A   1      43.680  35.239  30.090  1.00  0.00     0.134 A 
ATOM     88  C   UNL A   1      43.611  34.659  27.789  1.00  0.00     0.134 A 
ATOM     89  F   UNL A   1      43.671  34.966  31.402  1.00  0.00    -0.206 F 
ATOM     90  C   UNL A   1      43.963  36.567  29.746  1.00  0.00     0.040 A 
ATOM     91  C   UNL A   1      43.956  35.968  27.436  1.00  0.00     0.040 A 
ATOM     92  F   UNL A   1      43.452  33.827  26.753  1.00  0.00    -0.206 F 
ATOM     93  C   UNL A   1      44.123  36.930  28.416  1.00  0.00     0.006 A 
ENDBRANCH  69  86
ENDBRANCH  43  44
ENDBRANCH  36  38
ENDBRANCH  35  36
ENDBRANCH  34  35
ENDBRANCH  33  34
ENDBRANCH  32  33
ENDBRANCH  31  32
ENDBRANCH  30  31
ENDBRANCH   1  30
TORSDOF 22
ENDMDL
