MODEL 1
REMARK VINA RESULT:     -10.4      0.000      0.000
REMARK SMILES O=C(Cc1ccccc1Nc1c(F)cccc1C(F)(F)F)OCCOCCOCCOCCOC(=O)c1ccc(-c2c3nc(c(-c4c(F)cccc4F)c4ccc([nH]4)c(-c4c(F)cccc4F)c4nc(c(-c5c(F)cccc5F)c5ccc2[nH]5)C=C4)C=C3)cc1
REMARK SMILES IDX 27 1 26 2 25 3 24 4 23 5 22 6 2 7 1 8 3 9 4 10 5 11 9 12
REMARK SMILES IDX 6 13 8 14 7 15 10 16 11 18 12 19 17 20 13 21 14 22 16 23
REMARK SMILES IDX 15 24 18 25 19 26 20 27 21 28 28 29 29 30 30 31 31 32 32 33
REMARK SMILES IDX 33 34 34 35 35 36 36 37 37 38 38 39 90 40 39 41 89 42 40 43
REMARK SMILES IDX 41 44 42 45 83 46 43 47 88 48 82 49 84 50 44 51 87 52 81 53
REMARK SMILES IDX 80 54 45 56 71 57 54 58 70 59 55 60 58 61 69 62 85 63 56 64
REMARK SMILES IDX 57 65 68 67 86 68 59 69 46 70 47 71 52 72 48 73 49 74 51 75
REMARK SMILES IDX 53 76 50 77 72 78 73 79 78 80 74 81 75 82 77 83 79 84 76 85
REMARK SMILES IDX 60 86 61 87 66 88 62 89 63 90 65 91 67 92 64 93
REMARK H PARENT 10 17 84 55 58 66
REMARK Flexibility Score: inf
ROOT
ATOM      1  C   UNL A   1      41.777  19.926  26.760  1.00  0.00     0.188 C 
ENDROOT
BRANCH   1   2
ATOM      2  C   UNL A   1      41.534  21.370  27.203  1.00  0.00     0.188 C 
BRANCH   2   3
ATOM      3  O   UNL A   1      40.271  21.904  26.850  1.00  0.00    -0.376 OA
BRANCH   3   4
ATOM      4  C   UNL A   1      39.745  23.138  27.292  1.00  0.00     0.202 C 
BRANCH   4   5
ATOM      5  C   UNL A   1      38.832  24.006  26.433  1.00  0.00     0.261 C 
BRANCH   5   6
ATOM      6  O   UNL A   1      37.414  23.805  26.546  1.00  0.00    -0.463 OA
BRANCH   6   7
ATOM      7  C   UNL A   1      36.582  23.263  25.636  1.00  0.00     0.310 C 
ATOM      8  O   UNL A   1      36.861  22.166  25.154  1.00  0.00    -0.252 OA
BRANCH   7   9
ATOM      9  C   UNL A   1      35.400  24.052  25.127  1.00  0.00     0.160 C 
BRANCH   9  10
ATOM     10  C   UNL A   1      34.080  23.878  25.835  1.00  0.00    -0.013 A 
ATOM     11  C   UNL A   1      33.702  22.580  26.232  1.00  0.00     0.006 A 
ATOM     12  C   UNL A   1      33.175  24.959  25.999  1.00  0.00     0.042 A 
ATOM     13  C   UNL A   1      32.456  22.343  26.796  1.00  0.00     0.000 A 
ATOM     14  C   UNL A   1      31.905  24.672  26.510  1.00  0.00     0.026 A 
ATOM     15  C   UNL A   1      31.549  23.385  26.916  1.00  0.00     0.002 A 
BRANCH  12  16
ATOM     16  N   UNL A   1      33.561  26.295  25.729  1.00  0.00    -0.352 N 
ATOM     17  H   UNL A   1      34.430  26.550  26.114  1.00  0.00     0.167 HD
BRANCH  16  18
ATOM     18  C   UNL A   1      32.918  27.331  25.005  1.00  0.00     0.087 A 
ATOM     19  C   UNL A   1      33.027  27.268  23.598  1.00  0.00     0.147 A 
ATOM     20  C   UNL A   1      32.107  28.340  25.552  1.00  0.00     0.082 A 
ATOM     21  F   UNL A   1      33.853  26.359  23.050  1.00  0.00    -0.205 F 
ATOM     22  C   UNL A   1      32.294  28.090  22.748  1.00  0.00     0.041 A 
ATOM     23  C   UNL A   1      31.336  29.147  24.679  1.00  0.00     0.015 A 
ATOM     24  C   UNL A   1      31.416  29.014  23.292  1.00  0.00     0.004 A 
BRANCH  20  25
ATOM     25  C   UNL A   1      32.030  28.675  27.024  1.00  0.00     0.418 C 
ATOM     26  F   UNL A   1      31.148  27.861  27.682  1.00  0.00    -0.166 F 
ATOM     27  F   UNL A   1      33.218  28.488  27.667  1.00  0.00    -0.166 F 
ATOM     28  F   UNL A   1      31.622  29.938  27.324  1.00  0.00    -0.166 F 
ENDBRANCH  20  25
ENDBRANCH  16  18
ENDBRANCH  12  16
ENDBRANCH   9  10
ENDBRANCH   7   9
ENDBRANCH   6   7
ENDBRANCH   5   6
ENDBRANCH   4   5
ENDBRANCH   3   4
ENDBRANCH   2   3
ENDBRANCH   1   2
BRANCH   1  29
ATOM     29  O   UNL A   1      42.346  19.801  25.461  1.00  0.00    -0.377 OA
BRANCH  29  30
ATOM     30  C   UNL A   1      43.371  18.823  25.371  1.00  0.00     0.188 C 
BRANCH  30  31
ATOM     31  C   UNL A   1      44.569  19.192  24.467  1.00  0.00     0.188 C 
BRANCH  31  32
ATOM     32  O   UNL A   1      44.651  20.431  23.781  1.00  0.00    -0.376 OA
BRANCH  32  33
ATOM     33  C   UNL A   1      45.098  21.604  24.439  1.00  0.00     0.202 C 
BRANCH  33  34
ATOM     34  C   UNL A   1      44.541  22.997  24.103  1.00  0.00     0.261 C 
BRANCH  34  35
ATOM     35  O   UNL A   1      44.051  23.774  25.199  1.00  0.00    -0.460 OA
BRANCH  35  36
ATOM     36  C   UNL A   1      44.627  24.986  25.372  1.00  0.00     0.338 C 
ATOM     37  O   UNL A   1      45.455  25.528  24.661  1.00  0.00    -0.246 OA
BRANCH  36  38
ATOM     38  C   UNL A   1      43.924  25.661  26.483  1.00  0.00     0.060 A 
ATOM     39  C   UNL A   1      44.281  26.979  26.803  1.00  0.00     0.016 A 
ATOM     40  C   UNL A   1      42.884  25.024  27.161  1.00  0.00     0.016 A 
ATOM     41  C   UNL A   1      43.586  27.674  27.790  1.00  0.00     0.010 A 
ATOM     42  C   UNL A   1      42.221  25.702  28.184  1.00  0.00     0.010 A 
ATOM     43  C   UNL A   1      42.577  27.023  28.509  1.00  0.00    -0.014 A 
BRANCH  43  44
ATOM     44  C   UNL A   1      42.020  27.645  29.731  1.00  0.00     0.031 A 
ATOM     45  C   UNL A   1      40.791  28.494  29.586  1.00  0.00     0.074 A 
ATOM     46  C   UNL A   1      42.612  27.489  30.927  1.00  0.00     0.049 A 
ATOM     47  N   UNL A   1      40.204  29.259  30.468  1.00  0.00    -0.248 NA
ATOM     48  C   UNL A   1      40.139  28.484  28.265  1.00  0.00     0.031 C 
ATOM     49  C   UNL A   1      43.780  26.652  31.194  1.00  0.00     0.029 A 
ATOM     50  N   UNL A   1      42.322  28.063  32.141  1.00  0.00    -0.354 N 
ATOM     51  C   UNL A   1      39.131  29.837  29.804  1.00  0.00     0.074 A 
ATOM     52  C   UNL A   1      39.144  29.339  28.447  1.00  0.00     0.031 C 
ATOM     53  C   UNL A   1      44.133  26.798  32.484  1.00  0.00     0.029 A 
ATOM     54  C   UNL A   1      43.244  27.772  33.117  1.00  0.00     0.049 A 
ATOM     55  H   UNL A   1      41.530  28.628  32.296  1.00  0.00     0.167 HD
ATOM     56  C   UNL A   1      38.220  30.713  30.286  1.00  0.00     0.037 A 
ATOM     57  C   UNL A   1      43.377  28.275  34.360  1.00  0.00     0.037 A 
ATOM     58  C   UNL A   1      38.211  31.201  31.638  1.00  0.00     0.049 A 
ATOM     59  C   UNL A   1      42.394  29.314  34.844  1.00  0.00     0.074 A 
ATOM     60  C   UNL A   1      37.300  32.052  32.236  1.00  0.00     0.029 A 
ATOM     61  N   UNL A   1      39.167  30.895  32.592  1.00  0.00    -0.354 N 
ATOM     62  N   UNL A   1      41.351  29.818  34.230  1.00  0.00    -0.248 NA
ATOM     63  C   UNL A   1      42.615  29.862  36.191  1.00  0.00     0.031 C 
ATOM     64  C   UNL A   1      37.741  32.312  33.536  1.00  0.00     0.029 A 
ATOM     65  C   UNL A   1      38.893  31.578  33.765  1.00  0.00     0.049 A 
ATOM     66  H   UNL A   1      39.927  30.284  32.457  1.00  0.00     0.167 HD
ATOM     67  C   UNL A   1      40.781  30.721  35.120  1.00  0.00     0.074 A 
ATOM     68  C   UNL A   1      41.582  30.681  36.326  1.00  0.00     0.031 C 
ATOM     69  C   UNL A   1      39.697  31.517  34.957  1.00  0.00     0.037 A 
BRANCH  56  70
ATOM     70  C   UNL A   1      37.181  31.235  29.342  1.00  0.00     0.057 A 
ATOM     71  C   UNL A   1      36.055  30.485  28.988  1.00  0.00     0.134 A 
ATOM     72  C   UNL A   1      37.278  32.540  28.840  1.00  0.00     0.134 A 
ATOM     73  F   UNL A   1      35.913  29.223  29.422  1.00  0.00    -0.206 F 
ATOM     74  C   UNL A   1      35.060  31.013  28.164  1.00  0.00     0.040 A 
ATOM     75  C   UNL A   1      36.279  33.087  28.037  1.00  0.00     0.040 A 
ATOM     76  F   UNL A   1      38.335  33.309  29.142  1.00  0.00    -0.206 F 
ATOM     77  C   UNL A   1      35.165  32.323  27.696  1.00  0.00     0.006 A 
ENDBRANCH  56  70
BRANCH  57  78
ATOM     78  C   UNL A   1      44.519  27.870  35.222  1.00  0.00     0.057 A 
ATOM     79  C   UNL A   1      45.751  28.531  35.159  1.00  0.00     0.134 A 
ATOM     80  C   UNL A   1      44.426  26.766  36.081  1.00  0.00     0.134 A 
ATOM     81  F   UNL A   1      45.914  29.576  34.336  1.00  0.00    -0.206 F 
ATOM     82  C   UNL A   1      46.857  28.092  35.891  1.00  0.00     0.040 A 
ATOM     83  C   UNL A   1      45.514  26.336  36.841  1.00  0.00     0.040 A 
ATOM     84  F   UNL A   1      43.276  26.085  36.187  1.00  0.00    -0.206 F 
ATOM     85  C   UNL A   1      46.738  26.992  36.738  1.00  0.00     0.006 A 
ENDBRANCH  57  78
BRANCH  69  86
ATOM     86  C   UNL A   1      39.294  32.390  36.110  1.00  0.00     0.057 A 
ATOM     87  C   UNL A   1      39.782  33.694  36.254  1.00  0.00     0.134 A 
ATOM     88  C   UNL A   1      38.356  31.942  37.050  1.00  0.00     0.134 A 
ATOM     89  F   UNL A   1      40.692  34.178  35.394  1.00  0.00    -0.206 F 
ATOM     90  C   UNL A   1      39.364  34.517  37.299  1.00  0.00     0.040 A 
ATOM     91  C   UNL A   1      37.908  32.766  38.082  1.00  0.00     0.040 A 
ATOM     92  F   UNL A   1      37.839  30.707  36.961  1.00  0.00    -0.206 F 
ATOM     93  C   UNL A   1      38.415  34.057  38.212  1.00  0.00     0.006 A 
ENDBRANCH  69  86
ENDBRANCH  43  44
ENDBRANCH  36  38
ENDBRANCH  35  36
ENDBRANCH  34  35
ENDBRANCH  33  34
ENDBRANCH  32  33
ENDBRANCH  31  32
ENDBRANCH  30  31
ENDBRANCH  29  30
ENDBRANCH   1  29
TORSDOF 24
ENDMDL
MODEL 2
REMARK VINA RESULT:     -10.2      1.226      6.199
REMARK SMILES O=C(Cc1ccccc1Nc1c(F)cccc1C(F)(F)F)OCCOCCOCCOCCOC(=O)c1ccc(-c2c3nc(c(-c4c(F)cccc4F)c4ccc([nH]4)c(-c4c(F)cccc4F)c4nc(c(-c5c(F)cccc5F)c5ccc2[nH]5)C=C4)C=C3)cc1
REMARK SMILES IDX 27 1 26 2 25 3 24 4 23 5 22 6 2 7 1 8 3 9 4 10 5 11 9 12
REMARK SMILES IDX 6 13 8 14 7 15 10 16 11 18 12 19 17 20 13 21 14 22 16 23
REMARK SMILES IDX 15 24 18 25 19 26 20 27 21 28 28 29 29 30 30 31 31 32 32 33
REMARK SMILES IDX 33 34 34 35 35 36 36 37 37 38 38 39 90 40 39 41 89 42 40 43
REMARK SMILES IDX 41 44 42 45 83 46 43 47 88 48 82 49 84 50 44 51 87 52 81 53
REMARK SMILES IDX 80 54 45 56 71 57 54 58 70 59 55 60 58 61 69 62 85 63 56 64
REMARK SMILES IDX 57 65 68 67 86 68 59 69 46 70 47 71 52 72 48 73 49 74 51 75
REMARK SMILES IDX 53 76 50 77 72 78 73 79 78 80 74 81 75 82 77 83 79 84 76 85
REMARK SMILES IDX 60 86 61 87 66 88 62 89 63 90 65 91 67 92 64 93
REMARK H PARENT 10 17 84 55 58 66
REMARK Flexibility Score: inf
ROOT
ATOM      1  C   UNL A   1      41.129  21.285  27.575  1.00  0.00     0.188 C 
ENDROOT
BRANCH   1   2
ATOM      2  C   UNL A   1      40.073  22.189  26.936  1.00  0.00     0.188 C 
BRANCH   2   3
ATOM      3  O   UNL A   1      39.007  21.512  26.296  1.00  0.00    -0.376 OA
BRANCH   3   4
ATOM      4  C   UNL A   1      37.968  22.121  25.558  1.00  0.00     0.202 C 
BRANCH   4   5
ATOM      5  C   UNL A   1      37.139  21.372  24.520  1.00  0.00     0.261 C 
BRANCH   5   6
ATOM      6  O   UNL A   1      35.856  21.914  24.168  1.00  0.00    -0.463 OA
BRANCH   6   7
ATOM      7  C   UNL A   1      34.683  21.742  24.809  1.00  0.00     0.310 C 
ATOM      8  O   UNL A   1      34.661  21.071  25.839  1.00  0.00    -0.252 OA
BRANCH   7   9
ATOM      9  C   UNL A   1      33.404  22.257  24.197  1.00  0.00     0.160 C 
BRANCH   9  10
ATOM     10  C   UNL A   1      32.390  22.892  25.115  1.00  0.00    -0.013 A 
ATOM     11  C   UNL A   1      31.391  22.071  25.676  1.00  0.00     0.006 A 
ATOM     12  C   UNL A   1      32.352  24.295  25.327  1.00  0.00     0.042 A 
ATOM     13  C   UNL A   1      30.372  22.613  26.446  1.00  0.00     0.000 A 
ATOM     14  C   UNL A   1      31.274  24.814  26.053  1.00  0.00     0.026 A 
ATOM     15  C   UNL A   1      30.302  23.988  26.618  1.00  0.00     0.002 A 
BRANCH  12  16
ATOM     16  N   UNL A   1      33.400  25.139  24.886  1.00  0.00    -0.352 N 
ATOM     17  H   UNL A   1      34.302  24.792  25.071  1.00  0.00     0.167 HD
BRANCH  16  18
ATOM     18  C   UNL A   1      33.383  26.395  24.230  1.00  0.00     0.087 A 
ATOM     19  C   UNL A   1      33.582  27.529  25.048  1.00  0.00     0.147 A 
ATOM     20  C   UNL A   1      33.293  26.600  22.842  1.00  0.00     0.082 A 
ATOM     21  F   UNL A   1      33.600  27.371  26.383  1.00  0.00    -0.205 F 
ATOM     22  C   UNL A   1      33.789  28.804  24.533  1.00  0.00     0.041 A 
ATOM     23  C   UNL A   1      33.543  27.896  22.323  1.00  0.00     0.015 A 
ATOM     24  C   UNL A   1      33.803  28.983  23.158  1.00  0.00     0.004 A 
BRANCH  20  25
ATOM     25  C   UNL A   1      32.891  25.541  21.843  1.00  0.00     0.418 C 
ATOM     26  F   UNL A   1      33.739  24.466  21.877  1.00  0.00    -0.166 F 
ATOM     27  F   UNL A   1      31.660  25.016  22.102  1.00  0.00    -0.166 F 
ATOM     28  F   UNL A   1      32.881  25.928  20.538  1.00  0.00    -0.166 F 
ENDBRANCH  20  25
ENDBRANCH  16  18
ENDBRANCH  12  16
ENDBRANCH   9  10
ENDBRANCH   7   9
ENDBRANCH   6   7
ENDBRANCH   5   6
ENDBRANCH   4   5
ENDBRANCH   3   4
ENDBRANCH   2   3
ENDBRANCH   1   2
BRANCH   1  29
ATOM     29  O   UNL A   1      41.062  19.924  27.159  1.00  0.00    -0.377 OA
BRANCH  29  30
ATOM     30  C   UNL A   1      42.263  19.198  27.367  1.00  0.00     0.188 C 
BRANCH  30  31
ATOM     31  C   UNL A   1      42.861  18.522  26.112  1.00  0.00     0.188 C 
BRANCH  31  32
ATOM     32  O   UNL A   1      43.469  19.263  25.066  1.00  0.00    -0.376 OA
BRANCH  32  33
ATOM     33  C   UNL A   1      44.271  20.397  25.342  1.00  0.00     0.202 C 
BRANCH  33  34
ATOM     34  C   UNL A   1      43.785  21.831  25.075  1.00  0.00     0.261 C 
BRANCH  34  35
ATOM     35  O   UNL A   1      44.137  22.820  26.047  1.00  0.00    -0.460 OA
BRANCH  35  36
ATOM     36  C   UNL A   1      44.403  24.057  25.568  1.00  0.00     0.338 C 
ATOM     37  O   UNL A   1      44.898  24.351  24.494  1.00  0.00    -0.246 OA
BRANCH  36  38
ATOM     38  C   UNL A   1      43.794  25.035  26.492  1.00  0.00     0.060 A 
ATOM     39  C   UNL A   1      44.153  26.386  26.374  1.00  0.00     0.016 A 
ATOM     40  C   UNL A   1      42.834  24.636  27.423  1.00  0.00     0.016 A 
ATOM     41  C   UNL A   1      43.540  27.348  27.174  1.00  0.00     0.010 A 
ATOM     42  C   UNL A   1      42.256  25.591  28.259  1.00  0.00     0.010 A 
ATOM     43  C   UNL A   1      42.615  26.947  28.145  1.00  0.00    -0.014 A 
BRANCH  43  44
ATOM     44  C   UNL A   1      42.162  27.906  29.176  1.00  0.00     0.031 A 
ATOM     45  C   UNL A   1      42.892  27.922  30.488  1.00  0.00     0.074 A 
ATOM     46  C   UNL A   1      41.109  28.715  28.965  1.00  0.00     0.049 A 
ATOM     47  N   UNL A   1      42.600  28.556  31.592  1.00  0.00    -0.248 NA
ATOM     48  C   UNL A   1      44.116  27.105  30.566  1.00  0.00     0.031 C 
ATOM     49  C   UNL A   1      40.356  28.820  27.718  1.00  0.00     0.029 A 
ATOM     50  N   UNL A   1      40.474  29.583  29.819  1.00  0.00    -0.354 N 
ATOM     51  C   UNL A   1      43.586  28.198  32.500  1.00  0.00     0.074 A 
ATOM     52  C   UNL A   1      44.487  27.291  31.823  1.00  0.00     0.031 C 
ATOM     53  C   UNL A   1      39.332  29.673  27.899  1.00  0.00     0.029 A 
ATOM     54  C   UNL A   1      39.335  30.137  29.287  1.00  0.00     0.049 A 
ATOM     55  H   UNL A   1      40.802  29.788  30.725  1.00  0.00     0.167 HD
ATOM     56  C   UNL A   1      43.721  28.588  33.788  1.00  0.00     0.037 A 
ATOM     57  C   UNL A   1      38.383  30.890  29.872  1.00  0.00     0.037 A 
ATOM     58  C   UNL A   1      42.824  29.492  34.452  1.00  0.00     0.049 A 
ATOM     59  C   UNL A   1      38.516  31.242  31.334  1.00  0.00     0.074 A 
ATOM     60  C   UNL A   1      42.905  29.988  35.741  1.00  0.00     0.029 A 
ATOM     61  N   UNL A   1      41.676  30.021  33.886  1.00  0.00    -0.354 N 
ATOM     62  N   UNL A   1      39.478  30.944  32.174  1.00  0.00    -0.248 NA
ATOM     63  C   UNL A   1      37.426  32.027  31.932  1.00  0.00     0.031 C 
ATOM     64  C   UNL A   1      41.769  30.767  35.976  1.00  0.00     0.029 A 
ATOM     65  C   UNL A   1      41.013  30.803  34.815  1.00  0.00     0.049 A 
ATOM     66  H   UNL A   1      41.376  29.865  32.961  1.00  0.00     0.167 HD
ATOM     67  C   UNL A   1      39.120  31.520  33.387  1.00  0.00     0.074 A 
ATOM     68  C   UNL A   1      37.863  32.205  33.170  1.00  0.00     0.031 C 
ATOM     69  C   UNL A   1      39.767  31.484  34.577  1.00  0.00     0.037 A 
BRANCH  56  70
ATOM     70  C   UNL A   1      44.853  28.010  34.580  1.00  0.00     0.057 A 
ATOM     71  C   UNL A   1      46.074  28.678  34.727  1.00  0.00     0.134 A 
ATOM     72  C   UNL A   1      44.687  26.800  35.266  1.00  0.00     0.134 A 
ATOM     73  F   UNL A   1      46.301  29.832  34.082  1.00  0.00    -0.206 F 
ATOM     74  C   UNL A   1      47.093  28.160  35.528  1.00  0.00     0.040 A 
ATOM     75  C   UNL A   1      45.688  26.285  36.088  1.00  0.00     0.040 A 
ATOM     76  F   UNL A   1      43.540  26.111  35.164  1.00  0.00    -0.206 F 
ATOM     77  C   UNL A   1      46.897  26.965  36.221  1.00  0.00     0.006 A 
ENDBRANCH  56  70
BRANCH  57  78
ATOM     78  C   UNL A   1      37.176  31.311  29.111  1.00  0.00     0.057 A 
ATOM     79  C   UNL A   1      37.037  32.617  28.628  1.00  0.00     0.134 A 
ATOM     80  C   UNL A   1      36.102  30.434  28.908  1.00  0.00     0.134 A 
ATOM     81  F   UNL A   1      38.017  33.513  28.816  1.00  0.00    -0.206 F 
ATOM     82  C   UNL A   1      35.865  33.046  28.002  1.00  0.00     0.040 A 
ATOM     83  C   UNL A   1      34.937  30.841  28.256  1.00  0.00     0.040 A 
ATOM     84  F   UNL A   1      36.168  29.169  29.348  1.00  0.00    -0.206 F 
ATOM     85  C   UNL A   1      34.811  32.155  27.812  1.00  0.00     0.006 A 
ENDBRANCH  57  78
BRANCH  69  86
ATOM     86  C   UNL A   1      39.149  32.223  35.728  1.00  0.00     0.057 A 
ATOM     87  C   UNL A   1      39.344  33.597  35.913  1.00  0.00     0.134 A 
ATOM     88  C   UNL A   1      38.295  31.563  36.623  1.00  0.00     0.134 A 
ATOM     89  F   UNL A   1      40.159  34.284  35.097  1.00  0.00    -0.206 F 
ATOM     90  C   UNL A   1      38.724  34.287  36.955  1.00  0.00     0.040 A 
ATOM     91  C   UNL A   1      37.648  32.248  37.651  1.00  0.00     0.040 A 
ATOM     92  F   UNL A   1      38.056  30.250  36.494  1.00  0.00    -0.206 F 
ATOM     93  C   UNL A   1      37.865  33.613  37.823  1.00  0.00     0.006 A 
ENDBRANCH  69  86
ENDBRANCH  43  44
ENDBRANCH  36  38
ENDBRANCH  35  36
ENDBRANCH  34  35
ENDBRANCH  33  34
ENDBRANCH  32  33
ENDBRANCH  31  32
ENDBRANCH  30  31
ENDBRANCH  29  30
ENDBRANCH   1  29
TORSDOF 24
ENDMDL
MODEL 3
REMARK VINA RESULT:     -10.1      0.994      2.164
REMARK SMILES O=C(Cc1ccccc1Nc1c(F)cccc1C(F)(F)F)OCCOCCOCCOCCOC(=O)c1ccc(-c2c3nc(c(-c4c(F)cccc4F)c4ccc([nH]4)c(-c4c(F)cccc4F)c4nc(c(-c5c(F)cccc5F)c5ccc2[nH]5)C=C4)C=C3)cc1
REMARK SMILES IDX 27 1 26 2 25 3 24 4 23 5 22 6 2 7 1 8 3 9 4 10 5 11 9 12
REMARK SMILES IDX 6 13 8 14 7 15 10 16 11 18 12 19 17 20 13 21 14 22 16 23
REMARK SMILES IDX 15 24 18 25 19 26 20 27 21 28 28 29 29 30 30 31 31 32 32 33
REMARK SMILES IDX 33 34 34 35 35 36 36 37 37 38 38 39 90 40 39 41 89 42 40 43
REMARK SMILES IDX 41 44 42 45 83 46 43 47 88 48 82 49 84 50 44 51 87 52 81 53
REMARK SMILES IDX 80 54 45 56 71 57 54 58 70 59 55 60 58 61 69 62 85 63 56 64
REMARK SMILES IDX 57 65 68 67 86 68 59 69 46 70 47 71 52 72 48 73 49 74 51 75
REMARK SMILES IDX 53 76 50 77 72 78 73 79 78 80 74 81 75 82 77 83 79 84 76 85
REMARK SMILES IDX 60 86 61 87 66 88 62 89 63 90 65 91 67 92 64 93
REMARK H PARENT 10 17 84 55 58 66
REMARK Flexibility Score: inf
ROOT
ATOM      1  C   UNL A   1      42.221  19.821  26.602  1.00  0.00     0.188 C 
ENDROOT
BRANCH   1   2
ATOM      2  C   UNL A   1      41.839  21.299  26.709  1.00  0.00     0.188 C 
BRANCH   2   3
ATOM      3  O   UNL A   1      40.552  21.626  26.218  1.00  0.00    -0.376 OA
BRANCH   3   4
ATOM      4  C   UNL A   1      39.605  22.447  26.870  1.00  0.00     0.202 C 
BRANCH   4   5
ATOM      5  C   UNL A   1      38.563  23.268  26.119  1.00  0.00     0.261 C 
BRANCH   5   6
ATOM      6  O   UNL A   1      37.243  22.717  25.987  1.00  0.00    -0.463 OA
BRANCH   6   7
ATOM      7  C   UNL A   1      36.755  21.978  24.971  1.00  0.00     0.310 C 
ATOM      8  O   UNL A   1      37.305  20.914  24.692  1.00  0.00    -0.252 OA
BRANCH   7   9
ATOM      9  C   UNL A   1      35.634  22.516  24.115  1.00  0.00     0.160 C 
BRANCH   9  10
ATOM     10  C   UNL A   1      34.233  22.454  24.669  1.00  0.00    -0.013 A 
ATOM     11  C   UNL A   1      33.631  21.190  24.822  1.00  0.00     0.006 A 
ATOM     12  C   UNL A   1      33.481  23.631  24.924  1.00  0.00     0.042 A 
ATOM     13  C   UNL A   1      32.309  21.075  25.231  1.00  0.00     0.000 A 
ATOM     14  C   UNL A   1      32.134  23.479  25.271  1.00  0.00     0.026 A 
ATOM     15  C   UNL A   1      31.555  22.220  25.436  1.00  0.00     0.002 A 
BRANCH  12  16
ATOM     16  N   UNL A   1      34.082  24.913  24.904  1.00  0.00    -0.352 N 
ATOM     17  H   UNL A   1      34.957  24.956  25.353  1.00  0.00     0.167 HD
BRANCH  16  18
ATOM     18  C   UNL A   1      33.649  26.146  24.354  1.00  0.00     0.087 A 
ATOM     19  C   UNL A   1      33.731  27.270  25.204  1.00  0.00     0.147 A 
ATOM     20  C   UNL A   1      33.252  26.362  23.023  1.00  0.00     0.082 A 
ATOM     21  F   UNL A   1      34.039  27.084  26.500  1.00  0.00    -0.205 F 
ATOM     22  C   UNL A   1      33.535  28.572  24.755  1.00  0.00     0.041 A 
ATOM     23  C   UNL A   1      33.089  27.694  22.564  1.00  0.00     0.015 A 
ATOM     24  C   UNL A   1      33.244  28.788  23.417  1.00  0.00     0.004 A 
BRANCH  20  25
ATOM     25  C   UNL A   1      32.924  25.265  22.037  1.00  0.00     0.418 C 
ATOM     26  F   UNL A   1      31.751  24.633  22.355  1.00  0.00    -0.166 F 
ATOM     27  F   UNL A   1      32.727  25.738  20.773  1.00  0.00    -0.166 F 
ATOM     28  F   UNL A   1      33.838  24.262  21.938  1.00  0.00    -0.166 F 
ENDBRANCH  20  25
ENDBRANCH  16  18
ENDBRANCH  12  16
ENDBRANCH   9  10
ENDBRANCH   7   9
ENDBRANCH   6   7
ENDBRANCH   5   6
ENDBRANCH   4   5
ENDBRANCH   3   4
ENDBRANCH   2   3
ENDBRANCH   1   2
BRANCH   1  29
ATOM     29  O   UNL A   1      42.571  19.402  25.286  1.00  0.00    -0.377 OA
BRANCH  29  30
ATOM     30  C   UNL A   1      43.796  18.689  25.216  1.00  0.00     0.188 C 
BRANCH  30  31
ATOM     31  C   UNL A   1      44.822  19.224  24.190  1.00  0.00     0.188 C 
BRANCH  31  32
ATOM     32  O   UNL A   1      44.683  20.490  23.565  1.00  0.00    -0.376 OA
BRANCH  32  33
ATOM     33  C   UNL A   1      45.019  21.684  24.248  1.00  0.00     0.202 C 
BRANCH  33  34
ATOM     34  C   UNL A   1      44.209  22.980  24.083  1.00  0.00     0.261 C 
BRANCH  34  35
ATOM     35  O   UNL A   1      43.893  23.698  25.279  1.00  0.00    -0.460 OA
BRANCH  35  36
ATOM     36  C   UNL A   1      44.427  24.936  25.389  1.00  0.00     0.338 C 
ATOM     37  O   UNL A   1      45.214  25.479  24.635  1.00  0.00    -0.246 OA
BRANCH  36  38
ATOM     38  C   UNL A   1      43.729  25.628  26.492  1.00  0.00     0.060 A 
ATOM     39  C   UNL A   1      44.063  26.963  26.767  1.00  0.00     0.016 A 
ATOM     40  C   UNL A   1      42.715  24.989  27.207  1.00  0.00     0.016 A 
ATOM     41  C   UNL A   1      43.370  27.671  27.746  1.00  0.00     0.010 A 
ATOM     42  C   UNL A   1      42.055  25.683  28.222  1.00  0.00     0.010 A 
ATOM     43  C   UNL A   1      42.388  27.020  28.502  1.00  0.00    -0.014 A 
BRANCH  43  44
ATOM     44  C   UNL A   1      41.839  27.666  29.714  1.00  0.00     0.031 A 
ATOM     45  C   UNL A   1      40.612  28.518  29.560  1.00  0.00     0.074 A 
ATOM     46  C   UNL A   1      42.436  27.530  30.911  1.00  0.00     0.049 A 
ATOM     47  N   UNL A   1      40.032  29.300  30.430  1.00  0.00    -0.248 NA
ATOM     48  C   UNL A   1      39.954  28.486  28.242  1.00  0.00     0.031 C 
ATOM     49  C   UNL A   1      43.601  26.692  31.188  1.00  0.00     0.029 A 
ATOM     50  N   UNL A   1      42.153  28.126  32.115  1.00  0.00    -0.354 N 
ATOM     51  C   UNL A   1      38.958  29.870  29.761  1.00  0.00     0.074 A 
ATOM     52  C   UNL A   1      38.963  29.348  28.413  1.00  0.00     0.031 C 
ATOM     53  C   UNL A   1      43.961  26.860  32.473  1.00  0.00     0.029 A 
ATOM     54  C   UNL A   1      43.078  27.849  33.092  1.00  0.00     0.049 A 
ATOM     55  H   UNL A   1      41.364  28.697  32.264  1.00  0.00     0.167 HD
ATOM     56  C   UNL A   1      38.053  30.759  30.232  1.00  0.00     0.037 A 
ATOM     57  C   UNL A   1      43.219  28.373  34.326  1.00  0.00     0.037 A 
ATOM     58  C   UNL A   1      38.052  31.271  31.574  1.00  0.00     0.049 A 
ATOM     59  C   UNL A   1      42.242  29.425  34.796  1.00  0.00     0.074 A 
ATOM     60  C   UNL A   1      37.147  32.135  32.161  1.00  0.00     0.029 A 
ATOM     61  N   UNL A   1      39.011  30.978  32.530  1.00  0.00    -0.354 N 
ATOM     62  N   UNL A   1      41.198  29.922  34.177  1.00  0.00    -0.248 NA
ATOM     63  C   UNL A   1      42.471  29.996  36.132  1.00  0.00     0.031 C 
ATOM     64  C   UNL A   1      37.594  32.418  33.454  1.00  0.00     0.029 A 
ATOM     65  C   UNL A   1      38.745  31.682  33.691  1.00  0.00     0.049 A 
ATOM     66  H   UNL A   1      39.768  30.361  32.403  1.00  0.00     0.167 HD
ATOM     67  C   UNL A   1      40.636  30.843  35.054  1.00  0.00     0.074 A 
ATOM     68  C   UNL A   1      41.441  30.821  36.256  1.00  0.00     0.031 C 
ATOM     69  C   UNL A   1      39.554  31.640  34.881  1.00  0.00     0.037 A 
BRANCH  56  70
ATOM     70  C   UNL A   1      37.012  31.268  29.283  1.00  0.00     0.057 A 
ATOM     71  C   UNL A   1      35.895  30.505  28.926  1.00  0.00     0.134 A 
ATOM     72  C   UNL A   1      37.097  32.573  28.779  1.00  0.00     0.134 A 
ATOM     73  F   UNL A   1      35.765  29.243  29.363  1.00  0.00    -0.206 F 
ATOM     74  C   UNL A   1      34.897  31.022  28.098  1.00  0.00     0.040 A 
ATOM     75  C   UNL A   1      36.095  33.108  27.970  1.00  0.00     0.040 A 
ATOM     76  F   UNL A   1      38.145  33.353  29.083  1.00  0.00    -0.206 F 
ATOM     77  C   UNL A   1      34.991  32.332  27.627  1.00  0.00     0.006 A 
ENDBRANCH  56  70
BRANCH  57  78
ATOM     78  C   UNL A   1      44.363  27.979  35.190  1.00  0.00     0.057 A 
ATOM     79  C   UNL A   1      44.252  26.936  36.117  1.00  0.00     0.134 A 
ATOM     80  C   UNL A   1      45.574  28.683  35.159  1.00  0.00     0.134 A 
ATOM     81  F   UNL A   1      43.109  26.242  36.217  1.00  0.00    -0.206 F 
ATOM     82  C   UNL A   1      45.288  26.627  37.001  1.00  0.00     0.040 A 
ATOM     83  C   UNL A   1      46.629  28.365  36.015  1.00  0.00     0.040 A 
ATOM     84  F   UNL A   1      45.747  29.697  34.298  1.00  0.00    -0.206 F 
ATOM     85  C   UNL A   1      46.482  27.343  36.949  1.00  0.00     0.006 A 
ENDBRANCH  57  78
BRANCH  69  86
ATOM     86  C   UNL A   1      39.160  32.535  36.020  1.00  0.00     0.057 A 
ATOM     87  C   UNL A   1      38.318  32.092  37.048  1.00  0.00     0.134 A 
ATOM     88  C   UNL A   1      39.682  33.831  36.123  1.00  0.00     0.134 A 
ATOM     89  F   UNL A   1      37.776  30.865  37.001  1.00  0.00    -0.206 F 
ATOM     90  C   UNL A   1      37.997  32.912  38.130  1.00  0.00     0.040 A 
ATOM     91  C   UNL A   1      39.391  34.649  37.215  1.00  0.00     0.040 A 
ATOM     92  F   UNL A   1      40.505  34.311  35.179  1.00  0.00    -0.206 F 
ATOM     93  C   UNL A   1      38.543  34.192  38.221  1.00  0.00     0.006 A 
ENDBRANCH  69  86
ENDBRANCH  43  44
ENDBRANCH  36  38
ENDBRANCH  35  36
ENDBRANCH  34  35
ENDBRANCH  33  34
ENDBRANCH  32  33
ENDBRANCH  31  32
ENDBRANCH  30  31
ENDBRANCH  29  30
ENDBRANCH   1  29
TORSDOF 24
ENDMDL
