MODEL 1
REMARK VINA RESULT:     -10.5      0.000      0.000
REMARK SMILES O=C(OCCOCCOCCOCCOC(=O)[C@@H]1CCC[N@@H+]1CC(=O)N1CCSc2ccccc21)c1ccc(-c2c3nc(c(-c4c(F)cccc4F)c4ccc([nH]4)c(-c4c(F)cccc4F)c4nc(c(-c5c(F)cccc5F)c5ccc2[nH]5)C=C4)C=C3)cc1
REMARK SMILES IDX 10 1 9 2 8 3 7 4 6 5 5 6 4 7 3 8 2 9 1 10 36 11 37 12 89 13
REMARK SMILES IDX 38 14 88 15 39 16 40 17 41 18 82 19 42 20 87 21 81 22 83 23
REMARK SMILES IDX 43 24 86 25 80 26 79 27 44 29 70 30 53 31 69 32 54 33 57 34
REMARK SMILES IDX 68 35 84 36 55 37 56 38 67 40 85 41 58 42 45 43 46 44 51 45
REMARK SMILES IDX 47 46 48 47 50 48 52 49 49 50 71 51 72 52 77 53 73 54 74 55
REMARK SMILES IDX 76 56 78 57 75 58 59 59 60 60 65 61 61 62 62 63 64 64 66 65
REMARK SMILES IDX 63 66 11 67 12 68 13 69 14 70 15 71 16 72 17 73 18 74 19 75
REMARK SMILES IDX 22 76 20 77 21 78 23 80 24 81 25 82 26 83 27 84 35 85 28 86
REMARK SMILES IDX 30 87 34 88 29 89 31 90 33 91 32 92
REMARK H PARENT 83 28 57 39 22 79
REMARK Flexibility Score: inf
ROOT
ATOM      1  C   UNL A   1      40.726  21.870  27.459  1.00  0.00     0.188 C 
ENDROOT
BRANCH   1   2
ATOM      2  O   UNL A   1      41.430  20.639  27.552  1.00  0.00    -0.377 OA
BRANCH   2   3
ATOM      3  C   UNL A   1      41.450  19.814  26.397  1.00  0.00     0.188 C 
BRANCH   3   4
ATOM      4  C   UNL A   1      42.823  19.653  25.751  1.00  0.00     0.188 C 
BRANCH   4   5
ATOM      5  O   UNL A   1      43.591  20.854  25.814  1.00  0.00    -0.376 OA
BRANCH   5   6
ATOM      6  C   UNL A   1      44.568  21.040  24.782  1.00  0.00     0.202 C 
BRANCH   6   7
ATOM      7  C   UNL A   1      45.192  22.429  24.757  1.00  0.00     0.261 C 
BRANCH   7   8
ATOM      8  O   UNL A   1      44.328  23.347  25.431  1.00  0.00    -0.460 OA
BRANCH   8   9
ATOM      9  C   UNL A   1      44.720  24.644  25.322  1.00  0.00     0.338 C 
ATOM     10  O   UNL A   1      45.638  25.064  24.646  1.00  0.00    -0.246 OA
BRANCH   9  11
ATOM     11  C   UNL A   1      43.920  25.457  26.269  1.00  0.00     0.060 A 
ATOM     12  C   UNL A   1      42.782  24.918  26.871  1.00  0.00     0.016 A 
ATOM     13  C   UNL A   1      44.274  26.795  26.500  1.00  0.00     0.016 A 
ATOM     14  C   UNL A   1      42.062  25.695  27.780  1.00  0.00     0.010 A 
ATOM     15  C   UNL A   1      43.529  27.589  27.340  1.00  0.00     0.010 A 
ATOM     16  C   UNL A   1      42.464  27.018  28.033  1.00  0.00    -0.014 A 
BRANCH  16  17
ATOM     17  C   UNL A   1      42.036  27.757  29.227  1.00  0.00     0.031 A 
ATOM     18  C   UNL A   1      42.627  27.475  30.565  1.00  0.00     0.074 A 
ATOM     19  C   UNL A   1      40.915  28.487  29.075  1.00  0.00     0.049 A 
ATOM     20  N   UNL A   1      42.349  28.036  31.710  1.00  0.00    -0.248 NA
ATOM     21  C   UNL A   1      43.631  26.401  30.639  1.00  0.00     0.031 C 
ATOM     22  C   UNL A   1      40.173  28.628  27.814  1.00  0.00     0.029 A 
ATOM     23  N   UNL A   1      40.173  29.193  29.975  1.00  0.00    -0.354 N 
ATOM     24  C   UNL A   1      43.173  27.417  32.639  1.00  0.00     0.074 A 
ATOM     25  C   UNL A   1      43.903  26.383  31.938  1.00  0.00     0.031 C 
ATOM     26  C   UNL A   1      39.086  29.382  28.022  1.00  0.00     0.029 A 
ATOM     27  C   UNL A   1      39.064  29.782  29.420  1.00  0.00     0.049 A 
ATOM     28  H   UNL A   1      40.409  29.273  30.927  1.00  0.00     0.167 HD
ATOM     29  C   UNL A   1      43.306  27.723  33.952  1.00  0.00     0.037 A 
ATOM     30  C   UNL A   1      38.148  30.585  29.984  1.00  0.00     0.037 A 
ATOM     31  C   UNL A   1      42.495  28.719  34.608  1.00  0.00     0.049 A 
ATOM     32  C   UNL A   1      38.347  30.944  31.423  1.00  0.00     0.074 A 
ATOM     33  C   UNL A   1      42.573  29.191  35.904  1.00  0.00     0.029 A 
ATOM     34  N   UNL A   1      41.425  29.376  34.007  1.00  0.00    -0.354 N 
ATOM     35  N   UNL A   1      39.254  30.506  32.264  1.00  0.00    -0.248 NA
ATOM     36  C   UNL A   1      37.423  31.933  31.985  1.00  0.00     0.031 C 
ATOM     37  C   UNL A   1      41.519  30.093  36.103  1.00  0.00     0.029 A 
ATOM     38  C   UNL A   1      40.818  30.229  34.913  1.00  0.00     0.049 A 
ATOM     39  H   UNL A   1      41.140  29.251  33.073  1.00  0.00     0.167 HD
ATOM     40  C   UNL A   1      39.032  31.184  33.450  1.00  0.00     0.074 A 
ATOM     41  C   UNL A   1      37.913  32.078  33.208  1.00  0.00     0.031 C 
ATOM     42  C   UNL A   1      39.689  31.083  34.633  1.00  0.00     0.037 A 
BRANCH  29  43
ATOM     43  C   UNL A   1      44.366  26.996  34.732  1.00  0.00     0.057 A 
ATOM     44  C   UNL A   1      44.076  25.826  35.447  1.00  0.00     0.134 A 
ATOM     45  C   UNL A   1      45.682  27.480  34.809  1.00  0.00     0.134 A 
ATOM     46  F   UNL A   1      42.841  25.305  35.429  1.00  0.00    -0.206 F 
ATOM     47  C   UNL A   1      45.051  25.167  36.201  1.00  0.00     0.040 A 
ATOM     48  C   UNL A   1      46.671  26.815  35.537  1.00  0.00     0.040 A 
ATOM     49  F   UNL A   1      46.036  28.595  34.151  1.00  0.00    -0.206 F 
ATOM     50  C   UNL A   1      46.354  25.657  36.241  1.00  0.00     0.006 A 
ENDBRANCH  29  43
BRANCH  30  51
ATOM     51  C   UNL A   1      37.075  31.176  29.150  1.00  0.00     0.057 A 
ATOM     52  C   UNL A   1      37.118  32.509  28.727  1.00  0.00     0.134 A 
ATOM     53  C   UNL A   1      35.940  30.429  28.817  1.00  0.00     0.134 A 
ATOM     54  F   UNL A   1      38.162  33.288  29.045  1.00  0.00    -0.206 F 
ATOM     55  C   UNL A   1      36.070  33.078  27.999  1.00  0.00     0.040 A 
ATOM     56  C   UNL A   1      34.896  30.977  28.070  1.00  0.00     0.040 A 
ATOM     57  F   UNL A   1      35.837  29.149  29.204  1.00  0.00    -0.206 F 
ATOM     58  C   UNL A   1      34.959  32.307  27.663  1.00  0.00     0.006 A 
ENDBRANCH  30  51
BRANCH  42  59
ATOM     59  C   UNL A   1      39.201  31.978  35.732  1.00  0.00     0.057 A 
ATOM     60  C   UNL A   1      39.663  33.295  35.832  1.00  0.00     0.134 A 
ATOM     61  C   UNL A   1      38.270  31.539  36.683  1.00  0.00     0.134 A 
ATOM     62  F   UNL A   1      40.560  33.773  34.956  1.00  0.00    -0.206 F 
ATOM     63  C   UNL A   1      39.213  34.148  36.840  1.00  0.00     0.040 A 
ATOM     64  C   UNL A   1      37.788  32.392  37.673  1.00  0.00     0.040 A 
ATOM     65  F   UNL A   1      37.776  30.292  36.625  1.00  0.00    -0.206 F 
ATOM     66  C   UNL A   1      38.264  33.699  37.757  1.00  0.00     0.006 A 
ENDBRANCH  42  59
ENDBRANCH  16  17
ENDBRANCH   9  11
ENDBRANCH   8   9
ENDBRANCH   7   8
ENDBRANCH   6   7
ENDBRANCH   5   6
ENDBRANCH   4   5
ENDBRANCH   3   4
ENDBRANCH   2   3
ENDBRANCH   1   2
BRANCH   1  67
ATOM     67  C   UNL A   1      39.966  22.237  26.173  1.00  0.00     0.188 C 
BRANCH  67  68
ATOM     68  O   UNL A   1      38.564  22.023  26.230  1.00  0.00    -0.376 OA
BRANCH  68  69
ATOM     69  C   UNL A   1      37.783  23.206  26.124  1.00  0.00     0.202 C 
BRANCH  69  70
ATOM     70  C   UNL A   1      36.329  23.038  25.681  1.00  0.00     0.261 C 
BRANCH  70  71
ATOM     71  O   UNL A   1      35.694  21.771  25.947  1.00  0.00    -0.459 OA
BRANCH  71  72
ATOM     72  C   UNL A   1      34.461  21.523  26.449  1.00  0.00     0.365 C 
ATOM     73  O   UNL A   1      34.216  21.379  27.639  1.00  0.00    -0.245 OA
BRANCH  72  74
ATOM     74  C   UNL A   1      33.382  21.570  25.331  1.00  0.00     0.295 C 
ATOM     75  C   UNL A   1      33.732  21.414  23.862  1.00  0.00     0.083 C 
ATOM     76  N   UNL A   1      32.459  22.739  25.350  1.00  0.00    -0.315 N 
ATOM     77  C   UNL A   1      32.426  21.764  23.154  1.00  0.00     0.068 C 
ATOM     78  C   UNL A   1      31.633  22.607  24.149  1.00  0.00     0.263 C 
ATOM     79  H   UNL A   1      31.915  22.688  26.211  1.00  0.00     0.349 HD
BRANCH  76  80
ATOM     80  C   UNL A   1      33.014  24.101  25.581  1.00  0.00     0.364 C 
BRANCH  80  81
ATOM     81  C   UNL A   1      32.101  25.059  26.371  1.00  0.00     0.282 C 
ATOM     82  O   UNL A   1      31.332  24.632  27.236  1.00  0.00    -0.268 OA
BRANCH  81  83
ATOM     83  N   UNL A   1      32.075  26.402  25.953  1.00  0.00    -0.306 N 
ATOM     84  C   UNL A   1      33.379  27.042  25.759  1.00  0.00     0.137 C 
ATOM     85  C   UNL A   1      31.011  26.919  25.127  1.00  0.00     0.057 A 
ATOM     86  C   UNL A   1      33.406  28.543  25.969  1.00  0.00     0.097 C 
ATOM     87  C   UNL A   1      31.087  28.208  24.536  1.00  0.00     0.031 A 
ATOM     88  C   UNL A   1      29.912  26.110  24.791  1.00  0.00     0.027 A 
ATOM     89  S   UNL A   1      32.411  29.397  24.746  1.00  0.00    -0.122 SA
ATOM     90  C   UNL A   1      30.099  28.634  23.634  1.00  0.00     0.017 A 
ATOM     91  C   UNL A   1      28.955  26.538  23.861  1.00  0.00     0.002 A 
ATOM     92  C   UNL A   1      29.049  27.797  23.281  1.00  0.00     0.001 A 
ENDBRANCH  81  83
ENDBRANCH  80  81
ENDBRANCH  76  80
ENDBRANCH  72  74
ENDBRANCH  71  72
ENDBRANCH  70  71
ENDBRANCH  69  70
ENDBRANCH  68  69
ENDBRANCH  67  68
ENDBRANCH   1  67
TORSDOF 23
ENDMDL
MODEL 2
REMARK VINA RESULT:     -10.3      4.613      9.935
REMARK SMILES O=C(OCCOCCOCCOCCOC(=O)[C@@H]1CCC[N@@H+]1CC(=O)N1CCSc2ccccc21)c1ccc(-c2c3nc(c(-c4c(F)cccc4F)c4ccc([nH]4)c(-c4c(F)cccc4F)c4nc(c(-c5c(F)cccc5F)c5ccc2[nH]5)C=C4)C=C3)cc1
REMARK SMILES IDX 10 1 9 2 8 3 7 4 6 5 5 6 4 7 3 8 2 9 1 10 36 11 37 12 89 13
REMARK SMILES IDX 38 14 88 15 39 16 40 17 41 18 82 19 42 20 87 21 81 22 83 23
REMARK SMILES IDX 43 24 86 25 80 26 79 27 44 29 70 30 53 31 69 32 54 33 57 34
REMARK SMILES IDX 68 35 84 36 55 37 56 38 67 40 85 41 58 42 45 43 46 44 51 45
REMARK SMILES IDX 47 46 48 47 50 48 52 49 49 50 71 51 72 52 77 53 73 54 74 55
REMARK SMILES IDX 76 56 78 57 75 58 59 59 60 60 65 61 61 62 62 63 64 64 66 65
REMARK SMILES IDX 63 66 11 67 12 68 13 69 14 70 15 71 16 72 17 73 18 74 19 75
REMARK SMILES IDX 22 76 20 77 21 78 23 80 24 81 25 82 26 83 27 84 35 85 28 86
REMARK SMILES IDX 30 87 34 88 29 89 31 90 33 91 32 92
REMARK H PARENT 83 28 57 39 22 79
REMARK Flexibility Score: inf
ROOT
ATOM      1  C   UNL A   1      34.981  30.791  28.014  1.00  0.00     0.188 C 
ENDROOT
BRANCH   1   2
ATOM      2  O   UNL A   1      35.822  31.867  27.621  1.00  0.00    -0.377 OA
BRANCH   2   3
ATOM      3  C   UNL A   1      35.702  33.082  28.345  1.00  0.00     0.188 C 
BRANCH   3   4
ATOM      4  C   UNL A   1      34.375  33.262  29.075  1.00  0.00     0.188 C 
BRANCH   4   5
ATOM      5  O   UNL A   1      34.343  34.463  29.845  1.00  0.00    -0.376 OA
BRANCH   5   6
ATOM      6  C   UNL A   1      34.196  34.307  31.262  1.00  0.00     0.202 C 
BRANCH   6   7
ATOM      7  C   UNL A   1      35.478  33.904  31.980  1.00  0.00     0.261 C 
BRANCH   7   8
ATOM      8  O   UNL A   1      35.374  32.544  32.405  1.00  0.00    -0.460 OA
BRANCH   8   9
ATOM      9  C   UNL A   1      36.378  32.153  33.233  1.00  0.00     0.338 C 
ATOM     10  O   UNL A   1      36.496  32.440  34.408  1.00  0.00    -0.246 OA
BRANCH   9  11
ATOM     11  C   UNL A   1      37.386  31.418  32.432  1.00  0.00     0.060 A 
ATOM     12  C   UNL A   1      37.163  31.169  31.077  1.00  0.00     0.016 A 
ATOM     13  C   UNL A   1      38.534  30.913  33.063  1.00  0.00     0.016 A 
ATOM     14  C   UNL A   1      38.140  30.499  30.340  1.00  0.00     0.010 A 
ATOM     15  C   UNL A   1      39.468  30.190  32.359  1.00  0.00     0.010 A 
ATOM     16  C   UNL A   1      39.305  30.044  30.982  1.00  0.00    -0.014 A 
BRANCH  16  17
ATOM     17  C   UNL A   1      40.528  29.702  30.248  1.00  0.00     0.031 A 
ATOM     18  C   UNL A   1      41.529  30.743  29.884  1.00  0.00     0.074 A 
ATOM     19  C   UNL A   1      40.543  28.470  29.706  1.00  0.00     0.049 A 
ATOM     20  N   UNL A   1      42.651  30.599  29.232  1.00  0.00    -0.248 NA
ATOM     21  C   UNL A   1      41.218  32.131  30.263  1.00  0.00     0.031 C 
ATOM     22  C   UNL A   1      39.474  27.473  29.865  1.00  0.00     0.029 A 
ATOM     23  N   UNL A   1      41.440  27.862  28.878  1.00  0.00    -0.354 N 
ATOM     24  C   UNL A   1      43.206  31.867  29.159  1.00  0.00     0.074 A 
ATOM     25  C   UNL A   1      42.261  32.782  29.761  1.00  0.00     0.031 C 
ATOM     26  C   UNL A   1      39.784  26.376  29.162  1.00  0.00     0.029 A 
ATOM     27  C   UNL A   1      41.070  26.590  28.518  1.00  0.00     0.049 A 
ATOM     28  H   UNL A   1      42.269  28.292  28.569  1.00  0.00     0.167 HD
ATOM     29  C   UNL A   1      44.414  32.208  28.649  1.00  0.00     0.037 A 
ATOM     30  C   UNL A   1      41.723  25.688  27.770  1.00  0.00     0.037 A 
ATOM     31  C   UNL A   1      45.282  31.259  27.996  1.00  0.00     0.049 A 
ATOM     32  C   UNL A   1      43.076  26.072  27.260  1.00  0.00     0.074 A 
ATOM     33  C   UNL A   1      46.562  31.439  27.507  1.00  0.00     0.029 A 
ATOM     34  N   UNL A   1      44.929  29.942  27.713  1.00  0.00    -0.354 N 
ATOM     35  N   UNL A   1      43.696  27.225  27.358  1.00  0.00    -0.248 NA
ATOM     36  C   UNL A   1      43.837  25.029  26.568  1.00  0.00     0.031 C 
ATOM     37  C   UNL A   1      46.962  30.250  26.884  1.00  0.00     0.029 A 
ATOM     38  C   UNL A   1      45.955  29.308  27.034  1.00  0.00     0.049 A 
ATOM     39  H   UNL A   1      44.072  29.523  27.959  1.00  0.00     0.167 HD
ATOM     40  C   UNL A   1      44.934  27.043  26.766  1.00  0.00     0.074 A 
ATOM     41  C   UNL A   1      44.980  25.658  26.330  1.00  0.00     0.031 C 
ATOM     42  C   UNL A   1      45.945  27.932  26.597  1.00  0.00     0.037 A 
BRANCH  29  43
ATOM     43  C   UNL A   1      44.858  33.636  28.803  1.00  0.00     0.057 A 
ATOM     44  C   UNL A   1      45.562  34.067  29.936  1.00  0.00     0.134 A 
ATOM     45  C   UNL A   1      44.555  34.607  27.835  1.00  0.00     0.134 A 
ATOM     46  F   UNL A   1      45.883  33.201  30.909  1.00  0.00    -0.206 F 
ATOM     47  C   UNL A   1      45.946  35.401  30.097  1.00  0.00     0.040 A 
ATOM     48  C   UNL A   1      44.958  35.937  27.972  1.00  0.00     0.040 A 
ATOM     49  F   UNL A   1      43.885  34.271  26.721  1.00  0.00    -0.206 F 
ATOM     50  C   UNL A   1      45.651  36.338  29.110  1.00  0.00     0.006 A 
ENDBRANCH  29  43
BRANCH  30  51
ATOM     51  C   UNL A   1      41.154  24.331  27.590  1.00  0.00     0.057 A 
ATOM     52  C   UNL A   1      41.660  23.220  28.275  1.00  0.00     0.134 A 
ATOM     53  C   UNL A   1      40.128  24.106  26.666  1.00  0.00     0.134 A 
ATOM     54  F   UNL A   1      42.669  23.364  29.148  1.00  0.00    -0.206 F 
ATOM     55  C   UNL A   1      41.164  21.935  28.049  1.00  0.00     0.040 A 
ATOM     56  C   UNL A   1      39.606  22.830  26.447  1.00  0.00     0.040 A 
ATOM     57  F   UNL A   1      39.610  25.129  25.971  1.00  0.00    -0.206 F 
ATOM     58  C   UNL A   1      40.128  21.739  27.137  1.00  0.00     0.006 A 
ENDBRANCH  30  51
BRANCH  42  59
ATOM     59  C   UNL A   1      47.174  27.406  25.919  1.00  0.00     0.057 A 
ATOM     60  C   UNL A   1      48.214  26.847  26.670  1.00  0.00     0.134 A 
ATOM     61  C   UNL A   1      47.322  27.446  24.526  1.00  0.00     0.134 A 
ATOM     62  F   UNL A   1      48.135  26.785  28.007  1.00  0.00    -0.206 F 
ATOM     63  C   UNL A   1      49.360  26.341  26.058  1.00  0.00     0.040 A 
ATOM     64  C   UNL A   1      48.448  26.913  23.902  1.00  0.00     0.040 A 
ATOM     65  F   UNL A   1      46.349  27.952  23.753  1.00  0.00    -0.206 F 
ATOM     66  C   UNL A   1      49.474  26.364  24.669  1.00  0.00     0.006 A 
ENDBRANCH  42  59
ENDBRANCH  16  17
ENDBRANCH   9  11
ENDBRANCH   8   9
ENDBRANCH   7   8
ENDBRANCH   6   7
ENDBRANCH   5   6
ENDBRANCH   4   5
ENDBRANCH   3   4
ENDBRANCH   2   3
ENDBRANCH   1   2
BRANCH   1  67
ATOM     67  C   UNL A   1      34.023  30.140  27.002  1.00  0.00     0.188 C 
BRANCH  67  68
ATOM     68  O   UNL A   1      33.740  28.772  27.246  1.00  0.00    -0.376 OA
BRANCH  68  69
ATOM     69  C   UNL A   1      32.355  28.455  27.285  1.00  0.00     0.202 C 
BRANCH  69  70
ATOM     70  C   UNL A   1      31.892  27.269  26.437  1.00  0.00     0.261 C 
BRANCH  70  71
ATOM     71  O   UNL A   1      30.943  27.533  25.384  1.00  0.00    -0.459 OA
BRANCH  71  72
ATOM     72  C   UNL A   1      30.458  26.691  24.441  1.00  0.00     0.365 C 
ATOM     73  O   UNL A   1      29.286  26.348  24.358  1.00  0.00    -0.245 OA
BRANCH  72  74
ATOM     74  C   UNL A   1      31.556  26.318  23.405  1.00  0.00     0.295 C 
ATOM     75  C   UNL A   1      31.344  26.482  21.910  1.00  0.00     0.083 C 
ATOM     76  N   UNL A   1      32.151  24.958  23.530  1.00  0.00    -0.315 N 
ATOM     77  C   UNL A   1      32.560  25.781  21.309  1.00  0.00     0.068 C 
ATOM     78  C   UNL A   1      33.053  24.819  22.386  1.00  0.00     0.263 C 
ATOM     79  H   UNL A   1      32.638  24.916  24.425  1.00  0.00     0.349 HD
BRANCH  76  80
ATOM     80  C   UNL A   1      31.256  23.792  23.768  1.00  0.00     0.364 C 
BRANCH  80  81
ATOM     81  C   UNL A   1      31.613  22.929  24.994  1.00  0.00     0.282 C 
ATOM     82  O   UNL A   1      30.808  22.774  25.915  1.00  0.00    -0.268 OA
BRANCH  81  83
ATOM     83  N   UNL A   1      32.938  22.465  25.081  1.00  0.00    -0.306 N 
ATOM     84  C   UNL A   1      33.761  23.062  26.138  1.00  0.00     0.137 C 
ATOM     85  C   UNL A   1      33.297  21.117  24.715  1.00  0.00     0.057 A 
ATOM     86  C   UNL A   1      35.249  23.109  25.856  1.00  0.00     0.097 C 
ATOM     87  C   UNL A   1      34.584  20.587  24.995  1.00  0.00     0.031 A 
ATOM     88  C   UNL A   1      32.337  20.248  24.168  1.00  0.00     0.027 A 
ATOM     89  S   UNL A   1      35.952  21.463  25.752  1.00  0.00    -0.122 SA
ATOM     90  C   UNL A   1      34.864  19.234  24.746  1.00  0.00     0.017 A 
ATOM     91  C   UNL A   1      32.624  18.892  23.959  1.00  0.00     0.002 A 
ATOM     92  C   UNL A   1      33.884  18.384  24.249  1.00  0.00     0.001 A 
ENDBRANCH  81  83
ENDBRANCH  80  81
ENDBRANCH  76  80
ENDBRANCH  72  74
ENDBRANCH  71  72
ENDBRANCH  70  71
ENDBRANCH  69  70
ENDBRANCH  68  69
ENDBRANCH  67  68
ENDBRANCH   1  67
TORSDOF 23
ENDMDL
MODEL 3
REMARK VINA RESULT:     -10.3      1.462      6.285
REMARK SMILES O=C(OCCOCCOCCOCCOC(=O)[C@@H]1CCC[N@@H+]1CC(=O)N1CCSc2ccccc21)c1ccc(-c2c3nc(c(-c4c(F)cccc4F)c4ccc([nH]4)c(-c4c(F)cccc4F)c4nc(c(-c5c(F)cccc5F)c5ccc2[nH]5)C=C4)C=C3)cc1
REMARK SMILES IDX 10 1 9 2 8 3 7 4 6 5 5 6 4 7 3 8 2 9 1 10 36 11 37 12 89 13
REMARK SMILES IDX 38 14 88 15 39 16 40 17 41 18 82 19 42 20 87 21 81 22 83 23
REMARK SMILES IDX 43 24 86 25 80 26 79 27 44 29 70 30 53 31 69 32 54 33 57 34
REMARK SMILES IDX 68 35 84 36 55 37 56 38 67 40 85 41 58 42 45 43 46 44 51 45
REMARK SMILES IDX 47 46 48 47 50 48 52 49 49 50 71 51 72 52 77 53 73 54 74 55
REMARK SMILES IDX 76 56 78 57 75 58 59 59 60 60 65 61 61 62 62 63 64 64 66 65
REMARK SMILES IDX 63 66 11 67 12 68 13 69 14 70 15 71 16 72 17 73 18 74 19 75
REMARK SMILES IDX 22 76 20 77 21 78 23 80 24 81 25 82 26 83 27 84 35 85 28 86
REMARK SMILES IDX 30 87 34 88 29 89 31 90 33 91 32 92
REMARK H PARENT 83 28 57 39 22 79
REMARK Flexibility Score: inf
ROOT
ATOM      1  C   UNL A   1      38.909  22.044  26.102  1.00  0.00     0.188 C 
ENDROOT
BRANCH   1   2
ATOM      2  O   UNL A   1      40.300  21.770  26.008  1.00  0.00    -0.377 OA
BRANCH   2   3
ATOM      3  C   UNL A   1      40.743  20.500  26.461  1.00  0.00     0.188 C 
BRANCH   3   4
ATOM      4  C   UNL A   1      42.258  20.321  26.480  1.00  0.00     0.188 C 
BRANCH   4   5
ATOM      5  O   UNL A   1      42.892  20.983  25.386  1.00  0.00    -0.376 OA
BRANCH   5   6
ATOM      6  C   UNL A   1      44.130  21.645  25.673  1.00  0.00     0.202 C 
BRANCH   6   7
ATOM      7  C   UNL A   1      44.084  22.546  26.901  1.00  0.00     0.261 C 
BRANCH   7   8
ATOM      8  O   UNL A   1      44.514  23.860  26.539  1.00  0.00    -0.460 OA
BRANCH   8   9
ATOM      9  C   UNL A   1      43.615  24.536  25.776  1.00  0.00     0.338 C 
ATOM     10  O   UNL A   1      43.529  24.501  24.565  1.00  0.00    -0.246 OA
BRANCH   9  11
ATOM     11  C   UNL A   1      42.830  25.432  26.659  1.00  0.00     0.060 A 
ATOM     12  C   UNL A   1      41.638  24.986  27.234  1.00  0.00     0.016 A 
ATOM     13  C   UNL A   1      43.257  26.754  26.855  1.00  0.00     0.016 A 
ATOM     14  C   UNL A   1      40.933  25.840  28.082  1.00  0.00     0.010 A 
ATOM     15  C   UNL A   1      42.530  27.624  27.634  1.00  0.00     0.010 A 
ATOM     16  C   UNL A   1      41.405  27.145  28.304  1.00  0.00    -0.014 A 
BRANCH  16  17
ATOM     17  C   UNL A   1      40.978  27.955  29.451  1.00  0.00     0.031 A 
ATOM     18  C   UNL A   1      39.889  28.962  29.325  1.00  0.00     0.074 A 
ATOM     19  C   UNL A   1      41.802  27.916  30.515  1.00  0.00     0.049 A 
ATOM     20  N   UNL A   1      39.406  29.756  30.241  1.00  0.00    -0.248 NA
ATOM     21  C   UNL A   1      39.287  29.132  27.992  1.00  0.00     0.031 C 
ATOM     22  C   UNL A   1      43.014  27.088  30.606  1.00  0.00     0.029 A 
ATOM     23  N   UNL A   1      41.791  28.613  31.687  1.00  0.00    -0.354 N 
ATOM     24  C   UNL A   1      38.412  30.492  29.613  1.00  0.00     0.074 A 
ATOM     25  C   UNL A   1      38.415  30.107  28.218  1.00  0.00     0.031 C 
ATOM     26  C   UNL A   1      43.623  27.322  31.775  1.00  0.00     0.029 A 
ATOM     27  C   UNL A   1      42.841  28.301  32.514  1.00  0.00     0.049 A 
ATOM     28  H   UNL A   1      41.098  29.274  31.917  1.00  0.00     0.167 HD
ATOM     29  C   UNL A   1      37.568  31.386  30.180  1.00  0.00     0.037 A 
ATOM     30  C   UNL A   1      43.118  28.743  33.750  1.00  0.00     0.037 A 
ATOM     31  C   UNL A   1      37.664  31.780  31.564  1.00  0.00     0.049 A 
ATOM     32  C   UNL A   1      42.144  29.693  34.372  1.00  0.00     0.074 A 
ATOM     33  C   UNL A   1      36.833  32.608  32.295  1.00  0.00     0.029 A 
ATOM     34  N   UNL A   1      38.688  31.387  32.421  1.00  0.00    -0.354 N 
ATOM     35  N   UNL A   1      41.079  30.247  33.839  1.00  0.00    -0.248 NA
ATOM     36  C   UNL A   1      42.382  30.055  35.771  1.00  0.00     0.031 C 
ATOM     37  C   UNL A   1      37.382  32.756  33.575  1.00  0.00     0.029 A 
ATOM     38  C   UNL A   1      38.525  31.975  33.663  1.00  0.00     0.049 A 
ATOM     39  H   UNL A   1      39.424  30.779  32.177  1.00  0.00     0.167 HD
ATOM     40  C   UNL A   1      40.500  31.003  34.844  1.00  0.00     0.074 A 
ATOM     41  C   UNL A   1      41.327  30.816  36.024  1.00  0.00     0.031 C 
ATOM     42  C   UNL A   1      39.389  31.779  34.803  1.00  0.00     0.037 A 
BRANCH  29  43
ATOM     43  C   UNL A   1      36.479  31.962  29.318  1.00  0.00     0.057 A 
ATOM     44  C   UNL A   1      36.494  33.305  28.920  1.00  0.00     0.134 A 
ATOM     45  C   UNL A   1      35.383  31.187  28.906  1.00  0.00     0.134 A 
ATOM     46  F   UNL A   1      37.503  34.112  29.279  1.00  0.00    -0.206 F 
ATOM     47  C   UNL A   1      35.466  33.852  28.146  1.00  0.00     0.040 A 
ATOM     48  C   UNL A   1      34.364  31.715  28.109  1.00  0.00     0.040 A 
ATOM     49  F   UNL A   1      35.300  29.892  29.246  1.00  0.00    -0.206 F 
ATOM     50  C   UNL A   1      34.402  33.055  27.733  1.00  0.00     0.006 A 
ENDBRANCH  29  43
BRANCH  30  51
ATOM     51  C   UNL A   1      44.278  28.188  34.487  1.00  0.00     0.057 A 
ATOM     52  C   UNL A   1      44.151  27.094  35.350  1.00  0.00     0.134 A 
ATOM     53  C   UNL A   1      45.536  28.794  34.395  1.00  0.00     0.134 A 
ATOM     54  F   UNL A   1      42.963  26.491  35.510  1.00  0.00    -0.206 F 
ATOM     55  C   UNL A   1      45.235  26.619  36.092  1.00  0.00     0.040 A 
ATOM     56  C   UNL A   1      46.633  28.316  35.113  1.00  0.00     0.040 A 
ATOM     57  F   UNL A   1      45.717  29.853  33.593  1.00  0.00    -0.206 F 
ATOM     58  C   UNL A   1      46.482  27.228  35.968  1.00  0.00     0.006 A 
ENDBRANCH  30  51
BRANCH  42  59
ATOM     59  C   UNL A   1      39.020  32.464  36.085  1.00  0.00     0.057 A 
ATOM     60  C   UNL A   1      39.479  33.759  36.355  1.00  0.00     0.134 A 
ATOM     61  C   UNL A   1      38.208  31.846  37.043  1.00  0.00     0.134 A 
ATOM     62  F   UNL A   1      40.265  34.401  35.479  1.00  0.00    -0.206 F 
ATOM     63  C   UNL A   1      39.137  34.418  37.535  1.00  0.00     0.040 A 
ATOM     64  C   UNL A   1      37.833  32.508  38.211  1.00  0.00     0.040 A 
ATOM     65  F   UNL A   1      37.722  30.613  36.830  1.00  0.00    -0.206 F 
ATOM     66  C   UNL A   1      38.303  33.795  38.462  1.00  0.00     0.006 A 
ENDBRANCH  42  59
ENDBRANCH  16  17
ENDBRANCH   9  11
ENDBRANCH   8   9
ENDBRANCH   7   8
ENDBRANCH   6   7
ENDBRANCH   5   6
ENDBRANCH   4   5
ENDBRANCH   3   4
ENDBRANCH   2   3
ENDBRANCH   1   2
BRANCH   1  67
ATOM     67  C   UNL A   1      38.406  23.491  26.235  1.00  0.00     0.188 C 
BRANCH  67  68
ATOM     68  O   UNL A   1      37.483  23.894  25.236  1.00  0.00    -0.376 OA
BRANCH  68  69
ATOM     69  C   UNL A   1      36.118  23.729  25.594  1.00  0.00     0.202 C 
BRANCH  69  70
ATOM     70  C   UNL A   1      35.103  24.630  24.890  1.00  0.00     0.261 C 
BRANCH  70  71
ATOM     71  O   UNL A   1      34.818  24.356  23.504  1.00  0.00    -0.459 OA
BRANCH  71  72
ATOM     72  C   UNL A   1      33.855  23.568  22.970  1.00  0.00     0.365 C 
ATOM     73  O   UNL A   1      33.637  23.458  21.771  1.00  0.00    -0.245 OA
BRANCH  72  74
ATOM     74  C   UNL A   1      33.148  22.725  24.069  1.00  0.00     0.295 C 
ATOM     75  C   UNL A   1      32.862  21.244  23.892  1.00  0.00     0.083 C 
ATOM     76  N   UNL A   1      31.869  23.270  24.602  1.00  0.00    -0.315 N 
ATOM     77  C   UNL A   1      31.970  20.918  25.087  1.00  0.00     0.068 C 
ATOM     78  C   UNL A   1      31.359  22.249  25.519  1.00  0.00     0.263 C 
ATOM     79  H   UNL A   1      32.080  24.151  25.070  1.00  0.00     0.349 HD
BRANCH  76  80
ATOM     80  C   UNL A   1      30.861  23.819  23.654  1.00  0.00     0.364 C 
BRANCH  80  81
ATOM     81  C   UNL A   1      30.561  25.323  23.810  1.00  0.00     0.282 C 
ATOM     82  O   UNL A   1      29.400  25.738  23.840  1.00  0.00    -0.268 OA
BRANCH  81  83
ATOM     83  N   UNL A   1      31.660  26.199  23.759  1.00  0.00    -0.306 N 
ATOM     84  C   UNL A   1      31.927  26.822  22.459  1.00  0.00     0.137 C 
ATOM     85  C   UNL A   1      32.066  26.977  24.904  1.00  0.00     0.057 A 
ATOM     86  C   UNL A   1      33.374  27.190  22.198  1.00  0.00     0.097 C 
ATOM     87  C   UNL A   1      33.037  28.006  24.799  1.00  0.00     0.031 A 
ATOM     88  C   UNL A   1      31.424  26.808  26.143  1.00  0.00     0.027 A 
ATOM     89  S   UNL A   1      33.942  28.467  23.322  1.00  0.00    -0.122 SA
ATOM     90  C   UNL A   1      33.318  28.832  25.899  1.00  0.00     0.017 A 
ATOM     91  C   UNL A   1      31.692  27.665  27.220  1.00  0.00     0.002 A 
ATOM     92  C   UNL A   1      32.636  28.676  27.098  1.00  0.00     0.001 A 
ENDBRANCH  81  83
ENDBRANCH  80  81
ENDBRANCH  76  80
ENDBRANCH  72  74
ENDBRANCH  71  72
ENDBRANCH  70  71
ENDBRANCH  69  70
ENDBRANCH  68  69
ENDBRANCH  67  68
ENDBRANCH   1  67
TORSDOF 23
ENDMDL
