MODEL 1
REMARK VINA RESULT:     -10.7      0.000      0.000
REMARK SMILES Cc1ccc(NC(=O)c2ccccc2NC(=O)[C@H]2CCCC[C@H]2C(=O)OCCOCCOCCOCCOC(=O)c2ccc(-c3c4nc(c(-c5c(F)cccc5F)c5ccc([nH]5)c(-c5c(F)cccc5F)c5nc(c(-c6c(F)cccc6F)c6ccc3[nH]6)C=C5)C=C4)cc2)cc1
REMARK SMILES IDX 31 1 30 2 29 3 28 4 27 5 26 6 24 7 25 8 23 9 18 10 19 11
REMARK SMILES IDX 20 12 22 13 21 14 16 15 15 16 17 18 14 19 9 20 10 21 11 22
REMARK SMILES IDX 13 23 12 24 7 25 6 26 8 28 5 29 1 30 2 31 3 32 96 33 4 34
REMARK SMILES IDX 95 35 32 36 33 37 34 38 35 39 36 40 37 41 38 42 39 43 40 44
REMARK SMILES IDX 41 45 42 46 94 47 43 48 93 49 44 50 45 51 46 52 87 53 47 54
REMARK SMILES IDX 92 55 86 56 88 57 48 58 91 59 85 60 84 61 49 63 75 64 58 65
REMARK SMILES IDX 74 66 59 67 62 68 73 69 89 70 60 71 61 72 72 74 90 75 63 76
REMARK SMILES IDX 50 77 51 78 56 79 52 80 53 81 55 82 57 83 54 84 76 85 77 86
REMARK SMILES IDX 82 87 78 88 79 89 81 90 83 91 80 92 64 93 65 94 70 95 66 96
REMARK SMILES IDX 67 97 69 98 71 99 68 100
REMARK H PARENT 15 17 6 27 88 62 62 73
REMARK Flexibility Score: inf
ROOT
ATOM      1  C   UNL A   1      37.354  32.094  29.308  1.00  0.00     0.188 C 
ENDROOT
BRANCH   1   2
ATOM      2  C   UNL A   1      36.357  31.251  28.514  1.00  0.00     0.188 C 
BRANCH   2   3
ATOM      3  O   UNL A   1      34.983  31.525  28.664  1.00  0.00    -0.376 OA
BRANCH   3   4
ATOM      4  C   UNL A   1      34.114  31.001  27.669  1.00  0.00     0.202 C 
BRANCH   4   5
ATOM      5  C   UNL A   1      34.411  29.655  27.027  1.00  0.00     0.261 C 
BRANCH   5   6
ATOM      6  O   UNL A   1      33.688  28.597  27.692  1.00  0.00    -0.463 OA
BRANCH   6   7
ATOM      7  C   UNL A   1      32.475  28.334  27.184  1.00  0.00     0.309 C 
ATOM      8  O   UNL A   1      31.418  28.703  27.695  1.00  0.00    -0.252 OA
BRANCH   7   9
ATOM      9  C   UNL A   1      32.467  27.472  25.947  1.00  0.00     0.111 C 
ATOM     10  C   UNL A   1      33.121  26.065  25.892  1.00  0.00     0.093 C 
ATOM     11  C   UNL A   1      33.498  25.845  24.404  1.00  0.00     0.014 C 
ATOM     12  C   UNL A   1      32.337  26.141  23.430  1.00  0.00     0.001 C 
ATOM     13  C   UNL A   1      31.223  27.664  25.093  1.00  0.00     0.016 C 
ATOM     14  C   UNL A   1      31.644  27.489  23.638  1.00  0.00     0.001 C 
BRANCH  10  15
ATOM     15  C   UNL A   1      32.352  24.802  26.336  1.00  0.00     0.228 C 
ATOM     16  N   UNL A   1      32.766  23.496  26.117  1.00  0.00    -0.325 N 
ATOM     17  H   UNL A   1      32.044  22.856  26.312  1.00  0.00     0.169 HD
ATOM     18  O   UNL A   1      31.230  24.919  26.846  1.00  0.00    -0.274 OA
BRANCH  16  19
ATOM     19  C   UNL A   1      33.954  22.820  25.685  1.00  0.00     0.054 A 
ATOM     20  C   UNL A   1      33.947  21.922  24.570  1.00  0.00     0.063 A 
ATOM     21  C   UNL A   1      35.068  21.095  24.302  1.00  0.00     0.016 A 
ATOM     22  C   UNL A   1      36.196  21.134  25.106  1.00  0.00     0.001 A 
ATOM     23  C   UNL A   1      35.161  22.916  26.385  1.00  0.00     0.027 A 
ATOM     24  C   UNL A   1      36.247  22.061  26.133  1.00  0.00     0.002 A 
BRANCH  20  25
ATOM     25  C   UNL A   1      32.810  21.566  23.676  1.00  0.00     0.257 C 
ATOM     26  N   UNL A   1      32.292  20.302  23.547  1.00  0.00    -0.322 N 
ATOM     27  H   UNL A   1      31.440  20.245  23.056  1.00  0.00     0.170 HD
ATOM     28  O   UNL A   1      32.288  22.473  23.021  1.00  0.00    -0.269 OA
BRANCH  26  29
ATOM     29  C   UNL A   1      32.792  19.089  24.009  1.00  0.00     0.041 A 
ATOM     30  C   UNL A   1      32.980  15.058  25.376  1.00  0.00     0.044 C 
ATOM     31  C   UNL A   1      33.029  16.488  24.940  1.00  0.00    -0.051 A 
ATOM     32  C   UNL A   1      33.390  16.798  23.625  1.00  0.00     0.005 A 
ATOM     33  C   UNL A   1      32.694  17.516  25.824  1.00  0.00     0.005 A 
ATOM     34  C   UNL A   1      33.290  18.105  23.163  1.00  0.00     0.026 A 
ATOM     35  C   UNL A   1      32.607  18.825  25.366  1.00  0.00     0.026 A 
ENDBRANCH  26  29
ENDBRANCH  20  25
ENDBRANCH  16  19
ENDBRANCH  10  15
ENDBRANCH   7   9
ENDBRANCH   6   7
ENDBRANCH   5   6
ENDBRANCH   4   5
ENDBRANCH   3   4
ENDBRANCH   2   3
ENDBRANCH   1   2
BRANCH   1  36
ATOM     36  O   UNL A   1      37.608  31.738  30.654  1.00  0.00    -0.377 OA
BRANCH  36  37
ATOM     37  C   UNL A   1      38.895  31.249  31.025  1.00  0.00     0.188 C 
BRANCH  37  38
ATOM     38  C   UNL A   1      39.745  30.543  29.989  1.00  0.00     0.188 C 
BRANCH  38  39
ATOM     39  O   UNL A   1      39.268  29.218  29.797  1.00  0.00    -0.376 OA
BRANCH  39  40
ATOM     40  C   UNL A   1      39.705  28.624  28.578  1.00  0.00     0.202 C 
BRANCH  40  41
ATOM     41  C   UNL A   1      38.963  27.326  28.245  1.00  0.00     0.261 C 
BRANCH  41  42
ATOM     42  O   UNL A   1      39.662  26.225  28.863  1.00  0.00    -0.460 OA
BRANCH  42  43
ATOM     43  C   UNL A   1      39.816  25.128  28.086  1.00  0.00     0.338 C 
ATOM     44  O   UNL A   1      38.904  24.360  27.758  1.00  0.00    -0.246 OA
BRANCH  43  45
ATOM     45  C   UNL A   1      41.257  24.814  27.898  1.00  0.00     0.060 A 
ATOM     46  C   UNL A   1      41.841  23.741  28.589  1.00  0.00     0.016 A 
ATOM     47  C   UNL A   1      42.080  25.772  27.315  1.00  0.00     0.016 A 
ATOM     48  C   UNL A   1      43.217  23.741  28.857  1.00  0.00     0.010 A 
ATOM     49  C   UNL A   1      43.410  25.826  27.690  1.00  0.00     0.010 A 
ATOM     50  C   UNL A   1      43.988  24.844  28.508  1.00  0.00    -0.014 A 
BRANCH  50  51
ATOM     51  C   UNL A   1      45.328  25.150  29.047  1.00  0.00     0.031 A 
ATOM     52  C   UNL A   1      46.527  24.863  28.204  1.00  0.00     0.074 A 
ATOM     53  C   UNL A   1      45.442  25.993  30.112  1.00  0.00     0.049 A 
ATOM     54  N   UNL A   1      47.725  25.210  28.517  1.00  0.00    -0.248 NA
ATOM     55  C   UNL A   1      46.486  24.218  26.890  1.00  0.00     0.031 C 
ATOM     56  C   UNL A   1      46.584  26.838  30.479  1.00  0.00     0.029 A 
ATOM     57  N   UNL A   1      44.526  26.273  31.129  1.00  0.00    -0.354 N 
ATOM     58  C   UNL A   1      48.510  25.179  27.390  1.00  0.00     0.074 A 
ATOM     59  C   UNL A   1      47.717  24.467  26.422  1.00  0.00     0.031 C 
ATOM     60  C   UNL A   1      46.402  27.402  31.681  1.00  0.00     0.029 A 
ATOM     61  C   UNL A   1      45.256  26.741  32.247  1.00  0.00     0.049 A 
ATOM     62  H   UNL A   1      43.549  26.166  31.076  1.00  0.00     0.167 HD
ATOM     63  C   UNL A   1      49.683  25.883  27.407  1.00  0.00     0.037 A 
ATOM     64  C   UNL A   1      45.322  25.970  33.373  1.00  0.00     0.037 A 
ATOM     65  C   UNL A   1      50.026  26.299  28.779  1.00  0.00     0.049 A 
ATOM     66  C   UNL A   1      46.726  25.421  33.539  1.00  0.00     0.074 A 
ATOM     67  C   UNL A   1      50.312  27.494  29.419  1.00  0.00     0.029 A 
ATOM     68  N   UNL A   1      49.918  25.348  29.795  1.00  0.00    -0.354 N 
ATOM     69  N   UNL A   1      47.537  25.201  32.530  1.00  0.00    -0.248 NA
ATOM     70  C   UNL A   1      47.400  25.290  34.829  1.00  0.00     0.031 C 
ATOM     71  C   UNL A   1      50.215  27.269  30.829  1.00  0.00     0.029 A 
ATOM     72  C   UNL A   1      49.956  25.922  31.044  1.00  0.00     0.049 A 
ATOM     73  H   UNL A   1      49.827  24.381  29.636  1.00  0.00     0.167 HD
ATOM     74  C   UNL A   1      48.812  25.058  33.000  1.00  0.00     0.074 A 
ATOM     75  C   UNL A   1      48.669  25.055  34.446  1.00  0.00     0.031 C 
ATOM     76  C   UNL A   1      49.935  25.069  32.225  1.00  0.00     0.037 A 
BRANCH  63  77
ATOM     77  C   UNL A   1      50.479  26.309  26.186  1.00  0.00     0.057 A 
ATOM     78  C   UNL A   1      49.933  27.217  25.255  1.00  0.00     0.134 A 
ATOM     79  C   UNL A   1      51.737  25.794  25.810  1.00  0.00     0.134 A 
ATOM     80  F   UNL A   1      48.732  27.779  25.451  1.00  0.00    -0.206 F 
ATOM     81  C   UNL A   1      50.585  27.592  24.068  1.00  0.00     0.040 A 
ATOM     82  C   UNL A   1      52.423  26.201  24.651  1.00  0.00     0.040 A 
ATOM     83  F   UNL A   1      52.348  24.832  26.509  1.00  0.00    -0.206 F 
ATOM     84  C   UNL A   1      51.845  27.098  23.770  1.00  0.00     0.006 A 
ENDBRANCH  63  77
BRANCH  64  85
ATOM     85  C   UNL A   1      43.974  25.384  33.652  1.00  0.00     0.057 A 
ATOM     86  C   UNL A   1      43.987  23.975  33.767  1.00  0.00     0.134 A 
ATOM     87  C   UNL A   1      43.010  26.060  34.407  1.00  0.00     0.134 A 
ATOM     88  F   UNL A   1      44.859  23.256  33.043  1.00  0.00    -0.206 F 
ATOM     89  C   UNL A   1      43.307  23.318  34.793  1.00  0.00     0.040 A 
ATOM     90  C   UNL A   1      42.252  25.383  35.381  1.00  0.00     0.040 A 
ATOM     91  F   UNL A   1      42.912  27.395  34.354  1.00  0.00    -0.206 F 
ATOM     92  C   UNL A   1      42.472  24.030  35.639  1.00  0.00     0.006 A 
ENDBRANCH  64  85
BRANCH  76  93
ATOM     93  C   UNL A   1      51.124  24.175  32.497  1.00  0.00     0.057 A 
ATOM     94  C   UNL A   1      52.454  24.606  32.384  1.00  0.00     0.134 A 
ATOM     95  C   UNL A   1      50.954  22.920  33.128  1.00  0.00     0.134 A 
ATOM     96  F   UNL A   1      52.772  25.810  31.890  1.00  0.00    -0.206 F 
ATOM     97  C   UNL A   1      53.533  23.840  32.837  1.00  0.00     0.040 A 
ATOM     98  C   UNL A   1      52.020  22.176  33.638  1.00  0.00     0.040 A 
ATOM     99  F   UNL A   1      49.746  22.375  33.327  1.00  0.00    -0.206 F 
ATOM    100  C   UNL A   1      53.319  22.631  33.483  1.00  0.00     0.006 A 
ENDBRANCH  76  93
ENDBRANCH  50  51
ENDBRANCH  43  45
ENDBRANCH  42  43
ENDBRANCH  41  42
ENDBRANCH  40  41
ENDBRANCH  39  40
ENDBRANCH  38  39
ENDBRANCH  37  38
ENDBRANCH  36  37
ENDBRANCH   1  36
TORSDOF 24
ENDMDL
MODEL 2
REMARK VINA RESULT:     -10.2      6.252     10.288
REMARK SMILES Cc1ccc(NC(=O)c2ccccc2NC(=O)[C@H]2CCCC[C@H]2C(=O)OCCOCCOCCOCCOC(=O)c2ccc(-c3c4nc(c(-c5c(F)cccc5F)c5ccc([nH]5)c(-c5c(F)cccc5F)c5nc(c(-c6c(F)cccc6F)c6ccc3[nH]6)C=C5)C=C4)cc2)cc1
REMARK SMILES IDX 31 1 30 2 29 3 28 4 27 5 26 6 24 7 25 8 23 9 18 10 19 11
REMARK SMILES IDX 20 12 22 13 21 14 16 15 15 16 17 18 14 19 9 20 10 21 11 22
REMARK SMILES IDX 13 23 12 24 7 25 6 26 8 28 5 29 1 30 2 31 3 32 96 33 4 34
REMARK SMILES IDX 95 35 32 36 33 37 34 38 35 39 36 40 37 41 38 42 39 43 40 44
REMARK SMILES IDX 41 45 42 46 94 47 43 48 93 49 44 50 45 51 46 52 87 53 47 54
REMARK SMILES IDX 92 55 86 56 88 57 48 58 91 59 85 60 84 61 49 63 75 64 58 65
REMARK SMILES IDX 74 66 59 67 62 68 73 69 89 70 60 71 61 72 72 74 90 75 63 76
REMARK SMILES IDX 50 77 51 78 56 79 52 80 53 81 55 82 57 83 54 84 76 85 77 86
REMARK SMILES IDX 82 87 78 88 79 89 81 90 83 91 80 92 64 93 65 94 70 95 66 96
REMARK SMILES IDX 67 97 69 98 71 99 68 100
REMARK H PARENT 15 17 6 27 88 62 62 73
REMARK Flexibility Score: inf
ROOT
ATOM      1  C   UNL A   1      37.382  22.459  25.549  1.00  0.00     0.188 C 
ENDROOT
BRANCH   1   2
ATOM      2  C   UNL A   1      37.030  23.143  24.229  1.00  0.00     0.188 C 
BRANCH   2   3
ATOM      3  O   UNL A   1      35.883  22.707  23.536  1.00  0.00    -0.376 OA
BRANCH   3   4
ATOM      4  C   UNL A   1      34.942  23.706  23.165  1.00  0.00     0.202 C 
BRANCH   4   5
ATOM      5  C   UNL A   1      34.368  24.642  24.216  1.00  0.00     0.261 C 
BRANCH   5   6
ATOM      6  O   UNL A   1      34.602  26.021  23.860  1.00  0.00    -0.463 OA
BRANCH   6   7
ATOM      7  C   UNL A   1      33.496  26.739  23.616  1.00  0.00     0.309 C 
ATOM      8  O   UNL A   1      32.875  26.709  22.553  1.00  0.00    -0.252 OA
BRANCH   7   9
ATOM      9  C   UNL A   1      33.074  27.671  24.723  1.00  0.00     0.111 C 
ATOM     10  C   UNL A   1      31.645  27.671  25.330  1.00  0.00     0.093 C 
ATOM     11  C   UNL A   1      31.427  29.110  25.866  1.00  0.00     0.014 C 
ATOM     12  C   UNL A   1      32.588  29.614  26.751  1.00  0.00     0.001 C 
ATOM     13  C   UNL A   1      34.205  28.013  25.680  1.00  0.00     0.016 C 
ATOM     14  C   UNL A   1      33.983  29.448  26.146  1.00  0.00     0.001 C 
BRANCH  10  15
ATOM     15  C   UNL A   1      31.257  26.716  26.479  1.00  0.00     0.228 C 
ATOM     16  N   UNL A   1      30.895  25.386  26.325  1.00  0.00    -0.325 N 
ATOM     17  H   UNL A   1      30.511  25.023  27.155  1.00  0.00     0.169 HD
ATOM     18  O   UNL A   1      31.158  27.158  27.631  1.00  0.00    -0.274 OA
BRANCH  16  19
ATOM     19  C   UNL A   1      30.926  24.393  25.292  1.00  0.00     0.054 A 
ATOM     20  C   UNL A   1      31.528  23.110  25.497  1.00  0.00     0.063 A 
ATOM     21  C   UNL A   1      31.751  22.234  24.403  1.00  0.00     0.016 A 
ATOM     22  C   UNL A   1      31.393  22.593  23.113  1.00  0.00     0.001 A 
ATOM     23  C   UNL A   1      30.466  24.652  23.996  1.00  0.00     0.027 A 
ATOM     24  C   UNL A   1      30.732  23.793  22.917  1.00  0.00     0.002 A 
BRANCH  20  25
ATOM     25  C   UNL A   1      32.156  22.569  26.734  1.00  0.00     0.257 C 
ATOM     26  N   UNL A   1      32.957  21.457  26.774  1.00  0.00    -0.322 N 
ATOM     27  H   UNL A   1      33.438  21.316  27.622  1.00  0.00     0.170 HD
ATOM     28  O   UNL A   1      31.955  23.175  27.791  1.00  0.00    -0.269 OA
BRANCH  26  29
ATOM     29  C   UNL A   1      33.192  20.499  25.793  1.00  0.00     0.041 A 
ATOM     30  C   UNL A   1      34.486  16.924  23.870  1.00  0.00     0.044 C 
ATOM     31  C   UNL A   1      34.018  18.228  24.433  1.00  0.00    -0.051 A 
ATOM     32  C   UNL A   1      32.670  18.395  24.766  1.00  0.00     0.005 A 
ATOM     33  C   UNL A   1      34.917  19.275  24.653  1.00  0.00     0.005 A 
ATOM     34  C   UNL A   1      32.252  19.541  25.431  1.00  0.00     0.026 A 
ATOM     35  C   UNL A   1      34.496  20.427  25.306  1.00  0.00     0.026 A 
ENDBRANCH  26  29
ENDBRANCH  20  25
ENDBRANCH  16  19
ENDBRANCH  10  15
ENDBRANCH   7   9
ENDBRANCH   6   7
ENDBRANCH   5   6
ENDBRANCH   4   5
ENDBRANCH   3   4
ENDBRANCH   2   3
ENDBRANCH   1   2
BRANCH   1  36
ATOM     36  O   UNL A   1      38.722  22.051  25.755  1.00  0.00    -0.377 OA
BRANCH  36  37
ATOM     37  C   UNL A   1      39.477  22.620  26.822  1.00  0.00     0.188 C 
BRANCH  37  38
ATOM     38  C   UNL A   1      40.988  22.512  26.801  1.00  0.00     0.188 C 
BRANCH  38  39
ATOM     39  O   UNL A   1      41.478  22.387  28.129  1.00  0.00    -0.376 OA
BRANCH  39  40
ATOM     40  C   UNL A   1      42.292  23.482  28.543  1.00  0.00     0.202 C 
BRANCH  40  41
ATOM     41  C   UNL A   1      42.014  24.766  27.755  1.00  0.00     0.261 C 
BRANCH  41  42
ATOM     42  O   UNL A   1      41.447  25.742  28.653  1.00  0.00    -0.460 OA
BRANCH  42  43
ATOM     43  C   UNL A   1      42.249  26.791  28.950  1.00  0.00     0.338 C 
ATOM     44  O   UNL A   1      43.470  26.717  29.132  1.00  0.00    -0.246 OA
BRANCH  43  45
ATOM     45  C   UNL A   1      41.441  27.992  29.292  1.00  0.00     0.060 A 
ATOM     46  C   UNL A   1      41.879  29.268  28.906  1.00  0.00     0.016 A 
ATOM     47  C   UNL A   1      40.455  27.880  30.266  1.00  0.00     0.016 A 
ATOM     48  C   UNL A   1      41.474  30.400  29.627  1.00  0.00     0.010 A 
ATOM     49  C   UNL A   1      40.160  28.983  31.047  1.00  0.00     0.010 A 
ATOM     50  C   UNL A   1      40.703  30.247  30.774  1.00  0.00    -0.014 A 
BRANCH  50  51
ATOM     51  C   UNL A   1      40.525  31.273  31.821  1.00  0.00     0.031 A 
ATOM     52  C   UNL A   1      41.587  31.436  32.859  1.00  0.00     0.074 A 
ATOM     53  C   UNL A   1      39.613  32.268  31.632  1.00  0.00     0.049 A 
ATOM     54  N   UNL A   1      41.599  32.379  33.733  1.00  0.00    -0.248 NA
ATOM     55  C   UNL A   1      42.778  30.591  32.971  1.00  0.00     0.031 C 
ATOM     56  C   UNL A   1      39.614  33.618  32.208  1.00  0.00     0.029 A 
ATOM     57  N   UNL A   1      38.449  32.275  30.861  1.00  0.00    -0.354 N 
ATOM     58  C   UNL A   1      42.867  32.497  34.249  1.00  0.00     0.074 A 
ATOM     59  C   UNL A   1      43.543  31.302  33.812  1.00  0.00     0.031 C 
ATOM     60  C   UNL A   1      38.471  34.262  31.934  1.00  0.00     0.029 A 
ATOM     61  C   UNL A   1      37.587  33.263  31.393  1.00  0.00     0.049 A 
ATOM     62  H   UNL A   1      38.261  31.697  30.086  1.00  0.00     0.167 HD
ATOM     63  C   UNL A   1      43.198  33.667  34.873  1.00  0.00     0.037 A 
ATOM     64  C   UNL A   1      36.430  32.880  32.011  1.00  0.00     0.037 A 
ATOM     65  C   UNL A   1      41.996  34.478  35.143  1.00  0.00     0.049 A 
ATOM     66  C   UNL A   1      36.535  33.134  33.503  1.00  0.00     0.074 A 
ATOM     67  C   UNL A   1      41.573  35.765  34.855  1.00  0.00     0.029 A 
ATOM     68  N   UNL A   1      40.885  33.833  35.693  1.00  0.00    -0.354 N 
ATOM     69  N   UNL A   1      37.675  33.128  34.155  1.00  0.00    -0.248 NA
ATOM     70  C   UNL A   1      35.430  33.622  34.324  1.00  0.00     0.031 C 
ATOM     71  C   UNL A   1      40.162  35.824  35.093  1.00  0.00     0.029 A 
ATOM     72  C   UNL A   1      39.749  34.603  35.606  1.00  0.00     0.049 A 
ATOM     73  H   UNL A   1      40.914  32.936  36.095  1.00  0.00     0.167 HD
ATOM     74  C   UNL A   1      37.500  33.727  35.371  1.00  0.00     0.074 A 
ATOM     75  C   UNL A   1      36.068  33.961  35.460  1.00  0.00     0.031 C 
ATOM     76  C   UNL A   1      38.511  34.119  36.200  1.00  0.00     0.037 A 
BRANCH  63  77
ATOM     77  C   UNL A   1      44.609  34.158  35.148  1.00  0.00     0.057 A 
ATOM     78  C   UNL A   1      45.027  34.437  36.467  1.00  0.00     0.134 A 
ATOM     79  C   UNL A   1      45.571  34.473  34.167  1.00  0.00     0.134 A 
ATOM     80  F   UNL A   1      44.221  34.217  37.515  1.00  0.00    -0.206 F 
ATOM     81  C   UNL A   1      46.290  34.965  36.781  1.00  0.00     0.040 A 
ATOM     82  C   UNL A   1      46.858  34.952  34.472  1.00  0.00     0.040 A 
ATOM     83  F   UNL A   1      45.305  34.389  32.859  1.00  0.00    -0.206 F 
ATOM     84  C   UNL A   1      47.221  35.207  35.783  1.00  0.00     0.006 A 
ENDBRANCH  63  77
BRANCH  64  85
ATOM     85  C   UNL A   1      35.785  31.786  31.220  1.00  0.00     0.057 A 
ATOM     86  C   UNL A   1      35.260  32.224  29.983  1.00  0.00     0.134 A 
ATOM     87  C   UNL A   1      36.238  30.464  31.269  1.00  0.00     0.134 A 
ATOM     88  F   UNL A   1      34.770  33.469  29.870  1.00  0.00    -0.206 F 
ATOM     89  C   UNL A   1      35.463  31.504  28.805  1.00  0.00     0.040 A 
ATOM     90  C   UNL A   1      36.357  29.698  30.095  1.00  0.00     0.040 A 
ATOM     91  F   UNL A   1      36.741  29.955  32.402  1.00  0.00    -0.206 F 
ATOM     92  C   UNL A   1      36.061  30.254  28.851  1.00  0.00     0.006 A 
ENDBRANCH  64  85
BRANCH  76  93
ATOM     93  C   UNL A   1      38.426  33.997  37.705  1.00  0.00     0.057 A 
ATOM     94  C   UNL A   1      38.131  32.795  38.365  1.00  0.00     0.134 A 
ATOM     95  C   UNL A   1      38.890  35.040  38.542  1.00  0.00     0.134 A 
ATOM     96  F   UNL A   1      37.764  31.691  37.702  1.00  0.00    -0.206 F 
ATOM     97  C   UNL A   1      38.259  32.648  39.750  1.00  0.00     0.040 A 
ATOM     98  C   UNL A   1      39.081  34.882  39.916  1.00  0.00     0.040 A 
ATOM     99  F   UNL A   1      39.230  36.245  38.063  1.00  0.00    -0.206 F 
ATOM    100  C   UNL A   1      38.753  33.684  40.528  1.00  0.00     0.006 A 
ENDBRANCH  76  93
ENDBRANCH  50  51
ENDBRANCH  43  45
ENDBRANCH  42  43
ENDBRANCH  41  42
ENDBRANCH  40  41
ENDBRANCH  39  40
ENDBRANCH  38  39
ENDBRANCH  37  38
ENDBRANCH  36  37
ENDBRANCH   1  36
TORSDOF 24
ENDMDL
MODEL 3
REMARK VINA RESULT:      -9.9     11.671     17.402
REMARK SMILES Cc1ccc(NC(=O)c2ccccc2NC(=O)[C@H]2CCCC[C@H]2C(=O)OCCOCCOCCOCCOC(=O)c2ccc(-c3c4nc(c(-c5c(F)cccc5F)c5ccc([nH]5)c(-c5c(F)cccc5F)c5nc(c(-c6c(F)cccc6F)c6ccc3[nH]6)C=C5)C=C4)cc2)cc1
REMARK SMILES IDX 31 1 30 2 29 3 28 4 27 5 26 6 24 7 25 8 23 9 18 10 19 11
REMARK SMILES IDX 20 12 22 13 21 14 16 15 15 16 17 18 14 19 9 20 10 21 11 22
REMARK SMILES IDX 13 23 12 24 7 25 6 26 8 28 5 29 1 30 2 31 3 32 96 33 4 34
REMARK SMILES IDX 95 35 32 36 33 37 34 38 35 39 36 40 37 41 38 42 39 43 40 44
REMARK SMILES IDX 41 45 42 46 94 47 43 48 93 49 44 50 45 51 46 52 87 53 47 54
REMARK SMILES IDX 92 55 86 56 88 57 48 58 91 59 85 60 84 61 49 63 75 64 58 65
REMARK SMILES IDX 74 66 59 67 62 68 73 69 89 70 60 71 61 72 72 74 90 75 63 76
REMARK SMILES IDX 50 77 51 78 56 79 52 80 53 81 55 82 57 83 54 84 76 85 77 86
REMARK SMILES IDX 82 87 78 88 79 89 81 90 83 91 80 92 64 93 65 94 70 95 66 96
REMARK SMILES IDX 67 97 69 98 71 99 68 100
REMARK H PARENT 15 17 6 27 88 62 62 73
REMARK Flexibility Score: inf
ROOT
ATOM      1  C   UNL A   1      42.951  42.062  24.780  1.00  0.00     0.188 C 
ENDROOT
BRANCH   1   2
ATOM      2  C   UNL A   1      42.080  42.382  23.566  1.00  0.00     0.188 C 
BRANCH   2   3
ATOM      3  O   UNL A   1      42.288  41.647  22.381  1.00  0.00    -0.376 OA
BRANCH   3   4
ATOM      4  C   UNL A   1      42.612  42.393  21.215  1.00  0.00     0.202 C 
BRANCH   4   5
ATOM      5  C   UNL A   1      41.566  43.281  20.562  1.00  0.00     0.261 C 
BRANCH   5   6
ATOM      6  O   UNL A   1      42.008  43.729  19.263  1.00  0.00    -0.463 OA
BRANCH   6   7
ATOM      7  C   UNL A   1      41.256  44.691  18.710  1.00  0.00     0.309 C 
ATOM      8  O   UNL A   1      40.026  44.672  18.676  1.00  0.00    -0.252 OA
BRANCH   7   9
ATOM      9  C   UNL A   1      42.023  45.807  18.045  1.00  0.00     0.111 C 
ATOM     10  C   UNL A   1      43.487  46.164  18.414  1.00  0.00     0.093 C 
ATOM     11  C   UNL A   1      43.644  47.667  18.067  1.00  0.00     0.014 C 
ATOM     12  C   UNL A   1      43.150  48.020  16.647  1.00  0.00     0.001 C 
ATOM     13  C   UNL A   1      41.631  46.016  16.590  1.00  0.00     0.016 C 
ATOM     14  C   UNL A   1      41.750  47.509  16.302  1.00  0.00     0.001 C 
BRANCH  10  15
ATOM     15  C   UNL A   1      44.683  45.440  17.757  1.00  0.00     0.228 C 
ATOM     16  N   UNL A   1      45.996  45.501  18.202  1.00  0.00    -0.325 N 
ATOM     17  H   UNL A   1      46.615  45.124  17.536  1.00  0.00     0.169 HD
ATOM     18  O   UNL A   1      44.515  44.826  16.696  1.00  0.00    -0.274 OA
BRANCH  16  19
ATOM     19  C   UNL A   1      46.700  45.960  19.362  1.00  0.00     0.054 A 
ATOM     20  C   UNL A   1      47.091  45.065  20.410  1.00  0.00     0.063 A 
ATOM     21  C   UNL A   1      47.578  45.568  21.645  1.00  0.00     0.016 A 
ATOM     22  C   UNL A   1      47.692  46.931  21.869  1.00  0.00     0.001 A 
ATOM     23  C   UNL A   1      46.957  47.316  19.590  1.00  0.00     0.027 A 
ATOM     24  C   UNL A   1      47.400  47.800  20.832  1.00  0.00     0.002 A 
BRANCH  20  25
ATOM     25  C   UNL A   1      46.900  43.590  20.487  1.00  0.00     0.257 C 
ATOM     26  N   UNL A   1      46.241  42.945  21.503  1.00  0.00    -0.322 N 
ATOM     27  H   UNL A   1      46.043  41.995  21.338  1.00  0.00     0.170 HD
ATOM     28  O   UNL A   1      47.350  42.905  19.564  1.00  0.00    -0.269 OA
BRANCH  26  29
ATOM     29  C   UNL A   1      45.811  43.436  22.731  1.00  0.00     0.041 A 
ATOM     30  C   UNL A   1      45.676  45.650  26.369  1.00  0.00     0.044 C 
ATOM     31  C   UNL A   1      45.636  44.799  25.140  1.00  0.00    -0.051 A 
ATOM     32  C   UNL A   1      44.845  45.188  24.054  1.00  0.00     0.005 A 
ATOM     33  C   UNL A   1      46.400  43.633  25.053  1.00  0.00     0.005 A 
ATOM     34  C   UNL A   1      44.918  44.495  22.852  1.00  0.00     0.026 A 
ATOM     35  C   UNL A   1      46.463  42.930  23.856  1.00  0.00     0.026 A 
ENDBRANCH  26  29
ENDBRANCH  20  25
ENDBRANCH  16  19
ENDBRANCH  10  15
ENDBRANCH   7   9
ENDBRANCH   6   7
ENDBRANCH   5   6
ENDBRANCH   4   5
ENDBRANCH   3   4
ENDBRANCH   2   3
ENDBRANCH   1   2
BRANCH   1  36
ATOM     36  O   UNL A   1      42.906  40.749  25.308  1.00  0.00    -0.377 OA
BRANCH  36  37
ATOM     37  C   UNL A   1      43.575  40.458  26.532  1.00  0.00     0.188 C 
BRANCH  37  38
ATOM     38  C   UNL A   1      44.042  39.043  26.804  1.00  0.00     0.188 C 
BRANCH  38  39
ATOM     39  O   UNL A   1      45.392  38.895  26.385  1.00  0.00    -0.376 OA
BRANCH  39  40
ATOM     40  C   UNL A   1      45.964  37.637  26.736  1.00  0.00     0.202 C 
BRANCH  40  41
ATOM     41  C   UNL A   1      47.343  37.411  26.109  1.00  0.00     0.261 C 
BRANCH  41  42
ATOM     42  O   UNL A   1      47.948  36.259  26.731  1.00  0.00    -0.460 OA
BRANCH  42  43
ATOM     43  C   UNL A   1      48.227  35.230  25.897  1.00  0.00     0.338 C 
ATOM     44  O   UNL A   1      48.987  35.295  24.924  1.00  0.00    -0.246 OA
BRANCH  43  45
ATOM     45  C   UNL A   1      47.304  34.090  26.139  1.00  0.00     0.060 A 
ATOM     46  C   UNL A   1      45.983  34.140  25.666  1.00  0.00     0.016 A 
ATOM     47  C   UNL A   1      47.641  33.148  27.106  1.00  0.00     0.016 A 
ATOM     48  C   UNL A   1      44.980  33.391  26.297  1.00  0.00     0.010 A 
ATOM     49  C   UNL A   1      46.629  32.512  27.799  1.00  0.00     0.010 A 
ATOM     50  C   UNL A   1      45.281  32.662  27.442  1.00  0.00    -0.014 A 
BRANCH  50  51
ATOM     51  C   UNL A   1      44.289  32.150  28.408  1.00  0.00     0.031 A 
ATOM     52  C   UNL A   1      43.396  31.025  27.998  1.00  0.00     0.074 A 
ATOM     53  C   UNL A   1      44.433  32.444  29.732  1.00  0.00     0.049 A 
ATOM     54  N   UNL A   1      42.593  30.417  28.797  1.00  0.00    -0.248 NA
ATOM     55  C   UNL A   1      43.371  30.428  26.661  1.00  0.00     0.031 C 
ATOM     56  C   UNL A   1      43.951  31.677  30.887  1.00  0.00     0.029 A 
ATOM     57  N   UNL A   1      45.061  33.534  30.340  1.00  0.00    -0.354 N 
ATOM     58  C   UNL A   1      42.239  29.209  28.244  1.00  0.00     0.074 A 
ATOM     59  C   UNL A   1      42.674  29.303  26.874  1.00  0.00     0.031 C 
ATOM     60  C   UNL A   1      44.130  32.358  32.027  1.00  0.00     0.029 A 
ATOM     61  C   UNL A   1      44.496  33.691  31.628  1.00  0.00     0.049 A 
ATOM     62  H   UNL A   1      45.769  34.091  29.943  1.00  0.00     0.167 HD
ATOM     63  C   UNL A   1      41.736  28.247  29.076  1.00  0.00     0.037 A 
ATOM     64  C   UNL A   1      43.722  34.786  31.890  1.00  0.00     0.037 A 
ATOM     65  C   UNL A   1      41.379  28.820  30.387  1.00  0.00     0.049 A 
ATOM     66  C   UNL A   1      42.273  34.366  32.046  1.00  0.00     0.074 A 
ATOM     67  C   UNL A   1      41.699  28.563  31.710  1.00  0.00     0.029 A 
ATOM     68  N   UNL A   1      40.662  30.018  30.402  1.00  0.00    -0.354 N 
ATOM     69  N   UNL A   1      41.761  33.313  31.454  1.00  0.00    -0.248 NA
ATOM     70  C   UNL A   1      41.361  34.946  33.029  1.00  0.00     0.031 C 
ATOM     71  C   UNL A   1      41.301  29.699  32.485  1.00  0.00     0.029 A 
ATOM     72  C   UNL A   1      40.664  30.603  31.646  1.00  0.00     0.049 A 
ATOM     73  H   UNL A   1      40.209  30.397  29.615  1.00  0.00     0.167 HD
ATOM     74  C   UNL A   1      40.575  32.993  32.051  1.00  0.00     0.074 A 
ATOM     75  C   UNL A   1      40.333  34.078  32.986  1.00  0.00     0.031 C 
ATOM     76  C   UNL A   1      39.898  31.823  31.865  1.00  0.00     0.037 A 
BRANCH  63  77
ATOM     77  C   UNL A   1      41.662  26.761  28.771  1.00  0.00     0.057 A 
ATOM     78  C   UNL A   1      42.763  25.920  29.035  1.00  0.00     0.134 A 
ATOM     79  C   UNL A   1      40.588  26.111  28.129  1.00  0.00     0.134 A 
ATOM     80  F   UNL A   1      43.875  26.389  29.619  1.00  0.00    -0.206 F 
ATOM     81  C   UNL A   1      42.788  24.554  28.706  1.00  0.00     0.040 A 
ATOM     82  C   UNL A   1      40.579  24.734  27.842  1.00  0.00     0.040 A 
ATOM     83  F   UNL A   1      39.513  26.776  27.694  1.00  0.00    -0.206 F 
ATOM     84  C   UNL A   1      41.685  23.949  28.124  1.00  0.00     0.006 A 
ENDBRANCH  63  77
BRANCH  64  85
ATOM     85  C   UNL A   1      44.359  35.998  31.286  1.00  0.00     0.057 A 
ATOM     86  C   UNL A   1      43.644  36.516  30.182  1.00  0.00     0.134 A 
ATOM     87  C   UNL A   1      45.074  36.923  32.053  1.00  0.00     0.134 A 
ATOM     88  F   UNL A   1      42.966  35.684  29.377  1.00  0.00    -0.206 F 
ATOM     89  C   UNL A   1      43.404  37.884  30.043  1.00  0.00     0.040 A 
ATOM     90  C   UNL A   1      44.908  38.306  31.855  1.00  0.00     0.040 A 
ATOM     91  F   UNL A   1      45.792  36.525  33.112  1.00  0.00    -0.206 F 
ATOM     92  C   UNL A   1      43.997  38.785  30.913  1.00  0.00     0.006 A 
ENDBRANCH  64  85
BRANCH  76  93
ATOM     93  C   UNL A   1      38.389  31.754  31.796  1.00  0.00     0.057 A 
ATOM     94  C   UNL A   1      37.574  31.575  32.924  1.00  0.00     0.134 A 
ATOM     95  C   UNL A   1      37.701  32.122  30.615  1.00  0.00     0.134 A 
ATOM     96  F   UNL A   1      38.083  31.311  34.135  1.00  0.00    -0.206 F 
ATOM     97  C   UNL A   1      36.184  31.721  32.878  1.00  0.00     0.040 A 
ATOM     98  C   UNL A   1      36.321  32.331  30.574  1.00  0.00     0.040 A 
ATOM     99  F   UNL A   1      38.337  32.347  29.457  1.00  0.00    -0.206 F 
ATOM    100  C   UNL A   1      35.554  32.119  31.707  1.00  0.00     0.006 A 
ENDBRANCH  76  93
ENDBRANCH  50  51
ENDBRANCH  43  45
ENDBRANCH  42  43
ENDBRANCH  41  42
ENDBRANCH  40  41
ENDBRANCH  39  40
ENDBRANCH  38  39
ENDBRANCH  37  38
ENDBRANCH  36  37
ENDBRANCH   1  36
TORSDOF 24
ENDMDL
