MODEL 1
REMARK VINA RESULT:     -10.8      0.000      0.000
REMARK SMILES CC(C)[C@@H](NC(=O)[C@@H]1CC[C@H]2CCCC[C@@H]2[NH2+]1)C(=O)OCCOCCOCCOCCOC(=O)c1ccc(-c2c3nc(c(-c4c(F)cccc4F)c4ccc([nH]4)c(-c4c(F)cccc4F)c4nc(c(-c5c(F)cccc5F)c5ccc2[nH]5)C=C4)C=C3)cc1
REMARK SMILES IDX 26 1 25 2 24 3 23 4 22 5 21 6 20 7 18 8 19 9 4 10 2 11 1 12
REMARK SMILES IDX 3 13 5 14 6 15 7 17 8 18 9 19 17 20 10 21 16 22 11 25 15 26
REMARK SMILES IDX 12 27 14 28 13 29 27 30 28 31 29 32 30 33 31 34 32 35 33 36
REMARK SMILES IDX 34 37 35 38 36 39 88 40 37 41 87 42 38 43 39 44 40 45 81 46
REMARK SMILES IDX 41 47 86 48 80 49 82 50 42 51 85 52 79 53 78 54 43 56 69 57
REMARK SMILES IDX 52 58 68 59 53 60 56 61 67 62 83 63 54 64 55 65 66 67 84 68
REMARK SMILES IDX 57 69 44 70 45 71 50 72 46 73 47 74 49 75 51 76 48 77 70 78
REMARK SMILES IDX 71 79 76 80 72 81 73 82 75 83 77 84 74 85 58 86 59 87 64 88
REMARK SMILES IDX 60 89 61 90 63 91 65 92 62 93
REMARK H PARENT 5 16 17 23 17 24 82 55 56 66
REMARK Flexibility Score: inf
ROOT
ATOM      1  O   UNL A   1      39.992  21.164  26.906  1.00  0.00    -0.377 OA
ENDROOT
BRANCH   1   2
ATOM      2  C   UNL A   1      39.348  22.268  26.292  1.00  0.00     0.188 C 
BRANCH   2   3
ATOM      3  C   UNL A   1      37.980  21.975  25.683  1.00  0.00     0.188 C 
BRANCH   3   4
ATOM      4  O   UNL A   1      37.099  23.079  25.547  1.00  0.00    -0.376 OA
BRANCH   4   5
ATOM      5  C   UNL A   1      36.679  23.405  24.218  1.00  0.00     0.202 C 
BRANCH   5   6
ATOM      6  C   UNL A   1      35.188  23.717  24.019  1.00  0.00     0.261 C 
BRANCH   6   7
ATOM      7  O   UNL A   1      34.947  24.401  22.754  1.00  0.00    -0.462 OA
BRANCH   7   8
ATOM      8  C   UNL A   1      33.652  24.713  22.506  1.00  0.00     0.328 C 
ATOM      9  O   UNL A   1      33.331  25.478  21.596  1.00  0.00    -0.250 OA
BRANCH   8  10
ATOM     10  C   UNL A   1      32.594  24.198  23.529  1.00  0.00     0.195 C 
BRANCH  10  11
ATOM     11  C   UNL A   1      31.499  25.013  24.286  1.00  0.00     0.017 C 
ATOM     12  C   UNL A   1      30.240  25.178  23.401  1.00  0.00     0.010 C 
ATOM     13  C   UNL A   1      31.027  24.472  25.626  1.00  0.00     0.010 C 
ENDBRANCH  10  11
BRANCH  10  14
ATOM     14  N   UNL A   1      32.112  22.809  23.251  1.00  0.00    -0.337 N 
ATOM     15  C   UNL A   1      32.318  21.541  23.692  1.00  0.00     0.278 C 
ATOM     16  H   UNL A   1      31.443  22.817  22.530  1.00  0.00     0.164 HD
ATOM     17  O   UNL A   1      32.122  20.688  22.810  1.00  0.00    -0.268 OA
BRANCH  15  18
ATOM     18  C   UNL A   1      32.590  21.062  25.157  1.00  0.00     0.272 C 
ATOM     19  C   UNL A   1      33.989  21.113  25.718  1.00  0.00     0.076 C 
ATOM     20  N   UNL A   1      31.979  19.728  25.419  1.00  0.00    -0.333 N 
ATOM     21  C   UNL A   1      34.912  20.031  25.165  1.00  0.00     0.016 C 
ATOM     22  C   UNL A   1      32.914  18.588  25.418  1.00  0.00     0.186 C 
ATOM     23  H   UNL A   1      31.275  19.558  24.699  1.00  0.00     0.347 HD
ATOM     24  H   UNL A   1      31.596  19.775  26.364  1.00  0.00     0.347 HD
ATOM     25  C   UNL A   1      34.112  18.899  24.522  1.00  0.00     0.048 C 
ATOM     26  C   UNL A   1      32.168  17.322  24.993  1.00  0.00     0.065 C 
ATOM     27  C   UNL A   1      35.007  17.710  24.189  1.00  0.00     0.010 C 
ATOM     28  C   UNL A   1      33.112  16.160  24.675  1.00  0.00     0.006 C 
ATOM     29  C   UNL A   1      34.167  16.561  23.651  1.00  0.00     0.001 C 
ENDBRANCH  15  18
ENDBRANCH  10  14
ENDBRANCH   8  10
ENDBRANCH   7   8
ENDBRANCH   6   7
ENDBRANCH   5   6
ENDBRANCH   4   5
ENDBRANCH   3   4
ENDBRANCH   2   3
ENDBRANCH   1   2
BRANCH   1  30
ATOM     30  C   UNL A   1      41.244  21.336  27.560  1.00  0.00     0.188 C 
BRANCH  30  31
ATOM     31  C   UNL A   1      42.487  20.714  26.926  1.00  0.00     0.188 C 
BRANCH  31  32
ATOM     32  O   UNL A   1      42.843  21.121  25.602  1.00  0.00    -0.376 OA
BRANCH  32  33
ATOM     33  C   UNL A   1      44.221  21.193  25.236  1.00  0.00     0.202 C 
BRANCH  33  34
ATOM     34  C   UNL A   1      44.560  22.272  24.215  1.00  0.00     0.261 C 
BRANCH  34  35
ATOM     35  O   UNL A   1      43.684  23.401  24.330  1.00  0.00    -0.460 OA
BRANCH  35  36
ATOM     36  C   UNL A   1      44.276  24.515  24.799  1.00  0.00     0.338 C 
ATOM     37  O   UNL A   1      45.445  24.861  24.651  1.00  0.00    -0.246 OA
BRANCH  36  38
ATOM     38  C   UNL A   1      43.295  25.366  25.482  1.00  0.00     0.060 A 
ATOM     39  C   UNL A   1      43.576  26.733  25.580  1.00  0.00     0.016 A 
ATOM     40  C   UNL A   1      42.218  24.799  26.170  1.00  0.00     0.016 A 
ATOM     41  C   UNL A   1      42.849  27.523  26.460  1.00  0.00     0.010 A 
ATOM     42  C   UNL A   1      41.492  25.591  27.059  1.00  0.00     0.010 A 
ATOM     43  C   UNL A   1      41.859  26.932  27.256  1.00  0.00    -0.014 A 
BRANCH  43  44
ATOM     44  C   UNL A   1      41.418  27.650  28.471  1.00  0.00     0.031 A 
ATOM     45  C   UNL A   1      42.209  27.454  29.737  1.00  0.00     0.074 A 
ATOM     46  C   UNL A   1      40.387  28.507  28.425  1.00  0.00     0.049 A 
ATOM     47  N   UNL A   1      42.029  27.982  30.920  1.00  0.00    -0.248 NA
ATOM     48  C   UNL A   1      43.361  26.538  29.658  1.00  0.00     0.031 C 
ATOM     49  C   UNL A   1      39.586  28.802  27.238  1.00  0.00     0.029 A 
ATOM     50  N   UNL A   1      39.842  29.289  29.408  1.00  0.00    -0.354 N 
ATOM     51  C   UNL A   1      43.037  27.458  31.722  1.00  0.00     0.074 A 
ATOM     52  C   UNL A   1      43.806  26.548  30.904  1.00  0.00     0.031 C 
ATOM     53  C   UNL A   1      38.642  29.700  27.566  1.00  0.00     0.029 A 
ATOM     54  C   UNL A   1      38.762  30.021  28.986  1.00  0.00     0.049 A 
ATOM     55  H   UNL A   1      40.192  29.321  30.327  1.00  0.00     0.167 HD
ATOM     56  C   UNL A   1      43.303  27.722  33.023  1.00  0.00     0.037 A 
ATOM     57  C   UNL A   1      37.961  30.849  29.682  1.00  0.00     0.037 A 
ATOM     58  C   UNL A   1      42.533  28.633  33.827  1.00  0.00     0.049 A 
ATOM     59  C   UNL A   1      38.252  31.095  31.138  1.00  0.00     0.074 A 
ATOM     60  C   UNL A   1      42.709  28.974  35.155  1.00  0.00     0.029 A 
ATOM     61  N   UNL A   1      41.437  29.349  33.369  1.00  0.00    -0.354 N 
ATOM     62  N   UNL A   1      39.213  30.605  31.886  1.00  0.00    -0.248 NA
ATOM     63  C   UNL A   1      37.359  32.023  31.842  1.00  0.00     0.031 C 
ATOM     64  C   UNL A   1      41.695  29.870  35.512  1.00  0.00     0.029 A 
ATOM     65  C   UNL A   1      40.919  30.123  34.391  1.00  0.00     0.049 A 
ATOM     66  H   UNL A   1      41.081  29.312  32.452  1.00  0.00     0.167 HD
ATOM     67  C   UNL A   1      39.059  31.191  33.136  1.00  0.00     0.074 A 
ATOM     68  C   UNL A   1      37.921  32.081  33.040  1.00  0.00     0.031 C 
ATOM     69  C   UNL A   1      39.793  31.013  34.263  1.00  0.00     0.037 A 
BRANCH  56  70
ATOM     70  C   UNL A   1      44.454  26.996  33.655  1.00  0.00     0.057 A 
ATOM     71  C   UNL A   1      45.755  27.518  33.649  1.00  0.00     0.134 A 
ATOM     72  C   UNL A   1      44.256  25.765  34.293  1.00  0.00     0.134 A 
ATOM     73  F   UNL A   1      46.016  28.682  33.037  1.00  0.00    -0.206 F 
ATOM     74  C   UNL A   1      46.819  26.833  34.238  1.00  0.00     0.040 A 
ATOM     75  C   UNL A   1      45.308  25.083  34.907  1.00  0.00     0.040 A 
ATOM     76  F   UNL A   1      43.036  25.207  34.334  1.00  0.00    -0.206 F 
ATOM     77  C   UNL A   1      46.596  25.614  34.876  1.00  0.00     0.006 A 
ENDBRANCH  56  70
BRANCH  57  78
ATOM     78  C   UNL A   1      36.810  31.505  29.012  1.00  0.00     0.057 A 
ATOM     79  C   UNL A   1      36.863  32.847  28.623  1.00  0.00     0.134 A 
ATOM     80  C   UNL A   1      35.621  30.807  28.765  1.00  0.00     0.134 A 
ATOM     81  F   UNL A   1      37.967  33.574  28.849  1.00  0.00    -0.206 F 
ATOM     82  C   UNL A   1      35.768  33.481  28.033  1.00  0.00     0.040 A 
ATOM     83  C   UNL A   1      34.528  31.421  28.152  1.00  0.00     0.040 A 
ATOM     84  F   UNL A   1      35.510  29.516  29.108  1.00  0.00    -0.206 F 
ATOM     85  C   UNL A   1      34.597  32.765  27.793  1.00  0.00     0.006 A 
ENDBRANCH  57  78
BRANCH  69  86
ATOM     86  C   UNL A   1      39.417  31.840  35.458  1.00  0.00     0.057 A 
ATOM     87  C   UNL A   1      40.025  33.071  35.730  1.00  0.00     0.134 A 
ATOM     88  C   UNL A   1      38.417  31.403  36.335  1.00  0.00     0.134 A 
ATOM     89  F   UNL A   1      40.996  33.541  34.933  1.00  0.00    -0.206 F 
ATOM     90  C   UNL A   1      39.676  33.822  36.853  1.00  0.00     0.040 A 
ATOM     91  C   UNL A   1      38.040  32.158  37.446  1.00  0.00     0.040 A 
ATOM     92  F   UNL A   1      37.786  30.237  36.124  1.00  0.00    -0.206 F 
ATOM     93  C   UNL A   1      38.678  33.367  37.712  1.00  0.00     0.006 A 
ENDBRANCH  69  86
ENDBRANCH  43  44
ENDBRANCH  36  38
ENDBRANCH  35  36
ENDBRANCH  34  35
ENDBRANCH  33  34
ENDBRANCH  32  33
ENDBRANCH  31  32
ENDBRANCH  30  31
ENDBRANCH   1  30
TORSDOF 23
ENDMDL
MODEL 2
REMARK VINA RESULT:     -10.7      4.612      9.775
REMARK SMILES CC(C)[C@@H](NC(=O)[C@@H]1CC[C@H]2CCCC[C@@H]2[NH2+]1)C(=O)OCCOCCOCCOCCOC(=O)c1ccc(-c2c3nc(c(-c4c(F)cccc4F)c4ccc([nH]4)c(-c4c(F)cccc4F)c4nc(c(-c5c(F)cccc5F)c5ccc2[nH]5)C=C4)C=C3)cc1
REMARK SMILES IDX 26 1 25 2 24 3 23 4 22 5 21 6 20 7 18 8 19 9 4 10 2 11 1 12
REMARK SMILES IDX 3 13 5 14 6 15 7 17 8 18 9 19 17 20 10 21 16 22 11 25 15 26
REMARK SMILES IDX 12 27 14 28 13 29 27 30 28 31 29 32 30 33 31 34 32 35 33 36
REMARK SMILES IDX 34 37 35 38 36 39 88 40 37 41 87 42 38 43 39 44 40 45 81 46
REMARK SMILES IDX 41 47 86 48 80 49 82 50 42 51 85 52 79 53 78 54 43 56 69 57
REMARK SMILES IDX 52 58 68 59 53 60 56 61 67 62 83 63 54 64 55 65 66 67 84 68
REMARK SMILES IDX 57 69 44 70 45 71 50 72 46 73 47 74 49 75 51 76 48 77 70 78
REMARK SMILES IDX 71 79 76 80 72 81 73 82 75 83 77 84 74 85 58 86 59 87 64 88
REMARK SMILES IDX 60 89 61 90 63 91 65 92 62 93
REMARK H PARENT 5 16 17 23 17 24 82 55 56 66
REMARK Flexibility Score: inf
ROOT
ATOM      1  O   UNL A   1      34.529  34.175  28.457  1.00  0.00    -0.377 OA
ENDROOT
BRANCH   1   2
ATOM      2  C   UNL A   1      34.071  32.881  28.812  1.00  0.00     0.188 C 
BRANCH   2   3
ATOM      3  C   UNL A   1      34.386  31.775  27.810  1.00  0.00     0.188 C 
BRANCH   3   4
ATOM      4  O   UNL A   1      33.273  31.129  27.210  1.00  0.00    -0.376 OA
BRANCH   4   5
ATOM      5  C   UNL A   1      33.485  29.797  26.730  1.00  0.00     0.202 C 
BRANCH   5   6
ATOM      6  C   UNL A   1      32.246  28.898  26.610  1.00  0.00     0.261 C 
BRANCH   6   7
ATOM      7  O   UNL A   1      32.380  27.941  25.518  1.00  0.00    -0.462 OA
BRANCH   7   8
ATOM      8  C   UNL A   1      31.242  27.289  25.179  1.00  0.00     0.328 C 
ATOM      9  O   UNL A   1      30.656  26.552  25.972  1.00  0.00    -0.250 OA
BRANCH   8  10
ATOM     10  C   UNL A   1      30.795  27.378  23.688  1.00  0.00     0.195 C 
BRANCH  10  11
ATOM     11  C   UNL A   1      29.788  28.375  23.034  1.00  0.00     0.017 C 
ATOM     12  C   UNL A   1      28.333  27.903  23.266  1.00  0.00     0.010 C 
ATOM     13  C   UNL A   1      29.856  29.828  23.478  1.00  0.00     0.010 C 
ENDBRANCH  10  11
BRANCH  10  14
ATOM     14  N   UNL A   1      31.868  27.006  22.714  1.00  0.00    -0.337 N 
ATOM     15  C   UNL A   1      32.721  25.978  22.466  1.00  0.00     0.278 C 
ATOM     16  H   UNL A   1      31.994  27.724  22.053  1.00  0.00     0.164 HD
ATOM     17  O   UNL A   1      33.773  26.349  21.917  1.00  0.00    -0.268 OA
BRANCH  15  18
ATOM     18  C   UNL A   1      32.456  24.444  22.630  1.00  0.00     0.272 C 
ATOM     19  C   UNL A   1      31.809  23.923  23.889  1.00  0.00     0.076 C 
ATOM     20  N   UNL A   1      33.669  23.642  22.304  1.00  0.00    -0.333 N 
ATOM     21  C   UNL A   1      32.736  23.919  25.100  1.00  0.00     0.016 C 
ATOM     22  C   UNL A   1      34.414  23.116  23.463  1.00  0.00     0.186 C 
ATOM     23  H   UNL A   1      34.302  24.234  21.766  1.00  0.00     0.347 HD
ATOM     24  H   UNL A   1      33.335  22.825  21.792  1.00  0.00     0.347 HD
ATOM     25  C   UNL A   1      34.201  24.023  24.674  1.00  0.00     0.048 C 
ATOM     26  C   UNL A   1      35.890  22.964  23.088  1.00  0.00     0.065 C 
ATOM     27  C   UNL A   1      35.138  23.775  25.851  1.00  0.00     0.010 C 
ATOM     28  C   UNL A   1      36.784  22.713  24.305  1.00  0.00     0.006 C 
ATOM     29  C   UNL A   1      36.582  23.779  25.376  1.00  0.00     0.001 C 
ENDBRANCH  15  18
ENDBRANCH  10  14
ENDBRANCH   8  10
ENDBRANCH   7   8
ENDBRANCH   6   7
ENDBRANCH   5   6
ENDBRANCH   4   5
ENDBRANCH   3   4
ENDBRANCH   2   3
ENDBRANCH   1   2
BRANCH   1  30
ATOM     30  C   UNL A   1      34.273  35.285  29.309  1.00  0.00     0.188 C 
BRANCH  30  31
ATOM     31  C   UNL A   1      32.904  35.389  29.978  1.00  0.00     0.188 C 
BRANCH  31  32
ATOM     32  O   UNL A   1      32.820  35.125  31.382  1.00  0.00    -0.376 OA
BRANCH  32  33
ATOM     33  C   UNL A   1      34.016  34.898  32.127  1.00  0.00     0.202 C 
BRANCH  33  34
ATOM     34  C   UNL A   1      34.022  33.623  32.962  1.00  0.00     0.261 C 
BRANCH  34  35
ATOM     35  O   UNL A   1      34.797  32.590  32.341  1.00  0.00    -0.460 OA
BRANCH  35  36
ATOM     36  C   UNL A   1      35.898  32.234  33.030  1.00  0.00     0.338 C 
ATOM     37  O   UNL A   1      36.224  32.595  34.158  1.00  0.00    -0.246 OA
BRANCH  36  38
ATOM     38  C   UNL A   1      36.676  31.246  32.276  1.00  0.00     0.060 A 
ATOM     39  C   UNL A   1      37.686  30.556  32.955  1.00  0.00     0.016 A 
ATOM     40  C   UNL A   1      36.536  31.138  30.888  1.00  0.00     0.016 A 
ATOM     41  C   UNL A   1      38.635  29.844  32.237  1.00  0.00     0.010 A 
ATOM     42  C   UNL A   1      37.494  30.428  30.166  1.00  0.00     0.010 A 
ATOM     43  C   UNL A   1      38.583  29.847  30.837  1.00  0.00    -0.014 A 
BRANCH  43  44
ATOM     44  C   UNL A   1      39.806  29.485  30.090  1.00  0.00     0.031 A 
ATOM     45  C   UNL A   1      40.874  30.534  29.929  1.00  0.00     0.074 A 
ATOM     46  C   UNL A   1      39.987  28.237  29.633  1.00  0.00     0.049 A 
ATOM     47  N   UNL A   1      42.035  30.454  29.331  1.00  0.00    -0.248 NA
ATOM     48  C   UNL A   1      40.597  31.853  30.526  1.00  0.00     0.031 C 
ATOM     49  C   UNL A   1      39.034  27.138  29.777  1.00  0.00     0.029 A 
ATOM     50  N   UNL A   1      41.043  27.688  28.956  1.00  0.00    -0.354 N 
ATOM     51  C   UNL A   1      42.618  31.708  29.474  1.00  0.00     0.074 A 
ATOM     52  C   UNL A   1      41.676  32.541  30.186  1.00  0.00     0.031 C 
ATOM     53  C   UNL A   1      39.548  26.041  29.195  1.00  0.00     0.029 A 
ATOM     54  C   UNL A   1      40.852  26.371  28.623  1.00  0.00     0.049 A 
ATOM     55  H   UNL A   1      41.859  28.189  28.730  1.00  0.00     0.167 HD
ATOM     56  C   UNL A   1      43.837  32.124  29.058  1.00  0.00     0.037 A 
ATOM     57  C   UNL A   1      41.644  25.537  27.925  1.00  0.00     0.037 A 
ATOM     58  C   UNL A   1      44.770  31.286  28.353  1.00  0.00     0.049 A 
ATOM     59  C   UNL A   1      42.978  26.035  27.437  1.00  0.00     0.074 A 
ATOM     60  C   UNL A   1      46.030  31.602  27.881  1.00  0.00     0.029 A 
ATOM     61  N   UNL A   1      44.537  29.959  28.023  1.00  0.00    -0.354 N 
ATOM     62  N   UNL A   1      43.527  27.218  27.586  1.00  0.00    -0.248 NA
ATOM     63  C   UNL A   1      43.811  25.077  26.699  1.00  0.00     0.031 C 
ATOM     64  C   UNL A   1      46.546  30.475  27.230  1.00  0.00     0.029 A 
ATOM     65  C   UNL A   1      45.626  29.445  27.342  1.00  0.00     0.049 A 
ATOM     66  H   UNL A   1      43.718  29.458  28.240  1.00  0.00     0.167 HD
ATOM     67  C   UNL A   1      44.779  27.135  26.991  1.00  0.00     0.074 A 
ATOM     68  C   UNL A   1      44.912  25.782  26.491  1.00  0.00     0.031 C 
ATOM     69  C   UNL A   1      45.737  28.088  26.869  1.00  0.00     0.037 A 
BRANCH  56  70
ATOM     70  C   UNL A   1      44.212  33.551  29.331  1.00  0.00     0.057 A 
ATOM     71  C   UNL A   1      43.947  34.578  28.415  1.00  0.00     0.134 A 
ATOM     72  C   UNL A   1      44.833  33.905  30.536  1.00  0.00     0.134 A 
ATOM     73  F   UNL A   1      43.374  34.303  27.234  1.00  0.00    -0.206 F 
ATOM     74  C   UNL A   1      44.303  35.902  28.679  1.00  0.00     0.040 A 
ATOM     75  C   UNL A   1      45.171  35.230  30.821  1.00  0.00     0.040 A 
ATOM     76  F   UNL A   1      45.118  32.972  31.456  1.00  0.00    -0.206 F 
ATOM     77  C   UNL A   1      44.911  36.232  29.889  1.00  0.00     0.006 A 
ENDBRANCH  56  70
BRANCH  57  78
ATOM     78  C   UNL A   1      41.199  24.149  27.647  1.00  0.00     0.057 A 
ATOM     79  C   UNL A   1      40.218  23.876  26.689  1.00  0.00     0.134 A 
ATOM     80  C   UNL A   1      41.734  23.062  28.351  1.00  0.00     0.134 A 
ATOM     81  F   UNL A   1      39.655  24.877  25.994  1.00  0.00    -0.206 F 
ATOM     82  C   UNL A   1      39.765  22.577  26.455  1.00  0.00     0.040 A 
ATOM     83  C   UNL A   1      41.309  21.755  28.109  1.00  0.00     0.040 A 
ATOM     84  F   UNL A   1      42.683  23.256  29.278  1.00  0.00    -0.206 F 
ATOM     85  C   UNL A   1      40.314  21.511  27.165  1.00  0.00     0.006 A 
ENDBRANCH  57  78
BRANCH  69  86
ATOM     86  C   UNL A   1      47.027  27.678  26.221  1.00  0.00     0.057 A 
ATOM     87  C   UNL A   1      47.194  27.682  24.831  1.00  0.00     0.134 A 
ATOM     88  C   UNL A   1      48.123  27.294  27.004  1.00  0.00     0.134 A 
ATOM     89  F   UNL A   1      46.180  28.031  24.024  1.00  0.00    -0.206 F 
ATOM     90  C   UNL A   1      48.394  27.283  24.241  1.00  0.00     0.040 A 
ATOM     91  C   UNL A   1      49.336  26.921  26.428  1.00  0.00     0.040 A 
ATOM     92  F   UNL A   1      48.032  27.281  28.344  1.00  0.00    -0.206 F 
ATOM     93  C   UNL A   1      49.470  26.905  25.041  1.00  0.00     0.006 A 
ENDBRANCH  69  86
ENDBRANCH  43  44
ENDBRANCH  36  38
ENDBRANCH  35  36
ENDBRANCH  34  35
ENDBRANCH  33  34
ENDBRANCH  32  33
ENDBRANCH  31  32
ENDBRANCH  30  31
ENDBRANCH   1  30
TORSDOF 23
ENDMDL
MODEL 3
REMARK VINA RESULT:     -10.7      4.539      9.610
REMARK SMILES CC(C)[C@@H](NC(=O)[C@@H]1CC[C@H]2CCCC[C@@H]2[NH2+]1)C(=O)OCCOCCOCCOCCOC(=O)c1ccc(-c2c3nc(c(-c4c(F)cccc4F)c4ccc([nH]4)c(-c4c(F)cccc4F)c4nc(c(-c5c(F)cccc5F)c5ccc2[nH]5)C=C4)C=C3)cc1
REMARK SMILES IDX 26 1 25 2 24 3 23 4 22 5 21 6 20 7 18 8 19 9 4 10 2 11 1 12
REMARK SMILES IDX 3 13 5 14 6 15 7 17 8 18 9 19 17 20 10 21 16 22 11 25 15 26
REMARK SMILES IDX 12 27 14 28 13 29 27 30 28 31 29 32 30 33 31 34 32 35 33 36
REMARK SMILES IDX 34 37 35 38 36 39 88 40 37 41 87 42 38 43 39 44 40 45 81 46
REMARK SMILES IDX 41 47 86 48 80 49 82 50 42 51 85 52 79 53 78 54 43 56 69 57
REMARK SMILES IDX 52 58 68 59 53 60 56 61 67 62 83 63 54 64 55 65 66 67 84 68
REMARK SMILES IDX 57 69 44 70 45 71 50 72 46 73 47 74 49 75 51 76 48 77 70 78
REMARK SMILES IDX 71 79 76 80 72 81 73 82 75 83 77 84 74 85 58 86 59 87 64 88
REMARK SMILES IDX 60 89 61 90 63 91 65 92 62 93
REMARK H PARENT 5 16 17 23 17 24 82 55 56 66
REMARK Flexibility Score: inf
ROOT
ATOM      1  O   UNL A   1      34.398  33.309  27.897  1.00  0.00    -0.377 OA
ENDROOT
BRANCH   1   2
ATOM      2  C   UNL A   1      33.862  32.009  28.074  1.00  0.00     0.188 C 
BRANCH   2   3
ATOM      3  C   UNL A   1      34.791  30.858  27.699  1.00  0.00     0.188 C 
BRANCH   3   4
ATOM      4  O   UNL A   1      34.273  29.899  26.790  1.00  0.00    -0.376 OA
BRANCH   4   5
ATOM      5  C   UNL A   1      32.848  29.779  26.724  1.00  0.00     0.202 C 
BRANCH   5   6
ATOM      6  C   UNL A   1      32.226  29.660  25.325  1.00  0.00     0.261 C 
BRANCH   6   7
ATOM      7  O   UNL A   1      31.328  28.515  25.232  1.00  0.00    -0.462 OA
BRANCH   7   8
ATOM      8  C   UNL A   1      30.850  28.258  23.991  1.00  0.00     0.328 C 
ATOM      9  O   UNL A   1      29.972  28.951  23.476  1.00  0.00    -0.250 OA
BRANCH   8  10
ATOM     10  C   UNL A   1      31.337  26.944  23.306  1.00  0.00     0.195 C 
BRANCH  10  11
ATOM     11  C   UNL A   1      32.686  26.678  22.567  1.00  0.00     0.017 C 
ATOM     12  C   UNL A   1      32.428  26.010  21.195  1.00  0.00     0.010 C 
ATOM     13  C   UNL A   1      33.590  27.874  22.312  1.00  0.00     0.010 C 
ENDBRANCH  10  11
BRANCH  10  14
ATOM     14  N   UNL A   1      30.857  25.699  23.980  1.00  0.00    -0.337 N 
ATOM     15  C   UNL A   1      31.283  24.800  24.905  1.00  0.00     0.278 C 
ATOM     16  H   UNL A   1      29.959  25.458  23.656  1.00  0.00     0.164 HD
ATOM     17  O   UNL A   1      30.802  23.667  24.731  1.00  0.00    -0.268 OA
BRANCH  15  18
ATOM     18  C   UNL A   1      32.130  25.069  26.193  1.00  0.00     0.272 C 
ATOM     19  C   UNL A   1      33.214  26.119  26.176  1.00  0.00     0.076 C 
ATOM     20  N   UNL A   1      32.650  23.802  26.781  1.00  0.00    -0.333 N 
ATOM     21  C   UNL A   1      34.464  25.697  25.410  1.00  0.00     0.016 C 
ATOM     22  C   UNL A   1      34.075  23.519  26.525  1.00  0.00     0.186 C 
ATOM     23  H   UNL A   1      32.102  23.030  26.399  1.00  0.00     0.347 HD
ATOM     24  H   UNL A   1      32.564  23.906  27.792  1.00  0.00     0.347 HD
ATOM     25  C   UNL A   1      34.509  24.181  25.218  1.00  0.00     0.048 C 
ATOM     26  C   UNL A   1      34.297  22.005  26.525  1.00  0.00     0.065 C 
ATOM     27  C   UNL A   1      35.862  23.733  24.676  1.00  0.00     0.010 C 
ATOM     28  C   UNL A   1      35.670  21.611  25.975  1.00  0.00     0.006 C 
ATOM     29  C   UNL A   1      35.914  22.215  24.597  1.00  0.00     0.001 C 
ENDBRANCH  15  18
ENDBRANCH  10  14
ENDBRANCH   8  10
ENDBRANCH   7   8
ENDBRANCH   6   7
ENDBRANCH   5   6
ENDBRANCH   4   5
ENDBRANCH   3   4
ENDBRANCH   2   3
ENDBRANCH   1   2
BRANCH   1  30
ATOM     30  C   UNL A   1      34.523  34.191  29.006  1.00  0.00     0.188 C 
BRANCH  30  31
ATOM     31  C   UNL A   1      33.252  34.645  29.722  1.00  0.00     0.188 C 
BRANCH  31  32
ATOM     32  O   UNL A   1      33.334  34.935  31.121  1.00  0.00    -0.376 OA
BRANCH  32  33
ATOM     33  C   UNL A   1      34.590  34.823  31.788  1.00  0.00     0.202 C 
BRANCH  33  34
ATOM     34  C   UNL A   1      34.582  33.944  33.033  1.00  0.00     0.261 C 
BRANCH  34  35
ATOM     35  O   UNL A   1      34.955  32.593  32.727  1.00  0.00    -0.460 OA
BRANCH  35  36
ATOM     36  C   UNL A   1      36.105  32.193  33.302  1.00  0.00     0.338 C 
ATOM     37  O   UNL A   1      36.531  32.496  34.413  1.00  0.00    -0.246 OA
BRANCH  36  38
ATOM     38  C   UNL A   1      36.800  31.234  32.438  1.00  0.00     0.060 A 
ATOM     39  C   UNL A   1      37.708  30.355  33.039  1.00  0.00     0.016 A 
ATOM     40  C   UNL A   1      36.698  31.325  31.046  1.00  0.00     0.016 A 
ATOM     41  C   UNL A   1      38.601  29.643  32.251  1.00  0.00     0.010 A 
ATOM     42  C   UNL A   1      37.601  30.616  30.255  1.00  0.00     0.010 A 
ATOM     43  C   UNL A   1      38.598  29.836  30.864  1.00  0.00    -0.014 A 
BRANCH  43  44
ATOM     44  C   UNL A   1      39.803  29.444  30.101  1.00  0.00     0.031 A 
ATOM     45  C   UNL A   1      40.909  30.455  29.955  1.00  0.00     0.074 A 
ATOM     46  C   UNL A   1      39.933  28.201  29.616  1.00  0.00     0.049 A 
ATOM     47  N   UNL A   1      42.062  30.344  29.347  1.00  0.00    -0.248 NA
ATOM     48  C   UNL A   1      40.686  31.770  30.581  1.00  0.00     0.031 C 
ATOM     49  C   UNL A   1      38.940  27.136  29.743  1.00  0.00     0.029 A 
ATOM     50  N   UNL A   1      40.963  27.626  28.920  1.00  0.00    -0.354 N 
ATOM     51  C   UNL A   1      42.693  31.572  29.512  1.00  0.00     0.074 A 
ATOM     52  C   UNL A   1      41.788  32.424  30.249  1.00  0.00     0.031 C 
ATOM     53  C   UNL A   1      39.408  26.032  29.135  1.00  0.00     0.029 A 
ATOM     54  C   UNL A   1      40.719  26.325  28.560  1.00  0.00     0.049 A 
ATOM     55  H   UNL A   1      41.795  28.101  28.699  1.00  0.00     0.167 HD
ATOM     56  C   UNL A   1      43.924  31.950  29.096  1.00  0.00     0.037 A 
ATOM     57  C   UNL A   1      41.475  25.477  27.839  1.00  0.00     0.037 A 
ATOM     58  C   UNL A   1      44.820  31.093  28.367  1.00  0.00     0.049 A 
ATOM     59  C   UNL A   1      42.824  25.935  27.352  1.00  0.00     0.074 A 
ATOM     60  C   UNL A   1      46.089  31.371  27.893  1.00  0.00     0.029 A 
ATOM     61  N   UNL A   1      44.534  29.783  28.010  1.00  0.00    -0.354 N 
ATOM     62  N   UNL A   1      43.418  27.093  27.522  1.00  0.00    -0.248 NA
ATOM     63  C   UNL A   1      43.615  24.962  26.588  1.00  0.00     0.031 C 
ATOM     64  C   UNL A   1      46.557  30.240  27.214  1.00  0.00     0.029 A 
ATOM     65  C   UNL A   1      45.599  29.242  27.311  1.00  0.00     0.049 A 
ATOM     66  H   UNL A   1      43.699  29.309  28.223  1.00  0.00     0.167 HD
ATOM     67  C   UNL A   1      44.663  26.974  26.917  1.00  0.00     0.074 A 
ATOM     68  C   UNL A   1      44.741  25.629  26.387  1.00  0.00     0.031 C 
ATOM     69  C   UNL A   1      45.655  27.893  26.808  1.00  0.00     0.037 A 
BRANCH  56  70
ATOM     70  C   UNL A   1      44.355  33.355  29.397  1.00  0.00     0.057 A 
ATOM     71  C   UNL A   1      45.046  33.685  30.572  1.00  0.00     0.134 A 
ATOM     72  C   UNL A   1      44.091  34.391  28.493  1.00  0.00     0.134 A 
ATOM     73  F   UNL A   1      45.313  32.744  31.490  1.00  0.00    -0.206 F 
ATOM     74  C   UNL A   1      45.440  34.996  30.844  1.00  0.00     0.040 A 
ATOM     75  C   UNL A   1      44.502  35.702  28.743  1.00  0.00     0.040 A 
ATOM     76  F   UNL A   1      43.432  34.146  27.350  1.00  0.00    -0.206 F 
ATOM     77  C   UNL A   1      45.174  36.009  29.924  1.00  0.00     0.006 A 
ENDBRANCH  56  70
BRANCH  57  78
ATOM     78  C   UNL A   1      40.976  24.113  27.535  1.00  0.00     0.057 A 
ATOM     79  C   UNL A   1      39.962  23.901  26.595  1.00  0.00     0.134 A 
ATOM     80  C   UNL A   1      41.490  22.990  28.194  1.00  0.00     0.134 A 
ATOM     81  F   UNL A   1      39.417  24.939  25.943  1.00  0.00    -0.206 F 
ATOM     82  C   UNL A   1      39.459  22.625  26.338  1.00  0.00     0.040 A 
ATOM     83  C   UNL A   1      41.014  21.705  27.928  1.00  0.00     0.040 A 
ATOM     84  F   UNL A   1      42.468  23.125  29.101  1.00  0.00    -0.206 F 
ATOM     85  C   UNL A   1      39.989  21.522  27.004  1.00  0.00     0.006 A 
ENDBRANCH  57  78
BRANCH  69  86
ATOM     86  C   UNL A   1      46.924  27.449  26.142  1.00  0.00     0.057 A 
ATOM     87  C   UNL A   1      47.984  26.886  26.864  1.00  0.00     0.134 A 
ATOM     88  C   UNL A   1      47.077  27.569  24.755  1.00  0.00     0.134 A 
ATOM     89  F   UNL A   1      47.905  26.752  28.196  1.00  0.00    -0.206 F 
ATOM     90  C   UNL A   1      49.165  26.492  26.233  1.00  0.00     0.040 A 
ATOM     91  C   UNL A   1      48.241  27.153  24.110  1.00  0.00     0.040 A 
ATOM     92  F   UNL A   1      46.092  28.089  24.004  1.00  0.00    -0.206 F 
ATOM     93  C   UNL A   1      49.293  26.622  24.851  1.00  0.00     0.006 A 
ENDBRANCH  69  86
ENDBRANCH  43  44
ENDBRANCH  36  38
ENDBRANCH  35  36
ENDBRANCH  34  35
ENDBRANCH  33  34
ENDBRANCH  32  33
ENDBRANCH  31  32
ENDBRANCH  30  31
ENDBRANCH   1  30
TORSDOF 23
ENDMDL
