MODEL 1
REMARK VINA RESULT:      -9.2      0.000      0.000
REMARK SMILES CCCCCCCCNC(=O)Oc1cccc(-c2ccc([C@@H](C)C(=O)OCCOCCOCCOCCOC(=O)c3ccc(-c4c5nc(c(-c6c(F)cccc6F)c6ccc([nH]6)c(-c6c(F)cccc6F)c6nc(c(-c7c(F)cccc7F)c7ccc4[nH]7)C=C6)C=C5)cc3)cc2F)c1
REMARK SMILES IDX 27 1 26 2 24 3 25 4 22 5 23 6 21 7 18 8 19 9 96 10 20 11
REMARK SMILES IDX 95 12 97 13 17 14 13 15 14 16 98 17 15 18 16 19 12 20 10 21
REMARK SMILES IDX 9 22 11 24 8 25 7 26 6 27 5 28 4 29 3 30 2 31 1 32 28 33
REMARK SMILES IDX 29 34 30 35 31 36 32 37 33 38 34 39 35 40 36 41 37 42 38 43
REMARK SMILES IDX 39 44 40 45 41 46 42 47 94 48 43 49 93 50 44 51 45 52 46 53
REMARK SMILES IDX 87 54 47 55 92 56 86 57 88 58 48 59 91 60 85 61 84 62 49 64
REMARK SMILES IDX 75 65 58 66 74 67 59 68 62 69 73 70 89 71 60 72 61 73 72 75
REMARK SMILES IDX 90 76 63 77 50 78 51 79 56 80 52 81 53 82 55 83 57 84 54 85
REMARK SMILES IDX 76 86 77 87 82 88 78 89 79 90 81 91 83 92 80 93 64 94 65 95
REMARK SMILES IDX 70 96 66 97 67 98 69 99 71 100 68 101
REMARK H PARENT 9 23 88 63 62 74
REMARK Flexibility Score: inf
ROOT
ATOM      1  C   UNL A   1      35.014  33.246  28.865  1.00  0.00     0.261 C 
ENDROOT
BRANCH   1   2
ATOM      2  O   UNL A   1      34.064  32.177  28.665  1.00  0.00    -0.463 OA
BRANCH   2   3
ATOM      3  C   UNL A   1      34.446  31.186  27.825  1.00  0.00     0.313 C 
ATOM      4  O   UNL A   1      35.568  30.680  27.845  1.00  0.00    -0.252 OA
BRANCH   3   5
ATOM      5  C   UNL A   1      33.404  30.732  26.803  1.00  0.00     0.126 C 
ATOM      6  C   UNL A   1      32.225  31.696  26.859  1.00  0.00     0.025 C 
BRANCH   5   7
ATOM      7  C   UNL A   1      32.925  29.281  26.740  1.00  0.00    -0.031 A 
ATOM      8  C   UNL A   1      32.156  26.514  26.593  1.00  0.00     0.018 A 
ATOM      9  C   UNL A   1      31.316  27.487  27.167  1.00  0.00     0.012 A 
ATOM     10  C   UNL A   1      33.384  26.960  26.096  1.00  0.00     0.131 A 
ATOM     11  C   UNL A   1      31.690  28.846  27.239  1.00  0.00     0.005 A 
ATOM     12  C   UNL A   1      33.759  28.308  26.150  1.00  0.00     0.044 A 
ATOM     13  F   UNL A   1      34.242  26.091  25.537  1.00  0.00    -0.206 F 
BRANCH   8  14
ATOM     14  C   UNL A   1      31.737  25.101  26.490  1.00  0.00    -0.012 A 
ATOM     15  C   UNL A   1      32.225  22.736  26.167  1.00  0.00     0.133 A 
ATOM     16  C   UNL A   1      30.875  22.411  26.262  1.00  0.00     0.047 A 
ATOM     17  C   UNL A   1      32.661  24.063  26.261  1.00  0.00     0.056 A 
ATOM     18  C   UNL A   1      29.948  23.426  26.479  1.00  0.00     0.004 A 
ATOM     19  C   UNL A   1      30.376  24.754  26.594  1.00  0.00     0.009 A 
BRANCH  15  20
ATOM     20  O   UNL A   1      33.114  21.694  25.858  1.00  0.00    -0.410 OA
BRANCH  20  21
ATOM     21  C   UNL A   1      32.721  20.842  24.839  1.00  0.00     0.412 C 
ATOM     22  N   UNL A   1      32.996  21.314  23.587  1.00  0.00    -0.321 N 
ATOM     23  H   UNL A   1      32.795  20.708  22.837  1.00  0.00     0.167 HD
ATOM     24  O   UNL A   1      32.165  19.758  24.982  1.00  0.00    -0.224 OA
BRANCH  22  25
ATOM     25  C   UNL A   1      33.551  22.606  23.239  1.00  0.00     0.119 C 
BRANCH  25  26
ATOM     26  C   UNL A   1      32.486  23.568  22.713  1.00  0.00     0.021 C 
BRANCH  26  27
ATOM     27  C   UNL A   1      32.905  24.389  21.485  1.00  0.00     0.002 C 
BRANCH  27  28
ATOM     28  C   UNL A   1      32.563  25.883  21.545  1.00  0.00     0.000 C 
BRANCH  28  29
ATOM     29  C   UNL A   1      31.979  26.360  22.879  1.00  0.00    -0.000 C 
BRANCH  29  30
ATOM     30  C   UNL A   1      30.887  27.430  22.763  1.00  0.00    -0.000 C 
BRANCH  30  31
ATOM     31  C   UNL A   1      31.176  28.742  23.501  1.00  0.00    -0.003 C 
ATOM     32  C   UNL A   1      29.962  29.652  23.609  1.00  0.00     0.004 C 
ENDBRANCH  30  31
ENDBRANCH  29  30
ENDBRANCH  28  29
ENDBRANCH  27  28
ENDBRANCH  26  27
ENDBRANCH  25  26
ENDBRANCH  22  25
ENDBRANCH  20  21
ENDBRANCH  15  20
ENDBRANCH   8  14
ENDBRANCH   5   7
ENDBRANCH   3   5
ENDBRANCH   2   3
ENDBRANCH   1   2
BRANCH   1  33
ATOM     33  C   UNL A   1      34.722  34.584  28.162  1.00  0.00     0.202 C 
BRANCH  33  34
ATOM     34  O   UNL A   1      33.694  35.443  28.631  1.00  0.00    -0.376 OA
BRANCH  34  35
ATOM     35  C   UNL A   1      33.176  35.306  29.948  1.00  0.00     0.188 C 
BRANCH  35  36
ATOM     36  C   UNL A   1      33.056  36.516  30.886  1.00  0.00     0.188 C 
BRANCH  36  37
ATOM     37  O   UNL A   1      33.116  36.219  32.266  1.00  0.00    -0.377 OA
BRANCH  37  38
ATOM     38  C   UNL A   1      34.353  36.471  32.911  1.00  0.00     0.188 C 
BRANCH  38  39
ATOM     39  C   UNL A   1      35.124  35.252  33.452  1.00  0.00     0.188 C 
BRANCH  39  40
ATOM     40  O   UNL A   1      35.499  34.307  32.454  1.00  0.00    -0.376 OA
BRANCH  40  41
ATOM     41  C   UNL A   1      34.897  33.019  32.476  1.00  0.00     0.202 C 
BRANCH  41  42
ATOM     42  C   UNL A   1      35.823  31.792  32.455  1.00  0.00     0.261 C 
BRANCH  42  43
ATOM     43  O   UNL A   1      36.415  31.478  31.189  1.00  0.00    -0.460 OA
BRANCH  43  44
ATOM     44  C   UNL A   1      36.907  30.232  31.019  1.00  0.00     0.338 C 
ATOM     45  O   UNL A   1      36.280  29.194  31.004  1.00  0.00    -0.246 OA
BRANCH  44  46
ATOM     46  C   UNL A   1      38.328  30.353  30.618  1.00  0.00     0.060 A 
ATOM     47  C   UNL A   1      38.623  30.485  29.255  1.00  0.00     0.016 A 
ATOM     48  C   UNL A   1      39.358  30.296  31.559  1.00  0.00     0.016 A 
ATOM     49  C   UNL A   1      39.947  30.471  28.822  1.00  0.00     0.010 A 
ATOM     50  C   UNL A   1      40.688  30.259  31.124  1.00  0.00     0.010 A 
ATOM     51  C   UNL A   1      40.981  30.283  29.749  1.00  0.00    -0.014 A 
BRANCH  51  52
ATOM     52  C   UNL A   1      42.304  29.834  29.251  1.00  0.00     0.031 A 
ATOM     53  C   UNL A   1      42.439  28.401  28.801  1.00  0.00     0.074 A 
ATOM     54  C   UNL A   1      43.337  30.682  29.118  1.00  0.00     0.049 A 
ATOM     55  N   UNL A   1      43.471  27.779  28.293  1.00  0.00    -0.248 NA
ATOM     56  C   UNL A   1      41.241  27.558  28.945  1.00  0.00     0.031 C 
ATOM     57  C   UNL A   1      43.320  32.099  29.472  1.00  0.00     0.029 A 
ATOM     58  N   UNL A   1      44.606  30.467  28.639  1.00  0.00    -0.354 N 
ATOM     59  C   UNL A   1      43.047  26.475  28.060  1.00  0.00     0.074 A 
ATOM     60  C   UNL A   1      41.681  26.384  28.522  1.00  0.00     0.031 C 
ATOM     61  C   UNL A   1      44.528  32.628  29.202  1.00  0.00     0.029 A 
ATOM     62  C   UNL A   1      45.405  31.582  28.679  1.00  0.00     0.049 A 
ATOM     63  H   UNL A   1      44.912  29.595  28.301  1.00  0.00     0.167 HD
ATOM     64  C   UNL A   1      43.729  25.447  27.501  1.00  0.00     0.037 A 
ATOM     65  C   UNL A   1      46.700  31.732  28.339  1.00  0.00     0.037 A 
ATOM     66  C   UNL A   1      45.091  25.536  27.048  1.00  0.00     0.049 A 
ATOM     67  C   UNL A   1      47.459  30.557  27.779  1.00  0.00     0.074 A 
ATOM     68  C   UNL A   1      45.873  24.555  26.464  1.00  0.00     0.029 A 
ATOM     69  N   UNL A   1      45.879  26.675  27.138  1.00  0.00    -0.354 N 
ATOM     70  N   UNL A   1      47.046  29.334  27.544  1.00  0.00    -0.248 NA
ATOM     71  C   UNL A   1      48.867  30.790  27.423  1.00  0.00     0.031 C 
ATOM     72  C   UNL A   1      47.150  25.084  26.253  1.00  0.00     0.029 A 
ATOM     73  C   UNL A   1      47.145  26.414  26.639  1.00  0.00     0.049 A 
ATOM     74  H   UNL A   1      45.582  27.540  27.502  1.00  0.00     0.167 HD
ATOM     75  C   UNL A   1      48.125  28.667  26.975  1.00  0.00     0.074 A 
ATOM     76  C   UNL A   1      49.208  29.625  26.892  1.00  0.00     0.031 C 
ATOM     77  C   UNL A   1      48.212  27.380  26.554  1.00  0.00     0.037 A 
BRANCH  64  78
ATOM     78  C   UNL A   1      43.015  24.130  27.388  1.00  0.00     0.057 A 
ATOM     79  C   UNL A   1      42.327  23.751  26.226  1.00  0.00     0.134 A 
ATOM     80  C   UNL A   1      43.019  23.224  28.457  1.00  0.00     0.134 A 
ATOM     81  F   UNL A   1      42.266  24.579  25.172  1.00  0.00    -0.206 F 
ATOM     82  C   UNL A   1      41.644  22.536  26.144  1.00  0.00     0.040 A 
ATOM     83  C   UNL A   1      42.368  21.992  28.375  1.00  0.00     0.040 A 
ATOM     84  F   UNL A   1      43.660  23.520  29.598  1.00  0.00    -0.206 F 
ATOM     85  C   UNL A   1      41.669  21.650  27.219  1.00  0.00     0.006 A 
ENDBRANCH  64  78
BRANCH  65  86
ATOM     86  C   UNL A   1      47.368  33.048  28.516  1.00  0.00     0.057 A 
ATOM     87  C   UNL A   1      47.391  33.999  27.489  1.00  0.00     0.134 A 
ATOM     88  C   UNL A   1      48.027  33.373  29.708  1.00  0.00     0.134 A 
ATOM     89  F   UNL A   1      46.799  33.738  26.313  1.00  0.00    -0.206 F 
ATOM     90  C   UNL A   1      48.063  35.215  27.631  1.00  0.00     0.040 A 
ATOM     91  C   UNL A   1      48.678  34.597  29.875  1.00  0.00     0.040 A 
ATOM     92  F   UNL A   1      48.043  32.506  30.731  1.00  0.00    -0.206 F 
ATOM     93  C   UNL A   1      48.706  35.518  28.830  1.00  0.00     0.006 A 
ENDBRANCH  65  86
BRANCH  77  94
ATOM     94  C   UNL A   1      49.499  26.952  25.904  1.00  0.00     0.057 A 
ATOM     95  C   UNL A   1      49.751  27.142  24.539  1.00  0.00     0.134 A 
ATOM     96  C   UNL A   1      50.509  26.348  26.666  1.00  0.00     0.134 A 
ATOM     97  F   UNL A   1      48.826  27.707  23.748  1.00  0.00    -0.206 F 
ATOM     98  C   UNL A   1      50.940  26.709  23.949  1.00  0.00     0.040 A 
ATOM     99  C   UNL A   1      51.716  25.943  26.094  1.00  0.00     0.040 A 
ATOM    100  F   UNL A   1      50.343  26.149  27.983  1.00  0.00    -0.206 F 
ATOM    101  C   UNL A   1      51.929  26.112  24.729  1.00  0.00     0.006 A 
ENDBRANCH  77  94
ENDBRANCH  51  52
ENDBRANCH  44  46
ENDBRANCH  43  44
ENDBRANCH  42  43
ENDBRANCH  41  42
ENDBRANCH  40  41
ENDBRANCH  39  40
ENDBRANCH  38  39
ENDBRANCH  37  38
ENDBRANCH  36  37
ENDBRANCH  35  36
ENDBRANCH  34  35
ENDBRANCH  33  34
ENDBRANCH   1  33
TORSDOF 31
ENDMDL
MODEL 2
REMARK VINA RESULT:      -8.9      6.585      8.375
REMARK SMILES CCCCCCCCNC(=O)Oc1cccc(-c2ccc([C@@H](C)C(=O)OCCOCCOCCOCCOC(=O)c3ccc(-c4c5nc(c(-c6c(F)cccc6F)c6ccc([nH]6)c(-c6c(F)cccc6F)c6nc(c(-c7c(F)cccc7F)c7ccc4[nH]7)C=C6)C=C5)cc3)cc2F)c1
REMARK SMILES IDX 27 1 26 2 24 3 25 4 22 5 23 6 21 7 18 8 19 9 96 10 20 11
REMARK SMILES IDX 95 12 97 13 17 14 13 15 14 16 98 17 15 18 16 19 12 20 10 21
REMARK SMILES IDX 9 22 11 24 8 25 7 26 6 27 5 28 4 29 3 30 2 31 1 32 28 33
REMARK SMILES IDX 29 34 30 35 31 36 32 37 33 38 34 39 35 40 36 41 37 42 38 43
REMARK SMILES IDX 39 44 40 45 41 46 42 47 94 48 43 49 93 50 44 51 45 52 46 53
REMARK SMILES IDX 87 54 47 55 92 56 86 57 88 58 48 59 91 60 85 61 84 62 49 64
REMARK SMILES IDX 75 65 58 66 74 67 59 68 62 69 73 70 89 71 60 72 61 73 72 75
REMARK SMILES IDX 90 76 63 77 50 78 51 79 56 80 52 81 53 82 55 83 57 84 54 85
REMARK SMILES IDX 76 86 77 87 82 88 78 89 79 90 81 91 83 92 80 93 64 94 65 95
REMARK SMILES IDX 70 96 66 97 67 98 69 99 71 100 68 101
REMARK H PARENT 9 23 88 63 62 74
REMARK Flexibility Score: inf
ROOT
ATOM      1  C   UNL A   1      34.622  32.863  29.026  1.00  0.00     0.261 C 
ENDROOT
BRANCH   1   2
ATOM      2  O   UNL A   1      33.608  32.179  28.259  1.00  0.00    -0.463 OA
BRANCH   2   3
ATOM      3  C   UNL A   1      33.978  31.010  27.686  1.00  0.00     0.313 C 
ATOM      4  O   UNL A   1      35.005  30.404  27.991  1.00  0.00    -0.252 OA
BRANCH   3   5
ATOM      5  C   UNL A   1      33.055  30.476  26.590  1.00  0.00     0.126 C 
ATOM      6  C   UNL A   1      31.772  31.300  26.600  1.00  0.00     0.025 C 
BRANCH   5   7
ATOM      7  C   UNL A   1      32.749  28.984  26.460  1.00  0.00    -0.031 A 
ATOM      8  C   UNL A   1      32.310  26.152  26.221  1.00  0.00     0.018 A 
ATOM      9  C   UNL A   1      31.265  27.039  26.540  1.00  0.00     0.012 A 
ATOM     10  C   UNL A   1      33.574  26.716  26.023  1.00  0.00     0.131 A 
ATOM     11  C   UNL A   1      31.477  28.429  26.657  1.00  0.00     0.005 A 
ATOM     12  C   UNL A   1      33.792  28.096  26.123  1.00  0.00     0.044 A 
ATOM     13  F   UNL A   1      34.623  25.934  25.719  1.00  0.00    -0.206 F 
BRANCH   8  14
ATOM     14  C   UNL A   1      32.068  24.702  26.065  1.00  0.00    -0.012 A 
ATOM     15  C   UNL A   1      32.579  22.535  25.077  1.00  0.00     0.133 A 
ATOM     16  C   UNL A   1      31.536  21.934  25.776  1.00  0.00     0.047 A 
ATOM     17  C   UNL A   1      32.840  23.905  25.199  1.00  0.00     0.056 A 
ATOM     18  C   UNL A   1      30.758  22.709  26.629  1.00  0.00     0.004 A 
ATOM     19  C   UNL A   1      31.024  24.076  26.772  1.00  0.00     0.009 A 
BRANCH  15  20
ATOM     20  O   UNL A   1      33.280  21.735  24.160  1.00  0.00    -0.410 OA
BRANCH  20  21
ATOM     21  C   UNL A   1      32.568  21.318  23.048  1.00  0.00     0.412 C 
ATOM     22  N   UNL A   1      32.665  22.164  21.980  1.00  0.00    -0.321 N 
ATOM     23  H   UNL A   1      32.229  21.869  21.147  1.00  0.00     0.167 HD
ATOM     24  O   UNL A   1      31.886  20.301  22.970  1.00  0.00    -0.224 OA
BRANCH  22  25
ATOM     25  C   UNL A   1      33.339  23.446  21.935  1.00  0.00     0.119 C 
BRANCH  25  26
ATOM     26  C   UNL A   1      32.355  24.616  21.986  1.00  0.00     0.021 C 
BRANCH  26  27
ATOM     27  C   UNL A   1      32.603  25.715  20.943  1.00  0.00     0.002 C 
BRANCH  27  28
ATOM     28  C   UNL A   1      33.193  27.020  21.492  1.00  0.00     0.000 C 
BRANCH  28  29
ATOM     29  C   UNL A   1      32.626  27.469  22.843  1.00  0.00    -0.000 C 
BRANCH  29  30
ATOM     30  C   UNL A   1      32.023  28.877  22.859  1.00  0.00    -0.000 C 
BRANCH  30  31
ATOM     31  C   UNL A   1      30.529  28.946  23.196  1.00  0.00    -0.003 C 
ATOM     32  C   UNL A   1      29.817  27.609  23.053  1.00  0.00     0.004 C 
ENDBRANCH  30  31
ENDBRANCH  29  30
ENDBRANCH  28  29
ENDBRANCH  27  28
ENDBRANCH  26  27
ENDBRANCH  25  26
ENDBRANCH  22  25
ENDBRANCH  20  21
ENDBRANCH  15  20
ENDBRANCH   8  14
ENDBRANCH   5   7
ENDBRANCH   3   5
ENDBRANCH   2   3
ENDBRANCH   1   2
BRANCH   1  33
ATOM     33  C   UNL A   1      35.183  34.171  28.438  1.00  0.00     0.202 C 
BRANCH  33  34
ATOM     34  O   UNL A   1      34.376  35.336  28.354  1.00  0.00    -0.376 OA
BRANCH  34  35
ATOM     35  C   UNL A   1      33.465  35.666  29.395  1.00  0.00     0.188 C 
BRANCH  35  36
ATOM     36  C   UNL A   1      33.255  37.122  29.835  1.00  0.00     0.188 C 
BRANCH  36  37
ATOM     37  O   UNL A   1      32.736  37.290  31.138  1.00  0.00    -0.377 OA
BRANCH  37  38
ATOM     38  C   UNL A   1      33.654  37.712  32.132  1.00  0.00     0.188 C 
BRANCH  38  39
ATOM     39  C   UNL A   1      33.820  36.806  33.367  1.00  0.00     0.188 C 
BRANCH  39  40
ATOM     40  O   UNL A   1      34.492  35.578  33.105  1.00  0.00    -0.376 OA
BRANCH  40  41
ATOM     41  C   UNL A   1      33.715  34.400  32.932  1.00  0.00     0.202 C 
BRANCH  41  42
ATOM     42  C   UNL A   1      34.459  33.081  32.662  1.00  0.00     0.261 C 
BRANCH  42  43
ATOM     43  O   UNL A   1      35.733  32.942  33.300  1.00  0.00    -0.460 OA
BRANCH  43  44
ATOM     44  C   UNL A   1      36.836  33.076  32.532  1.00  0.00     0.338 C 
ATOM     45  O   UNL A   1      36.994  33.844  31.607  1.00  0.00    -0.246 OA
BRANCH  44  46
ATOM     46  C   UNL A   1      37.923  32.283  33.152  1.00  0.00     0.060 A 
ATOM     47  C   UNL A   1      37.593  31.407  34.195  1.00  0.00     0.016 A 
ATOM     48  C   UNL A   1      39.251  32.425  32.746  1.00  0.00     0.016 A 
ATOM     49  C   UNL A   1      38.598  30.740  34.892  1.00  0.00     0.010 A 
ATOM     50  C   UNL A   1      40.264  31.774  33.460  1.00  0.00     0.010 A 
ATOM     51  C   UNL A   1      39.942  30.980  34.575  1.00  0.00    -0.014 A 
BRANCH  51  52
ATOM     52  C   UNL A   1      40.978  30.628  35.576  1.00  0.00     0.031 A 
ATOM     53  C   UNL A   1      41.701  29.315  35.412  1.00  0.00     0.074 A 
ATOM     54  C   UNL A   1      41.334  31.476  36.556  1.00  0.00     0.049 A 
ATOM     55  N   UNL A   1      42.667  28.799  36.127  1.00  0.00    -0.248 NA
ATOM     56  C   UNL A   1      41.271  28.472  34.285  1.00  0.00     0.031 C 
ATOM     57  C   UNL A   1      40.745  32.792  36.793  1.00  0.00     0.029 A 
ATOM     58  N   UNL A   1      42.288  31.350  37.534  1.00  0.00    -0.354 N 
ATOM     59  C   UNL A   1      42.957  27.574  35.537  1.00  0.00     0.074 A 
ATOM     60  C   UNL A   1      42.037  27.404  34.435  1.00  0.00     0.031 C 
ATOM     61  C   UNL A   1      41.352  33.353  37.855  1.00  0.00     0.029 A 
ATOM     62  C   UNL A   1      42.351  32.426  38.384  1.00  0.00     0.049 A 
ATOM     63  H   UNL A   1      42.872  30.562  37.618  1.00  0.00     0.167 HD
ATOM     64  C   UNL A   1      43.912  26.674  35.873  1.00  0.00     0.037 A 
ATOM     65  C   UNL A   1      43.122  32.630  39.469  1.00  0.00     0.037 A 
ATOM     66  C   UNL A   1      44.823  26.840  36.973  1.00  0.00     0.049 A 
ATOM     67  C   UNL A   1      44.134  31.586  39.864  1.00  0.00     0.074 A 
ATOM     68  C   UNL A   1      45.829  25.990  37.397  1.00  0.00     0.029 A 
ATOM     69  N   UNL A   1      44.831  27.929  37.833  1.00  0.00    -0.354 N 
ATOM     70  N   UNL A   1      44.415  30.439  39.290  1.00  0.00    -0.248 NA
ATOM     71  C   UNL A   1      44.948  31.872  41.055  1.00  0.00     0.031 C 
ATOM     72  C   UNL A   1      46.408  26.538  38.546  1.00  0.00     0.029 A 
ATOM     73  C   UNL A   1      45.812  27.763  38.798  1.00  0.00     0.049 A 
ATOM     74  H   UNL A   1      44.229  28.705  37.767  1.00  0.00     0.167 HD
ATOM     75  C   UNL A   1      45.464  29.891  40.021  1.00  0.00     0.074 A 
ATOM     76  C   UNL A   1      45.774  30.836  41.074  1.00  0.00     0.031 C 
ATOM     77  C   UNL A   1      46.116  28.716  39.836  1.00  0.00     0.037 A 
BRANCH  64  78
ATOM     78  C   UNL A   1      43.986  25.414  35.058  1.00  0.00     0.057 A 
ATOM     79  C   UNL A   1      44.872  25.274  33.980  1.00  0.00     0.134 A 
ATOM     80  C   UNL A   1      43.162  24.322  35.359  1.00  0.00     0.134 A 
ATOM     81  F   UNL A   1      45.677  26.286  33.625  1.00  0.00    -0.206 F 
ATOM     82  C   UNL A   1      44.911  24.107  33.213  1.00  0.00     0.040 A 
ATOM     83  C   UNL A   1      43.215  23.139  34.620  1.00  0.00     0.040 A 
ATOM     84  F   UNL A   1      42.292  24.386  36.378  1.00  0.00    -0.206 F 
ATOM     85  C   UNL A   1      44.085  23.033  33.537  1.00  0.00     0.006 A 
ENDBRANCH  64  78
BRANCH  65  86
ATOM     86  C   UNL A   1      42.973  33.876  40.265  1.00  0.00     0.057 A 
ATOM     87  C   UNL A   1      43.767  35.002  40.014  1.00  0.00     0.134 A 
ATOM     88  C   UNL A   1      42.053  33.959  41.318  1.00  0.00     0.134 A 
ATOM     89  F   UNL A   1      44.684  34.977  39.036  1.00  0.00    -0.206 F 
ATOM     90  C   UNL A   1      43.667  36.156  40.794  1.00  0.00     0.040 A 
ATOM     91  C   UNL A   1      41.923  35.117  42.087  1.00  0.00     0.040 A 
ATOM     92  F   UNL A   1      41.263  32.916  41.610  1.00  0.00    -0.206 F 
ATOM     93  C   UNL A   1      42.738  36.217  41.832  1.00  0.00     0.006 A 
ENDBRANCH  65  86
BRANCH  77  94
ATOM     94  C   UNL A   1      47.271  28.416  40.750  1.00  0.00     0.057 A 
ATOM     95  C   UNL A   1      47.099  27.817  42.005  1.00  0.00     0.134 A 
ATOM     96  C   UNL A   1      48.582  28.722  40.358  1.00  0.00     0.134 A 
ATOM     97  F   UNL A   1      45.872  27.502  42.448  1.00  0.00    -0.206 F 
ATOM     98  C   UNL A   1      48.183  27.575  42.853  1.00  0.00     0.040 A 
ATOM     99  C   UNL A   1      49.675  28.453  41.183  1.00  0.00     0.040 A 
ATOM    100  F   UNL A   1      48.822  29.283  39.163  1.00  0.00    -0.206 F 
ATOM    101  C   UNL A   1      49.476  27.889  42.440  1.00  0.00     0.006 A 
ENDBRANCH  77  94
ENDBRANCH  51  52
ENDBRANCH  44  46
ENDBRANCH  43  44
ENDBRANCH  42  43
ENDBRANCH  41  42
ENDBRANCH  40  41
ENDBRANCH  39  40
ENDBRANCH  38  39
ENDBRANCH  37  38
ENDBRANCH  36  37
ENDBRANCH  35  36
ENDBRANCH  34  35
ENDBRANCH  33  34
ENDBRANCH   1  33
TORSDOF 31
ENDMDL
MODEL 3
REMARK VINA RESULT:      -8.6      6.809      9.969
REMARK SMILES CCCCCCCCNC(=O)Oc1cccc(-c2ccc([C@@H](C)C(=O)OCCOCCOCCOCCOC(=O)c3ccc(-c4c5nc(c(-c6c(F)cccc6F)c6ccc([nH]6)c(-c6c(F)cccc6F)c6nc(c(-c7c(F)cccc7F)c7ccc4[nH]7)C=C6)C=C5)cc3)cc2F)c1
REMARK SMILES IDX 27 1 26 2 24 3 25 4 22 5 23 6 21 7 18 8 19 9 96 10 20 11
REMARK SMILES IDX 95 12 97 13 17 14 13 15 14 16 98 17 15 18 16 19 12 20 10 21
REMARK SMILES IDX 9 22 11 24 8 25 7 26 6 27 5 28 4 29 3 30 2 31 1 32 28 33
REMARK SMILES IDX 29 34 30 35 31 36 32 37 33 38 34 39 35 40 36 41 37 42 38 43
REMARK SMILES IDX 39 44 40 45 41 46 42 47 94 48 43 49 93 50 44 51 45 52 46 53
REMARK SMILES IDX 87 54 47 55 92 56 86 57 88 58 48 59 91 60 85 61 84 62 49 64
REMARK SMILES IDX 75 65 58 66 74 67 59 68 62 69 73 70 89 71 60 72 61 73 72 75
REMARK SMILES IDX 90 76 63 77 50 78 51 79 56 80 52 81 53 82 55 83 57 84 54 85
REMARK SMILES IDX 76 86 77 87 82 88 78 89 79 90 81 91 83 92 80 93 64 94 65 95
REMARK SMILES IDX 70 96 66 97 67 98 69 99 71 100 68 101
REMARK H PARENT 9 23 88 63 62 74
REMARK Flexibility Score: inf
ROOT
ATOM      1  C   UNL A   1      34.595  32.871  29.035  1.00  0.00     0.261 C 
ENDROOT
BRANCH   1   2
ATOM      2  O   UNL A   1      33.601  32.206  28.226  1.00  0.00    -0.463 OA
BRANCH   2   3
ATOM      3  C   UNL A   1      33.955  31.004  27.712  1.00  0.00     0.313 C 
ATOM      4  O   UNL A   1      34.943  30.373  28.088  1.00  0.00    -0.252 OA
BRANCH   3   5
ATOM      5  C   UNL A   1      33.066  30.464  26.592  1.00  0.00     0.126 C 
ATOM      6  C   UNL A   1      31.781  31.285  26.560  1.00  0.00     0.025 C 
BRANCH   5   7
ATOM      7  C   UNL A   1      32.767  28.971  26.457  1.00  0.00    -0.031 A 
ATOM      8  C   UNL A   1      32.342  26.136  26.219  1.00  0.00     0.018 A 
ATOM      9  C   UNL A   1      31.282  27.026  26.469  1.00  0.00     0.012 A 
ATOM     10  C   UNL A   1      33.616  26.699  26.090  1.00  0.00     0.131 A 
ATOM     11  C   UNL A   1      31.486  28.417  26.585  1.00  0.00     0.005 A 
ATOM     12  C   UNL A   1      33.828  28.080  26.190  1.00  0.00     0.044 A 
ATOM     13  F   UNL A   1      34.681  25.915  25.854  1.00  0.00    -0.206 F 
BRANCH   8  14
ATOM     14  C   UNL A   1      32.110  24.685  26.062  1.00  0.00    -0.012 A 
ATOM     15  C   UNL A   1      32.620  22.526  25.056  1.00  0.00     0.133 A 
ATOM     16  C   UNL A   1      31.596  21.914  25.773  1.00  0.00     0.047 A 
ATOM     17  C   UNL A   1      32.872  23.898  25.178  1.00  0.00     0.056 A 
ATOM     18  C   UNL A   1      30.828  22.680  26.644  1.00  0.00     0.004 A 
ATOM     19  C   UNL A   1      31.085  24.048  26.787  1.00  0.00     0.009 A 
BRANCH  15  20
ATOM     20  O   UNL A   1      33.309  21.736  24.122  1.00  0.00    -0.410 OA
BRANCH  20  21
ATOM     21  C   UNL A   1      32.580  21.319  23.022  1.00  0.00     0.412 C 
ATOM     22  N   UNL A   1      32.640  22.178  21.961  1.00  0.00    -0.321 N 
ATOM     23  H   UNL A   1      32.191  21.885  21.135  1.00  0.00     0.167 HD
ATOM     24  O   UNL A   1      31.912  20.292  22.947  1.00  0.00    -0.224 OA
BRANCH  22  25
ATOM     25  C   UNL A   1      33.293  23.471  21.916  1.00  0.00     0.119 C 
BRANCH  25  26
ATOM     26  C   UNL A   1      32.293  24.624  22.005  1.00  0.00     0.021 C 
BRANCH  26  27
ATOM     27  C   UNL A   1      32.518  25.756  20.992  1.00  0.00     0.002 C 
BRANCH  27  28
ATOM     28  C   UNL A   1      33.223  27.000  21.544  1.00  0.00     0.000 C 
BRANCH  28  29
ATOM     29  C   UNL A   1      32.720  27.478  22.910  1.00  0.00    -0.000 C 
BRANCH  29  30
ATOM     30  C   UNL A   1      31.933  28.792  22.889  1.00  0.00    -0.000 C 
BRANCH  30  31
ATOM     31  C   UNL A   1      30.482  28.678  22.410  1.00  0.00    -0.003 C 
ATOM     32  C   UNL A   1      29.657  27.685  23.214  1.00  0.00     0.004 C 
ENDBRANCH  30  31
ENDBRANCH  29  30
ENDBRANCH  28  29
ENDBRANCH  27  28
ENDBRANCH  26  27
ENDBRANCH  25  26
ENDBRANCH  22  25
ENDBRANCH  20  21
ENDBRANCH  15  20
ENDBRANCH   8  14
ENDBRANCH   5   7
ENDBRANCH   3   5
ENDBRANCH   2   3
ENDBRANCH   1   2
BRANCH   1  33
ATOM     33  C   UNL A   1      35.203  34.169  28.472  1.00  0.00     0.202 C 
BRANCH  33  34
ATOM     34  O   UNL A   1      34.433  35.359  28.395  1.00  0.00    -0.376 OA
BRANCH  34  35
ATOM     35  C   UNL A   1      33.446  35.651  29.376  1.00  0.00     0.188 C 
BRANCH  35  36
ATOM     36  C   UNL A   1      33.217  37.087  29.871  1.00  0.00     0.188 C 
BRANCH  36  37
ATOM     37  O   UNL A   1      32.710  37.198  31.185  1.00  0.00    -0.377 OA
BRANCH  37  38
ATOM     38  C   UNL A   1      33.603  37.702  32.164  1.00  0.00     0.188 C 
BRANCH  38  39
ATOM     39  C   UNL A   1      34.043  36.733  33.279  1.00  0.00     0.188 C 
BRANCH  39  40
ATOM     40  O   UNL A   1      34.611  35.516  32.806  1.00  0.00    -0.376 OA
BRANCH  40  41
ATOM     41  C   UNL A   1      33.878  34.310  32.981  1.00  0.00     0.202 C 
BRANCH  41  42
ATOM     42  C   UNL A   1      34.626  32.980  32.788  1.00  0.00     0.261 C 
BRANCH  42  43
ATOM     43  O   UNL A   1      35.918  32.896  33.401  1.00  0.00    -0.460 OA
BRANCH  43  44
ATOM     44  C   UNL A   1      36.999  32.954  32.594  1.00  0.00     0.338 C 
ATOM     45  O   UNL A   1      37.156  33.676  31.632  1.00  0.00    -0.246 OA
BRANCH  44  46
ATOM     46  C   UNL A   1      38.075  32.146  33.213  1.00  0.00     0.060 A 
ATOM     47  C   UNL A   1      37.758  31.369  34.336  1.00  0.00     0.016 A 
ATOM     48  C   UNL A   1      39.384  32.180  32.728  1.00  0.00     0.016 A 
ATOM     49  C   UNL A   1      38.764  30.696  35.027  1.00  0.00     0.010 A 
ATOM     50  C   UNL A   1      40.398  31.524  33.434  1.00  0.00     0.010 A 
ATOM     51  C   UNL A   1      40.098  30.833  34.621  1.00  0.00    -0.014 A 
BRANCH  51  52
ATOM     52  C   UNL A   1      41.169  30.495  35.590  1.00  0.00     0.031 A 
ATOM     53  C   UNL A   1      41.425  31.458  36.723  1.00  0.00     0.074 A 
ATOM     54  C   UNL A   1      41.844  29.335  35.527  1.00  0.00     0.049 A 
ATOM     55  N   UNL A   1      42.273  31.374  37.715  1.00  0.00    -0.248 NA
ATOM     56  C   UNL A   1      40.608  32.683  36.733  1.00  0.00     0.031 C 
ATOM     57  C   UNL A   1      41.657  28.302  34.511  1.00  0.00     0.029 A 
ATOM     58  N   UNL A   1      42.822  28.832  36.348  1.00  0.00    -0.354 N 
ATOM     59  C   UNL A   1      42.092  32.532  38.463  1.00  0.00     0.074 A 
ATOM     60  C   UNL A   1      41.088  33.322  37.787  1.00  0.00     0.031 C 
ATOM     61  C   UNL A   1      42.501  27.285  34.767  1.00  0.00     0.029 A 
ATOM     62  C   UNL A   1      43.299  27.608  35.948  1.00  0.00     0.049 A 
ATOM     63  H   UNL A   1      43.151  29.305  37.146  1.00  0.00     0.167 HD
ATOM     64  C   UNL A   1      42.698  32.902  39.616  1.00  0.00     0.037 A 
ATOM     65  C   UNL A   1      44.276  26.845  36.475  1.00  0.00     0.037 A 
ATOM     66  C   UNL A   1      43.703  32.118  40.285  1.00  0.00     0.049 A 
ATOM     67  C   UNL A   1      44.984  27.307  37.723  1.00  0.00     0.074 A 
ATOM     68  C   UNL A   1      44.378  32.400  41.459  1.00  0.00     0.029 A 
ATOM     69  N   UNL A   1      44.185  30.899  39.829  1.00  0.00    -0.354 N 
ATOM     70  N   UNL A   1      44.794  28.393  38.435  1.00  0.00    -0.248 NA
ATOM     71  C   UNL A   1      46.035  26.425  38.250  1.00  0.00     0.031 C 
ATOM     72  C   UNL A   1      45.308  31.380  41.684  1.00  0.00     0.029 A 
ATOM     73  C   UNL A   1      45.164  30.427  40.689  1.00  0.00     0.049 A 
ATOM     74  H   UNL A   1      43.877  30.439  39.015  1.00  0.00     0.167 HD
ATOM     75  C   UNL A   1      45.668  28.303  39.513  1.00  0.00     0.074 A 
ATOM     76  C   UNL A   1      46.382  27.052  39.365  1.00  0.00     0.031 C 
ATOM     77  C   UNL A   1      45.860  29.174  40.535  1.00  0.00     0.037 A 
BRANCH  64  78
ATOM     78  C   UNL A   1      42.313  34.230  40.200  1.00  0.00     0.057 A 
ATOM     79  C   UNL A   1      43.009  35.410  39.896  1.00  0.00     0.134 A 
ATOM     80  C   UNL A   1      41.225  34.334  41.077  1.00  0.00     0.134 A 
ATOM     81  F   UNL A   1      44.072  35.380  39.078  1.00  0.00    -0.206 F 
ATOM     82  C   UNL A   1      42.657  36.634  40.468  1.00  0.00     0.040 A 
ATOM     83  C   UNL A   1      40.844  35.558  41.629  1.00  0.00     0.040 A 
ATOM     84  F   UNL A   1      40.513  33.247  41.410  1.00  0.00    -0.206 F 
ATOM     85  C   UNL A   1      41.567  36.711  41.332  1.00  0.00     0.006 A 
ENDBRANCH  64  78
BRANCH  65  86
ATOM     86  C   UNL A   1      44.648  25.560  35.828  1.00  0.00     0.057 A 
ATOM     87  C   UNL A   1      45.720  25.477  34.931  1.00  0.00     0.134 A 
ATOM     88  C   UNL A   1      43.919  24.388  36.069  1.00  0.00     0.134 A 
ATOM     89  F   UNL A   1      46.441  26.569  34.639  1.00  0.00    -0.206 F 
ATOM     90  C   UNL A   1      46.039  24.283  34.281  1.00  0.00     0.040 A 
ATOM     91  C   UNL A   1      44.246  23.181  35.449  1.00  0.00     0.040 A 
ATOM     92  F   UNL A   1      42.881  24.399  36.918  1.00  0.00    -0.206 F 
ATOM     93  C   UNL A   1      45.304  23.129  34.543  1.00  0.00     0.006 A 
ENDBRANCH  65  86
BRANCH  77  94
ATOM     94  C   UNL A   1      46.834  28.774  41.609  1.00  0.00     0.057 A 
ATOM     95  C   UNL A   1      48.206  29.040  41.515  1.00  0.00     0.134 A 
ATOM     96  C   UNL A   1      46.383  28.120  42.764  1.00  0.00     0.134 A 
ATOM     97  F   UNL A   1      48.708  29.657  40.434  1.00  0.00    -0.206 F 
ATOM     98  C   UNL A   1      49.099  28.632  42.509  1.00  0.00     0.040 A 
ATOM     99  C   UNL A   1      47.261  27.739  43.780  1.00  0.00     0.040 A 
ATOM    100  F   UNL A   1      45.080  27.847  42.928  1.00  0.00    -0.206 F 
ATOM    101  C   UNL A   1      48.625  27.984  43.648  1.00  0.00     0.006 A 
ENDBRANCH  77  94
ENDBRANCH  51  52
ENDBRANCH  44  46
ENDBRANCH  43  44
ENDBRANCH  42  43
ENDBRANCH  41  42
ENDBRANCH  40  41
ENDBRANCH  39  40
ENDBRANCH  38  39
ENDBRANCH  37  38
ENDBRANCH  36  37
ENDBRANCH  35  36
ENDBRANCH  34  35
ENDBRANCH  33  34
ENDBRANCH   1  33
TORSDOF 31
ENDMDL
