MODEL 1
REMARK VINA RESULT:      -9.9      0.000      0.000
REMARK SMILES CC(=O)c1cc2c(cc1NC(=O)/C=C/C(=O)OCCOCCOCCOCCOC(=O)c1ccc(-c3c4nc(c(-c5c(F)cccc5F)c5ccc([nH]5)c(-c5c(F)cccc5F)c5nc(c(-c6c(F)cccc6F)c6ccc3[nH]6)C=C5)C=C4)cc1)OCO2
REMARK SMILES IDX 22 1 21 2 20 3 19 4 18 5 17 6 15 7 16 8 14 9 13 10 11 11
REMARK SMILES IDX 10 12 12 14 9 15 4 16 5 17 6 18 8 19 7 20 88 21 86 22 87 23
REMARK SMILES IDX 2 24 1 25 3 26 23 27 24 28 25 29 26 30 27 31 28 32 29 33
REMARK SMILES IDX 30 34 31 35 32 36 33 37 85 38 34 39 84 40 35 41 36 42 37 43
REMARK SMILES IDX 78 44 38 45 83 46 77 47 79 48 39 49 82 50 76 51 75 52 40 54
REMARK SMILES IDX 66 55 49 56 65 57 50 58 53 59 64 60 80 61 51 62 52 63 63 65
REMARK SMILES IDX 81 66 54 67 41 68 42 69 47 70 43 71 44 72 46 73 48 74 45 75
REMARK SMILES IDX 67 76 68 77 73 78 69 79 70 80 72 81 74 82 71 83 55 84 56 85
REMARK SMILES IDX 61 86 57 87 58 88 60 89 62 90 59 91
REMARK H PARENT 10 13 79 53 53 64
REMARK Flexibility Score: inf
ROOT
ATOM      1  C   UNL A   1      33.748  28.255  23.631  1.00  0.00     0.188 C 
ENDROOT
BRANCH   1   2
ATOM      2  C   UNL A   1      33.510  27.702  22.204  1.00  0.00     0.188 C 
BRANCH   2   3
ATOM      3  O   UNL A   1      34.023  26.404  21.968  1.00  0.00    -0.376 OA
BRANCH   3   4
ATOM      4  C   UNL A   1      33.641  25.386  22.874  1.00  0.00     0.202 C 
BRANCH   4   5
ATOM      5  C   UNL A   1      32.478  24.488  22.428  1.00  0.00     0.261 C 
BRANCH   5   6
ATOM      6  O   UNL A   1      31.176  25.106  22.473  1.00  0.00    -0.460 OA
BRANCH   6   7
ATOM      7  C   UNL A   1      30.711  25.472  23.690  1.00  0.00     0.331 C 
ATOM      8  O   UNL A   1      30.286  26.577  23.986  1.00  0.00    -0.247 OA
BRANCH   7   9
ATOM      9  C   UNL A   1      30.640  24.322  24.626  1.00  0.00     0.099 C 
ATOM     10  C   UNL A   1      30.944  24.376  25.933  1.00  0.00     0.079 C 
BRANCH  10  11
ATOM     11  C   UNL A   1      30.997  23.179  26.808  1.00  0.00     0.248 C 
ATOM     12  N   UNL A   1      32.044  22.292  26.797  1.00  0.00    -0.322 N 
ATOM     13  H   UNL A   1      31.873  21.490  27.341  1.00  0.00     0.170 HD
ATOM     14  O   UNL A   1      30.057  23.000  27.583  1.00  0.00    -0.270 OA
BRANCH  12  15
ATOM     15  C   UNL A   1      33.317  22.277  26.174  1.00  0.00     0.056 A 
ATOM     16  C   UNL A   1      33.511  21.620  24.930  1.00  0.00     0.045 A 
ATOM     17  C   UNL A   1      34.705  21.779  24.197  1.00  0.00     0.064 A 
ATOM     18  C   UNL A   1      35.713  22.523  24.763  1.00  0.00     0.166 A 
ATOM     19  C   UNL A   1      34.425  22.886  26.751  1.00  0.00     0.077 A 
ATOM     20  C   UNL A   1      35.586  23.028  26.025  1.00  0.00     0.167 A 
ATOM     21  O   UNL A   1      36.920  22.813  24.213  1.00  0.00    -0.454 OA
ATOM     22  O   UNL A   1      36.701  23.677  26.446  1.00  0.00    -0.454 OA
ATOM     23  C   UNL A   1      37.519  23.607  25.262  1.00  0.00     0.468 C 
BRANCH  16  24
ATOM     24  C   UNL A   1      32.488  20.675  24.416  1.00  0.00     0.162 C 
ATOM     25  C   UNL A   1      32.077  20.824  22.971  1.00  0.00     0.093 C 
ATOM     26  O   UNL A   1      32.103  19.748  25.121  1.00  0.00    -0.294 OA
ENDBRANCH  16  24
ENDBRANCH  12  15
ENDBRANCH  10  11
ENDBRANCH   7   9
ENDBRANCH   6   7
ENDBRANCH   5   6
ENDBRANCH   4   5
ENDBRANCH   3   4
ENDBRANCH   2   3
ENDBRANCH   1   2
BRANCH   1  27
ATOM     27  O   UNL A   1      32.732  28.927  24.360  1.00  0.00    -0.377 OA
BRANCH  27  28
ATOM     28  C   UNL A   1      33.064  29.558  25.586  1.00  0.00     0.188 C 
BRANCH  28  29
ATOM     29  C   UNL A   1      33.658  28.699  26.723  1.00  0.00     0.188 C 
BRANCH  29  30
ATOM     30  O   UNL A   1      34.523  29.418  27.588  1.00  0.00    -0.376 OA
BRANCH  30  31
ATOM     31  C   UNL A   1      34.492  30.832  27.518  1.00  0.00     0.202 C 
BRANCH  31  32
ATOM     32  C   UNL A   1      34.753  31.631  28.805  1.00  0.00     0.261 C 
BRANCH  32  33
ATOM     33  O   UNL A   1      36.121  31.764  29.217  1.00  0.00    -0.460 OA
BRANCH  33  34
ATOM     34  C   UNL A   1      36.550  30.988  30.234  1.00  0.00     0.338 C 
ATOM     35  O   UNL A   1      35.951  30.725  31.265  1.00  0.00    -0.246 OA
BRANCH  34  36
ATOM     36  C   UNL A   1      37.804  30.339  29.798  1.00  0.00     0.060 A 
ATOM     37  C   UNL A   1      38.699  29.858  30.766  1.00  0.00     0.016 A 
ATOM     38  C   UNL A   1      38.077  30.171  28.438  1.00  0.00     0.016 A 
ATOM     39  C   UNL A   1      39.881  29.230  30.374  1.00  0.00     0.010 A 
ATOM     40  C   UNL A   1      39.276  29.571  28.047  1.00  0.00     0.010 A 
ATOM     41  C   UNL A   1      40.198  29.128  29.013  1.00  0.00    -0.014 A 
BRANCH  41  42
ATOM     42  C   UNL A   1      41.580  28.775  28.609  1.00  0.00     0.031 A 
ATOM     43  C   UNL A   1      41.850  27.352  28.204  1.00  0.00     0.074 A 
ATOM     44  C   UNL A   1      42.566  29.688  28.579  1.00  0.00     0.049 A 
ATOM     45  N   UNL A   1      42.976  26.782  27.858  1.00  0.00    -0.248 NA
ATOM     46  C   UNL A   1      40.689  26.445  28.192  1.00  0.00     0.031 C 
ATOM     47  C   UNL A   1      42.422  31.106  28.902  1.00  0.00     0.029 A 
ATOM     48  N   UNL A   1      43.895  29.548  28.267  1.00  0.00    -0.354 N 
ATOM     49  C   UNL A   1      42.660  25.453  27.604  1.00  0.00     0.074 A 
ATOM     50  C   UNL A   1      41.246  25.292  27.858  1.00  0.00     0.031 C 
ATOM     51  C   UNL A   1      43.620  31.705  28.777  1.00  0.00     0.029 A 
ATOM     52  C   UNL A   1      44.621  30.706  28.402  1.00  0.00     0.049 A 
ATOM     53  H   UNL A   1      44.292  28.697  27.971  1.00  0.00     0.167 HD
ATOM     54  C   UNL A   1      43.477  24.455  27.192  1.00  0.00     0.037 A 
ATOM     55  C   UNL A   1      45.943  30.924  28.261  1.00  0.00     0.037 A 
ATOM     56  C   UNL A   1      44.883  24.620  26.935  1.00  0.00     0.049 A 
ATOM     57  C   UNL A   1      46.844  29.776  27.878  1.00  0.00     0.074 A 
ATOM     58  C   UNL A   1      45.791  23.678  26.486  1.00  0.00     0.029 A 
ATOM     59  N   UNL A   1      45.586  25.800  27.118  1.00  0.00    -0.354 N 
ATOM     60  N   UNL A   1      46.532  28.531  27.603  1.00  0.00    -0.248 NA
ATOM     61  C   UNL A   1      48.282  30.065  27.783  1.00  0.00     0.031 C 
ATOM     62  C   UNL A   1      47.056  24.271  26.457  1.00  0.00     0.029 A 
ATOM     63  C   UNL A   1      46.924  25.601  26.821  1.00  0.00     0.049 A 
ATOM     64  H   UNL A   1      45.193  26.652  27.415  1.00  0.00     0.167 HD
ATOM     65  C   UNL A   1      47.726  27.904  27.260  1.00  0.00     0.074 A 
ATOM     66  C   UNL A   1      48.766  28.908  27.354  1.00  0.00     0.031 C 
ATOM     67  C   UNL A   1      47.944  26.616  26.898  1.00  0.00     0.037 A 
BRANCH  54  68
ATOM     68  C   UNL A   1      42.879  23.089  27.028  1.00  0.00     0.057 A 
ATOM     69  C   UNL A   1      42.616  22.535  25.768  1.00  0.00     0.134 A 
ATOM     70  C   UNL A   1      42.600  22.300  28.152  1.00  0.00     0.134 A 
ATOM     71  F   UNL A   1      42.842  23.244  24.652  1.00  0.00    -0.206 F 
ATOM     72  C   UNL A   1      42.080  21.253  25.634  1.00  0.00     0.040 A 
ATOM     73  C   UNL A   1      42.094  21.006  28.029  1.00  0.00     0.040 A 
ATOM     74  F   UNL A   1      42.830  22.770  29.387  1.00  0.00    -0.206 F 
ATOM     75  C   UNL A   1      41.827  20.481  26.766  1.00  0.00     0.006 A 
ENDBRANCH  54  68
BRANCH  55  76
ATOM     76  C   UNL A   1      46.518  32.277  28.493  1.00  0.00     0.057 A 
ATOM     77  C   UNL A   1      46.966  32.665  29.762  1.00  0.00     0.134 A 
ATOM     78  C   UNL A   1      46.578  33.231  27.471  1.00  0.00     0.134 A 
ATOM     79  F   UNL A   1      46.911  31.806  30.791  1.00  0.00    -0.206 F 
ATOM     80  C   UNL A   1      47.423  33.961  30.012  1.00  0.00     0.040 A 
ATOM     81  C   UNL A   1      47.061  34.521  27.700  1.00  0.00     0.040 A 
ATOM     82  F   UNL A   1      46.162  32.926  26.233  1.00  0.00    -0.206 F 
ATOM     83  C   UNL A   1      47.475  34.892  28.977  1.00  0.00     0.006 A 
ENDBRANCH  55  76
BRANCH  67  84
ATOM     84  C   UNL A   1      49.343  26.229  26.511  1.00  0.00     0.057 A 
ATOM     85  C   UNL A   1      49.893  26.555  25.265  1.00  0.00     0.134 A 
ATOM     86  C   UNL A   1      50.168  25.554  27.424  1.00  0.00     0.134 A 
ATOM     87  F   UNL A   1      49.157  27.191  24.342  1.00  0.00    -0.206 F 
ATOM     88  C   UNL A   1      51.201  26.196  24.929  1.00  0.00     0.040 A 
ATOM     89  C   UNL A   1      51.486  25.221  27.111  1.00  0.00     0.040 A 
ATOM     90  F   UNL A   1      49.711  25.224  28.640  1.00  0.00    -0.206 F 
ATOM     91  C   UNL A   1      52.003  25.535  25.856  1.00  0.00     0.006 A 
ENDBRANCH  67  84
ENDBRANCH  41  42
ENDBRANCH  34  36
ENDBRANCH  33  34
ENDBRANCH  32  33
ENDBRANCH  31  32
ENDBRANCH  30  31
ENDBRANCH  29  30
ENDBRANCH  28  29
ENDBRANCH  27  28
ENDBRANCH   1  27
TORSDOF 23
ENDMDL
MODEL 2
REMARK VINA RESULT:      -9.6      2.127      6.876
REMARK SMILES CC(=O)c1cc2c(cc1NC(=O)/C=C/C(=O)OCCOCCOCCOCCOC(=O)c1ccc(-c3c4nc(c(-c5c(F)cccc5F)c5ccc([nH]5)c(-c5c(F)cccc5F)c5nc(c(-c6c(F)cccc6F)c6ccc3[nH]6)C=C5)C=C4)cc1)OCO2
REMARK SMILES IDX 22 1 21 2 20 3 19 4 18 5 17 6 15 7 16 8 14 9 13 10 11 11
REMARK SMILES IDX 10 12 12 14 9 15 4 16 5 17 6 18 8 19 7 20 88 21 86 22 87 23
REMARK SMILES IDX 2 24 1 25 3 26 23 27 24 28 25 29 26 30 27 31 28 32 29 33
REMARK SMILES IDX 30 34 31 35 32 36 33 37 85 38 34 39 84 40 35 41 36 42 37 43
REMARK SMILES IDX 78 44 38 45 83 46 77 47 79 48 39 49 82 50 76 51 75 52 40 54
REMARK SMILES IDX 66 55 49 56 65 57 50 58 53 59 64 60 80 61 51 62 52 63 63 65
REMARK SMILES IDX 81 66 54 67 41 68 42 69 47 70 43 71 44 72 46 73 48 74 45 75
REMARK SMILES IDX 67 76 68 77 73 78 69 79 70 80 72 81 74 82 71 83 55 84 56 85
REMARK SMILES IDX 61 86 57 87 58 88 60 89 62 90 59 91
REMARK H PARENT 10 13 79 53 53 64
REMARK Flexibility Score: inf
ROOT
ATOM      1  C   UNL A   1      34.492  33.987  27.982  1.00  0.00     0.188 C 
ENDROOT
BRANCH   1   2
ATOM      2  C   UNL A   1      35.463  32.823  28.302  1.00  0.00     0.188 C 
BRANCH   2   3
ATOM      3  O   UNL A   1      34.842  31.595  28.633  1.00  0.00    -0.376 OA
BRANCH   3   4
ATOM      4  C   UNL A   1      35.237  30.454  27.895  1.00  0.00     0.202 C 
BRANCH   4   5
ATOM      5  C   UNL A   1      34.101  29.610  27.298  1.00  0.00     0.261 C 
BRANCH   5   6
ATOM      6  O   UNL A   1      33.596  30.072  26.030  1.00  0.00    -0.460 OA
BRANCH   6   7
ATOM      7  C   UNL A   1      33.096  29.136  25.190  1.00  0.00     0.331 C 
ATOM      8  O   UNL A   1      33.244  29.117  23.978  1.00  0.00    -0.247 OA
BRANCH   7   9
ATOM      9  C   UNL A   1      32.443  28.024  25.923  1.00  0.00     0.099 C 
ATOM     10  C   UNL A   1      31.958  26.909  25.352  1.00  0.00     0.079 C 
BRANCH  10  11
ATOM     11  C   UNL A   1      31.187  25.882  26.096  1.00  0.00     0.248 C 
ATOM     12  N   UNL A   1      31.472  24.542  26.030  1.00  0.00    -0.322 N 
ATOM     13  H   UNL A   1      30.798  23.983  26.479  1.00  0.00     0.170 HD
ATOM     14  O   UNL A   1      30.264  26.273  26.811  1.00  0.00    -0.270 OA
BRANCH  12  15
ATOM     15  C   UNL A   1      32.525  23.785  25.458  1.00  0.00     0.056 A 
ATOM     16  C   UNL A   1      32.713  23.747  24.051  1.00  0.00     0.045 A 
ATOM     17  C   UNL A   1      33.874  23.183  23.483  1.00  0.00     0.064 A 
ATOM     18  C   UNL A   1      34.782  22.591  24.329  1.00  0.00     0.166 A 
ATOM     19  C   UNL A   1      33.404  23.041  26.237  1.00  0.00     0.077 A 
ATOM     20  C   UNL A   1      34.529  22.490  25.667  1.00  0.00     0.167 A 
ATOM     21  O   UNL A   1      35.964  22.018  23.985  1.00  0.00    -0.454 OA
ATOM     22  O   UNL A   1      35.501  21.821  26.336  1.00  0.00    -0.454 OA
ATOM     23  C   UNL A   1      36.450  21.590  25.277  1.00  0.00     0.468 C 
BRANCH  16  24
ATOM     24  C   UNL A   1      31.643  24.225  23.141  1.00  0.00     0.162 C 
ATOM     25  C   UNL A   1      32.051  25.165  22.032  1.00  0.00     0.093 C 
ATOM     26  O   UNL A   1      30.510  23.765  23.234  1.00  0.00    -0.294 OA
ENDBRANCH  16  24
ENDBRANCH  12  15
ENDBRANCH  10  11
ENDBRANCH   7   9
ENDBRANCH   6   7
ENDBRANCH   5   6
ENDBRANCH   4   5
ENDBRANCH   3   4
ENDBRANCH   2   3
ENDBRANCH   1   2
BRANCH   1  27
ATOM     27  O   UNL A   1      33.408  34.322  28.836  1.00  0.00    -0.377 OA
BRANCH  27  28
ATOM     28  C   UNL A   1      33.494  35.492  29.633  1.00  0.00     0.188 C 
BRANCH  28  29
ATOM     29  C   UNL A   1      32.975  35.436  31.086  1.00  0.00     0.188 C 
BRANCH  29  30
ATOM     30  O   UNL A   1      33.785  36.150  32.008  1.00  0.00    -0.376 OA
BRANCH  30  31
ATOM     31  C   UNL A   1      34.627  35.395  32.860  1.00  0.00     0.202 C 
BRANCH  31  32
ATOM     32  C   UNL A   1      34.442  33.869  32.902  1.00  0.00     0.261 C 
BRANCH  32  33
ATOM     33  O   UNL A   1      35.494  33.075  32.335  1.00  0.00    -0.460 OA
BRANCH  33  34
ATOM     34  C   UNL A   1      36.403  32.542  33.177  1.00  0.00     0.338 C 
ATOM     35  O   UNL A   1      36.368  32.542  34.398  1.00  0.00    -0.246 OA
BRANCH  34  36
ATOM     36  C   UNL A   1      37.367  31.774  32.362  1.00  0.00     0.060 A 
ATOM     37  C   UNL A   1      38.218  30.854  32.993  1.00  0.00     0.016 A 
ATOM     38  C   UNL A   1      37.404  31.934  30.975  1.00  0.00     0.016 A 
ATOM     39  C   UNL A   1      39.125  30.109  32.239  1.00  0.00     0.010 A 
ATOM     40  C   UNL A   1      38.335  31.212  30.224  1.00  0.00     0.010 A 
ATOM     41  C   UNL A   1      39.221  30.321  30.857  1.00  0.00    -0.014 A 
BRANCH  41  42
ATOM     42  C   UNL A   1      40.392  29.792  30.116  1.00  0.00     0.031 A 
ATOM     43  C   UNL A   1      41.547  30.726  29.873  1.00  0.00     0.074 A 
ATOM     44  C   UNL A   1      40.444  28.521  29.685  1.00  0.00     0.049 A 
ATOM     45  N   UNL A   1      42.658  30.523  29.214  1.00  0.00    -0.248 NA
ATOM     46  C   UNL A   1      41.429  32.075  30.453  1.00  0.00     0.031 C 
ATOM     47  C   UNL A   1      39.412  27.508  29.897  1.00  0.00     0.029 A 
ATOM     48  N   UNL A   1      41.415  27.867  28.966  1.00  0.00    -0.354 N 
ATOM     49  C   UNL A   1      43.360  31.720  29.287  1.00  0.00     0.074 A 
ATOM     50  C   UNL A   1      42.543  32.651  30.032  1.00  0.00     0.031 C 
ATOM     51  C   UNL A   1      39.803  26.360  29.314  1.00  0.00     0.029 A 
ATOM     52  C   UNL A   1      41.093  26.568  28.657  1.00  0.00     0.049 A 
ATOM     53  H   UNL A   1      42.263  28.289  28.699  1.00  0.00     0.167 HD
ATOM     54  C   UNL A   1      44.580  32.016  28.781  1.00  0.00     0.037 A 
ATOM     55  C   UNL A   1      41.756  25.665  27.909  1.00  0.00     0.037 A 
ATOM     56  C   UNL A   1      45.393  31.085  28.044  1.00  0.00     0.049 A 
ATOM     57  C   UNL A   1      43.078  26.046  27.290  1.00  0.00     0.074 A 
ATOM     58  C   UNL A   1      46.657  31.279  27.515  1.00  0.00     0.029 A 
ATOM     59  N   UNL A   1      45.017  29.791  27.722  1.00  0.00    -0.354 N 
ATOM     60  N   UNL A   1      43.753  27.166  27.395  1.00  0.00    -0.248 NA
ATOM     61  C   UNL A   1      43.733  25.033  26.449  1.00  0.00     0.031 C 
ATOM     62  C   UNL A   1      47.019  30.123  26.817  1.00  0.00     0.029 A 
ATOM     63  C   UNL A   1      46.011  29.184  26.972  1.00  0.00     0.049 A 
ATOM     64  H   UNL A   1      44.169  29.366  27.986  1.00  0.00     0.167 HD
ATOM     65  C   UNL A   1      44.926  26.976  26.673  1.00  0.00     0.074 A 
ATOM     66  C   UNL A   1      44.876  25.630  26.142  1.00  0.00     0.031 C 
ATOM     67  C   UNL A   1      45.955  27.835  26.469  1.00  0.00     0.037 A 
BRANCH  54  68
ATOM     68  C   UNL A   1      45.095  33.412  28.973  1.00  0.00     0.057 A 
ATOM     69  C   UNL A   1      44.823  34.440  28.062  1.00  0.00     0.134 A 
ATOM     70  C   UNL A   1      45.842  33.739  30.112  1.00  0.00     0.134 A 
ATOM     71  F   UNL A   1      44.129  34.191  26.942  1.00  0.00    -0.206 F 
ATOM     72  C   UNL A   1      45.291  35.739  28.268  1.00  0.00     0.040 A 
ATOM     73  C   UNL A   1      46.289  35.039  30.345  1.00  0.00     0.040 A 
ATOM     74  F   UNL A   1      46.137  32.801  31.025  1.00  0.00    -0.206 F 
ATOM     75  C   UNL A   1      46.019  36.044  29.418  1.00  0.00     0.006 A 
ENDBRANCH  54  68
BRANCH  55  76
ATOM     76  C   UNL A   1      41.191  24.307  27.681  1.00  0.00     0.057 A 
ATOM     77  C   UNL A   1      41.697  23.189  28.354  1.00  0.00     0.134 A 
ATOM     78  C   UNL A   1      40.174  24.087  26.744  1.00  0.00     0.134 A 
ATOM     79  F   UNL A   1      42.690  23.329  29.245  1.00  0.00    -0.206 F 
ATOM     80  C   UNL A   1      41.237  21.899  28.081  1.00  0.00     0.040 A 
ATOM     81  C   UNL A   1      39.683  22.806  26.483  1.00  0.00     0.040 A 
ATOM     82  F   UNL A   1      39.646  25.113  26.062  1.00  0.00    -0.206 F 
ATOM     83  C   UNL A   1      40.224  21.706  27.145  1.00  0.00     0.006 A 
ENDBRANCH  55  76
BRANCH  67  84
ATOM     84  C   UNL A   1      47.140  27.330  25.696  1.00  0.00     0.057 A 
ATOM     85  C   UNL A   1      47.293  27.564  24.323  1.00  0.00     0.134 A 
ATOM     86  C   UNL A   1      48.167  26.633  26.349  1.00  0.00     0.134 A 
ATOM     87  F   UNL A   1      46.346  28.216  23.634  1.00  0.00    -0.206 F 
ATOM     88  C   UNL A   1      48.409  27.096  23.624  1.00  0.00     0.040 A 
ATOM     89  C   UNL A   1      49.301  26.190  25.667  1.00  0.00     0.040 A 
ATOM     90  F   UNL A   1      48.093  26.386  27.665  1.00  0.00    -0.206 F 
ATOM     91  C   UNL A   1      49.420  26.414  24.298  1.00  0.00     0.006 A 
ENDBRANCH  67  84
ENDBRANCH  41  42
ENDBRANCH  34  36
ENDBRANCH  33  34
ENDBRANCH  32  33
ENDBRANCH  31  32
ENDBRANCH  30  31
ENDBRANCH  29  30
ENDBRANCH  28  29
ENDBRANCH  27  28
ENDBRANCH   1  27
TORSDOF 23
ENDMDL
MODEL 3
REMARK VINA RESULT:      -9.4      2.305      8.539
REMARK SMILES CC(=O)c1cc2c(cc1NC(=O)/C=C/C(=O)OCCOCCOCCOCCOC(=O)c1ccc(-c3c4nc(c(-c5c(F)cccc5F)c5ccc([nH]5)c(-c5c(F)cccc5F)c5nc(c(-c6c(F)cccc6F)c6ccc3[nH]6)C=C5)C=C4)cc1)OCO2
REMARK SMILES IDX 22 1 21 2 20 3 19 4 18 5 17 6 15 7 16 8 14 9 13 10 11 11
REMARK SMILES IDX 10 12 12 14 9 15 4 16 5 17 6 18 8 19 7 20 88 21 86 22 87 23
REMARK SMILES IDX 2 24 1 25 3 26 23 27 24 28 25 29 26 30 27 31 28 32 29 33
REMARK SMILES IDX 30 34 31 35 32 36 33 37 85 38 34 39 84 40 35 41 36 42 37 43
REMARK SMILES IDX 78 44 38 45 83 46 77 47 79 48 39 49 82 50 76 51 75 52 40 54
REMARK SMILES IDX 66 55 49 56 65 57 50 58 53 59 64 60 80 61 51 62 52 63 63 65
REMARK SMILES IDX 81 66 54 67 41 68 42 69 47 70 43 71 44 72 46 73 48 74 45 75
REMARK SMILES IDX 67 76 68 77 73 78 69 79 70 80 72 81 74 82 71 83 55 84 56 85
REMARK SMILES IDX 61 86 57 87 58 88 60 89 62 90 59 91
REMARK H PARENT 10 13 79 53 53 64
REMARK Flexibility Score: inf
ROOT
ATOM      1  C   UNL A   1      38.828  23.505  26.501  1.00  0.00     0.188 C 
ENDROOT
BRANCH   1   2
ATOM      2  C   UNL A   1      37.753  23.146  25.445  1.00  0.00     0.188 C 
BRANCH   2   3
ATOM      3  O   UNL A   1      36.496  23.771  25.628  1.00  0.00    -0.376 OA
BRANCH   3   4
ATOM      4  C   UNL A   1      35.488  23.014  26.272  1.00  0.00     0.202 C 
BRANCH   4   5
ATOM      5  C   UNL A   1      35.391  21.536  25.865  1.00  0.00     0.261 C 
BRANCH   5   6
ATOM      6  O   UNL A   1      34.093  20.935  26.046  1.00  0.00    -0.460 OA
BRANCH   6   7
ATOM      7  C   UNL A   1      33.170  21.164  25.083  1.00  0.00     0.331 C 
ATOM      8  O   UNL A   1      33.261  20.818  23.915  1.00  0.00    -0.247 OA
BRANCH   7   9
ATOM      9  C   UNL A   1      31.935  21.777  25.630  1.00  0.00     0.099 C 
ATOM     10  C   UNL A   1      31.766  23.089  25.859  1.00  0.00     0.079 C 
BRANCH  10  11
ATOM     11  C   UNL A   1      30.571  23.651  26.538  1.00  0.00     0.248 C 
ATOM     12  N   UNL A   1      30.360  24.998  26.682  1.00  0.00    -0.322 N 
ATOM     13  H   UNL A   1      29.591  25.207  27.259  1.00  0.00     0.170 HD
ATOM     14  O   UNL A   1      29.736  22.855  26.967  1.00  0.00    -0.270 OA
BRANCH  12  15
ATOM     15  C   UNL A   1      31.007  26.157  26.184  1.00  0.00     0.056 A 
ATOM     16  C   UNL A   1      30.568  26.776  24.983  1.00  0.00     0.045 A 
ATOM     17  C   UNL A   1      31.054  28.041  24.592  1.00  0.00     0.064 A 
ATOM     18  C   UNL A   1      32.032  28.621  25.365  1.00  0.00     0.166 A 
ATOM     19  C   UNL A   1      32.097  26.726  26.831  1.00  0.00     0.077 A 
ATOM     20  C   UNL A   1      32.565  27.959  26.434  1.00  0.00     0.167 A 
ATOM     21  O   UNL A   1      32.608  29.835  25.174  1.00  0.00    -0.454 OA
ATOM     22  O   UNL A   1      33.561  28.653  27.039  1.00  0.00    -0.454 OA
ATOM     23  C   UNL A   1      33.534  29.880  26.284  1.00  0.00     0.468 C 
BRANCH  16  24
ATOM     24  C   UNL A   1      29.649  26.058  24.065  1.00  0.00     0.162 C 
ATOM     25  C   UNL A   1      28.287  26.668  23.840  1.00  0.00     0.093 C 
ATOM     26  O   UNL A   1      30.050  25.084  23.437  1.00  0.00    -0.294 OA
ENDBRANCH  16  24
ENDBRANCH  12  15
ENDBRANCH  10  11
ENDBRANCH   7   9
ENDBRANCH   6   7
ENDBRANCH   5   6
ENDBRANCH   4   5
ENDBRANCH   3   4
ENDBRANCH   2   3
ENDBRANCH   1   2
BRANCH   1  27
ATOM     27  O   UNL A   1      39.632  22.517  27.127  1.00  0.00    -0.377 OA
BRANCH  27  28
ATOM     28  C   UNL A   1      40.879  22.173  26.546  1.00  0.00     0.188 C 
BRANCH  28  29
ATOM     29  C   UNL A   1      41.850  21.283  27.352  1.00  0.00     0.188 C 
BRANCH  29  30
ATOM     30  O   UNL A   1      41.480  19.913  27.378  1.00  0.00    -0.376 OA
BRANCH  30  31
ATOM     31  C   UNL A   1      42.518  18.953  27.287  1.00  0.00     0.202 C 
BRANCH  31  32
ATOM     32  C   UNL A   1      42.895  18.418  25.896  1.00  0.00     0.261 C 
BRANCH  32  33
ATOM     33  O   UNL A   1      43.092  19.392  24.861  1.00  0.00    -0.460 OA
BRANCH  33  34
ATOM     34  C   UNL A   1      44.353  19.611  24.435  1.00  0.00     0.338 C 
ATOM     35  O   UNL A   1      45.037  18.874  23.743  1.00  0.00    -0.246 OA
BRANCH  34  36
ATOM     36  C   UNL A   1      44.705  21.002  24.789  1.00  0.00     0.060 A 
ATOM     37  C   UNL A   1      45.251  21.271  26.053  1.00  0.00     0.016 A 
ATOM     38  C   UNL A   1      44.531  22.032  23.861  1.00  0.00     0.016 A 
ATOM     39  C   UNL A   1      45.602  22.575  26.400  1.00  0.00     0.010 A 
ATOM     40  C   UNL A   1      44.853  23.343  24.222  1.00  0.00     0.010 A 
ATOM     41  C   UNL A   1      45.359  23.624  25.504  1.00  0.00    -0.014 A 
BRANCH  41  42
ATOM     42  C   UNL A   1      45.412  25.026  25.986  1.00  0.00     0.031 A 
ATOM     43  C   UNL A   1      46.743  25.728  25.954  1.00  0.00     0.074 A 
ATOM     44  C   UNL A   1      44.316  25.669  26.421  1.00  0.00     0.049 A 
ATOM     45  N   UNL A   1      47.062  26.928  26.362  1.00  0.00    -0.248 NA
ATOM     46  C   UNL A   1      47.869  24.966  25.385  1.00  0.00     0.031 C 
ATOM     47  C   UNL A   1      42.964  25.116  26.458  1.00  0.00     0.029 A 
ATOM     48  N   UNL A   1      44.174  26.938  26.927  1.00  0.00    -0.354 N 
ATOM     49  C   UNL A   1      48.423  27.058  26.114  1.00  0.00     0.074 A 
ATOM     50  C   UNL A   1      48.876  25.810  25.544  1.00  0.00     0.031 C 
ATOM     51  C   UNL A   1      42.129  26.040  26.967  1.00  0.00     0.029 A 
ATOM     52  C   UNL A   1      42.894  27.234  27.326  1.00  0.00     0.049 A 
ATOM     53  H   UNL A   1      44.920  27.576  26.996  1.00  0.00     0.167 HD
ATOM     54  C   UNL A   1      49.224  28.126  26.339  1.00  0.00     0.037 A 
ATOM     55  C   UNL A   1      42.406  28.334  27.931  1.00  0.00     0.037 A 
ATOM     56  C   UNL A   1      48.769  29.369  26.902  1.00  0.00     0.049 A 
ATOM     57  C   UNL A   1      43.338  29.480  28.243  1.00  0.00     0.074 A 
ATOM     58  C   UNL A   1      49.497  30.522  27.141  1.00  0.00     0.029 A 
ATOM     59  N   UNL A   1      47.473  29.617  27.325  1.00  0.00    -0.354 N 
ATOM     60  N   UNL A   1      44.614  29.610  27.971  1.00  0.00    -0.248 NA
ATOM     61  C   UNL A   1      42.757  30.635  28.944  1.00  0.00     0.031 C 
ATOM     62  C   UNL A   1      48.656  31.445  27.768  1.00  0.00     0.029 A 
ATOM     63  C   UNL A   1      47.387  30.894  27.855  1.00  0.00     0.049 A 
ATOM     64  H   UNL A   1      46.725  28.980  27.259  1.00  0.00     0.167 HD
ATOM     65  C   UNL A   1      44.976  30.874  28.426  1.00  0.00     0.074 A 
ATOM     66  C   UNL A   1      43.782  31.474  28.984  1.00  0.00     0.031 C 
ATOM     67  C   UNL A   1      46.186  31.485  28.385  1.00  0.00     0.037 A 
BRANCH  54  68
ATOM     68  C   UNL A   1      50.681  27.985  26.010  1.00  0.00     0.057 A 
ATOM     69  C   UNL A   1      51.647  27.729  26.992  1.00  0.00     0.134 A 
ATOM     70  C   UNL A   1      51.118  28.068  24.681  1.00  0.00     0.134 A 
ATOM     71  F   UNL A   1      51.300  27.656  28.286  1.00  0.00    -0.206 F 
ATOM     72  C   UNL A   1      52.996  27.578  26.666  1.00  0.00     0.040 A 
ATOM     73  C   UNL A   1      52.458  27.889  24.340  1.00  0.00     0.040 A 
ATOM     74  F   UNL A   1      50.245  28.310  23.692  1.00  0.00    -0.206 F 
ATOM     75  C   UNL A   1      53.403  27.649  25.335  1.00  0.00     0.006 A 
ENDBRANCH  54  68
BRANCH  55  76
ATOM     76  C   UNL A   1      40.968  28.421  28.304  1.00  0.00     0.057 A 
ATOM     77  C   UNL A   1      40.017  28.926  27.410  1.00  0.00     0.134 A 
ATOM     78  C   UNL A   1      40.521  28.059  29.581  1.00  0.00     0.134 A 
ATOM     79  F   UNL A   1      40.385  29.315  26.180  1.00  0.00    -0.206 F 
ATOM     80  C   UNL A   1      38.681  29.097  27.780  1.00  0.00     0.040 A 
ATOM     81  C   UNL A   1      39.183  28.196  29.954  1.00  0.00     0.040 A 
ATOM     82  F   UNL A   1      41.380  27.572  30.488  1.00  0.00    -0.206 F 
ATOM     83  C   UNL A   1      38.261  28.728  29.056  1.00  0.00     0.006 A 
ENDBRANCH  55  76
BRANCH  67  84
ATOM     84  C   UNL A   1      46.269  32.896  28.895  1.00  0.00     0.057 A 
ATOM     85  C   UNL A   1      46.597  33.194  30.224  1.00  0.00     0.134 A 
ATOM     86  C   UNL A   1      46.058  33.977  28.026  1.00  0.00     0.134 A 
ATOM     87  F   UNL A   1      46.803  32.210  31.111  1.00  0.00    -0.206 F 
ATOM     88  C   UNL A   1      46.682  34.513  30.676  1.00  0.00     0.040 A 
ATOM     89  C   UNL A   1      46.173  35.298  28.459  1.00  0.00     0.040 A 
ATOM     90  F   UNL A   1      45.754  33.765  26.737  1.00  0.00    -0.206 F 
ATOM     91  C   UNL A   1      46.477  35.569  29.790  1.00  0.00     0.006 A 
ENDBRANCH  67  84
ENDBRANCH  41  42
ENDBRANCH  34  36
ENDBRANCH  33  34
ENDBRANCH  32  33
ENDBRANCH  31  32
ENDBRANCH  30  31
ENDBRANCH  29  30
ENDBRANCH  28  29
ENDBRANCH  27  28
ENDBRANCH   1  27
TORSDOF 23
ENDMDL
