MODEL 1
REMARK VINA RESULT:      -9.4      0.000      0.000
REMARK SMILES C[C@@H](CC(=O)OCCOCCOCCOCCOC(=O)c1ccc(-c2c3nc(c(-c4c(F)cccc4F)c4ccc([nH]4)c(-c4c(F)cccc4F)c4nc(c(-c5c(F)cccc5F)c5ccc2[nH]5)C=C4)C=C3)cc1)NC(=O)c1ccc(O)cc1
REMARK SMILES IDX 11 1 10 2 9 3 8 4 7 5 6 6 4 7 5 8 3 9 2 10 1 11 75 12 76 13
REMARK SMILES IDX 77 15 78 16 79 17 84 18 80 19 83 20 81 21 82 22 12 24 13 25
REMARK SMILES IDX 14 26 15 27 16 28 17 29 18 30 19 31 20 32 21 33 22 34 74 35
REMARK SMILES IDX 23 36 73 37 24 38 25 39 26 40 67 41 27 42 72 43 66 44 68 45
REMARK SMILES IDX 28 46 71 47 65 48 64 49 29 51 55 52 38 53 54 54 39 55 42 56
REMARK SMILES IDX 53 57 69 58 40 59 41 60 52 62 70 63 43 64 30 65 31 66 36 67
REMARK SMILES IDX 32 68 33 69 35 70 37 71 34 72 56 73 57 74 62 75 58 76 59 77
REMARK SMILES IDX 61 78 63 79 60 80 44 81 45 82 50 83 46 84 47 85 49 86 51 87
REMARK SMILES IDX 48 88
REMARK H PARENT 75 14 82 23 68 50 42 61
REMARK Flexibility Score: inf
ROOT
ATOM      1  C   UNL A   1      33.012  36.771  29.740  1.00  0.00     0.188 C 
ENDROOT
BRANCH   1   2
ATOM      2  C   UNL A   1      33.612  35.393  29.467  1.00  0.00     0.188 C 
BRANCH   2   3
ATOM      3  O   UNL A   1      32.894  34.467  28.675  1.00  0.00    -0.376 OA
BRANCH   3   4
ATOM      4  C   UNL A   1      33.591  33.580  27.809  1.00  0.00     0.202 C 
BRANCH   4   5
ATOM      5  C   UNL A   1      34.085  32.204  28.293  1.00  0.00     0.261 C 
BRANCH   5   6
ATOM      6  O   UNL A   1      34.551  31.311  27.250  1.00  0.00    -0.463 OA
BRANCH   6   7
ATOM      7  C   UNL A   1      34.407  29.989  27.477  1.00  0.00     0.307 C 
ATOM      8  O   UNL A   1      35.307  29.280  27.928  1.00  0.00    -0.252 OA
BRANCH   7   9
ATOM      9  C   UNL A   1      33.037  29.376  27.219  1.00  0.00     0.147 C 
BRANCH   9  10
ATOM     10  C   UNL A   1      32.688  28.261  26.215  1.00  0.00     0.090 C 
ATOM     11  C   UNL A   1      31.238  27.803  26.239  1.00  0.00     0.031 C 
BRANCH  10  12
ATOM     12  N   UNL A   1      33.587  27.104  26.278  1.00  0.00    -0.349 N 
ATOM     13  C   UNL A   1      33.946  26.155  25.350  1.00  0.00     0.251 C 
ATOM     14  H   UNL A   1      34.015  26.983  27.156  1.00  0.00     0.164 HD
ATOM     15  O   UNL A   1      34.778  25.298  25.642  1.00  0.00    -0.269 OA
BRANCH  13  16
ATOM     16  C   UNL A   1      33.301  26.081  24.022  1.00  0.00     0.040 A 
ATOM     17  C   UNL A   1      33.698  27.017  23.057  1.00  0.00     0.017 A 
ATOM     18  C   UNL A   1      32.295  25.159  23.720  1.00  0.00     0.017 A 
ATOM     19  C   UNL A   1      33.161  26.967  21.770  1.00  0.00     0.047 A 
ATOM     20  C   UNL A   1      31.765  25.101  22.428  1.00  0.00     0.047 A 
ATOM     21  C   UNL A   1      32.221  25.991  21.459  1.00  0.00     0.115 A 
BRANCH  21  22
ATOM     22  O   UNL A   1      31.765  25.936  20.176  1.00  0.00    -0.508 OA
ATOM     23  H   UNL A   1      30.940  25.535  19.988  1.00  0.00     0.293 HD
ENDBRANCH  21  22
ENDBRANCH  13  16
ENDBRANCH  10  12
ENDBRANCH   9  10
ENDBRANCH   7   9
ENDBRANCH   6   7
ENDBRANCH   5   6
ENDBRANCH   4   5
ENDBRANCH   3   4
ENDBRANCH   2   3
ENDBRANCH   1   2
BRANCH   1  24
ATOM     24  O   UNL A   1      32.639  37.065  31.078  1.00  0.00    -0.377 OA
BRANCH  24  25
ATOM     25  C   UNL A   1      33.635  37.448  32.022  1.00  0.00     0.188 C 
BRANCH  25  26
ATOM     26  C   UNL A   1      33.975  36.508  33.184  1.00  0.00     0.188 C 
BRANCH  26  27
ATOM     27  O   UNL A   1      33.685  35.153  32.903  1.00  0.00    -0.376 OA
BRANCH  27  28
ATOM     28  C   UNL A   1      34.736  34.233  32.654  1.00  0.00     0.202 C 
BRANCH  28  29
ATOM     29  C   UNL A   1      34.502  32.960  31.822  1.00  0.00     0.261 C 
BRANCH  29  30
ATOM     30  O   UNL A   1      35.393  31.851  32.016  1.00  0.00    -0.460 OA
BRANCH  30  31
ATOM     31  C   UNL A   1      36.402  31.971  32.893  1.00  0.00     0.338 C 
ATOM     32  O   UNL A   1      36.321  32.092  34.106  1.00  0.00    -0.246 OA
BRANCH  31  33
ATOM     33  C   UNL A   1      37.663  31.751  32.153  1.00  0.00     0.060 A 
ATOM     34  C   UNL A   1      37.658  31.862  30.758  1.00  0.00     0.016 A 
ATOM     35  C   UNL A   1      38.840  31.415  32.830  1.00  0.00     0.016 A 
ATOM     36  C   UNL A   1      38.813  31.575  30.030  1.00  0.00     0.010 A 
ATOM     37  C   UNL A   1      39.994  31.115  32.097  1.00  0.00     0.010 A 
ATOM     38  C   UNL A   1      39.972  31.149  30.692  1.00  0.00    -0.014 A 
BRANCH  38  39
ATOM     39  C   UNL A   1      41.085  30.554  29.910  1.00  0.00     0.031 A 
ATOM     40  C   UNL A   1      42.264  31.423  29.562  1.00  0.00     0.074 A 
ATOM     41  C   UNL A   1      41.072  29.259  29.546  1.00  0.00     0.049 A 
ATOM     42  N   UNL A   1      43.338  31.134  28.872  1.00  0.00    -0.248 NA
ATOM     43  C   UNL A   1      42.223  32.808  30.061  1.00  0.00     0.031 C 
ATOM     44  C   UNL A   1      40.012  28.304  29.857  1.00  0.00     0.029 A 
ATOM     45  N   UNL A   1      41.987  28.529  28.828  1.00  0.00    -0.354 N 
ATOM     46  C   UNL A   1      44.095  32.299  28.849  1.00  0.00     0.074 A 
ATOM     47  C   UNL A   1      43.342  33.309  29.560  1.00  0.00     0.031 C 
ATOM     48  C   UNL A   1      40.332  27.111  29.326  1.00  0.00     0.029 A 
ATOM     49  C   UNL A   1      41.602  27.228  28.611  1.00  0.00     0.049 A 
ATOM     50  H   UNL A   1      42.836  28.902  28.501  1.00  0.00     0.167 HD
ATOM     51  C   UNL A   1      45.315  32.508  28.295  1.00  0.00     0.037 A 
ATOM     52  C   UNL A   1      42.200  26.253  27.899  1.00  0.00     0.037 A 
ATOM     53  C   UNL A   1      46.060  31.505  27.582  1.00  0.00     0.049 A 
ATOM     54  C   UNL A   1      43.519  26.531  27.224  1.00  0.00     0.074 A 
ATOM     55  C   UNL A   1      47.308  31.612  26.994  1.00  0.00     0.029 A 
ATOM     56  N   UNL A   1      45.620  30.210  27.350  1.00  0.00    -0.354 N 
ATOM     57  N   UNL A   1      44.238  27.628  27.228  1.00  0.00    -0.248 NA
ATOM     58  C   UNL A   1      44.111  25.431  26.450  1.00  0.00     0.031 C 
ATOM     59  C   UNL A   1      47.596  30.402  26.355  1.00  0.00     0.029 A 
ATOM     60  C   UNL A   1      46.560  29.516  26.603  1.00  0.00     0.049 A 
ATOM     61  H   UNL A   1      44.766  29.837  27.670  1.00  0.00     0.167 HD
ATOM     62  C   UNL A   1      45.381  27.339  26.489  1.00  0.00     0.074 A 
ATOM     63  C   UNL A   1      45.264  25.959  26.066  1.00  0.00     0.031 C 
ATOM     64  C   UNL A   1      46.433  28.142  26.191  1.00  0.00     0.037 A 
BRANCH  51  65
ATOM     65  C   UNL A   1      45.900  33.887  28.413  1.00  0.00     0.057 A 
ATOM     66  C   UNL A   1      46.754  34.246  29.465  1.00  0.00     0.134 A 
ATOM     67  C   UNL A   1      45.624  34.863  27.447  1.00  0.00     0.134 A 
ATOM     68  F   UNL A   1      47.049  33.365  30.433  1.00  0.00    -0.206 F 
ATOM     69  C   UNL A   1      47.288  35.533  29.567  1.00  0.00     0.040 A 
ATOM     70  C   UNL A   1      46.175  36.143  27.521  1.00  0.00     0.040 A 
ATOM     71  F   UNL A   1      44.818  34.587  26.410  1.00  0.00    -0.206 F 
ATOM     72  C   UNL A   1      47.003  36.484  28.589  1.00  0.00     0.006 A 
ENDBRANCH  51  65
BRANCH  52  73
ATOM     73  C   UNL A   1      41.558  24.919  27.776  1.00  0.00     0.057 A 
ATOM     74  C   UNL A   1      42.003  23.824  28.526  1.00  0.00     0.134 A 
ATOM     75  C   UNL A   1      40.503  24.697  26.881  1.00  0.00     0.134 A 
ATOM     76  F   UNL A   1      43.026  23.964  29.382  1.00  0.00    -0.206 F 
ATOM     77  C   UNL A   1      41.439  22.556  28.378  1.00  0.00     0.040 A 
ATOM     78  C   UNL A   1      39.910  23.442  26.743  1.00  0.00     0.040 A 
ATOM     79  F   UNL A   1      40.028  25.703  26.132  1.00  0.00    -0.206 F 
ATOM     80  C   UNL A   1      40.384  22.364  27.488  1.00  0.00     0.006 A 
ENDBRANCH  52  73
BRANCH  64  81
ATOM     81  C   UNL A   1      47.564  27.534  25.408  1.00  0.00     0.057 A 
ATOM     82  C   UNL A   1      47.628  27.605  24.010  1.00  0.00     0.134 A 
ATOM     83  C   UNL A   1      48.619  26.889  26.068  1.00  0.00     0.134 A 
ATOM     84  F   UNL A   1      46.648  28.200  23.314  1.00  0.00    -0.206 F 
ATOM     85  C   UNL A   1      48.679  27.026  23.297  1.00  0.00     0.040 A 
ATOM     86  C   UNL A   1      49.692  26.337  25.368  1.00  0.00     0.040 A 
ATOM     87  F   UNL A   1      48.631  26.794  27.406  1.00  0.00    -0.206 F 
ATOM     88  C   UNL A   1      49.719  26.396  23.977  1.00  0.00     0.006 A 
ENDBRANCH  64  81
ENDBRANCH  38  39
ENDBRANCH  31  33
ENDBRANCH  30  31
ENDBRANCH  29  30
ENDBRANCH  28  29
ENDBRANCH  27  28
ENDBRANCH  26  27
ENDBRANCH  25  26
ENDBRANCH  24  25
ENDBRANCH   1  24
TORSDOF 24
ENDMDL
MODEL 2
REMARK VINA RESULT:      -9.4      2.322      6.821
REMARK SMILES C[C@@H](CC(=O)OCCOCCOCCOCCOC(=O)c1ccc(-c2c3nc(c(-c4c(F)cccc4F)c4ccc([nH]4)c(-c4c(F)cccc4F)c4nc(c(-c5c(F)cccc5F)c5ccc2[nH]5)C=C4)C=C3)cc1)NC(=O)c1ccc(O)cc1
REMARK SMILES IDX 11 1 10 2 9 3 8 4 7 5 6 6 4 7 5 8 3 9 2 10 1 11 75 12 76 13
REMARK SMILES IDX 77 15 78 16 79 17 84 18 80 19 83 20 81 21 82 22 12 24 13 25
REMARK SMILES IDX 14 26 15 27 16 28 17 29 18 30 19 31 20 32 21 33 22 34 74 35
REMARK SMILES IDX 23 36 73 37 24 38 25 39 26 40 67 41 27 42 72 43 66 44 68 45
REMARK SMILES IDX 28 46 71 47 65 48 64 49 29 51 55 52 38 53 54 54 39 55 42 56
REMARK SMILES IDX 53 57 69 58 40 59 41 60 52 62 70 63 43 64 30 65 31 66 36 67
REMARK SMILES IDX 32 68 33 69 35 70 37 71 34 72 56 73 57 74 62 75 58 76 59 77
REMARK SMILES IDX 61 78 63 79 60 80 44 81 45 82 50 83 46 84 47 85 49 86 51 87
REMARK SMILES IDX 48 88
REMARK H PARENT 75 14 82 23 68 50 42 61
REMARK Flexibility Score: inf
ROOT
ATOM      1  C   UNL A   1      34.424  33.310  30.033  1.00  0.00     0.188 C 
ENDROOT
BRANCH   1   2
ATOM      2  C   UNL A   1      35.013  32.651  28.788  1.00  0.00     0.188 C 
BRANCH   2   3
ATOM      3  O   UNL A   1      34.147  32.209  27.761  1.00  0.00    -0.376 OA
BRANCH   3   4
ATOM      4  C   UNL A   1      33.565  30.913  27.829  1.00  0.00     0.202 C 
BRANCH   4   5
ATOM      5  C   UNL A   1      33.332  30.067  26.563  1.00  0.00     0.261 C 
BRANCH   5   6
ATOM      6  O   UNL A   1      31.988  29.544  26.408  1.00  0.00    -0.463 OA
BRANCH   6   7
ATOM      7  C   UNL A   1      31.747  28.329  26.944  1.00  0.00     0.307 C 
ATOM      8  O   UNL A   1      31.412  28.165  28.117  1.00  0.00    -0.252 OA
BRANCH   7   9
ATOM      9  C   UNL A   1      31.837  27.122  26.020  1.00  0.00     0.147 C 
BRANCH   9  10
ATOM     10  C   UNL A   1      30.698  26.495  25.193  1.00  0.00     0.090 C 
ATOM     11  C   UNL A   1      30.267  25.106  25.640  1.00  0.00     0.031 C 
BRANCH  10  12
ATOM     12  N   UNL A   1      30.937  26.510  23.746  1.00  0.00    -0.349 N 
ATOM     13  C   UNL A   1      30.518  27.355  22.745  1.00  0.00     0.251 C 
ATOM     14  H   UNL A   1      31.507  25.772  23.431  1.00  0.00     0.164 HD
ATOM     15  O   UNL A   1      30.909  27.178  21.592  1.00  0.00    -0.269 OA
BRANCH  13  16
ATOM     16  C   UNL A   1      29.540  28.435  22.995  1.00  0.00     0.040 A 
ATOM     17  C   UNL A   1      30.043  29.697  23.340  1.00  0.00     0.017 A 
ATOM     18  C   UNL A   1      28.158  28.229  22.948  1.00  0.00     0.017 A 
ATOM     19  C   UNL A   1      29.171  30.767  23.540  1.00  0.00     0.047 A 
ATOM     20  C   UNL A   1      27.285  29.304  23.136  1.00  0.00     0.047 A 
ATOM     21  C   UNL A   1      27.801  30.568  23.407  1.00  0.00     0.115 A 
BRANCH  21  22
ATOM     22  O   UNL A   1      26.987  31.651  23.550  1.00  0.00    -0.508 OA
ATOM     23  H   UNL A   1      26.153  31.670  23.126  1.00  0.00     0.293 HD
ENDBRANCH  21  22
ENDBRANCH  13  16
ENDBRANCH  10  12
ENDBRANCH   9  10
ENDBRANCH   7   9
ENDBRANCH   6   7
ENDBRANCH   5   6
ENDBRANCH   4   5
ENDBRANCH   3   4
ENDBRANCH   2   3
ENDBRANCH   1   2
BRANCH   1  24
ATOM     24  O   UNL A   1      35.228  34.268  30.704  1.00  0.00    -0.377 OA
BRANCH  24  25
ATOM     25  C   UNL A   1      34.973  34.572  32.073  1.00  0.00     0.188 C 
BRANCH  25  26
ATOM     26  C   UNL A   1      34.290  33.529  32.964  1.00  0.00     0.188 C 
BRANCH  26  27
ATOM     27  O   UNL A   1      35.167  32.948  33.909  1.00  0.00    -0.376 OA
BRANCH  27  28
ATOM     28  C   UNL A   1      36.548  33.271  33.896  1.00  0.00     0.202 C 
BRANCH  28  29
ATOM     29  C   UNL A   1      37.577  32.349  33.218  1.00  0.00     0.261 C 
BRANCH  29  30
ATOM     30  O   UNL A   1      37.406  32.053  31.823  1.00  0.00    -0.460 OA
BRANCH  30  31
ATOM     31  C   UNL A   1      37.009  30.823  31.462  1.00  0.00     0.338 C 
ATOM     32  O   UNL A   1      35.879  30.363  31.509  1.00  0.00    -0.246 OA
BRANCH  31  33
ATOM     33  C   UNL A   1      38.161  30.157  30.816  1.00  0.00     0.060 A 
ATOM     34  C   UNL A   1      39.034  29.398  31.604  1.00  0.00     0.016 A 
ATOM     35  C   UNL A   1      38.391  30.298  29.444  1.00  0.00     0.016 A 
ATOM     36  C   UNL A   1      40.175  28.832  31.035  1.00  0.00     0.010 A 
ATOM     37  C   UNL A   1      39.543  29.740  28.877  1.00  0.00     0.010 A 
ATOM     38  C   UNL A   1      40.463  29.043  29.680  1.00  0.00    -0.014 A 
BRANCH  38  39
ATOM     39  C   UNL A   1      41.812  28.709  29.157  1.00  0.00     0.031 A 
ATOM     40  C   UNL A   1      42.060  27.314  28.650  1.00  0.00     0.074 A 
ATOM     41  C   UNL A   1      42.788  29.632  29.096  1.00  0.00     0.049 A 
ATOM     42  N   UNL A   1      43.157  26.784  28.171  1.00  0.00    -0.248 NA
ATOM     43  C   UNL A   1      40.915  26.390  28.692  1.00  0.00     0.031 C 
ATOM     44  C   UNL A   1      42.662  31.026  29.514  1.00  0.00     0.029 A 
ATOM     45  N   UNL A   1      44.084  29.527  28.657  1.00  0.00    -0.354 N 
ATOM     46  C   UNL A   1      42.836  25.469  27.860  1.00  0.00     0.074 A 
ATOM     47  C   UNL A   1      41.454  25.268  28.241  1.00  0.00     0.031 C 
ATOM     48  C   UNL A   1      43.838  31.647  29.319  1.00  0.00     0.029 A 
ATOM     49  C   UNL A   1      44.807  30.687  28.793  1.00  0.00     0.049 A 
ATOM     50  H   UNL A   1      44.460  28.698  28.281  1.00  0.00     0.167 HD
ATOM     51  C   UNL A   1      43.616  24.514  27.298  1.00  0.00     0.037 A 
ATOM     52  C   UNL A   1      46.107  30.936  28.540  1.00  0.00     0.037 A 
ATOM     53  C   UNL A   1      44.992  24.712  26.926  1.00  0.00     0.049 A 
ATOM     54  C   UNL A   1      46.978  29.835  27.989  1.00  0.00     0.074 A 
ATOM     55  C   UNL A   1      45.865  23.813  26.340  1.00  0.00     0.029 A 
ATOM     56  N   UNL A   1      45.700  25.890  27.115  1.00  0.00    -0.354 N 
ATOM     57  N   UNL A   1      46.659  28.602  27.677  1.00  0.00    -0.248 NA
ATOM     58  C   UNL A   1      48.390  30.166  27.751  1.00  0.00     0.031 C 
ATOM     59  C   UNL A   1      47.117  24.427  26.229  1.00  0.00     0.029 A 
ATOM     60  C   UNL A   1      47.007  25.732  26.683  1.00  0.00     0.049 A 
ATOM     61  H   UNL A   1      45.328  26.717  27.499  1.00  0.00     0.167 HD
ATOM     62  C   UNL A   1      47.818  28.022  27.173  1.00  0.00     0.074 A 
ATOM     63  C   UNL A   1      48.843  29.044  27.209  1.00  0.00     0.031 C 
ATOM     64  C   UNL A   1      48.017  26.759  26.720  1.00  0.00     0.037 A 
BRANCH  51  65
ATOM     65  C   UNL A   1      43.004  23.158  27.084  1.00  0.00     0.057 A 
ATOM     66  C   UNL A   1      42.627  22.703  25.813  1.00  0.00     0.134 A 
ATOM     67  C   UNL A   1      42.810  22.286  28.163  1.00  0.00     0.134 A 
ATOM     68  F   UNL A   1      42.771  23.492  24.737  1.00  0.00    -0.206 F 
ATOM     69  C   UNL A   1      42.054  21.443  25.627  1.00  0.00     0.040 A 
ATOM     70  C   UNL A   1      42.266  21.012  27.986  1.00  0.00     0.040 A 
ATOM     71  F   UNL A   1      43.152  22.654  29.407  1.00  0.00    -0.206 F 
ATOM     72  C   UNL A   1      41.878  20.592  26.716  1.00  0.00     0.006 A 
ENDBRANCH  51  65
BRANCH  52  73
ATOM     73  C   UNL A   1      46.675  32.281  28.811  1.00  0.00     0.057 A 
ATOM     74  C   UNL A   1      46.712  33.269  27.820  1.00  0.00     0.134 A 
ATOM     75  C   UNL A   1      47.224  32.603  30.059  1.00  0.00     0.134 A 
ATOM     76  F   UNL A   1      46.226  33.016  26.596  1.00  0.00    -0.206 F 
ATOM     77  C   UNL A   1      47.292  34.518  28.052  1.00  0.00     0.040 A 
ATOM     78  C   UNL A   1      47.780  33.857  30.314  1.00  0.00     0.040 A 
ATOM     79  F   UNL A   1      47.220  31.702  31.053  1.00  0.00    -0.206 F 
ATOM     80  C   UNL A   1      47.823  34.817  29.305  1.00  0.00     0.006 A 
ENDBRANCH  52  73
BRANCH  64  81
ATOM     81  C   UNL A   1      49.381  26.426  26.181  1.00  0.00     0.057 A 
ATOM     82  C   UNL A   1      49.789  26.802  24.895  1.00  0.00     0.134 A 
ATOM     83  C   UNL A   1      50.310  25.740  26.976  1.00  0.00     0.134 A 
ATOM     84  F   UNL A   1      48.947  27.452  24.077  1.00  0.00    -0.206 F 
ATOM     85  C   UNL A   1      51.055  26.475  24.405  1.00  0.00     0.040 A 
ATOM     86  C   UNL A   1      51.591  25.439  26.510  1.00  0.00     0.040 A 
ATOM     87  F   UNL A   1      49.993  25.361  28.223  1.00  0.00    -0.206 F 
ATOM     88  C   UNL A   1      51.963  25.798  25.217  1.00  0.00     0.006 A 
ENDBRANCH  64  81
ENDBRANCH  38  39
ENDBRANCH  31  33
ENDBRANCH  30  31
ENDBRANCH  29  30
ENDBRANCH  28  29
ENDBRANCH  27  28
ENDBRANCH  26  27
ENDBRANCH  25  26
ENDBRANCH  24  25
ENDBRANCH   1  24
TORSDOF 24
ENDMDL
MODEL 3
REMARK VINA RESULT:      -9.2      1.641      2.571
REMARK SMILES C[C@@H](CC(=O)OCCOCCOCCOCCOC(=O)c1ccc(-c2c3nc(c(-c4c(F)cccc4F)c4ccc([nH]4)c(-c4c(F)cccc4F)c4nc(c(-c5c(F)cccc5F)c5ccc2[nH]5)C=C4)C=C3)cc1)NC(=O)c1ccc(O)cc1
REMARK SMILES IDX 11 1 10 2 9 3 8 4 7 5 6 6 4 7 5 8 3 9 2 10 1 11 75 12 76 13
REMARK SMILES IDX 77 15 78 16 79 17 84 18 80 19 83 20 81 21 82 22 12 24 13 25
REMARK SMILES IDX 14 26 15 27 16 28 17 29 18 30 19 31 20 32 21 33 22 34 74 35
REMARK SMILES IDX 23 36 73 37 24 38 25 39 26 40 67 41 27 42 72 43 66 44 68 45
REMARK SMILES IDX 28 46 71 47 65 48 64 49 29 51 55 52 38 53 54 54 39 55 42 56
REMARK SMILES IDX 53 57 69 58 40 59 41 60 52 62 70 63 43 64 30 65 31 66 36 67
REMARK SMILES IDX 32 68 33 69 35 70 37 71 34 72 56 73 57 74 62 75 58 76 59 77
REMARK SMILES IDX 61 78 63 79 60 80 44 81 45 82 50 83 46 84 47 85 49 86 51 87
REMARK SMILES IDX 48 88
REMARK H PARENT 75 14 82 23 68 50 42 61
REMARK Flexibility Score: inf
ROOT
ATOM      1  C   UNL A   1      32.957  35.186  28.734  1.00  0.00     0.188 C 
ENDROOT
BRANCH   1   2
ATOM      2  C   UNL A   1      33.904  34.330  27.895  1.00  0.00     0.188 C 
BRANCH   2   3
ATOM      3  O   UNL A   1      34.416  33.128  28.436  1.00  0.00    -0.376 OA
BRANCH   3   4
ATOM      4  C   UNL A   1      33.639  31.937  28.384  1.00  0.00     0.202 C 
BRANCH   4   5
ATOM      5  C   UNL A   1      33.899  30.852  27.322  1.00  0.00     0.261 C 
BRANCH   5   6
ATOM      6  O   UNL A   1      33.045  29.683  27.411  1.00  0.00    -0.463 OA
BRANCH   6   7
ATOM      7  C   UNL A   1      33.231  28.727  26.476  1.00  0.00     0.307 C 
ATOM      8  O   UNL A   1      34.259  28.630  25.806  1.00  0.00    -0.252 OA
BRANCH   7   9
ATOM      9  C   UNL A   1      32.130  27.688  26.305  1.00  0.00     0.147 C 
BRANCH   9  10
ATOM     10  C   UNL A   1      32.297  26.208  25.909  1.00  0.00     0.090 C 
ATOM     11  C   UNL A   1      32.470  25.956  24.419  1.00  0.00     0.031 C 
BRANCH  10  12
ATOM     12  N   UNL A   1      31.260  25.328  26.456  1.00  0.00    -0.349 N 
ATOM     13  C   UNL A   1      31.242  23.984  26.747  1.00  0.00     0.251 C 
ATOM     14  H   UNL A   1      30.412  25.788  26.652  1.00  0.00     0.164 HD
ATOM     15  O   UNL A   1      30.242  23.483  27.259  1.00  0.00    -0.269 OA
BRANCH  13  16
ATOM     16  C   UNL A   1      32.367  23.094  26.388  1.00  0.00     0.040 A 
ATOM     17  C   UNL A   1      33.384  22.922  27.336  1.00  0.00     0.017 A 
ATOM     18  C   UNL A   1      32.470  22.471  25.141  1.00  0.00     0.017 A 
ATOM     19  C   UNL A   1      34.447  22.057  27.075  1.00  0.00     0.047 A 
ATOM     20  C   UNL A   1      33.528  21.595  24.884  1.00  0.00     0.047 A 
ATOM     21  C   UNL A   1      34.493  21.378  25.862  1.00  0.00     0.115 A 
BRANCH  21  22
ATOM     22  O   UNL A   1      35.514  20.496  25.670  1.00  0.00    -0.508 OA
ATOM     23  H   UNL A   1      35.392  19.752  25.115  1.00  0.00     0.293 HD
ENDBRANCH  21  22
ENDBRANCH  13  16
ENDBRANCH  10  12
ENDBRANCH   9  10
ENDBRANCH   7   9
ENDBRANCH   6   7
ENDBRANCH   5   6
ENDBRANCH   4   5
ENDBRANCH   3   4
ENDBRANCH   2   3
ENDBRANCH   1   2
BRANCH   1  24
ATOM     24  O   UNL A   1      33.540  36.034  29.712  1.00  0.00    -0.377 OA
BRANCH  24  25
ATOM     25  C   UNL A   1      32.792  36.399  30.869  1.00  0.00     0.188 C 
BRANCH  25  26
ATOM     26  C   UNL A   1      33.279  35.957  32.252  1.00  0.00     0.188 C 
BRANCH  26  27
ATOM     27  O   UNL A   1      33.194  34.559  32.450  1.00  0.00    -0.376 OA
BRANCH  27  28
ATOM     28  C   UNL A   1      34.209  33.704  31.950  1.00  0.00     0.202 C 
BRANCH  28  29
ATOM     29  C   UNL A   1      35.623  34.233  31.651  1.00  0.00     0.261 C 
BRANCH  29  30
ATOM     30  O   UNL A   1      36.668  33.942  32.592  1.00  0.00    -0.460 OA
BRANCH  30  31
ATOM     31  C   UNL A   1      36.716  32.725  33.157  1.00  0.00     0.338 C 
ATOM     32  O   UNL A   1      36.043  32.312  34.089  1.00  0.00    -0.246 OA
BRANCH  31  33
ATOM     33  C   UNL A   1      37.615  31.888  32.333  1.00  0.00     0.060 A 
ATOM     34  C   UNL A   1      38.587  31.108  32.971  1.00  0.00     0.016 A 
ATOM     35  C   UNL A   1      37.515  31.889  30.939  1.00  0.00     0.016 A 
ATOM     36  C   UNL A   1      39.503  30.378  32.214  1.00  0.00     0.010 A 
ATOM     37  C   UNL A   1      38.442  31.166  30.181  1.00  0.00     0.010 A 
ATOM     38  C   UNL A   1      39.469  30.444  30.814  1.00  0.00    -0.014 A 
BRANCH  38  39
ATOM     39  C   UNL A   1      40.616  29.925  30.028  1.00  0.00     0.031 A 
ATOM     40  C   UNL A   1      41.769  30.850  29.743  1.00  0.00     0.074 A 
ATOM     41  C   UNL A   1      40.656  28.649  29.606  1.00  0.00     0.049 A 
ATOM     42  N   UNL A   1      42.865  30.631  29.061  1.00  0.00    -0.248 NA
ATOM     43  C   UNL A   1      41.670  32.208  30.302  1.00  0.00     0.031 C 
ATOM     44  C   UNL A   1      39.626  27.643  29.853  1.00  0.00     0.029 A 
ATOM     45  N   UNL A   1      41.609  27.985  28.874  1.00  0.00    -0.354 N 
ATOM     46  C   UNL A   1      43.580  31.822  29.105  1.00  0.00     0.074 A 
ATOM     47  C   UNL A   1      42.778  32.771  29.847  1.00  0.00     0.031 C 
ATOM     48  C   UNL A   1      39.998  26.489  29.275  1.00  0.00     0.029 A 
ATOM     49  C   UNL A   1      41.275  26.682  28.591  1.00  0.00     0.049 A 
ATOM     50  H   UNL A   1      42.450  28.402  28.580  1.00  0.00     0.167 HD
ATOM     51  C   UNL A   1      44.801  32.098  28.585  1.00  0.00     0.037 A 
ATOM     52  C   UNL A   1      41.920  25.762  27.847  1.00  0.00     0.037 A 
ATOM     53  C   UNL A   1      45.594  31.156  27.842  1.00  0.00     0.049 A 
ATOM     54  C   UNL A   1      43.240  26.118  27.211  1.00  0.00     0.074 A 
ATOM     55  C   UNL A   1      46.847  31.334  27.284  1.00  0.00     0.029 A 
ATOM     56  N   UNL A   1      45.205  29.858  27.543  1.00  0.00    -0.354 N 
ATOM     57  N   UNL A   1      43.920  27.237  27.278  1.00  0.00    -0.248 NA
ATOM     58  C   UNL A   1      43.884  25.076  26.399  1.00  0.00     0.031 C 
ATOM     59  C   UNL A   1      47.190  30.165  26.596  1.00  0.00     0.029 A 
ATOM     60  C   UNL A   1      46.182  29.233  26.784  1.00  0.00     0.049 A 
ATOM     61  H   UNL A   1      44.359  29.442  27.829  1.00  0.00     0.167 HD
ATOM     62  C   UNL A   1      45.085  27.023  26.549  1.00  0.00     0.074 A 
ATOM     63  C   UNL A   1      45.025  25.661  26.062  1.00  0.00     0.031 C 
ATOM     64  C   UNL A   1      46.112  27.875  26.308  1.00  0.00     0.037 A 
BRANCH  51  65
ATOM     65  C   UNL A   1      45.334  33.490  28.776  1.00  0.00     0.057 A 
ATOM     66  C   UNL A   1      45.085  34.516  27.854  1.00  0.00     0.134 A 
ATOM     67  C   UNL A   1      46.090  33.814  29.910  1.00  0.00     0.134 A 
ATOM     68  F   UNL A   1      44.381  34.273  26.738  1.00  0.00    -0.206 F 
ATOM     69  C   UNL A   1      45.592  35.805  28.039  1.00  0.00     0.040 A 
ATOM     70  C   UNL A   1      46.576  35.106  30.121  1.00  0.00     0.040 A 
ATOM     71  F   UNL A   1      46.364  32.883  30.836  1.00  0.00    -0.206 F 
ATOM     72  C   UNL A   1      46.334  36.103  29.179  1.00  0.00     0.006 A 
ENDBRANCH  51  65
BRANCH  52  73
ATOM     73  C   UNL A   1      41.329  24.414  27.652  1.00  0.00     0.057 A 
ATOM     74  C   UNL A   1      41.796  23.303  28.364  1.00  0.00     0.134 A 
ATOM     75  C   UNL A   1      40.302  24.195  26.724  1.00  0.00     0.134 A 
ATOM     76  F   UNL A   1      42.795  23.441  29.249  1.00  0.00    -0.206 F 
ATOM     77  C   UNL A   1      41.281  22.024  28.148  1.00  0.00     0.040 A 
ATOM     78  C   UNL A   1      39.757  22.927  26.518  1.00  0.00     0.040 A 
ATOM     79  F   UNL A   1      39.808  25.216  26.008  1.00  0.00    -0.206 F 
ATOM     80  C   UNL A   1      40.253  21.835  27.226  1.00  0.00     0.006 A 
ENDBRANCH  52  73
BRANCH  64  81
ATOM     81  C   UNL A   1      47.278  27.344  25.520  1.00  0.00     0.057 A 
ATOM     82  C   UNL A   1      48.313  26.613  26.117  1.00  0.00     0.134 A 
ATOM     83  C   UNL A   1      47.349  27.546  24.134  1.00  0.00     0.134 A 
ATOM     84  F   UNL A   1      48.313  26.390  27.439  1.00  0.00    -0.206 F 
ATOM     85  C   UNL A   1      49.394  26.136  25.372  1.00  0.00     0.040 A 
ATOM     86  C   UNL A   1      48.406  27.045  23.374  1.00  0.00     0.040 A 
ATOM     87  F   UNL A   1      46.386  28.226  23.493  1.00  0.00    -0.206 F 
ATOM     88  C   UNL A   1      49.438  26.345  23.995  1.00  0.00     0.006 A 
ENDBRANCH  64  81
ENDBRANCH  38  39
ENDBRANCH  31  33
ENDBRANCH  30  31
ENDBRANCH  29  30
ENDBRANCH  28  29
ENDBRANCH  27  28
ENDBRANCH  26  27
ENDBRANCH  25  26
ENDBRANCH  24  25
ENDBRANCH   1  24
TORSDOF 24
ENDMDL
