MODEL 1
REMARK VINA RESULT:      -9.5      0.000      0.000
REMARK SMILES CCc1csc(N2[C@@H]3CC[C@H]2C[C@H](CC(=O)OCCOCCOCCOCCOC(=O)c2ccc(-c4c5nc(c(-c6c(F)cccc6F)c6ccc([nH]6)c(-c6c(F)cccc6F)c6nc(c(-c7c(F)cccc7F)c7ccc4[nH]7)C=C6)C=C5)cc2)C3)n1
REMARK SMILES IDX 22 1 21 2 20 3 19 4 18 5 17 6 15 7 16 8 14 9 13 10 7 11 8 12
REMARK SMILES IDX 11 13 9 14 86 15 10 16 12 17 6 18 3 19 4 20 87 21 5 22 2 23
REMARK SMILES IDX 1 24 23 25 24 26 25 27 26 28 27 29 28 30 29 31 30 32 31 33
REMARK SMILES IDX 32 34 33 35 85 36 34 37 84 38 35 39 36 40 37 41 78 42 38 43
REMARK SMILES IDX 83 44 77 45 79 46 39 47 82 48 76 49 75 50 40 52 66 53 49 54
REMARK SMILES IDX 65 55 50 56 53 57 64 58 80 59 51 60 52 61 63 63 81 64 54 65
REMARK SMILES IDX 41 66 42 67 47 68 43 69 44 70 46 71 48 72 45 73 67 74 68 75
REMARK SMILES IDX 73 76 69 77 70 78 72 79 74 80 71 81 55 82 56 83 61 84 57 85
REMARK SMILES IDX 58 86 60 87 62 88 59 89
REMARK H PARENT 79 51 53 62
REMARK Flexibility Score: inf
ROOT
ATOM      1  C   UNL A   1      35.455  31.739  27.960  1.00  0.00     0.188 C 
ENDROOT
BRANCH   1   2
ATOM      2  C   UNL A   1      34.767  30.569  27.250  1.00  0.00     0.188 C 
BRANCH   2   3
ATOM      3  O   UNL A   1      33.365  30.491  27.353  1.00  0.00    -0.376 OA
BRANCH   3   4
ATOM      4  C   UNL A   1      32.683  29.281  27.071  1.00  0.00     0.202 C 
BRANCH   4   5
ATOM      5  C   UNL A   1      33.339  27.957  26.627  1.00  0.00     0.261 C 
BRANCH   5   6
ATOM      6  O   UNL A   1      32.495  26.815  26.407  1.00  0.00    -0.463 OA
BRANCH   6   7
ATOM      7  C   UNL A   1      32.003  26.676  25.154  1.00  0.00     0.306 C 
ATOM      8  O   UNL A   1      31.063  27.335  24.714  1.00  0.00    -0.252 OA
BRANCH   7   9
ATOM      9  C   UNL A   1      32.710  25.667  24.269  1.00  0.00     0.126 C 
BRANCH   9  10
ATOM     10  C   UNL A   1      33.949  24.876  24.716  1.00  0.00     0.004 C 
ATOM     11  N   UNL A   1      35.034  22.193  25.082  1.00  0.00    -0.342 N 
ATOM     12  C   UNL A   1      35.544  22.977  23.974  1.00  0.00     0.085 C 
ATOM     13  C   UNL A   1      34.947  23.075  26.230  1.00  0.00     0.085 C 
ATOM     14  C   UNL A   1      36.721  23.698  24.650  1.00  0.00     0.027 C 
ATOM     15  C   UNL A   1      34.433  23.964  23.550  1.00  0.00     0.029 C 
ATOM     16  C   UNL A   1      36.332  23.760  26.143  1.00  0.00     0.027 C 
ATOM     17  C   UNL A   1      33.779  24.063  26.013  1.00  0.00     0.029 C 
BRANCH  11  18
ATOM     18  C   UNL A   1      34.310  21.065  24.939  1.00  0.00     0.186 A 
ATOM     19  C   UNL A   1      33.808  18.930  24.582  1.00  0.00     0.053 A 
ATOM     20  C   UNL A   1      32.528  19.428  24.721  1.00  0.00     0.092 A 
ATOM     21  N   UNL A   1      34.809  19.885  24.645  1.00  0.00    -0.225 NA
ATOM     22  S   UNL A   1      32.586  21.098  25.074  1.00  0.00    -0.105 S 
BRANCH  19  23
ATOM     23  C   UNL A   1      34.190  17.497  24.414  1.00  0.00     0.054 C 
ATOM     24  C   UNL A   1      33.659  16.879  23.132  1.00  0.00     0.011 C 
ENDBRANCH  19  23
ENDBRANCH  11  18
ENDBRANCH   9  10
ENDBRANCH   7   9
ENDBRANCH   6   7
ENDBRANCH   5   6
ENDBRANCH   4   5
ENDBRANCH   3   4
ENDBRANCH   2   3
ENDBRANCH   1   2
BRANCH   1  25
ATOM     25  O   UNL A   1      36.160  31.471  29.159  1.00  0.00    -0.377 OA
BRANCH  25  26
ATOM     26  C   UNL A   1      35.496  31.547  30.416  1.00  0.00     0.188 C 
BRANCH  26  27
ATOM     27  C   UNL A   1      34.629  32.763  30.796  1.00  0.00     0.188 C 
BRANCH  27  28
ATOM     28  O   UNL A   1      34.076  32.721  32.099  1.00  0.00    -0.376 OA
BRANCH  28  29
ATOM     29  C   UNL A   1      34.339  33.803  32.980  1.00  0.00     0.202 C 
BRANCH  29  30
ATOM     30  C   UNL A   1      35.312  33.552  34.142  1.00  0.00     0.261 C 
BRANCH  30  31
ATOM     31  O   UNL A   1      36.584  32.981  33.791  1.00  0.00    -0.460 OA
BRANCH  31  32
ATOM     32  C   UNL A   1      37.482  33.770  33.170  1.00  0.00     0.338 C 
ATOM     33  O   UNL A   1      37.695  34.956  33.371  1.00  0.00    -0.246 OA
BRANCH  32  34
ATOM     34  C   UNL A   1      38.315  32.916  32.304  1.00  0.00     0.060 A 
ATOM     35  C   UNL A   1      38.977  31.817  32.866  1.00  0.00     0.016 A 
ATOM     36  C   UNL A   1      38.463  33.216  30.948  1.00  0.00     0.016 A 
ATOM     37  C   UNL A   1      39.828  31.041  32.081  1.00  0.00     0.010 A 
ATOM     38  C   UNL A   1      39.331  32.447  30.167  1.00  0.00     0.010 A 
ATOM     39  C   UNL A   1      40.047  31.381  30.740  1.00  0.00    -0.014 A 
BRANCH  39  40
ATOM     40  C   UNL A   1      41.170  30.756  29.999  1.00  0.00     0.031 A 
ATOM     41  C   UNL A   1      42.378  31.598  29.690  1.00  0.00     0.074 A 
ATOM     42  C   UNL A   1      41.136  29.464  29.633  1.00  0.00     0.049 A 
ATOM     43  N   UNL A   1      43.458  31.292  29.019  1.00  0.00    -0.248 NA
ATOM     44  C   UNL A   1      42.364  32.976  30.210  1.00  0.00     0.031 C 
ATOM     45  C   UNL A   1      40.048  28.531  29.915  1.00  0.00     0.029 A 
ATOM     46  N   UNL A   1      42.051  28.715  28.934  1.00  0.00    -0.354 N 
ATOM     47  C   UNL A   1      44.248  32.435  29.033  1.00  0.00     0.074 A 
ATOM     48  C   UNL A   1      43.508  33.453  29.745  1.00  0.00     0.031 C 
ATOM     49  C   UNL A   1      40.354  27.333  29.385  1.00  0.00     0.029 A 
ATOM     50  C   UNL A   1      41.641  27.426  28.697  1.00  0.00     0.049 A 
ATOM     51  H   UNL A   1      42.919  29.068  28.632  1.00  0.00     0.167 HD
ATOM     52  C   UNL A   1      45.483  32.619  28.509  1.00  0.00     0.037 A 
ATOM     53  C   UNL A   1      42.228  26.444  27.986  1.00  0.00     0.037 A 
ATOM     54  C   UNL A   1      46.214  31.608  27.792  1.00  0.00     0.049 A 
ATOM     55  C   UNL A   1      43.562  26.701  27.331  1.00  0.00     0.074 A 
ATOM     56  C   UNL A   1      47.473  31.694  27.225  1.00  0.00     0.029 A 
ATOM     57  N   UNL A   1      45.747  30.327  27.537  1.00  0.00    -0.354 N 
ATOM     58  N   UNL A   1      44.309  27.780  27.363  1.00  0.00    -0.248 NA
ATOM     59  C   UNL A   1      44.136  25.602  26.540  1.00  0.00     0.031 C 
ATOM     60  C   UNL A   1      47.744  30.484  26.577  1.00  0.00     0.029 A 
ATOM     61  C   UNL A   1      46.681  29.622  26.798  1.00  0.00     0.049 A 
ATOM     62  H   UNL A   1      44.879  29.972  27.838  1.00  0.00     0.167 HD
ATOM     63  C   UNL A   1      45.453  27.475  26.634  1.00  0.00     0.074 A 
ATOM     64  C   UNL A   1      45.306  26.109  26.180  1.00  0.00     0.031 C 
ATOM     65  C   UNL A   1      46.529  28.256  26.364  1.00  0.00     0.037 A 
BRANCH  52  66
ATOM     66  C   UNL A   1      46.106  33.976  28.668  1.00  0.00     0.057 A 
ATOM     67  C   UNL A   1      46.953  34.283  29.741  1.00  0.00     0.134 A 
ATOM     68  C   UNL A   1      45.876  34.981  27.721  1.00  0.00     0.134 A 
ATOM     69  F   UNL A   1      47.202  33.371  30.693  1.00  0.00    -0.206 F 
ATOM     70  C   UNL A   1      47.527  35.548  29.880  1.00  0.00     0.040 A 
ATOM     71  C   UNL A   1      46.468  36.240  27.832  1.00  0.00     0.040 A 
ATOM     72  F   UNL A   1      45.079  34.754  26.665  1.00  0.00    -0.206 F 
ATOM     73  C   UNL A   1      47.290  36.529  28.919  1.00  0.00     0.006 A 
ENDBRANCH  52  66
BRANCH  53  74
ATOM     74  C   UNL A   1      41.560  25.124  27.835  1.00  0.00     0.057 A 
ATOM     75  C   UNL A   1      41.976  24.011  28.574  1.00  0.00     0.134 A 
ATOM     76  C   UNL A   1      40.520  24.935  26.917  1.00  0.00     0.134 A 
ATOM     77  F   UNL A   1      42.984  24.120  29.451  1.00  0.00    -0.206 F 
ATOM     78  C   UNL A   1      41.397  22.752  28.391  1.00  0.00     0.040 A 
ATOM     79  C   UNL A   1      39.913  23.689  26.745  1.00  0.00     0.040 A 
ATOM     80  F   UNL A   1      40.077  25.959  26.174  1.00  0.00    -0.206 F 
ATOM     81  C   UNL A   1      40.359  22.591  27.477  1.00  0.00     0.006 A 
ENDBRANCH  53  74
BRANCH  65  82
ATOM     82  C   UNL A   1      47.657  27.636  25.588  1.00  0.00     0.057 A 
ATOM     83  C   UNL A   1      47.684  27.630  24.188  1.00  0.00     0.134 A 
ATOM     84  C   UNL A   1      48.754  27.074  26.257  1.00  0.00     0.134 A 
ATOM     85  F   UNL A   1      46.664  28.142  23.485  1.00  0.00    -0.206 F 
ATOM     86  C   UNL A   1      48.747  27.060  23.481  1.00  0.00     0.040 A 
ATOM     87  C   UNL A   1      49.835  26.532  25.562  1.00  0.00     0.040 A 
ATOM     88  F   UNL A   1      48.800  27.058  27.598  1.00  0.00    -0.206 F 
ATOM     89  C   UNL A   1      49.829  26.515  24.169  1.00  0.00     0.006 A 
ENDBRANCH  65  82
ENDBRANCH  39  40
ENDBRANCH  32  34
ENDBRANCH  31  32
ENDBRANCH  30  31
ENDBRANCH  29  30
ENDBRANCH  28  29
ENDBRANCH  27  28
ENDBRANCH  26  27
ENDBRANCH  25  26
ENDBRANCH   1  25
TORSDOF 23
ENDMDL
MODEL 2
REMARK VINA RESULT:      -9.4      1.294      2.378
REMARK SMILES CCc1csc(N2[C@@H]3CC[C@H]2C[C@H](CC(=O)OCCOCCOCCOCCOC(=O)c2ccc(-c4c5nc(c(-c6c(F)cccc6F)c6ccc([nH]6)c(-c6c(F)cccc6F)c6nc(c(-c7c(F)cccc7F)c7ccc4[nH]7)C=C6)C=C5)cc2)C3)n1
REMARK SMILES IDX 22 1 21 2 20 3 19 4 18 5 17 6 15 7 16 8 14 9 13 10 7 11 8 12
REMARK SMILES IDX 11 13 9 14 86 15 10 16 12 17 6 18 3 19 4 20 87 21 5 22 2 23
REMARK SMILES IDX 1 24 23 25 24 26 25 27 26 28 27 29 28 30 29 31 30 32 31 33
REMARK SMILES IDX 32 34 33 35 85 36 34 37 84 38 35 39 36 40 37 41 78 42 38 43
REMARK SMILES IDX 83 44 77 45 79 46 39 47 82 48 76 49 75 50 40 52 66 53 49 54
REMARK SMILES IDX 65 55 50 56 53 57 64 58 80 59 51 60 52 61 63 63 81 64 54 65
REMARK SMILES IDX 41 66 42 67 47 68 43 69 44 70 46 71 48 72 45 73 67 74 68 75
REMARK SMILES IDX 73 76 69 77 70 78 72 79 74 80 71 81 55 82 56 83 61 84 57 85
REMARK SMILES IDX 58 86 60 87 62 88 59 89
REMARK H PARENT 79 51 53 62
REMARK Flexibility Score: inf
ROOT
ATOM      1  C   UNL A   1      35.023  33.557  28.583  1.00  0.00     0.188 C 
ENDROOT
BRANCH   1   2
ATOM      2  C   UNL A   1      34.122  32.319  28.600  1.00  0.00     0.188 C 
BRANCH   2   3
ATOM      3  O   UNL A   1      34.395  31.314  27.653  1.00  0.00    -0.376 OA
BRANCH   3   4
ATOM      4  C   UNL A   1      33.419  30.934  26.696  1.00  0.00     0.202 C 
BRANCH   4   5
ATOM      5  C   UNL A   1      32.137  30.127  26.987  1.00  0.00     0.261 C 
BRANCH   5   6
ATOM      6  O   UNL A   1      31.885  28.942  26.215  1.00  0.00    -0.463 OA
BRANCH   6   7
ATOM      7  C   UNL A   1      31.512  27.847  26.918  1.00  0.00     0.306 C 
ATOM      8  O   UNL A   1      31.408  27.825  28.143  1.00  0.00    -0.252 OA
BRANCH   7   9
ATOM      9  C   UNL A   1      31.177  26.613  26.100  1.00  0.00     0.126 C 
BRANCH   9  10
ATOM     10  C   UNL A   1      31.786  26.326  24.719  1.00  0.00     0.004 C 
ATOM     11  N   UNL A   1      33.158  24.314  23.115  1.00  0.00    -0.342 N 
ATOM     12  C   UNL A   1      31.773  24.595  22.794  1.00  0.00     0.085 C 
ATOM     13  C   UNL A   1      33.813  25.585  23.351  1.00  0.00     0.085 C 
ATOM     14  C   UNL A   1      31.939  25.730  21.771  1.00  0.00     0.027 C 
ATOM     15  C   UNL A   1      31.085  25.087  24.088  1.00  0.00     0.029 C 
ATOM     16  C   UNL A   1      33.290  26.383  22.132  1.00  0.00     0.027 C 
ATOM     17  C   UNL A   1      33.317  26.160  24.696  1.00  0.00     0.029 C 
BRANCH  11  18
ATOM     18  C   UNL A   1      33.596  23.135  23.602  1.00  0.00     0.186 A 
ATOM     19  C   UNL A   1      33.604  21.009  24.246  1.00  0.00     0.053 A 
ATOM     20  C   UNL A   1      34.889  21.349  24.621  1.00  0.00     0.092 A 
ATOM     21  N   UNL A   1      32.859  22.055  23.726  1.00  0.00    -0.225 NA
ATOM     22  S   UNL A   1      35.214  22.968  24.188  1.00  0.00    -0.105 S 
BRANCH  19  23
ATOM     23  C   UNL A   1      32.987  19.651  24.318  1.00  0.00     0.054 C 
ATOM     24  C   UNL A   1      32.898  19.105  25.732  1.00  0.00     0.011 C 
ENDBRANCH  19  23
ENDBRANCH  11  18
ENDBRANCH   9  10
ENDBRANCH   7   9
ENDBRANCH   6   7
ENDBRANCH   5   6
ENDBRANCH   4   5
ENDBRANCH   3   4
ENDBRANCH   2   3
ENDBRANCH   1   2
BRANCH   1  25
ATOM     25  O   UNL A   1      34.560  34.728  29.231  1.00  0.00    -0.377 OA
BRANCH  25  26
ATOM     26  C   UNL A   1      33.676  34.633  30.343  1.00  0.00     0.188 C 
BRANCH  26  27
ATOM     27  C   UNL A   1      33.560  35.769  31.377  1.00  0.00     0.188 C 
BRANCH  27  28
ATOM     28  O   UNL A   1      34.590  35.801  32.350  1.00  0.00    -0.376 OA
BRANCH  28  29
ATOM     29  C   UNL A   1      34.411  35.059  33.548  1.00  0.00     0.202 C 
BRANCH  29  30
ATOM     30  C   UNL A   1      35.271  33.799  33.737  1.00  0.00     0.261 C 
BRANCH  30  31
ATOM     31  O   UNL A   1      36.141  33.456  32.645  1.00  0.00    -0.460 OA
BRANCH  31  32
ATOM     32  C   UNL A   1      36.138  32.181  32.210  1.00  0.00     0.338 C 
ATOM     33  O   UNL A   1      35.189  31.414  32.162  1.00  0.00    -0.246 OA
BRANCH  32  34
ATOM     34  C   UNL A   1      37.460  31.900  31.621  1.00  0.00     0.060 A 
ATOM     35  C   UNL A   1      37.665  32.154  30.259  1.00  0.00     0.016 A 
ATOM     36  C   UNL A   1      38.482  31.359  32.404  1.00  0.00     0.016 A 
ATOM     37  C   UNL A   1      38.883  31.826  29.665  1.00  0.00     0.010 A 
ATOM     38  C   UNL A   1      39.695  31.014  31.803  1.00  0.00     0.010 A 
ATOM     39  C   UNL A   1      39.887  31.208  30.424  1.00  0.00    -0.014 A 
BRANCH  39  40
ATOM     40  C   UNL A   1      41.045  30.586  29.738  1.00  0.00     0.031 A 
ATOM     41  C   UNL A   1      42.246  31.443  29.445  1.00  0.00     0.074 A 
ATOM     42  C   UNL A   1      41.049  29.282  29.409  1.00  0.00     0.049 A 
ATOM     43  N   UNL A   1      43.355  31.139  28.819  1.00  0.00    -0.248 NA
ATOM     44  C   UNL A   1      42.188  32.834  29.924  1.00  0.00     0.031 C 
ATOM     45  C   UNL A   1      39.970  28.336  29.683  1.00  0.00     0.029 A 
ATOM     46  N   UNL A   1      42.001  28.533  28.764  1.00  0.00    -0.354 N 
ATOM     47  C   UNL A   1      44.121  32.298  28.826  1.00  0.00     0.074 A 
ATOM     48  C   UNL A   1      43.337  33.321  29.483  1.00  0.00     0.031 C 
ATOM     49  C   UNL A   1      40.317  27.130  29.199  1.00  0.00     0.029 A 
ATOM     50  C   UNL A   1      41.624  27.230  28.551  1.00  0.00     0.049 A 
ATOM     51  H   UNL A   1      42.872  28.895  28.480  1.00  0.00     0.167 HD
ATOM     52  C   UNL A   1      45.369  32.492  28.338  1.00  0.00     0.037 A 
ATOM     53  C   UNL A   1      42.254  26.240  27.888  1.00  0.00     0.037 A 
ATOM     54  C   UNL A   1      46.143  31.476  27.675  1.00  0.00     0.049 A 
ATOM     55  C   UNL A   1      43.604  26.505  27.270  1.00  0.00     0.074 A 
ATOM     56  C   UNL A   1      47.418  31.572  27.147  1.00  0.00     0.029 A 
ATOM     57  N   UNL A   1      45.710  30.179  27.443  1.00  0.00    -0.354 N 
ATOM     58  N   UNL A   1      44.328  27.599  27.296  1.00  0.00    -0.248 NA
ATOM     59  C   UNL A   1      44.225  25.396  26.532  1.00  0.00     0.031 C 
ATOM     60  C   UNL A   1      47.734  30.349  26.545  1.00  0.00     0.029 A 
ATOM     61  C   UNL A   1      46.682  29.472  26.756  1.00  0.00     0.049 A 
ATOM     62  H   UNL A   1      44.839  29.816  27.725  1.00  0.00     0.167 HD
ATOM     63  C   UNL A   1      45.501  27.297  26.614  1.00  0.00     0.074 A 
ATOM     64  C   UNL A   1      45.397  25.916  26.196  1.00  0.00     0.031 C 
ATOM     65  C   UNL A   1      46.570  28.092  26.357  1.00  0.00     0.037 A 
BRANCH  52  66
ATOM     66  C   UNL A   1      45.960  33.866  28.478  1.00  0.00     0.057 A 
ATOM     67  C   UNL A   1      45.775  34.856  27.505  1.00  0.00     0.134 A 
ATOM     68  C   UNL A   1      46.703  34.209  29.614  1.00  0.00     0.134 A 
ATOM     69  F   UNL A   1      45.087  34.589  26.385  1.00  0.00    -0.206 F 
ATOM     70  C   UNL A   1      46.329  36.130  27.645  1.00  0.00     0.040 A 
ATOM     71  C   UNL A   1      47.237  35.488  29.779  1.00  0.00     0.040 A 
ATOM     72  F   UNL A   1      46.916  33.310  30.587  1.00  0.00    -0.206 F 
ATOM     73  C   UNL A   1      47.057  36.451  28.789  1.00  0.00     0.006 A 
ENDBRANCH  52  66
BRANCH  53  74
ATOM     74  C   UNL A   1      41.617  24.903  27.754  1.00  0.00     0.057 A 
ATOM     75  C   UNL A   1      42.026  23.821  28.542  1.00  0.00     0.134 A 
ATOM     76  C   UNL A   1      40.615  24.665  26.805  1.00  0.00     0.134 A 
ATOM     77  F   UNL A   1      43.000  23.977  29.451  1.00  0.00    -0.206 F 
ATOM     78  C   UNL A   1      41.479  22.546  28.377  1.00  0.00     0.040 A 
ATOM     79  C   UNL A   1      40.039  23.403  26.650  1.00  0.00     0.040 A 
ATOM     80  F   UNL A   1      40.180  25.658  26.016  1.00  0.00    -0.206 F 
ATOM     81  C   UNL A   1      40.479  22.337  27.431  1.00  0.00     0.006 A 
ENDBRANCH  53  74
BRANCH  65  82
ATOM     82  C   UNL A   1      47.736  27.473  25.637  1.00  0.00     0.057 A 
ATOM     83  C   UNL A   1      48.798  26.868  26.320  1.00  0.00     0.134 A 
ATOM     84  C   UNL A   1      47.774  27.449  24.236  1.00  0.00     0.134 A 
ATOM     85  F   UNL A   1      48.831  26.863  27.661  1.00  0.00    -0.206 F 
ATOM     86  C   UNL A   1      49.869  26.286  25.636  1.00  0.00     0.040 A 
ATOM     87  C   UNL A   1      48.822  26.844  23.542  1.00  0.00     0.040 A 
ATOM     88  F   UNL A   1      46.783  28.000  23.517  1.00  0.00    -0.206 F 
ATOM     89  C   UNL A   1      49.879  26.267  24.243  1.00  0.00     0.006 A 
ENDBRANCH  65  82
ENDBRANCH  39  40
ENDBRANCH  32  34
ENDBRANCH  31  32
ENDBRANCH  30  31
ENDBRANCH  29  30
ENDBRANCH  28  29
ENDBRANCH  27  28
ENDBRANCH  26  27
ENDBRANCH  25  26
ENDBRANCH   1  25
TORSDOF 23
ENDMDL
MODEL 3
REMARK VINA RESULT:      -8.9      6.054      8.399
REMARK SMILES CCc1csc(N2[C@@H]3CC[C@H]2C[C@H](CC(=O)OCCOCCOCCOCCOC(=O)c2ccc(-c4c5nc(c(-c6c(F)cccc6F)c6ccc([nH]6)c(-c6c(F)cccc6F)c6nc(c(-c7c(F)cccc7F)c7ccc4[nH]7)C=C6)C=C5)cc2)C3)n1
REMARK SMILES IDX 22 1 21 2 20 3 19 4 18 5 17 6 15 7 16 8 14 9 13 10 7 11 8 12
REMARK SMILES IDX 11 13 9 14 86 15 10 16 12 17 6 18 3 19 4 20 87 21 5 22 2 23
REMARK SMILES IDX 1 24 23 25 24 26 25 27 26 28 27 29 28 30 29 31 30 32 31 33
REMARK SMILES IDX 32 34 33 35 85 36 34 37 84 38 35 39 36 40 37 41 78 42 38 43
REMARK SMILES IDX 83 44 77 45 79 46 39 47 82 48 76 49 75 50 40 52 66 53 49 54
REMARK SMILES IDX 65 55 50 56 53 57 64 58 80 59 51 60 52 61 63 63 81 64 54 65
REMARK SMILES IDX 41 66 42 67 47 68 43 69 44 70 46 71 48 72 45 73 67 74 68 75
REMARK SMILES IDX 73 76 69 77 70 78 72 79 74 80 71 81 55 82 56 83 61 84 57 85
REMARK SMILES IDX 58 86 60 87 62 88 59 89
REMARK H PARENT 79 51 53 62
REMARK Flexibility Score: inf
ROOT
ATOM      1  C   UNL A   1      32.790  28.062  24.337  1.00  0.00     0.188 C 
ENDROOT
BRANCH   1   2
ATOM      2  C   UNL A   1      31.802  27.528  23.295  1.00  0.00     0.188 C 
BRANCH   2   3
ATOM      3  O   UNL A   1      30.475  27.320  23.717  1.00  0.00    -0.376 OA
BRANCH   3   4
ATOM      4  C   UNL A   1      30.172  26.346  24.702  1.00  0.00     0.202 C 
BRANCH   4   5
ATOM      5  C   UNL A   1      30.813  24.947  24.816  1.00  0.00     0.261 C 
BRANCH   5   6
ATOM      6  O   UNL A   1      30.565  24.175  26.002  1.00  0.00    -0.463 OA
BRANCH   6   7
ATOM      7  C   UNL A   1      31.659  23.816  26.714  1.00  0.00     0.306 C 
ATOM      8  O   UNL A   1      31.641  22.989  27.623  1.00  0.00    -0.252 OA
BRANCH   7   9
ATOM      9  C   UNL A   1      32.965  24.470  26.301  1.00  0.00     0.126 C 
BRANCH   9  10
ATOM     10  C   UNL A   1      34.188  23.678  25.817  1.00  0.00     0.004 C 
ATOM     11  N   UNL A   1      35.074  21.097  24.786  1.00  0.00    -0.342 N 
ATOM     12  C   UNL A   1      35.035  22.211  23.859  1.00  0.00     0.085 C 
ATOM     13  C   UNL A   1      35.643  21.587  26.026  1.00  0.00     0.085 C 
ATOM     14  C   UNL A   1      36.449  22.784  24.039  1.00  0.00     0.027 C 
ATOM     15  C   UNL A   1      33.950  23.194  24.356  1.00  0.00     0.029 C 
ATOM     16  C   UNL A   1      36.858  22.369  25.469  1.00  0.00     0.027 C 
ATOM     17  C   UNL A   1      34.613  22.504  26.720  1.00  0.00     0.029 C 
BRANCH  11  18
ATOM     18  C   UNL A   1      34.279  20.012  24.696  1.00  0.00     0.186 A 
ATOM     19  C   UNL A   1      33.644  17.886  24.556  1.00  0.00     0.053 A 
ATOM     20  C   UNL A   1      32.404  18.486  24.458  1.00  0.00     0.092 A 
ATOM     21  N   UNL A   1      34.708  18.771  24.627  1.00  0.00    -0.225 NA
ATOM     22  S   UNL A   1      32.561  20.180  24.595  1.00  0.00    -0.105 S 
BRANCH  19  23
ATOM     23  C   UNL A   1      33.920  16.421  24.628  1.00  0.00     0.054 C 
ATOM     24  C   UNL A   1      35.262  16.092  25.258  1.00  0.00     0.011 C 
ENDBRANCH  19  23
ENDBRANCH  11  18
ENDBRANCH   9  10
ENDBRANCH   7   9
ENDBRANCH   6   7
ENDBRANCH   5   6
ENDBRANCH   4   5
ENDBRANCH   3   4
ENDBRANCH   2   3
ENDBRANCH   1   2
BRANCH   1  25
ATOM     25  O   UNL A   1      32.758  29.444  24.641  1.00  0.00    -0.377 OA
BRANCH  25  26
ATOM     26  C   UNL A   1      32.062  29.912  25.791  1.00  0.00     0.188 C 
BRANCH  26  27
ATOM     27  C   UNL A   1      32.795  30.188  27.118  1.00  0.00     0.188 C 
BRANCH  27  28
ATOM     28  O   UNL A   1      34.038  30.855  26.987  1.00  0.00    -0.376 OA
BRANCH  28  29
ATOM     29  C   UNL A   1      35.156  30.347  27.702  1.00  0.00     0.202 C 
BRANCH  29  30
ATOM     30  C   UNL A   1      36.124  31.367  28.323  1.00  0.00     0.261 C 
BRANCH  30  31
ATOM     31  O   UNL A   1      36.635  31.042  29.626  1.00  0.00    -0.460 OA
BRANCH  31  32
ATOM     32  C   UNL A   1      36.180  31.749  30.679  1.00  0.00     0.338 C 
ATOM     33  O   UNL A   1      35.068  32.232  30.826  1.00  0.00    -0.246 OA
BRANCH  32  34
ATOM     34  C   UNL A   1      37.208  31.702  31.735  1.00  0.00     0.060 A 
ATOM     35  C   UNL A   1      38.542  31.964  31.398  1.00  0.00     0.016 A 
ATOM     36  C   UNL A   1      36.859  31.373  33.046  1.00  0.00     0.016 A 
ATOM     37  C   UNL A   1      39.539  31.852  32.365  1.00  0.00     0.010 A 
ATOM     38  C   UNL A   1      37.862  31.243  34.010  1.00  0.00     0.010 A 
ATOM     39  C   UNL A   1      39.211  31.443  33.664  1.00  0.00    -0.014 A 
BRANCH  39  40
ATOM     40  C   UNL A   1      40.287  31.029  34.597  1.00  0.00     0.031 A 
ATOM     41  C   UNL A   1      40.742  32.010  35.643  1.00  0.00     0.074 A 
ATOM     42  C   UNL A   1      40.830  29.801  34.542  1.00  0.00     0.049 A 
ATOM     43  N   UNL A   1      41.692  31.897  36.535  1.00  0.00    -0.248 NA
ATOM     44  C   UNL A   1      40.027  33.297  35.685  1.00  0.00     0.031 C 
ATOM     45  C   UNL A   1      40.443  28.744  33.611  1.00  0.00     0.029 A 
ATOM     46  N   UNL A   1      41.834  29.240  35.291  1.00  0.00    -0.354 N 
ATOM     47  C   UNL A   1      41.690  33.094  37.241  1.00  0.00     0.074 A 
ATOM     48  C   UNL A   1      40.673  33.935  36.649  1.00  0.00     0.031 C 
ATOM     49  C   UNL A   1      41.209  27.662  33.838  1.00  0.00     0.029 A 
ATOM     50  C   UNL A   1      42.162  27.964  34.905  1.00  0.00     0.049 A 
ATOM     51  H   UNL A   1      42.277  29.708  36.036  1.00  0.00     0.167 HD
ATOM     52  C   UNL A   1      42.460  33.458  38.294  1.00  0.00     0.037 A 
ATOM     53  C   UNL A   1      43.137  27.145  35.347  1.00  0.00     0.037 A 
ATOM     54  C   UNL A   1      43.479  32.625  38.875  1.00  0.00     0.049 A 
ATOM     55  C   UNL A   1      44.045  27.609  36.458  1.00  0.00     0.074 A 
ATOM     56  C   UNL A   1      44.312  32.901  39.945  1.00  0.00     0.029 A 
ATOM     57  N   UNL A   1      43.809  31.354  38.428  1.00  0.00    -0.354 N 
ATOM     58  N   UNL A   1      44.026  28.735  37.131  1.00  0.00    -0.248 NA
ATOM     59  C   UNL A   1      45.110  26.684  36.874  1.00  0.00     0.031 C 
ATOM     60  C   UNL A   1      45.184  31.820  40.110  1.00  0.00     0.029 A 
ATOM     61  C   UNL A   1      44.851  30.843  39.184  1.00  0.00     0.049 A 
ATOM     62  H   UNL A   1      43.368  30.885  37.684  1.00  0.00     0.167 HD
ATOM     63  C   UNL A   1      45.046  28.638  38.070  1.00  0.00     0.074 A 
ATOM     64  C   UNL A   1      45.657  27.339  37.888  1.00  0.00     0.031 C 
ATOM     65  C   UNL A   1      45.442  29.541  39.001  1.00  0.00     0.037 A 
BRANCH  52  66
ATOM     66  C   UNL A   1      42.247  34.831  38.864  1.00  0.00     0.057 A 
ATOM     67  C   UNL A   1      41.354  35.068  39.916  1.00  0.00     0.134 A 
ATOM     68  C   UNL A   1      42.965  35.927  38.369  1.00  0.00     0.134 A 
ATOM     69  F   UNL A   1      40.623  34.066  40.426  1.00  0.00    -0.206 F 
ATOM     70  C   UNL A   1      41.163  36.349  40.438  1.00  0.00     0.040 A 
ATOM     71  C   UNL A   1      42.805  37.207  38.902  1.00  0.00     0.040 A 
ATOM     72  F   UNL A   1      43.841  35.772  37.364  1.00  0.00    -0.206 F 
ATOM     73  C   UNL A   1      41.896  37.422  39.935  1.00  0.00     0.006 A 
ENDBRANCH  52  66
BRANCH  53  74
ATOM     74  C   UNL A   1      43.326  25.804  34.734  1.00  0.00     0.057 A 
ATOM     75  C   UNL A   1      42.675  24.674  35.243  1.00  0.00     0.134 A 
ATOM     76  C   UNL A   1      44.195  25.612  33.652  1.00  0.00     0.134 A 
ATOM     77  F   UNL A   1      41.850  24.786  36.295  1.00  0.00    -0.206 F 
ATOM     78  C   UNL A   1      42.897  23.400  34.715  1.00  0.00     0.040 A 
ATOM     79  C   UNL A   1      44.403  24.349  33.096  1.00  0.00     0.040 A 
ATOM     80  F   UNL A   1      44.853  26.652  33.120  1.00  0.00    -0.206 F 
ATOM     81  C   UNL A   1      43.761  23.237  33.635  1.00  0.00     0.006 A 
ENDBRANCH  53  74
BRANCH  65  82
ATOM     82  C   UNL A   1      46.552  29.138  39.931  1.00  0.00     0.057 A 
ATOM     83  C   UNL A   1      46.314  28.419  41.109  1.00  0.00     0.134 A 
ATOM     84  C   UNL A   1      47.885  29.440  39.618  1.00  0.00     0.134 A 
ATOM     85  F   UNL A   1      45.062  28.104  41.473  1.00  0.00    -0.206 F 
ATOM     86  C   UNL A   1      47.358  28.041  41.957  1.00  0.00     0.040 A 
ATOM     87  C   UNL A   1      48.938  29.040  40.441  1.00  0.00     0.040 A 
ATOM     88  F   UNL A   1      48.187  30.116  38.499  1.00  0.00    -0.206 F 
ATOM     89  C   UNL A   1      48.675  28.345  41.620  1.00  0.00     0.006 A 
ENDBRANCH  65  82
ENDBRANCH  39  40
ENDBRANCH  32  34
ENDBRANCH  31  32
ENDBRANCH  30  31
ENDBRANCH  29  30
ENDBRANCH  28  29
ENDBRANCH  27  28
ENDBRANCH  26  27
ENDBRANCH  25  26
ENDBRANCH   1  25
TORSDOF 23
ENDMDL
