MODEL 1
REMARK VINA RESULT:      -9.4      0.000      0.000
REMARK SMILES Cc1ccc(C)c(NC(=O)/C=C/C(=O)OCCOCCOCCOCCOC(=O)c2ccc(-c3c4nc(c(-c5c(F)cccc5F)c5ccc([nH]5)c(-c5c(F)cccc5F)c5nc(c(-c6c(F)cccc6F)c6ccc3[nH]6)C=C5)C=C4)cc2)c1
REMARK SMILES IDX 21 1 20 2 19 3 18 4 17 5 16 6 15 7 13 8 14 9 12 10 11 11
REMARK SMILES IDX 9 12 8 13 10 15 7 16 1 17 2 18 3 19 84 20 4 21 5 22 6 23
REMARK SMILES IDX 22 24 23 25 24 26 25 27 26 28 27 29 28 30 29 31 30 32 31 33
REMARK SMILES IDX 83 34 32 35 82 36 33 37 34 38 35 39 76 40 36 41 81 42 75 43
REMARK SMILES IDX 77 44 37 45 80 46 74 47 73 48 38 50 64 51 47 52 63 53 48 54
REMARK SMILES IDX 51 55 62 56 78 57 49 58 50 59 61 61 79 62 52 63 39 64 40 65
REMARK SMILES IDX 45 66 41 67 42 68 44 69 46 70 43 71 65 72 66 73 71 74 67 75
REMARK SMILES IDX 68 76 70 77 72 78 69 79 53 80 54 81 59 82 55 83 56 84 58 85
REMARK SMILES IDX 60 86 57 87
REMARK H PARENT 8 14 77 49 51 60
REMARK Flexibility Score: inf
ROOT
ATOM      1  O   UNL A   1      32.181  28.531  24.194  1.00  0.00    -0.377 OA
ENDROOT
BRANCH   1   2
ATOM      2  C   UNL A   1      33.380  27.796  24.340  1.00  0.00     0.188 C 
BRANCH   2   3
ATOM      3  C   UNL A   1      33.458  26.523  25.206  1.00  0.00     0.188 C 
BRANCH   3   4
ATOM      4  O   UNL A   1      32.607  26.374  26.320  1.00  0.00    -0.376 OA
BRANCH   4   5
ATOM      5  C   UNL A   1      31.884  25.166  26.475  1.00  0.00     0.202 C 
BRANCH   5   6
ATOM      6  C   UNL A   1      30.929  24.779  25.343  1.00  0.00     0.261 C 
BRANCH   6   7
ATOM      7  O   UNL A   1      29.983  25.843  25.053  1.00  0.00    -0.460 OA
BRANCH   7   8
ATOM      8  C   UNL A   1      29.916  26.121  23.726  1.00  0.00     0.331 C 
ATOM      9  O   UNL A   1      29.164  26.963  23.259  1.00  0.00    -0.247 OA
BRANCH   8  10
ATOM     10  C   UNL A   1      30.934  25.426  22.877  1.00  0.00     0.099 C 
ATOM     11  C   UNL A   1      31.695  25.905  21.875  1.00  0.00     0.079 C 
BRANCH  11  12
ATOM     12  C   UNL A   1      32.638  25.047  21.100  1.00  0.00     0.248 C 
ATOM     13  N   UNL A   1      33.289  23.906  21.512  1.00  0.00    -0.322 N 
ATOM     14  H   UNL A   1      33.850  23.574  20.773  1.00  0.00     0.170 HD
ATOM     15  O   UNL A   1      32.889  25.440  19.953  1.00  0.00    -0.270 OA
BRANCH  13  16
ATOM     16  C   UNL A   1      33.438  23.030  22.638  1.00  0.00     0.044 A 
ATOM     17  C   UNL A   1      35.280  23.417  26.039  1.00  0.00     0.044 C 
ATOM     18  C   UNL A   1      34.416  22.890  24.932  1.00  0.00    -0.049 A 
ATOM     19  C   UNL A   1      33.507  21.909  25.272  1.00  0.00     0.004 A 
ATOM     20  C   UNL A   1      34.406  23.406  23.609  1.00  0.00     0.029 A 
ATOM     21  C   UNL A   1      32.742  21.365  24.269  1.00  0.00     0.006 A 
ATOM     22  C   UNL A   1      32.700  21.900  22.959  1.00  0.00    -0.027 A 
ATOM     23  C   UNL A   1      31.854  21.139  22.025  1.00  0.00     0.046 C 
ENDBRANCH  13  16
ENDBRANCH  11  12
ENDBRANCH   8  10
ENDBRANCH   7   8
ENDBRANCH   6   7
ENDBRANCH   5   6
ENDBRANCH   4   5
ENDBRANCH   3   4
ENDBRANCH   2   3
ENDBRANCH   1   2
BRANCH   1  24
ATOM     24  C   UNL A   1      31.594  29.059  25.370  1.00  0.00     0.188 C 
BRANCH  24  25
ATOM     25  C   UNL A   1      31.977  30.484  25.792  1.00  0.00     0.188 C 
BRANCH  25  26
ATOM     26  O   UNL A   1      32.320  30.605  27.164  1.00  0.00    -0.376 OA
BRANCH  26  27
ATOM     27  C   UNL A   1      33.705  30.593  27.474  1.00  0.00     0.202 C 
BRANCH  27  28
ATOM     28  C   UNL A   1      34.269  29.183  27.656  1.00  0.00     0.261 C 
BRANCH  28  29
ATOM     29  O   UNL A   1      35.712  29.053  27.609  1.00  0.00    -0.460 OA
BRANCH  29  30
ATOM     30  C   UNL A   1      36.443  29.594  28.613  1.00  0.00     0.338 C 
ATOM     31  O   UNL A   1      35.970  30.286  29.518  1.00  0.00    -0.246 OA
BRANCH  30  32
ATOM     32  C   UNL A   1      37.871  29.194  28.507  1.00  0.00     0.060 A 
ATOM     33  C   UNL A   1      38.672  29.665  27.466  1.00  0.00     0.016 A 
ATOM     34  C   UNL A   1      38.390  28.240  29.384  1.00  0.00     0.016 A 
ATOM     35  C   UNL A   1      39.928  29.076  27.226  1.00  0.00     0.010 A 
ATOM     36  C   UNL A   1      39.622  27.643  29.124  1.00  0.00     0.010 A 
ATOM     37  C   UNL A   1      40.388  27.992  28.001  1.00  0.00    -0.014 A 
BRANCH  37  38
ATOM     38  C   UNL A   1      41.835  27.633  28.039  1.00  0.00     0.031 A 
ATOM     39  C   UNL A   1      41.930  26.317  27.403  1.00  0.00     0.074 A 
ATOM     40  C   UNL A   1      42.959  28.186  28.588  1.00  0.00     0.049 A 
ATOM     41  N   UNL A   1      42.116  25.256  28.114  1.00  0.00    -0.248 NA
ATOM     42  C   UNL A   1      41.472  26.052  26.028  1.00  0.00     0.031 C 
ATOM     43  C   UNL A   1      42.987  29.179  29.640  1.00  0.00     0.029 A 
ATOM     44  N   UNL A   1      44.333  28.007  28.385  1.00  0.00    -0.354 N 
ATOM     45  C   UNL A   1      42.273  24.264  27.179  1.00  0.00     0.074 A 
ATOM     46  C   UNL A   1      41.613  24.723  25.981  1.00  0.00     0.031 C 
ATOM     47  C   UNL A   1      44.224  29.711  29.787  1.00  0.00     0.029 A 
ATOM     48  C   UNL A   1      45.151  29.052  28.897  1.00  0.00     0.049 A 
ATOM     49  H   UNL A   1      44.703  27.219  27.926  1.00  0.00     0.167 HD
ATOM     50  C   UNL A   1      43.411  23.542  27.319  1.00  0.00     0.037 A 
ATOM     51  C   UNL A   1      46.510  29.257  28.882  1.00  0.00     0.037 A 
ATOM     52  C   UNL A   1      43.852  23.480  28.698  1.00  0.00     0.049 A 
ATOM     53  C   UNL A   1      47.069  27.932  29.186  1.00  0.00     0.074 A 
ATOM     54  C   UNL A   1      43.332  23.010  29.888  1.00  0.00     0.029 A 
ATOM     55  N   UNL A   1      44.827  24.377  29.036  1.00  0.00    -0.354 N 
ATOM     56  N   UNL A   1      47.093  27.440  30.390  1.00  0.00    -0.248 NA
ATOM     57  C   UNL A   1      47.340  26.999  28.102  1.00  0.00     0.031 C 
ATOM     58  C   UNL A   1      44.042  23.653  30.945  1.00  0.00     0.029 A 
ATOM     59  C   UNL A   1      45.020  24.468  30.391  1.00  0.00     0.049 A 
ATOM     60  H   UNL A   1      45.338  24.901  28.377  1.00  0.00     0.167 HD
ATOM     61  C   UNL A   1      46.830  26.109  30.165  1.00  0.00     0.074 A 
ATOM     62  C   UNL A   1      47.221  25.861  28.783  1.00  0.00     0.031 C 
ATOM     63  C   UNL A   1      45.930  25.449  30.942  1.00  0.00     0.037 A 
BRANCH  50  64
ATOM     64  C   UNL A   1      44.374  23.470  26.168  1.00  0.00     0.057 A 
ATOM     65  C   UNL A   1      44.746  22.223  25.672  1.00  0.00     0.134 A 
ATOM     66  C   UNL A   1      45.138  24.567  25.702  1.00  0.00     0.134 A 
ATOM     67  F   UNL A   1      44.160  21.107  26.129  1.00  0.00    -0.206 F 
ATOM     68  C   UNL A   1      45.784  22.081  24.744  1.00  0.00     0.040 A 
ATOM     69  C   UNL A   1      46.118  24.450  24.722  1.00  0.00     0.040 A 
ATOM     70  F   UNL A   1      45.063  25.782  26.257  1.00  0.00    -0.206 F 
ATOM     71  C   UNL A   1      46.455  23.197  24.249  1.00  0.00     0.006 A 
ENDBRANCH  50  64
BRANCH  51  72
ATOM     72  C   UNL A   1      47.463  30.427  28.919  1.00  0.00     0.057 A 
ATOM     73  C   UNL A   1      47.740  31.127  27.721  1.00  0.00     0.134 A 
ATOM     74  C   UNL A   1      47.963  31.056  30.056  1.00  0.00     0.134 A 
ATOM     75  F   UNL A   1      47.463  30.579  26.528  1.00  0.00    -0.206 F 
ATOM     76  C   UNL A   1      48.269  32.428  27.683  1.00  0.00     0.040 A 
ATOM     77  C   UNL A   1      48.442  32.387  30.050  1.00  0.00     0.040 A 
ATOM     78  F   UNL A   1      48.049  30.386  31.206  1.00  0.00    -0.206 F 
ATOM     79  C   UNL A   1      48.546  33.098  28.861  1.00  0.00     0.006 A 
ENDBRANCH  51  72
BRANCH  63  80
ATOM     80  C   UNL A   1      45.851  25.820  32.392  1.00  0.00     0.057 A 
ATOM     81  C   UNL A   1      46.770  25.465  33.386  1.00  0.00     0.134 A 
ATOM     82  C   UNL A   1      44.772  26.619  32.792  1.00  0.00     0.134 A 
ATOM     83  F   UNL A   1      47.847  24.720  33.104  1.00  0.00    -0.206 F 
ATOM     84  C   UNL A   1      46.626  25.902  34.711  1.00  0.00     0.040 A 
ATOM     85  C   UNL A   1      44.629  27.079  34.102  1.00  0.00     0.040 A 
ATOM     86  F   UNL A   1      43.834  26.977  31.902  1.00  0.00    -0.206 F 
ATOM     87  C   UNL A   1      45.563  26.726  35.068  1.00  0.00     0.006 A 
ENDBRANCH  63  80
ENDBRANCH  37  38
ENDBRANCH  30  32
ENDBRANCH  29  30
ENDBRANCH  28  29
ENDBRANCH  27  28
ENDBRANCH  26  27
ENDBRANCH  25  26
ENDBRANCH  24  25
ENDBRANCH   1  24
TORSDOF 22
ENDMDL
MODEL 2
REMARK VINA RESULT:      -9.4      3.765      7.968
REMARK SMILES Cc1ccc(C)c(NC(=O)/C=C/C(=O)OCCOCCOCCOCCOC(=O)c2ccc(-c3c4nc(c(-c5c(F)cccc5F)c5ccc([nH]5)c(-c5c(F)cccc5F)c5nc(c(-c6c(F)cccc6F)c6ccc3[nH]6)C=C5)C=C4)cc2)c1
REMARK SMILES IDX 21 1 20 2 19 3 18 4 17 5 16 6 15 7 13 8 14 9 12 10 11 11
REMARK SMILES IDX 9 12 8 13 10 15 7 16 1 17 2 18 3 19 84 20 4 21 5 22 6 23
REMARK SMILES IDX 22 24 23 25 24 26 25 27 26 28 27 29 28 30 29 31 30 32 31 33
REMARK SMILES IDX 83 34 32 35 82 36 33 37 34 38 35 39 76 40 36 41 81 42 75 43
REMARK SMILES IDX 77 44 37 45 80 46 74 47 73 48 38 50 64 51 47 52 63 53 48 54
REMARK SMILES IDX 51 55 62 56 78 57 49 58 50 59 61 61 79 62 52 63 39 64 40 65
REMARK SMILES IDX 45 66 41 67 42 68 44 69 46 70 43 71 65 72 66 73 71 74 67 75
REMARK SMILES IDX 68 76 70 77 72 78 69 79 53 80 54 81 59 82 55 83 56 84 58 85
REMARK SMILES IDX 60 86 57 87
REMARK H PARENT 8 14 77 49 51 60
REMARK Flexibility Score: inf
ROOT
ATOM      1  O   UNL A   1      31.143  25.249  25.367  1.00  0.00    -0.377 OA
ENDROOT
BRANCH   1   2
ATOM      2  C   UNL A   1      30.938  26.578  25.801  1.00  0.00     0.188 C 
BRANCH   2   3
ATOM      3  C   UNL A   1      31.996  27.342  26.623  1.00  0.00     0.188 C 
BRANCH   3   4
ATOM      4  O   UNL A   1      32.213  28.715  26.390  1.00  0.00    -0.376 OA
BRANCH   4   5
ATOM      5  C   UNL A   1      33.508  29.153  26.018  1.00  0.00     0.202 C 
BRANCH   5   6
ATOM      6  C   UNL A   1      34.388  29.736  27.128  1.00  0.00     0.261 C 
BRANCH   6   7
ATOM      7  O   UNL A   1      35.574  28.927  27.351  1.00  0.00    -0.460 OA
BRANCH   7   8
ATOM      8  C   UNL A   1      36.559  29.624  27.971  1.00  0.00     0.331 C 
ATOM      9  O   UNL A   1      37.515  30.099  27.375  1.00  0.00    -0.247 OA
BRANCH   8  10
ATOM     10  C   UNL A   1      36.329  29.901  29.423  1.00  0.00     0.099 C 
ATOM     11  C   UNL A   1      35.956  31.040  30.036  1.00  0.00     0.079 C 
BRANCH  11  12
ATOM     12  C   UNL A   1      35.814  31.146  31.518  1.00  0.00     0.248 C 
ATOM     13  N   UNL A   1      35.382  32.223  32.259  1.00  0.00    -0.322 N 
ATOM     14  H   UNL A   1      35.409  31.984  33.215  1.00  0.00     0.170 HD
ATOM     15  O   UNL A   1      36.166  30.145  32.156  1.00  0.00    -0.270 OA
BRANCH  13  16
ATOM     16  C   UNL A   1      34.907  33.570  32.130  1.00  0.00     0.044 A 
ATOM     17  C   UNL A   1      33.112  35.457  29.245  1.00  0.00     0.044 C 
ATOM     18  C   UNL A   1      33.701  35.114  30.580  1.00  0.00    -0.049 A 
ATOM     19  C   UNL A   1      33.315  35.900  31.647  1.00  0.00     0.004 A 
ATOM     20  C   UNL A   1      34.531  33.987  30.825  1.00  0.00     0.029 A 
ATOM     21  C   UNL A   1      33.882  35.648  32.873  1.00  0.00     0.006 A 
ATOM     22  C   UNL A   1      34.677  34.506  33.129  1.00  0.00    -0.027 A 
ATOM     23  C   UNL A   1      35.227  34.450  34.494  1.00  0.00     0.046 C 
ENDBRANCH  13  16
ENDBRANCH  11  12
ENDBRANCH   8  10
ENDBRANCH   7   8
ENDBRANCH   6   7
ENDBRANCH   5   6
ENDBRANCH   4   5
ENDBRANCH   3   4
ENDBRANCH   2   3
ENDBRANCH   1   2
BRANCH   1  24
ATOM     24  C   UNL A   1      32.188  24.516  25.981  1.00  0.00     0.188 C 
BRANCH  24  25
ATOM     25  C   UNL A   1      33.025  23.576  25.103  1.00  0.00     0.188 C 
BRANCH  25  26
ATOM     26  O   UNL A   1      34.368  23.427  25.538  1.00  0.00    -0.376 OA
BRANCH  26  27
ATOM     27  C   UNL A   1      34.711  22.179  26.118  1.00  0.00     0.202 C 
BRANCH  27  28
ATOM     28  C   UNL A   1      35.957  21.546  25.496  1.00  0.00     0.261 C 
BRANCH  28  29
ATOM     29  O   UNL A   1      37.103  22.416  25.318  1.00  0.00    -0.460 OA
BRANCH  29  30
ATOM     30  C   UNL A   1      38.295  22.028  25.829  1.00  0.00     0.338 C 
ATOM     31  O   UNL A   1      38.749  20.885  25.735  1.00  0.00    -0.246 OA
BRANCH  30  32
ATOM     32  C   UNL A   1      39.001  23.172  26.464  1.00  0.00     0.060 A 
ATOM     33  C   UNL A   1      40.169  22.974  27.202  1.00  0.00     0.016 A 
ATOM     34  C   UNL A   1      38.428  24.445  26.429  1.00  0.00     0.016 A 
ATOM     35  C   UNL A   1      40.671  24.011  28.011  1.00  0.00     0.010 A 
ATOM     36  C   UNL A   1      38.915  25.457  27.254  1.00  0.00     0.010 A 
ATOM     37  C   UNL A   1      40.001  25.247  28.118  1.00  0.00    -0.014 A 
BRANCH  37  38
ATOM     38  C   UNL A   1      40.703  26.463  28.620  1.00  0.00     0.031 A 
ATOM     39  C   UNL A   1      42.027  26.438  27.993  1.00  0.00     0.074 A 
ATOM     40  C   UNL A   1      40.420  27.439  29.535  1.00  0.00     0.049 A 
ATOM     41  N   UNL A   1      43.071  26.111  28.679  1.00  0.00    -0.248 NA
ATOM     42  C   UNL A   1      42.229  26.415  26.534  1.00  0.00     0.031 C 
ATOM     43  C   UNL A   1      39.422  27.358  30.579  1.00  0.00     0.029 A 
ATOM     44  N   UNL A   1      40.940  28.713  29.793  1.00  0.00    -0.354 N 
ATOM     45  C   UNL A   1      44.109  26.322  27.807  1.00  0.00     0.074 A 
ATOM     46  C   UNL A   1      43.552  26.232  26.479  1.00  0.00     0.031 C 
ATOM     47  C   UNL A   1      39.204  28.566  31.153  1.00  0.00     0.029 A 
ATOM     48  C   UNL A   1      40.107  29.544  30.593  1.00  0.00     0.049 A 
ATOM     49  H   UNL A   1      41.813  29.010  29.449  1.00  0.00     0.167 HD
ATOM     50  C   UNL A   1      45.082  27.135  28.286  1.00  0.00     0.037 A 
ATOM     51  C   UNL A   1      40.244  30.837  31.041  1.00  0.00     0.037 A 
ATOM     52  C   UNL A   1      45.193  27.061  29.728  1.00  0.00     0.049 A 
ATOM     53  C   UNL A   1      41.651  30.919  31.454  1.00  0.00     0.074 A 
ATOM     54  C   UNL A   1      45.471  26.076  30.655  1.00  0.00     0.029 A 
ATOM     55  N   UNL A   1      44.550  28.057  30.411  1.00  0.00    -0.354 N 
ATOM     56  N   UNL A   1      42.084  30.420  32.575  1.00  0.00    -0.248 NA
ATOM     57  C   UNL A   1      42.667  31.298  30.482  1.00  0.00     0.031 C 
ATOM     58  C   UNL A   1      44.979  26.528  31.916  1.00  0.00     0.029 A 
ATOM     59  C   UNL A   1      44.453  27.803  31.755  1.00  0.00     0.049 A 
ATOM     60  H   UNL A   1      44.195  28.870  29.983  1.00  0.00     0.167 HD
ATOM     61  C   UNL A   1      43.317  29.929  32.217  1.00  0.00     0.074 A 
ATOM     62  C   UNL A   1      43.711  30.684  31.034  1.00  0.00     0.031 C 
ATOM     63  C   UNL A   1      43.704  28.689  32.620  1.00  0.00     0.037 A 
BRANCH  50  64
ATOM     64  C   UNL A   1      45.435  28.377  27.518  1.00  0.00     0.057 A 
ATOM     65  C   UNL A   1      46.767  28.609  27.180  1.00  0.00     0.134 A 
ATOM     66  C   UNL A   1      44.556  29.470  27.326  1.00  0.00     0.134 A 
ATOM     67  F   UNL A   1      47.701  27.679  27.422  1.00  0.00    -0.206 F 
ATOM     68  C   UNL A   1      47.187  29.833  26.648  1.00  0.00     0.040 A 
ATOM     69  C   UNL A   1      44.944  30.663  26.726  1.00  0.00     0.040 A 
ATOM     70  F   UNL A   1      43.313  29.485  27.819  1.00  0.00    -0.206 F 
ATOM     71  C   UNL A   1      46.272  30.853  26.398  1.00  0.00     0.006 A 
ENDBRANCH  50  64
BRANCH  51  72
ATOM     72  C   UNL A   1      39.343  31.979  31.444  1.00  0.00     0.057 A 
ATOM     73  C   UNL A   1      39.049  32.174  32.814  1.00  0.00     0.134 A 
ATOM     74  C   UNL A   1      38.913  33.025  30.631  1.00  0.00     0.134 A 
ATOM     75  F   UNL A   1      39.256  31.192  33.705  1.00  0.00    -0.206 F 
ATOM     76  C   UNL A   1      38.574  33.385  33.345  1.00  0.00     0.040 A 
ATOM     77  C   UNL A   1      38.491  34.273  31.146  1.00  0.00     0.040 A 
ATOM     78  F   UNL A   1      38.844  32.859  29.310  1.00  0.00    -0.206 F 
ATOM     79  C   UNL A   1      38.371  34.473  32.515  1.00  0.00     0.006 A 
ENDBRANCH  51  72
BRANCH  63  80
ATOM     80  C   UNL A   1      43.265  28.225  33.976  1.00  0.00     0.057 A 
ATOM     81  C   UNL A   1      42.042  27.619  34.285  1.00  0.00     0.134 A 
ATOM     82  C   UNL A   1      44.168  28.390  35.034  1.00  0.00     0.134 A 
ATOM     83  F   UNL A   1      41.117  27.398  33.342  1.00  0.00    -0.206 F 
ATOM     84  C   UNL A   1      41.746  27.182  35.585  1.00  0.00     0.040 A 
ATOM     85  C   UNL A   1      43.895  27.939  36.326  1.00  0.00     0.040 A 
ATOM     86  F   UNL A   1      45.350  28.989  34.823  1.00  0.00    -0.206 F 
ATOM     87  C   UNL A   1      42.680  27.325  36.605  1.00  0.00     0.006 A 
ENDBRANCH  63  80
ENDBRANCH  37  38
ENDBRANCH  30  32
ENDBRANCH  29  30
ENDBRANCH  28  29
ENDBRANCH  27  28
ENDBRANCH  26  27
ENDBRANCH  25  26
ENDBRANCH  24  25
ENDBRANCH   1  24
TORSDOF 22
ENDMDL
MODEL 3
REMARK VINA RESULT:      -9.2      4.172      8.768
REMARK SMILES Cc1ccc(C)c(NC(=O)/C=C/C(=O)OCCOCCOCCOCCOC(=O)c2ccc(-c3c4nc(c(-c5c(F)cccc5F)c5ccc([nH]5)c(-c5c(F)cccc5F)c5nc(c(-c6c(F)cccc6F)c6ccc3[nH]6)C=C5)C=C4)cc2)c1
REMARK SMILES IDX 21 1 20 2 19 3 18 4 17 5 16 6 15 7 13 8 14 9 12 10 11 11
REMARK SMILES IDX 9 12 8 13 10 15 7 16 1 17 2 18 3 19 84 20 4 21 5 22 6 23
REMARK SMILES IDX 22 24 23 25 24 26 25 27 26 28 27 29 28 30 29 31 30 32 31 33
REMARK SMILES IDX 83 34 32 35 82 36 33 37 34 38 35 39 76 40 36 41 81 42 75 43
REMARK SMILES IDX 77 44 37 45 80 46 74 47 73 48 38 50 64 51 47 52 63 53 48 54
REMARK SMILES IDX 51 55 62 56 78 57 49 58 50 59 61 61 79 62 52 63 39 64 40 65
REMARK SMILES IDX 45 66 41 67 42 68 44 69 46 70 43 71 65 72 66 73 71 74 67 75
REMARK SMILES IDX 68 76 70 77 72 78 69 79 53 80 54 81 59 82 55 83 56 84 58 85
REMARK SMILES IDX 60 86 57 87
REMARK H PARENT 8 14 77 49 51 60
REMARK Flexibility Score: inf
ROOT
ATOM      1  O   UNL A   1      42.112  19.635  25.399  1.00  0.00    -0.377 OA
ENDROOT
BRANCH   1   2
ATOM      2  C   UNL A   1      41.140  20.087  26.319  1.00  0.00     0.188 C 
BRANCH   2   3
ATOM      3  C   UNL A   1      40.606  21.533  26.302  1.00  0.00     0.188 C 
BRANCH   3   4
ATOM      4  O   UNL A   1      39.223  21.773  26.168  1.00  0.00    -0.376 OA
BRANCH   4   5
ATOM      5  C   UNL A   1      38.426  20.831  25.471  1.00  0.00     0.202 C 
BRANCH   5   6
ATOM      6  C   UNL A   1      37.150  21.357  24.808  1.00  0.00     0.261 C 
BRANCH   6   7
ATOM      7  O   UNL A   1      36.051  21.441  25.754  1.00  0.00    -0.460 OA
BRANCH   7   8
ATOM      8  C   UNL A   1      35.725  22.725  26.047  1.00  0.00     0.331 C 
ATOM      9  O   UNL A   1      36.501  23.658  25.905  1.00  0.00    -0.247 OA
BRANCH   8  10
ATOM     10  C   UNL A   1      34.295  22.950  26.425  1.00  0.00     0.099 C 
ATOM     11  C   UNL A   1      33.552  24.071  26.363  1.00  0.00     0.079 C 
BRANCH  11  12
ATOM     12  C   UNL A   1      32.135  24.123  26.828  1.00  0.00     0.248 C 
ATOM     13  N   UNL A   1      31.225  25.145  26.680  1.00  0.00    -0.322 N 
ATOM     14  H   UNL A   1      30.375  24.880  27.104  1.00  0.00     0.170 HD
ATOM     15  O   UNL A   1      31.748  23.129  27.457  1.00  0.00    -0.270 OA
BRANCH  13  16
ATOM     16  C   UNL A   1      31.078  26.461  26.128  1.00  0.00     0.044 A 
ATOM     17  C   UNL A   1      32.528  29.917  27.156  1.00  0.00     0.044 C 
ATOM     18  C   UNL A   1      31.833  28.826  26.398  1.00  0.00    -0.049 A 
ATOM     19  C   UNL A   1      31.555  29.078  25.070  1.00  0.00     0.004 A 
ATOM     20  C   UNL A   1      31.548  27.539  26.926  1.00  0.00     0.029 A 
ATOM     21  C   UNL A   1      30.867  28.121  24.363  1.00  0.00     0.006 A 
ATOM     22  C   UNL A   1      30.615  26.825  24.871  1.00  0.00    -0.027 A 
ATOM     23  C   UNL A   1      29.821  25.970  23.973  1.00  0.00     0.046 C 
ENDBRANCH  13  16
ENDBRANCH  11  12
ENDBRANCH   8  10
ENDBRANCH   7   8
ENDBRANCH   6   7
ENDBRANCH   5   6
ENDBRANCH   4   5
ENDBRANCH   3   4
ENDBRANCH   2   3
ENDBRANCH   1   2
BRANCH   1  24
ATOM     24  C   UNL A   1      43.058  18.688  25.863  1.00  0.00     0.188 C 
BRANCH  24  25
ATOM     25  C   UNL A   1      44.490  18.768  25.314  1.00  0.00     0.188 C 
BRANCH  25  26
ATOM     26  O   UNL A   1      44.767  19.965  24.603  1.00  0.00    -0.376 OA
BRANCH  26  27
ATOM     27  C   UNL A   1      45.691  20.858  25.204  1.00  0.00     0.202 C 
BRANCH  27  28
ATOM     28  C   UNL A   1      45.846  22.172  24.437  1.00  0.00     0.261 C 
BRANCH  28  29
ATOM     29  O   UNL A   1      45.342  23.364  25.089  1.00  0.00    -0.460 OA
BRANCH  29  30
ATOM     30  C   UNL A   1      44.039  23.693  24.920  1.00  0.00     0.338 C 
ATOM     31  O   UNL A   1      43.242  23.035  24.248  1.00  0.00    -0.246 OA
BRANCH  30  32
ATOM     32  C   UNL A   1      43.693  24.913  25.696  1.00  0.00     0.060 A 
ATOM     33  C   UNL A   1      42.728  25.809  25.232  1.00  0.00     0.016 A 
ATOM     34  C   UNL A   1      44.424  25.238  26.840  1.00  0.00     0.016 A 
ATOM     35  C   UNL A   1      42.604  27.077  25.829  1.00  0.00     0.010 A 
ATOM     36  C   UNL A   1      44.314  26.505  27.409  1.00  0.00     0.010 A 
ATOM     37  C   UNL A   1      43.457  27.481  26.876  1.00  0.00    -0.014 A 
BRANCH  37  38
ATOM     38  C   UNL A   1      43.092  28.614  27.774  1.00  0.00     0.031 A 
ATOM     39  C   UNL A   1      44.255  29.504  27.775  1.00  0.00     0.074 A 
ATOM     40  C   UNL A   1      42.035  28.903  28.592  1.00  0.00     0.049 A 
ATOM     41  N   UNL A   1      45.046  29.550  28.794  1.00  0.00    -0.248 NA
ATOM     42  C   UNL A   1      44.811  30.107  26.551  1.00  0.00     0.031 C 
ATOM     43  C   UNL A   1      41.066  27.952  29.091  1.00  0.00     0.029 A 
ATOM     44  N   UNL A   1      41.565  30.072  29.201  1.00  0.00    -0.354 N 
ATOM     45  C   UNL A   1      45.918  30.562  28.482  1.00  0.00     0.074 A 
ATOM     46  C   UNL A   1      45.918  30.672  27.043  1.00  0.00     0.031 C 
ATOM     47  C   UNL A   1      40.007  28.575  29.660  1.00  0.00     0.029 A 
ATOM     48  C   UNL A   1      40.222  30.003  29.664  1.00  0.00     0.049 A 
ATOM     49  H   UNL A   1      42.121  30.879  29.302  1.00  0.00     0.167 HD
ATOM     50  C   UNL A   1      46.009  31.530  29.426  1.00  0.00     0.037 A 
ATOM     51  C   UNL A   1      39.406  30.921  30.282  1.00  0.00     0.037 A 
ATOM     52  C   UNL A   1      45.749  31.020  30.757  1.00  0.00     0.049 A 
ATOM     53  C   UNL A   1      40.285  31.570  31.263  1.00  0.00     0.074 A 
ATOM     54  C   UNL A   1      46.313  30.071  31.586  1.00  0.00     0.029 A 
ATOM     55  N   UNL A   1      44.476  31.219  31.216  1.00  0.00    -0.354 N 
ATOM     56  N   UNL A   1      40.613  31.010  32.391  1.00  0.00    -0.248 NA
ATOM     57  C   UNL A   1      41.064  32.737  30.872  1.00  0.00     0.031 C 
ATOM     58  C   UNL A   1      45.332  29.721  32.560  1.00  0.00     0.029 A 
ATOM     59  C   UNL A   1      44.200  30.496  32.348  1.00  0.00     0.049 A 
ATOM     60  H   UNL A   1      43.827  31.818  30.780  1.00  0.00     0.167 HD
ATOM     61  C   UNL A   1      41.924  31.396  32.536  1.00  0.00     0.074 A 
ATOM     62  C   UNL A   1      42.068  32.607  31.738  1.00  0.00     0.031 C 
ATOM     63  C   UNL A   1      42.867  30.490  32.911  1.00  0.00     0.037 A 
BRANCH  50  64
ATOM     64  C   UNL A   1      45.710  32.951  29.041  1.00  0.00     0.057 A 
ATOM     65  C   UNL A   1      46.643  33.943  29.337  1.00  0.00     0.134 A 
ATOM     66  C   UNL A   1      44.438  33.411  28.624  1.00  0.00     0.134 A 
ATOM     67  F   UNL A   1      47.841  33.621  29.843  1.00  0.00    -0.206 F 
ATOM     68  C   UNL A   1      46.341  35.302  29.190  1.00  0.00     0.040 A 
ATOM     69  C   UNL A   1      44.151  34.753  28.398  1.00  0.00     0.040 A 
ATOM     70  F   UNL A   1      43.377  32.602  28.534  1.00  0.00    -0.206 F 
ATOM     71  C   UNL A   1      45.103  35.708  28.697  1.00  0.00     0.006 A 
ENDBRANCH  50  64
BRANCH  51  72
ATOM     72  C   UNL A   1      37.926  31.199  30.398  1.00  0.00     0.057 A 
ATOM     73  C   UNL A   1      37.193  30.594  31.445  1.00  0.00     0.134 A 
ATOM     74  C   UNL A   1      37.206  32.169  29.705  1.00  0.00     0.134 A 
ATOM     75  F   UNL A   1      37.687  29.537  32.106  1.00  0.00    -0.206 F 
ATOM     76  C   UNL A   1      35.947  31.063  31.896  1.00  0.00     0.040 A 
ATOM     77  C   UNL A   1      35.981  32.697  30.175  1.00  0.00     0.040 A 
ATOM     78  F   UNL A   1      37.641  32.606  28.524  1.00  0.00    -0.206 F 
ATOM     79  C   UNL A   1      35.372  32.177  31.310  1.00  0.00     0.006 A 
ENDBRANCH  51  72
BRANCH  63  80
ATOM     80  C   UNL A   1      42.463  29.422  33.882  1.00  0.00     0.057 A 
ATOM     81  C   UNL A   1      42.048  28.125  33.558  1.00  0.00     0.134 A 
ATOM     82  C   UNL A   1      42.529  29.736  35.246  1.00  0.00     0.134 A 
ATOM     83  F   UNL A   1      41.971  27.718  32.284  1.00  0.00    -0.206 F 
ATOM     84  C   UNL A   1      41.732  27.184  34.549  1.00  0.00     0.040 A 
ATOM     85  C   UNL A   1      42.239  28.802  36.242  1.00  0.00     0.040 A 
ATOM     86  F   UNL A   1      42.891  30.968  35.636  1.00  0.00    -0.206 F 
ATOM     87  C   UNL A   1      41.845  27.516  35.895  1.00  0.00     0.006 A 
ENDBRANCH  63  80
ENDBRANCH  37  38
ENDBRANCH  30  32
ENDBRANCH  29  30
ENDBRANCH  28  29
ENDBRANCH  27  28
ENDBRANCH  26  27
ENDBRANCH  25  26
ENDBRANCH  24  25
ENDBRANCH   1  24
TORSDOF 22
ENDMDL
