MODEL 1
REMARK VINA RESULT:      -9.2      0.000      0.000
REMARK SMILES Cc1ccccc1/[NH+]=C1\S[C@@H](CC(=O)Nc2ccc(C(=O)OCCOCCOCCOCCOC(=O)c3ccc(-c4c5nc(c(-c6c(F)cccc6F)c6ccc([nH]6)c(-c6c(F)cccc6F)c6nc(c(-c7c(F)cccc7F)c7ccc4[nH]7)C=C6)C=C5)cc3)cc2)C(=O)N1C
REMARK SMILES IDX 27 1 26 2 25 3 24 4 23 5 22 6 20 7 21 8 19 9 16 10 17 11
REMARK SMILES IDX 92 12 18 13 91 14 15 15 13 16 14 17 12 19 11 20 8 21 9 22
REMARK SMILES IDX 10 24 95 25 93 26 96 27 94 28 7 29 1 30 2 31 3 32 4 33 6 34
REMARK SMILES IDX 5 35 28 36 29 37 30 38 31 39 32 40 33 41 34 42 35 43 36 44
REMARK SMILES IDX 37 45 38 46 90 47 39 48 89 49 40 50 41 51 42 52 83 53 43 54
REMARK SMILES IDX 88 55 82 56 84 57 44 58 87 59 81 60 80 61 45 63 71 64 54 65
REMARK SMILES IDX 70 66 55 67 58 68 69 69 85 70 56 71 57 72 68 74 86 75 59 76
REMARK SMILES IDX 46 77 47 78 52 79 48 80 49 81 51 82 53 83 50 84 72 85 73 86
REMARK SMILES IDX 78 87 74 88 75 89 77 90 79 91 76 92 60 93 61 94 66 95 62 96
REMARK SMILES IDX 63 97 65 98 67 99 64 100
REMARK H PARENT 15 18 8 23 84 62 58 73
REMARK Flexibility Score: inf
ROOT
ATOM      1  C   UNL A   1      41.899  43.079  22.520  1.00  0.00     0.188 C 
ENDROOT
BRANCH   1   2
ATOM      2  C   UNL A   1      42.194  43.104  20.998  1.00  0.00     0.188 C 
BRANCH   2   3
ATOM      3  O   UNL A   1      41.000  43.527  20.332  1.00  0.00    -0.376 OA
BRANCH   3   4
ATOM      4  C   UNL A   1      41.059  43.567  18.925  1.00  0.00     0.202 C 
BRANCH   4   5
ATOM      5  C   UNL A   1      40.749  44.830  18.241  1.00  0.00     0.261 C 
BRANCH   5   6
ATOM      6  O   UNL A   1      41.805  45.726  18.249  1.00  0.00    -0.460 OA
BRANCH   6   7
ATOM      7  C   UNL A   1      42.604  45.553  17.191  1.00  0.00     0.338 C 
ATOM      8  O   UNL A   1      42.314  45.207  16.045  1.00  0.00    -0.246 OA
BRANCH   7   9
ATOM      9  C   UNL A   1      43.828  46.196  17.620  1.00  0.00     0.060 A 
ATOM     10  C   UNL A   1      45.841  47.764  18.565  1.00  0.00     0.041 A 
ATOM     11  C   UNL A   1      44.753  47.468  19.318  1.00  0.00     0.027 A 
ATOM     12  C   UNL A   1      45.755  47.549  17.193  1.00  0.00     0.027 A 
ATOM     13  C   UNL A   1      43.947  46.455  18.975  1.00  0.00     0.018 A 
ATOM     14  C   UNL A   1      44.668  46.818  16.703  1.00  0.00     0.018 A 
BRANCH  10  15
ATOM     15  N   UNL A   1      46.945  48.245  19.272  1.00  0.00    -0.326 N 
ATOM     16  C   UNL A   1      47.750  47.526  20.155  1.00  0.00     0.226 C 
ATOM     17  O   UNL A   1      48.563  48.147  20.845  1.00  0.00    -0.275 OA
ATOM     18  H   UNL A   1      47.179  49.191  19.132  1.00  0.00     0.169 HD
BRANCH  16  19
ATOM     19  C   UNL A   1      47.768  45.968  20.201  1.00  0.00     0.128 C 
BRANCH  19  20
ATOM     20  C   UNL A   1      46.928  45.312  21.312  1.00  0.00     0.183 C 
ATOM     21  N   UNL A   1      46.409  43.007  24.124  1.00  0.00    -0.234 N 
ATOM     22  C   UNL A   1      47.030  43.550  23.141  1.00  0.00     0.319 C 
ATOM     23  H   UNL A   1      46.045  42.117  23.913  1.00  0.00     0.313 HD
ATOM     24  S   UNL A   1      47.944  44.992  22.849  1.00  0.00    -0.022 SA
ATOM     25  N   UNL A   1      46.854  43.008  21.921  1.00  0.00    -0.193 N 
ATOM     26  C   UNL A   1      46.377  43.914  21.014  1.00  0.00     0.324 C 
ATOM     27  C   UNL A   1      47.470  41.757  21.575  1.00  0.00     0.301 C 
ATOM     28  O   UNL A   1      45.623  43.650  20.085  1.00  0.00    -0.245 OA
BRANCH  21  29
ATOM     29  C   UNL A   1      46.145  43.418  25.433  1.00  0.00     0.128 A 
ATOM     30  C   UNL A   1      46.911  41.339  26.737  1.00  0.00     0.049 C 
ATOM     31  C   UNL A   1      46.330  42.712  26.632  1.00  0.00    -0.004 A 
ATOM     32  C   UNL A   1      46.026  43.332  27.861  1.00  0.00     0.008 A 
ATOM     33  C   UNL A   1      45.703  44.682  27.933  1.00  0.00     0.001 A 
ATOM     34  C   UNL A   1      45.854  44.796  25.539  1.00  0.00     0.052 A 
ATOM     35  C   UNL A   1      45.657  45.430  26.769  1.00  0.00     0.004 A 
ENDBRANCH  21  29
ENDBRANCH  19  20
ENDBRANCH  16  19
ENDBRANCH  10  15
ENDBRANCH   7   9
ENDBRANCH   6   7
ENDBRANCH   5   6
ENDBRANCH   4   5
ENDBRANCH   3   4
ENDBRANCH   2   3
ENDBRANCH   1   2
BRANCH   1  36
ATOM     36  O   UNL A   1      42.313  41.877  23.188  1.00  0.00    -0.377 OA
BRANCH  36  37
ATOM     37  C   UNL A   1      42.388  41.726  24.612  1.00  0.00     0.188 C 
BRANCH  37  38
ATOM     38  C   UNL A   1      41.250  41.091  25.420  1.00  0.00     0.188 C 
BRANCH  38  39
ATOM     39  O   UNL A   1      41.624  39.905  26.093  1.00  0.00    -0.376 OA
BRANCH  39  40
ATOM     40  C   UNL A   1      42.459  40.102  27.225  1.00  0.00     0.202 C 
BRANCH  40  41
ATOM     41  C   UNL A   1      41.940  39.430  28.510  1.00  0.00     0.261 C 
BRANCH  41  42
ATOM     42  O   UNL A   1      42.292  38.032  28.514  1.00  0.00    -0.460 OA
BRANCH  42  43
ATOM     43  C   UNL A   1      43.519  37.721  29.022  1.00  0.00     0.338 C 
ATOM     44  O   UNL A   1      44.180  38.429  29.764  1.00  0.00    -0.246 OA
BRANCH  43  45
ATOM     45  C   UNL A   1      44.086  36.565  28.259  1.00  0.00     0.060 A 
ATOM     46  C   UNL A   1      43.261  35.925  27.329  1.00  0.00     0.016 A 
ATOM     47  C   UNL A   1      45.156  35.873  28.823  1.00  0.00     0.016 A 
ATOM     48  C   UNL A   1      43.349  34.539  27.190  1.00  0.00     0.010 A 
ATOM     49  C   UNL A   1      45.111  34.486  28.825  1.00  0.00     0.010 A 
ATOM     50  C   UNL A   1      44.171  33.794  28.058  1.00  0.00    -0.014 A 
BRANCH  50  51
ATOM     51  C   UNL A   1      43.892  32.342  28.260  1.00  0.00     0.031 A 
ATOM     52  C   UNL A   1      44.745  31.212  27.564  1.00  0.00     0.074 A 
ATOM     53  C   UNL A   1      43.057  32.123  29.311  1.00  0.00     0.049 A 
ATOM     54  N   UNL A   1      44.640  29.897  27.533  1.00  0.00    -0.248 NA
ATOM     55  C   UNL A   1      45.861  31.641  26.717  1.00  0.00     0.031 C 
ATOM     56  C   UNL A   1      43.258  32.258  30.760  1.00  0.00     0.029 A 
ATOM     57  N   UNL A   1      41.709  31.850  29.276  1.00  0.00    -0.354 N 
ATOM     58  C   UNL A   1      45.795  29.335  26.881  1.00  0.00     0.074 A 
ATOM     59  C   UNL A   1      46.427  30.501  26.329  1.00  0.00     0.031 C 
ATOM     60  C   UNL A   1      42.265  31.688  31.452  1.00  0.00     0.029 A 
ATOM     61  C   UNL A   1      41.388  31.161  30.448  1.00  0.00     0.049 A 
ATOM     62  H   UNL A   1      41.084  32.097  28.555  1.00  0.00     0.167 HD
ATOM     63  C   UNL A   1      46.217  27.999  26.890  1.00  0.00     0.037 A 
ATOM     64  C   UNL A   1      40.230  30.588  30.776  1.00  0.00     0.037 A 
ATOM     65  C   UNL A   1      45.280  27.055  27.579  1.00  0.00     0.049 A 
ATOM     66  C   UNL A   1      40.325  29.155  30.277  1.00  0.00     0.074 A 
ATOM     67  C   UNL A   1      45.479  26.053  28.527  1.00  0.00     0.029 A 
ATOM     68  N   UNL A   1      43.880  27.158  27.468  1.00  0.00    -0.354 N 
ATOM     69  N   UNL A   1      41.387  28.566  29.731  1.00  0.00    -0.248 NA
ATOM     70  C   UNL A   1      39.252  28.211  30.549  1.00  0.00     0.031 C 
ATOM     71  C   UNL A   1      44.229  25.691  29.099  1.00  0.00     0.029 A 
ATOM     72  C   UNL A   1      43.235  26.445  28.485  1.00  0.00     0.049 A 
ATOM     73  H   UNL A   1      43.415  27.667  26.766  1.00  0.00     0.167 HD
ATOM     74  C   UNL A   1      41.064  27.241  29.407  1.00  0.00     0.074 A 
ATOM     75  C   UNL A   1      39.770  27.073  30.062  1.00  0.00     0.031 C 
ATOM     76  C   UNL A   1      41.780  26.336  28.629  1.00  0.00     0.037 A 
BRANCH  63  77
ATOM     77  C   UNL A   1      47.688  27.451  26.446  1.00  0.00     0.057 A 
ATOM     78  C   UNL A   1      48.902  27.957  27.006  1.00  0.00     0.134 A 
ATOM     79  C   UNL A   1      47.991  26.463  25.478  1.00  0.00     0.134 A 
ATOM     80  F   UNL A   1      48.925  28.743  28.084  1.00  0.00    -0.206 F 
ATOM     81  C   UNL A   1      50.213  27.628  26.569  1.00  0.00     0.040 A 
ATOM     82  C   UNL A   1      49.298  26.087  25.064  1.00  0.00     0.040 A 
ATOM     83  F   UNL A   1      47.067  25.713  24.886  1.00  0.00    -0.206 F 
ATOM     84  C   UNL A   1      50.421  26.687  25.589  1.00  0.00     0.006 A 
ENDBRANCH  63  77
BRANCH  64  85
ATOM     85  C   UNL A   1      39.201  31.667  31.054  1.00  0.00     0.057 A 
ATOM     86  C   UNL A   1      39.499  32.521  32.150  1.00  0.00     0.134 A 
ATOM     87  C   UNL A   1      38.681  32.328  29.923  1.00  0.00     0.134 A 
ATOM     88  F   UNL A   1      39.939  31.996  33.304  1.00  0.00    -0.206 F 
ATOM     89  C   UNL A   1      39.612  33.919  32.004  1.00  0.00     0.040 A 
ATOM     90  C   UNL A   1      38.813  33.725  29.760  1.00  0.00     0.040 A 
ATOM     91  F   UNL A   1      38.358  31.618  28.833  1.00  0.00    -0.206 F 
ATOM     92  C   UNL A   1      39.345  34.513  30.777  1.00  0.00     0.006 A 
ENDBRANCH  64  85
BRANCH  76  93
ATOM     93  C   UNL A   1      41.204  25.075  27.943  1.00  0.00     0.057 A 
ATOM     94  C   UNL A   1      41.467  23.757  28.331  1.00  0.00     0.134 A 
ATOM     95  C   UNL A   1      40.170  25.175  26.959  1.00  0.00     0.134 A 
ATOM     96  F   UNL A   1      42.301  23.458  29.332  1.00  0.00    -0.206 F 
ATOM     97  C   UNL A   1      40.812  22.649  27.768  1.00  0.00     0.040 A 
ATOM     98  C   UNL A   1      39.482  24.082  26.428  1.00  0.00     0.040 A 
ATOM     99  F   UNL A   1      39.705  26.337  26.488  1.00  0.00    -0.206 F 
ATOM    100  C   UNL A   1      39.806  22.807  26.828  1.00  0.00     0.006 A 
ENDBRANCH  76  93
ENDBRANCH  50  51
ENDBRANCH  43  45
ENDBRANCH  42  43
ENDBRANCH  41  42
ENDBRANCH  40  41
ENDBRANCH  39  40
ENDBRANCH  38  39
ENDBRANCH  37  38
ENDBRANCH  36  37
ENDBRANCH   1  36
TORSDOF 24
ENDMDL
MODEL 2
REMARK VINA RESULT:      -9.2      1.988      2.802
REMARK SMILES Cc1ccccc1/[NH+]=C1\S[C@@H](CC(=O)Nc2ccc(C(=O)OCCOCCOCCOCCOC(=O)c3ccc(-c4c5nc(c(-c6c(F)cccc6F)c6ccc([nH]6)c(-c6c(F)cccc6F)c6nc(c(-c7c(F)cccc7F)c7ccc4[nH]7)C=C6)C=C5)cc3)cc2)C(=O)N1C
REMARK SMILES IDX 27 1 26 2 25 3 24 4 23 5 22 6 20 7 21 8 19 9 16 10 17 11
REMARK SMILES IDX 92 12 18 13 91 14 15 15 13 16 14 17 12 19 11 20 8 21 9 22
REMARK SMILES IDX 10 24 95 25 93 26 96 27 94 28 7 29 1 30 2 31 3 32 4 33 6 34
REMARK SMILES IDX 5 35 28 36 29 37 30 38 31 39 32 40 33 41 34 42 35 43 36 44
REMARK SMILES IDX 37 45 38 46 90 47 39 48 89 49 40 50 41 51 42 52 83 53 43 54
REMARK SMILES IDX 88 55 82 56 84 57 44 58 87 59 81 60 80 61 45 63 71 64 54 65
REMARK SMILES IDX 70 66 55 67 58 68 69 69 85 70 56 71 57 72 68 74 86 75 59 76
REMARK SMILES IDX 46 77 47 78 52 79 48 80 49 81 51 82 53 83 50 84 72 85 73 86
REMARK SMILES IDX 78 87 74 88 75 89 77 90 79 91 76 92 60 93 61 94 66 95 62 96
REMARK SMILES IDX 63 97 65 98 67 99 64 100
REMARK H PARENT 15 18 8 23 84 62 58 73
REMARK Flexibility Score: inf
ROOT
ATOM      1  C   UNL A   1      42.054  42.966  22.709  1.00  0.00     0.188 C 
ENDROOT
BRANCH   1   2
ATOM      2  C   UNL A   1      42.382  42.946  21.194  1.00  0.00     0.188 C 
BRANCH   2   3
ATOM      3  O   UNL A   1      41.332  43.639  20.513  1.00  0.00    -0.376 OA
BRANCH   3   4
ATOM      4  C   UNL A   1      41.414  43.660  19.107  1.00  0.00     0.202 C 
BRANCH   4   5
ATOM      5  C   UNL A   1      40.638  44.665  18.369  1.00  0.00     0.261 C 
BRANCH   5   6
ATOM      6  O   UNL A   1      41.318  45.860  18.197  1.00  0.00    -0.460 OA
BRANCH   6   7
ATOM      7  C   UNL A   1      41.901  45.923  16.996  1.00  0.00     0.338 C 
ATOM      8  O   UNL A   1      41.641  45.293  15.970  1.00  0.00    -0.246 OA
BRANCH   7   9
ATOM      9  C   UNL A   1      42.678  47.141  17.092  1.00  0.00     0.060 A 
ATOM     10  C   UNL A   1      43.850  49.533  17.647  1.00  0.00     0.041 A 
ATOM     11  C   UNL A   1      43.667  48.588  18.603  1.00  0.00     0.027 A 
ATOM     12  C   UNL A   1      43.122  49.407  16.469  1.00  0.00     0.027 A 
ATOM     13  C   UNL A   1      43.398  47.321  18.261  1.00  0.00     0.018 A 
ATOM     14  C   UNL A   1      42.446  48.206  16.230  1.00  0.00     0.018 A 
BRANCH  10  15
ATOM     15  N   UNL A   1      44.775  50.530  17.961  1.00  0.00    -0.326 N 
ATOM     16  C   UNL A   1      46.160  50.386  18.052  1.00  0.00     0.226 C 
ATOM     17  O   UNL A   1      46.815  51.317  18.530  1.00  0.00    -0.275 OA
ATOM     18  H   UNL A   1      44.413  51.428  18.137  1.00  0.00     0.169 HD
BRANCH  16  19
ATOM     19  C   UNL A   1      46.923  49.170  17.446  1.00  0.00     0.128 C 
BRANCH  19  20
ATOM     20  C   UNL A   1      47.208  48.000  18.406  1.00  0.00     0.183 C 
ATOM     21  N   UNL A   1      49.356  45.452  19.949  1.00  0.00    -0.234 N 
ATOM     22  C   UNL A   1      49.032  46.386  19.131  1.00  0.00     0.319 C 
ATOM     23  H   UNL A   1      49.353  44.556  19.540  1.00  0.00     0.313 HD
ATOM     24  S   UNL A   1      48.921  48.115  19.146  1.00  0.00    -0.022 SA
ATOM     25  N   UNL A   1      48.461  46.020  17.967  1.00  0.00    -0.193 N 
ATOM     26  C   UNL A   1      47.236  46.601  17.785  1.00  0.00     0.324 C 
ATOM     27  C   UNL A   1      49.242  45.421  16.921  1.00  0.00     0.301 C 
ATOM     28  O   UNL A   1      46.293  46.083  17.199  1.00  0.00    -0.245 OA
BRANCH  21  29
ATOM     29  C   UNL A   1      49.713  45.445  21.299  1.00  0.00     0.128 A 
ATOM     30  C   UNL A   1      51.804  43.951  21.219  1.00  0.00     0.049 C 
ATOM     31  C   UNL A   1      50.780  44.781  21.924  1.00  0.00    -0.004 A 
ATOM     32  C   UNL A   1      50.984  44.936  23.311  1.00  0.00     0.008 A 
ATOM     33  C   UNL A   1      50.257  45.860  24.052  1.00  0.00     0.001 A 
ATOM     34  C   UNL A   1      49.018  46.404  22.068  1.00  0.00     0.052 A 
ATOM     35  C   UNL A   1      49.296  46.630  23.419  1.00  0.00     0.004 A 
ENDBRANCH  21  29
ENDBRANCH  19  20
ENDBRANCH  16  19
ENDBRANCH  10  15
ENDBRANCH   7   9
ENDBRANCH   6   7
ENDBRANCH   5   6
ENDBRANCH   4   5
ENDBRANCH   3   4
ENDBRANCH   2   3
ENDBRANCH   1   2
BRANCH   1  36
ATOM     36  O   UNL A   1      42.335  41.736  23.396  1.00  0.00    -0.377 OA
BRANCH  36  37
ATOM     37  C   UNL A   1      42.377  41.596  24.822  1.00  0.00     0.188 C 
BRANCH  37  38
ATOM     38  C   UNL A   1      41.186  41.050  25.619  1.00  0.00     0.188 C 
BRANCH  38  39
ATOM     39  O   UNL A   1      41.479  39.875  26.346  1.00  0.00    -0.376 OA
BRANCH  39  40
ATOM     40  C   UNL A   1      42.213  40.084  27.545  1.00  0.00     0.202 C 
BRANCH  40  41
ATOM     41  C   UNL A   1      41.668  39.305  28.756  1.00  0.00     0.261 C 
BRANCH  41  42
ATOM     42  O   UNL A   1      42.171  37.953  28.742  1.00  0.00    -0.460 OA
BRANCH  42  43
ATOM     43  C   UNL A   1      43.456  37.784  29.164  1.00  0.00     0.338 C 
ATOM     44  O   UNL A   1      44.102  38.592  29.812  1.00  0.00    -0.246 OA
BRANCH  43  45
ATOM     45  C   UNL A   1      44.070  36.640  28.420  1.00  0.00     0.060 A 
ATOM     46  C   UNL A   1      43.302  36.012  27.433  1.00  0.00     0.016 A 
ATOM     47  C   UNL A   1      45.106  35.941  29.037  1.00  0.00     0.016 A 
ATOM     48  C   UNL A   1      43.400  34.629  27.280  1.00  0.00     0.010 A 
ATOM     49  C   UNL A   1      45.063  34.554  29.016  1.00  0.00     0.010 A 
ATOM     50  C   UNL A   1      44.171  33.872  28.185  1.00  0.00    -0.014 A 
BRANCH  50  51
ATOM     51  C   UNL A   1      43.883  32.417  28.349  1.00  0.00     0.031 A 
ATOM     52  C   UNL A   1      44.684  31.303  27.570  1.00  0.00     0.074 A 
ATOM     53  C   UNL A   1      43.100  32.170  29.433  1.00  0.00     0.049 A 
ATOM     54  N   UNL A   1      44.559  29.992  27.497  1.00  0.00    -0.248 NA
ATOM     55  C   UNL A   1      45.760  31.749  26.682  1.00  0.00     0.031 C 
ATOM     56  C   UNL A   1      43.378  32.250  30.874  1.00  0.00     0.029 A 
ATOM     57  N   UNL A   1      41.749  31.914  29.459  1.00  0.00    -0.354 N 
ATOM     58  C   UNL A   1      45.671  29.440  26.766  1.00  0.00     0.074 A 
ATOM     59  C   UNL A   1      46.290  30.618  26.224  1.00  0.00     0.031 C 
ATOM     60  C   UNL A   1      42.414  31.666  31.596  1.00  0.00     0.029 A 
ATOM     61  C   UNL A   1      41.480  31.186  30.621  1.00  0.00     0.049 A 
ATOM     62  H   UNL A   1      41.090  32.194  28.781  1.00  0.00     0.167 HD
ATOM     63  C   UNL A   1      46.075  28.100  26.706  1.00  0.00     0.037 A 
ATOM     64  C   UNL A   1      40.333  30.616  30.988  1.00  0.00     0.037 A 
ATOM     65  C   UNL A   1      45.163  27.143  27.409  1.00  0.00     0.049 A 
ATOM     66  C   UNL A   1      40.382  29.200  30.434  1.00  0.00     0.074 A 
ATOM     67  C   UNL A   1      45.396  26.104  28.308  1.00  0.00     0.029 A 
ATOM     68  N   UNL A   1      43.760  27.266  27.375  1.00  0.00    -0.354 N 
ATOM     69  N   UNL A   1      41.407  28.619  29.813  1.00  0.00    -0.248 NA
ATOM     70  C   UNL A   1      39.311  28.260  30.728  1.00  0.00     0.031 C 
ATOM     71  C   UNL A   1      44.173  25.737  28.932  1.00  0.00     0.029 A 
ATOM     72  C   UNL A   1      43.159  26.524  28.397  1.00  0.00     0.049 A 
ATOM     73  H   UNL A   1      43.266  27.805  26.717  1.00  0.00     0.167 HD
ATOM     74  C   UNL A   1      41.050  27.311  29.459  1.00  0.00     0.074 A 
ATOM     75  C   UNL A   1      39.788  27.134  30.174  1.00  0.00     0.031 C 
ATOM     76  C   UNL A   1      41.712  26.426  28.614  1.00  0.00     0.037 A 
BRANCH  63  77
ATOM     77  C   UNL A   1      47.514  27.551  26.167  1.00  0.00     0.057 A 
ATOM     78  C   UNL A   1      47.630  26.617  25.090  1.00  0.00     0.134 A 
ATOM     79  C   UNL A   1      48.803  27.868  26.658  1.00  0.00     0.134 A 
ATOM     80  F   UNL A   1      46.603  26.298  24.299  1.00  0.00    -0.206 F 
ATOM     81  C   UNL A   1      48.833  25.994  24.664  1.00  0.00     0.040 A 
ATOM     82  C   UNL A   1      50.022  27.289  26.208  1.00  0.00     0.040 A 
ATOM     83  F   UNL A   1      49.028  28.813  27.565  1.00  0.00    -0.206 F 
ATOM     84  C   UNL A   1      50.043  26.327  25.224  1.00  0.00     0.006 A 
ENDBRANCH  63  77
BRANCH  64  85
ATOM     85  C   UNL A   1      39.334  31.696  31.358  1.00  0.00     0.057 A 
ATOM     86  C   UNL A   1      38.265  31.874  30.438  1.00  0.00     0.134 A 
ATOM     87  C   UNL A   1      38.950  31.742  32.714  1.00  0.00     0.134 A 
ATOM     88  F   UNL A   1      38.520  31.913  29.121  1.00  0.00    -0.206 F 
ATOM     89  C   UNL A   1      36.914  31.744  30.819  1.00  0.00     0.040 A 
ATOM     90  C   UNL A   1      37.601  31.588  33.104  1.00  0.00     0.040 A 
ATOM     91  F   UNL A   1      39.879  31.592  33.668  1.00  0.00    -0.206 F 
ATOM     92  C   UNL A   1      36.588  31.519  32.151  1.00  0.00     0.006 A 
ENDBRANCH  64  85
BRANCH  76  93
ATOM     93  C   UNL A   1      41.084  25.199  27.914  1.00  0.00     0.057 A 
ATOM     94  C   UNL A   1      41.369  23.863  28.223  1.00  0.00     0.134 A 
ATOM     95  C   UNL A   1      39.984  25.343  27.010  1.00  0.00     0.134 A 
ATOM     96  F   UNL A   1      42.269  23.519  29.149  1.00  0.00    -0.206 F 
ATOM     97  C   UNL A   1      40.671  22.782  27.658  1.00  0.00     0.040 A 
ATOM     98  C   UNL A   1      39.256  24.276  26.480  1.00  0.00     0.040 A 
ATOM     99  F   UNL A   1      39.492  26.526  26.625  1.00  0.00    -0.206 F 
ATOM    100  C   UNL A   1      39.602  22.984  26.800  1.00  0.00     0.006 A 
ENDBRANCH  76  93
ENDBRANCH  50  51
ENDBRANCH  43  45
ENDBRANCH  42  43
ENDBRANCH  41  42
ENDBRANCH  40  41
ENDBRANCH  39  40
ENDBRANCH  38  39
ENDBRANCH  37  38
ENDBRANCH  36  37
ENDBRANCH   1  36
TORSDOF 24
ENDMDL
MODEL 3
REMARK VINA RESULT:      -9.1      6.983     16.443
REMARK SMILES Cc1ccccc1/[NH+]=C1\S[C@@H](CC(=O)Nc2ccc(C(=O)OCCOCCOCCOCCOC(=O)c3ccc(-c4c5nc(c(-c6c(F)cccc6F)c6ccc([nH]6)c(-c6c(F)cccc6F)c6nc(c(-c7c(F)cccc7F)c7ccc4[nH]7)C=C6)C=C5)cc3)cc2)C(=O)N1C
REMARK SMILES IDX 27 1 26 2 25 3 24 4 23 5 22 6 20 7 21 8 19 9 16 10 17 11
REMARK SMILES IDX 92 12 18 13 91 14 15 15 13 16 14 17 12 19 11 20 8 21 9 22
REMARK SMILES IDX 10 24 95 25 93 26 96 27 94 28 7 29 1 30 2 31 3 32 4 33 6 34
REMARK SMILES IDX 5 35 28 36 29 37 30 38 31 39 32 40 33 41 34 42 35 43 36 44
REMARK SMILES IDX 37 45 38 46 90 47 39 48 89 49 40 50 41 51 42 52 83 53 43 54
REMARK SMILES IDX 88 55 82 56 84 57 44 58 87 59 81 60 80 61 45 63 71 64 54 65
REMARK SMILES IDX 70 66 55 67 58 68 69 69 85 70 56 71 57 72 68 74 86 75 59 76
REMARK SMILES IDX 46 77 47 78 52 79 48 80 49 81 51 82 53 83 50 84 72 85 73 86
REMARK SMILES IDX 78 87 74 88 75 89 77 90 79 91 76 92 60 93 61 94 66 95 62 96
REMARK SMILES IDX 63 97 65 98 67 99 64 100
REMARK H PARENT 15 18 8 23 84 62 58 73
REMARK Flexibility Score: inf
ROOT
ATOM      1  C   UNL A   1      40.473  29.771  30.643  1.00  0.00     0.188 C 
ENDROOT
BRANCH   1   2
ATOM      2  C   UNL A   1      40.070  30.318  32.036  1.00  0.00     0.188 C 
BRANCH   2   3
ATOM      3  O   UNL A   1      38.684  30.668  31.980  1.00  0.00    -0.376 OA
BRANCH   3   4
ATOM      4  C   UNL A   1      37.861  29.819  31.215  1.00  0.00     0.202 C 
BRANCH   4   5
ATOM      5  C   UNL A   1      36.719  30.401  30.497  1.00  0.00     0.261 C 
BRANCH   5   6
ATOM      6  O   UNL A   1      37.097  31.276  29.492  1.00  0.00    -0.460 OA
BRANCH   6   7
ATOM      7  C   UNL A   1      37.349  30.631  28.349  1.00  0.00     0.338 C 
ATOM      8  O   UNL A   1      38.382  30.067  27.985  1.00  0.00    -0.246 OA
BRANCH   7   9
ATOM      9  C   UNL A   1      36.024  30.459  27.791  1.00  0.00     0.060 A 
ATOM     10  C   UNL A   1      33.380  30.258  27.183  1.00  0.00     0.041 A 
ATOM     11  C   UNL A   1      33.895  31.367  27.769  1.00  0.00     0.027 A 
ATOM     12  C   UNL A   1      34.144  29.096  27.218  1.00  0.00     0.027 A 
ATOM     13  C   UNL A   1      35.218  31.584  27.762  1.00  0.00     0.018 A 
ATOM     14  C   UNL A   1      35.481  29.191  27.618  1.00  0.00     0.018 A 
BRANCH  10  15
ATOM     15  N   UNL A   1      32.125  30.421  26.594  1.00  0.00    -0.326 N 
ATOM     16  C   UNL A   1      31.760  30.066  25.295  1.00  0.00     0.226 C 
ATOM     17  O   UNL A   1      30.670  30.455  24.866  1.00  0.00    -0.275 OA
ATOM     18  H   UNL A   1      31.425  30.829  27.153  1.00  0.00     0.169 HD
BRANCH  16  19
ATOM     19  C   UNL A   1      32.598  29.084  24.422  1.00  0.00     0.128 C 
BRANCH  19  20
ATOM     20  C   UNL A   1      32.192  27.601  24.488  1.00  0.00     0.183 C 
ATOM     21  N   UNL A   1      32.524  24.051  23.606  1.00  0.00    -0.234 N 
ATOM     22  C   UNL A   1      32.767  25.309  23.551  1.00  0.00     0.319 C 
ATOM     23  H   UNL A   1      31.983  23.724  22.851  1.00  0.00     0.313 HD
ATOM     24  S   UNL A   1      33.683  26.472  24.451  1.00  0.00    -0.022 SA
ATOM     25  N   UNL A   1      32.041  26.044  22.688  1.00  0.00    -0.193 N 
ATOM     26  C   UNL A   1      31.374  27.065  23.309  1.00  0.00     0.324 C 
ATOM     27  C   UNL A   1      32.281  25.970  21.274  1.00  0.00     0.301 C 
ATOM     28  O   UNL A   1      30.281  27.502  22.968  1.00  0.00    -0.245 OA
BRANCH  21  29
ATOM     29  C   UNL A   1      32.868  23.049  24.516  1.00  0.00     0.128 A 
ATOM     30  C   UNL A   1      31.211  23.556  26.416  1.00  0.00     0.049 C 
ATOM     31  C   UNL A   1      32.332  22.792  25.788  1.00  0.00    -0.004 A 
ATOM     32  C   UNL A   1      32.807  21.697  26.538  1.00  0.00     0.008 A 
ATOM     33  C   UNL A   1      33.675  20.762  25.987  1.00  0.00     0.001 A 
ATOM     34  C   UNL A   1      33.719  22.063  23.969  1.00  0.00     0.052 A 
ATOM     35  C   UNL A   1      34.102  20.922  24.680  1.00  0.00     0.004 A 
ENDBRANCH  21  29
ENDBRANCH  19  20
ENDBRANCH  16  19
ENDBRANCH  10  15
ENDBRANCH   7   9
ENDBRANCH   6   7
ENDBRANCH   5   6
ENDBRANCH   4   5
ENDBRANCH   3   4
ENDBRANCH   2   3
ENDBRANCH   1   2
BRANCH   1  36
ATOM     36  O   UNL A   1      41.404  28.678  30.678  1.00  0.00    -0.377 OA
BRANCH  36  37
ATOM     37  C   UNL A   1      42.764  28.757  30.234  1.00  0.00     0.188 C 
BRANCH  37  38
ATOM     38  C   UNL A   1      43.828  27.753  30.694  1.00  0.00     0.188 C 
BRANCH  38  39
ATOM     39  O   UNL A   1      45.013  27.788  29.924  1.00  0.00    -0.376 OA
BRANCH  39  40
ATOM     40  C   UNL A   1      44.899  27.215  28.629  1.00  0.00     0.202 C 
BRANCH  40  41
ATOM     41  C   UNL A   1      45.430  28.115  27.498  1.00  0.00     0.261 C 
BRANCH  41  42
ATOM     42  O   UNL A   1      45.155  29.499  27.796  1.00  0.00    -0.460 OA
BRANCH  42  43
ATOM     43  C   UNL A   1      44.351  30.157  26.913  1.00  0.00     0.338 C 
ATOM     44  O   UNL A   1      43.571  29.632  26.136  1.00  0.00    -0.246 OA
BRANCH  43  45
ATOM     45  C   UNL A   1      44.822  31.572  26.783  1.00  0.00     0.060 A 
ATOM     46  C   UNL A   1      45.830  32.010  27.648  1.00  0.00     0.016 A 
ATOM     47  C   UNL A   1      43.952  32.499  26.212  1.00  0.00     0.016 A 
ATOM     48  C   UNL A   1      45.778  33.314  28.139  1.00  0.00     0.010 A 
ATOM     49  C   UNL A   1      43.793  33.724  26.845  1.00  0.00     0.010 A 
ATOM     50  C   UNL A   1      44.663  34.130  27.859  1.00  0.00    -0.014 A 
BRANCH  50  51
ATOM     51  C   UNL A   1      44.356  35.280  28.760  1.00  0.00     0.031 A 
ATOM     52  C   UNL A   1      44.597  36.778  28.328  1.00  0.00     0.074 A 
ATOM     53  C   UNL A   1      43.589  34.910  29.819  1.00  0.00     0.049 A 
ATOM     54  N   UNL A   1      44.477  37.927  28.966  1.00  0.00    -0.248 NA
ATOM     55  C   UNL A   1      45.117  37.013  26.979  1.00  0.00     0.031 C 
ATOM     56  C   UNL A   1      42.180  34.501  29.906  1.00  0.00     0.029 A 
ATOM     57  N   UNL A   1      43.992  34.671  31.112  1.00  0.00    -0.354 N 
ATOM     58  C   UNL A   1      44.664  39.015  28.041  1.00  0.00     0.074 A 
ATOM     59  C   UNL A   1      45.154  38.338  26.873  1.00  0.00     0.031 C 
ATOM     60  C   UNL A   1      41.749  34.478  31.172  1.00  0.00     0.029 A 
ATOM     61  C   UNL A   1      42.889  34.880  31.943  1.00  0.00     0.049 A 
ATOM     62  H   UNL A   1      44.895  34.401  31.400  1.00  0.00     0.167 HD
ATOM     63  C   UNL A   1      44.342  40.366  28.233  1.00  0.00     0.037 A 
ATOM     64  C   UNL A   1      42.851  34.890  33.275  1.00  0.00     0.037 A 
ATOM     65  C   UNL A   1      43.845  40.699  29.606  1.00  0.00     0.049 A 
ATOM     66  C   UNL A   1      43.094  36.334  33.683  1.00  0.00     0.074 A 
ATOM     67  C   UNL A   1      42.753  41.434  30.062  1.00  0.00     0.029 A 
ATOM     68  N   UNL A   1      44.388  40.123  30.770  1.00  0.00    -0.354 N 
ATOM     69  N   UNL A   1      43.205  37.386  32.875  1.00  0.00    -0.248 NA
ATOM     70  C   UNL A   1      43.032  36.721  35.085  1.00  0.00     0.031 C 
ATOM     71  C   UNL A   1      42.542  41.160  31.440  1.00  0.00     0.029 A 
ATOM     72  C   UNL A   1      43.526  40.274  31.862  1.00  0.00     0.049 A 
ATOM     73  H   UNL A   1      45.262  39.671  30.811  1.00  0.00     0.167 HD
ATOM     74  C   UNL A   1      43.425  38.537  33.643  1.00  0.00     0.074 A 
ATOM     75  C   UNL A   1      43.177  38.052  34.998  1.00  0.00     0.031 C 
ATOM     76  C   UNL A   1      43.816  39.804  33.221  1.00  0.00     0.037 A 
BRANCH  63  77
ATOM     77  C   UNL A   1      44.238  41.506  27.069  1.00  0.00     0.057 A 
ATOM     78  C   UNL A   1      43.430  41.346  25.902  1.00  0.00     0.134 A 
ATOM     79  C   UNL A   1      44.907  42.752  27.014  1.00  0.00     0.134 A 
ATOM     80  F   UNL A   1      42.529  40.369  25.777  1.00  0.00    -0.206 F 
ATOM     81  C   UNL A   1      43.401  42.229  24.790  1.00  0.00     0.040 A 
ATOM     82  C   UNL A   1      44.851  43.670  25.930  1.00  0.00     0.040 A 
ATOM     83  F   UNL A   1      45.623  43.243  28.021  1.00  0.00    -0.206 F 
ATOM     84  C   UNL A   1      44.117  43.403  24.796  1.00  0.00     0.006 A 
ENDBRANCH  63  77
BRANCH  64  85
ATOM     85  C   UNL A   1      43.050  33.477  33.790  1.00  0.00     0.057 A 
ATOM     86  C   UNL A   1      44.304  33.229  34.411  1.00  0.00     0.134 A 
ATOM     87  C   UNL A   1      41.947  32.901  34.454  1.00  0.00     0.134 A 
ATOM     88  F   UNL A   1      45.432  33.672  33.834  1.00  0.00    -0.206 F 
ATOM     89  C   UNL A   1      44.409  32.772  35.740  1.00  0.00     0.040 A 
ATOM     90  C   UNL A   1      42.039  32.464  35.794  1.00  0.00     0.040 A 
ATOM     91  F   UNL A   1      40.715  33.066  33.952  1.00  0.00    -0.206 F 
ATOM     92  C   UNL A   1      43.261  32.466  36.462  1.00  0.00     0.006 A 
ENDBRANCH  64  85
BRANCH  76  93
ATOM     93  C   UNL A   1      44.463  40.896  34.106  1.00  0.00     0.057 A 
ATOM     94  C   UNL A   1      45.840  41.089  34.265  1.00  0.00     0.134 A 
ATOM     95  C   UNL A   1      43.679  41.943  34.683  1.00  0.00     0.134 A 
ATOM     96  F   UNL A   1      46.747  40.297  33.685  1.00  0.00    -0.206 F 
ATOM     97  C   UNL A   1      46.383  42.179  34.967  1.00  0.00     0.040 A 
ATOM     98  C   UNL A   1      44.211  43.053  35.342  1.00  0.00     0.040 A 
ATOM     99  F   UNL A   1      42.345  42.004  34.596  1.00  0.00    -0.206 F 
ATOM    100  C   UNL A   1      45.573  43.173  35.491  1.00  0.00     0.006 A 
ENDBRANCH  76  93
ENDBRANCH  50  51
ENDBRANCH  43  45
ENDBRANCH  42  43
ENDBRANCH  41  42
ENDBRANCH  40  41
ENDBRANCH  39  40
ENDBRANCH  38  39
ENDBRANCH  37  38
ENDBRANCH  36  37
ENDBRANCH   1  36
TORSDOF 24
ENDMDL
