MODEL 1
REMARK VINA RESULT:      -9.3      0.000      0.000
REMARK SMILES CCCC1C[NH+]([C@H](CC(=O)OCCOCCOCCOCCOC(=O)c2ccc(-c3c4nc(c(-c5c(F)cccc5F)c5ccc([nH]5)c(-c5c(F)cccc5F)c5nc(c(-c6c(F)cccc6F)c6ccc3[nH]6)C=C5)C=C4)cc2)c2ccccc2)C1
REMARK SMILES IDX 16 1 15 2 14 3 13 4 12 5 11 6 9 7 10 8 8 9 7 10 6 11 4 12
REMARK SMILES IDX 5 13 86 14 3 16 2 17 1 18 80 19 81 20 85 21 82 22 84 23
REMARK SMILES IDX 83 24 17 25 18 26 19 27 20 28 21 29 22 30 23 31 24 32 25 33
REMARK SMILES IDX 26 34 27 35 79 36 28 37 78 38 29 39 30 40 31 41 72 42 32 43
REMARK SMILES IDX 77 44 71 45 73 46 33 47 76 48 70 49 69 50 34 52 60 53 43 54
REMARK SMILES IDX 59 55 44 56 47 57 58 58 74 59 45 60 46 61 57 63 75 64 48 65
REMARK SMILES IDX 35 66 36 67 41 68 37 69 38 70 40 71 42 72 39 73 61 74 62 75
REMARK SMILES IDX 67 76 63 77 64 78 66 79 68 80 65 81 49 82 50 83 55 84 51 85
REMARK SMILES IDX 52 86 54 87 56 88 53 89
REMARK H PARENT 6 15 73 51 47 62
REMARK Flexibility Score: inf
ROOT
ATOM      1  C   UNL A   1      34.209  22.711  26.204  1.00  0.00     0.188 C 
ENDROOT
BRANCH   1   2
ATOM      2  C   UNL A   1      32.820  23.093  26.724  1.00  0.00     0.188 C 
BRANCH   2   3
ATOM      3  O   UNL A   1      31.704  22.996  25.862  1.00  0.00    -0.376 OA
BRANCH   3   4
ATOM      4  C   UNL A   1      31.814  22.330  24.613  1.00  0.00     0.202 C 
BRANCH   4   5
ATOM      5  C   UNL A   1      32.056  23.042  23.267  1.00  0.00     0.261 C 
BRANCH   5   6
ATOM      6  O   UNL A   1      32.039  24.480  23.274  1.00  0.00    -0.463 OA
BRANCH   6   7
ATOM      7  C   UNL A   1      32.471  25.093  22.152  1.00  0.00     0.312 C 
ATOM      8  O   UNL A   1      33.128  24.525  21.279  1.00  0.00    -0.252 OA
BRANCH   7   9
ATOM      9  C   UNL A   1      32.038  26.531  21.948  1.00  0.00     0.192 C 
BRANCH   9  10
ATOM     10  C   UNL A   1      31.738  27.497  23.115  1.00  0.00     0.226 C 
BRANCH  10  11
ATOM     11  N   UNL A   1      32.951  28.123  23.651  1.00  0.00    -0.327 N 
ATOM     12  C   UNL A   1      33.898  28.646  25.458  1.00  0.00     0.099 C 
ATOM     13  C   UNL A   1      33.628  27.334  24.673  1.00  0.00     0.272 C 
ATOM     14  C   UNL A   1      32.852  29.300  24.495  1.00  0.00     0.272 C 
ATOM     15  H   UNL A   1      33.380  28.281  22.739  1.00  0.00     0.348 HD
BRANCH  12  16
ATOM     16  C   UNL A   1      33.610  28.730  26.956  1.00  0.00     0.015 C 
BRANCH  16  17
ATOM     17  C   UNL A   1      34.525  29.703  27.703  1.00  0.00    -0.003 C 
ATOM     18  C   UNL A   1      36.002  29.355  27.617  1.00  0.00     0.004 C 
ENDBRANCH  16  17
ENDBRANCH  12  16
ENDBRANCH  10  11
BRANCH  10  19
ATOM     19  C   UNL A   1      30.442  28.297  22.821  1.00  0.00     0.010 A 
ATOM     20  C   UNL A   1      30.363  29.499  22.110  1.00  0.00     0.010 A 
ATOM     21  C   UNL A   1      29.222  27.796  23.335  1.00  0.00     0.010 A 
ATOM     22  C   UNL A   1      29.148  30.167  21.907  1.00  0.00     0.001 A 
ATOM     23  C   UNL A   1      28.001  28.448  23.121  1.00  0.00     0.001 A 
ATOM     24  C   UNL A   1      27.965  29.637  22.406  1.00  0.00     0.000 A 
ENDBRANCH  10  19
ENDBRANCH   9  10
ENDBRANCH   7   9
ENDBRANCH   6   7
ENDBRANCH   5   6
ENDBRANCH   4   5
ENDBRANCH   3   4
ENDBRANCH   2   3
ENDBRANCH   1   2
BRANCH   1  25
ATOM     25  O   UNL A   1      35.019  23.763  25.727  1.00  0.00    -0.377 OA
BRANCH  25  26
ATOM     26  C   UNL A   1      36.410  23.552  25.526  1.00  0.00     0.188 C 
BRANCH  26  27
ATOM     27  C   UNL A   1      36.934  22.992  24.190  1.00  0.00     0.188 C 
BRANCH  27  28
ATOM     28  O   UNL A   1      37.056  21.581  24.138  1.00  0.00    -0.376 OA
BRANCH  28  29
ATOM     29  C   UNL A   1      37.309  20.867  25.339  1.00  0.00     0.202 C 
BRANCH  29  30
ATOM     30  C   UNL A   1      38.566  19.986  25.409  1.00  0.00     0.261 C 
BRANCH  30  31
ATOM     31  O   UNL A   1      39.820  20.668  25.578  1.00  0.00    -0.460 OA
BRANCH  31  32
ATOM     32  C   UNL A   1      40.415  20.619  26.785  1.00  0.00     0.338 C 
ATOM     33  O   UNL A   1      40.828  19.630  27.370  1.00  0.00    -0.246 OA
BRANCH  32  34
ATOM     34  C   UNL A   1      40.661  22.006  27.226  1.00  0.00     0.060 A 
ATOM     35  C   UNL A   1      39.959  23.048  26.606  1.00  0.00     0.016 A 
ATOM     36  C   UNL A   1      41.594  22.278  28.229  1.00  0.00     0.016 A 
ATOM     37  C   UNL A   1      40.222  24.372  26.959  1.00  0.00     0.010 A 
ATOM     38  C   UNL A   1      41.871  23.606  28.566  1.00  0.00     0.010 A 
ATOM     39  C   UNL A   1      41.214  24.659  27.904  1.00  0.00    -0.014 A 
BRANCH  39  40
ATOM     40  C   UNL A   1      41.703  26.051  28.053  1.00  0.00     0.031 A 
ATOM     41  C   UNL A   1      43.062  26.395  27.504  1.00  0.00     0.074 A 
ATOM     42  C   UNL A   1      40.953  27.002  28.638  1.00  0.00     0.049 A 
ATOM     43  N   UNL A   1      43.722  27.523  27.558  1.00  0.00    -0.248 NA
ATOM     44  C   UNL A   1      43.772  25.314  26.800  1.00  0.00     0.031 C 
ATOM     45  C   UNL A   1      39.604  26.808  29.166  1.00  0.00     0.029 A 
ATOM     46  N   UNL A   1      41.229  28.322  28.890  1.00  0.00    -0.354 N 
ATOM     47  C   UNL A   1      44.926  27.285  26.906  1.00  0.00     0.074 A 
ATOM     48  C   UNL A   1      44.919  25.900  26.493  1.00  0.00     0.031 C 
ATOM     49  C   UNL A   1      39.175  27.969  29.694  1.00  0.00     0.029 A 
ATOM     50  C   UNL A   1      40.231  28.973  29.572  1.00  0.00     0.049 A 
ATOM     51  H   UNL A   1      42.065  28.761  28.609  1.00  0.00     0.167 HD
ATOM     52  C   UNL A   1      45.943  28.147  26.665  1.00  0.00     0.037 A 
ATOM     53  C   UNL A   1      40.188  30.227  30.064  1.00  0.00     0.037 A 
ATOM     54  C   UNL A   1      45.949  29.525  27.081  1.00  0.00     0.049 A 
ATOM     55  C   UNL A   1      41.367  31.144  29.856  1.00  0.00     0.074 A 
ATOM     56  C   UNL A   1      46.924  30.484  26.872  1.00  0.00     0.029 A 
ATOM     57  N   UNL A   1      44.933  30.137  27.800  1.00  0.00    -0.354 N 
ATOM     58  N   UNL A   1      42.491  30.919  29.219  1.00  0.00    -0.248 NA
ATOM     59  C   UNL A   1      41.269  32.492  30.436  1.00  0.00     0.031 C 
ATOM     60  C   UNL A   1      46.527  31.658  27.518  1.00  0.00     0.029 A 
ATOM     61  C   UNL A   1      45.272  31.452  28.070  1.00  0.00     0.049 A 
ATOM     62  H   UNL A   1      44.094  29.702  28.078  1.00  0.00     0.167 HD
ATOM     63  C   UNL A   1      43.216  32.104  29.291  1.00  0.00     0.074 A 
ATOM     64  C   UNL A   1      42.399  33.048  30.024  1.00  0.00     0.031 C 
ATOM     65  C   UNL A   1      44.446  32.385  28.794  1.00  0.00     0.037 A 
BRANCH  52  66
ATOM     66  C   UNL A   1      47.150  27.612  25.950  1.00  0.00     0.057 A 
ATOM     67  C   UNL A   1      48.239  27.059  26.636  1.00  0.00     0.134 A 
ATOM     68  C   UNL A   1      47.210  27.627  24.550  1.00  0.00     0.134 A 
ATOM     69  F   UNL A   1      48.254  27.027  27.976  1.00  0.00    -0.206 F 
ATOM     70  C   UNL A   1      49.354  26.563  25.956  1.00  0.00     0.040 A 
ATOM     71  C   UNL A   1      48.304  27.106  23.859  1.00  0.00     0.040 A 
ATOM     72  F   UNL A   1      46.199  28.138  23.830  1.00  0.00    -0.206 F 
ATOM     73  C   UNL A   1      49.384  26.579  24.563  1.00  0.00     0.006 A 
ENDBRANCH  52  66
BRANCH  53  74
ATOM     74  C   UNL A   1      38.997  30.692  30.823  1.00  0.00     0.057 A 
ATOM     75  C   UNL A   1      38.886  30.483  32.202  1.00  0.00     0.134 A 
ATOM     76  C   UNL A   1      37.926  31.325  30.180  1.00  0.00     0.134 A 
ATOM     77  F   UNL A   1      39.866  29.858  32.871  1.00  0.00    -0.206 F 
ATOM     78  C   UNL A   1      37.746  30.867  32.912  1.00  0.00     0.040 A 
ATOM     79  C   UNL A   1      36.793  31.743  30.882  1.00  0.00     0.040 A 
ATOM     80  F   UNL A   1      37.967  31.555  28.860  1.00  0.00    -0.206 F 
ATOM     81  C   UNL A   1      36.698  31.504  32.251  1.00  0.00     0.006 A 
ENDBRANCH  53  74
BRANCH  65  82
ATOM     82  C   UNL A   1      44.967  33.783  28.981  1.00  0.00     0.057 A 
ATOM     83  C   UNL A   1      45.770  34.140  30.071  1.00  0.00     0.134 A 
ATOM     84  C   UNL A   1      44.696  34.775  28.028  1.00  0.00     0.134 A 
ATOM     85  F   UNL A   1      46.061  33.242  31.025  1.00  0.00    -0.206 F 
ATOM     86  C   UNL A   1      46.262  35.439  30.222  1.00  0.00     0.040 A 
ATOM     87  C   UNL A   1      45.208  36.068  28.151  1.00  0.00     0.040 A 
ATOM     88  F   UNL A   1      43.944  34.500  26.952  1.00  0.00    -0.206 F 
ATOM     89  C   UNL A   1      45.987  36.405  29.256  1.00  0.00     0.006 A 
ENDBRANCH  65  82
ENDBRANCH  39  40
ENDBRANCH  32  34
ENDBRANCH  31  32
ENDBRANCH  30  31
ENDBRANCH  29  30
ENDBRANCH  28  29
ENDBRANCH  27  28
ENDBRANCH  26  27
ENDBRANCH  25  26
ENDBRANCH   1  25
TORSDOF 25
ENDMDL
MODEL 2
REMARK VINA RESULT:      -9.2      2.866      8.180
REMARK SMILES CCCC1C[NH+]([C@H](CC(=O)OCCOCCOCCOCCOC(=O)c2ccc(-c3c4nc(c(-c5c(F)cccc5F)c5ccc([nH]5)c(-c5c(F)cccc5F)c5nc(c(-c6c(F)cccc6F)c6ccc3[nH]6)C=C5)C=C4)cc2)c2ccccc2)C1
REMARK SMILES IDX 16 1 15 2 14 3 13 4 12 5 11 6 9 7 10 8 8 9 7 10 6 11 4 12
REMARK SMILES IDX 5 13 86 14 3 16 2 17 1 18 80 19 81 20 85 21 82 22 84 23
REMARK SMILES IDX 83 24 17 25 18 26 19 27 20 28 21 29 22 30 23 31 24 32 25 33
REMARK SMILES IDX 26 34 27 35 79 36 28 37 78 38 29 39 30 40 31 41 72 42 32 43
REMARK SMILES IDX 77 44 71 45 73 46 33 47 76 48 70 49 69 50 34 52 60 53 43 54
REMARK SMILES IDX 59 55 44 56 47 57 58 58 74 59 45 60 46 61 57 63 75 64 48 65
REMARK SMILES IDX 35 66 36 67 41 68 37 69 38 70 40 71 42 72 39 73 61 74 62 75
REMARK SMILES IDX 67 76 63 77 64 78 66 79 68 80 65 81 49 82 50 83 55 84 51 85
REMARK SMILES IDX 52 86 54 87 56 88 53 89
REMARK H PARENT 6 15 73 51 47 62
REMARK Flexibility Score: inf
ROOT
ATOM      1  C   UNL A   1      30.324  28.902  23.308  1.00  0.00     0.188 C 
ENDROOT
BRANCH   1   2
ATOM      2  C   UNL A   1      29.819  27.458  23.235  1.00  0.00     0.188 C 
BRANCH   2   3
ATOM      3  O   UNL A   1      29.780  26.675  24.410  1.00  0.00    -0.376 OA
BRANCH   3   4
ATOM      4  C   UNL A   1      30.512  25.462  24.492  1.00  0.00     0.202 C 
BRANCH   4   5
ATOM      5  C   UNL A   1      30.896  24.596  23.275  1.00  0.00     0.261 C 
BRANCH   5   6
ATOM      6  O   UNL A   1      30.892  23.169  23.458  1.00  0.00    -0.463 OA
BRANCH   6   7
ATOM      7  C   UNL A   1      31.986  22.503  23.032  1.00  0.00     0.312 C 
ATOM      8  O   UNL A   1      32.799  22.975  22.236  1.00  0.00    -0.252 OA
BRANCH   7   9
ATOM      9  C   UNL A   1      32.243  21.143  23.648  1.00  0.00     0.192 C 
BRANCH   9  10
ATOM     10  C   UNL A   1      33.640  20.674  24.108  1.00  0.00     0.226 C 
BRANCH  10  11
ATOM     11  N   UNL A   1      34.372  21.718  24.832  1.00  0.00    -0.327 N 
ATOM     12  C   UNL A   1      36.304  22.263  25.469  1.00  0.00     0.099 C 
ATOM     13  C   UNL A   1      35.537  22.232  24.120  1.00  0.00     0.272 C 
ATOM     14  C   UNL A   1      35.133  21.385  26.022  1.00  0.00     0.272 C 
ATOM     15  H   UNL A   1      33.553  22.305  24.992  1.00  0.00     0.348 HD
BRANCH  12  16
ATOM     16  C   UNL A   1      37.715  21.686  25.575  1.00  0.00     0.015 C 
BRANCH  16  17
ATOM     17  C   UNL A   1      38.723  22.642  26.215  1.00  0.00    -0.003 C 
ATOM     18  C   UNL A   1      38.230  24.075  26.331  1.00  0.00     0.004 C 
ENDBRANCH  16  17
ENDBRANCH  12  16
ENDBRANCH  10  11
BRANCH  10  19
ATOM     19  C   UNL A   1      33.570  19.205  24.603  1.00  0.00     0.010 A 
ATOM     20  C   UNL A   1      32.613  18.677  25.475  1.00  0.00     0.010 A 
ATOM     21  C   UNL A   1      34.575  18.309  24.164  1.00  0.00     0.010 A 
ATOM     22  C   UNL A   1      32.637  17.337  25.886  1.00  0.00     0.001 A 
ATOM     23  C   UNL A   1      34.595  16.965  24.556  1.00  0.00     0.001 A 
ATOM     24  C   UNL A   1      33.624  16.479  25.420  1.00  0.00     0.000 A 
ENDBRANCH  10  19
ENDBRANCH   9  10
ENDBRANCH   7   9
ENDBRANCH   6   7
ENDBRANCH   5   6
ENDBRANCH   4   5
ENDBRANCH   3   4
ENDBRANCH   2   3
ENDBRANCH   1   2
BRANCH   1  25
ATOM     25  O   UNL A   1      31.214  29.211  24.359  1.00  0.00    -0.377 OA
BRANCH  25  26
ATOM     26  C   UNL A   1      32.532  28.680  24.351  1.00  0.00     0.188 C 
BRANCH  26  27
ATOM     27  C   UNL A   1      33.404  28.726  25.620  1.00  0.00     0.188 C 
BRANCH  27  28
ATOM     28  O   UNL A   1      33.594  30.019  26.171  1.00  0.00    -0.376 OA
BRANCH  28  29
ATOM     29  C   UNL A   1      34.240  30.143  27.429  1.00  0.00     0.202 C 
BRANCH  29  30
ATOM     30  C   UNL A   1      34.603  31.552  27.923  1.00  0.00     0.261 C 
BRANCH  30  31
ATOM     31  O   UNL A   1      35.966  31.760  28.329  1.00  0.00    -0.460 OA
BRANCH  31  32
ATOM     32  C   UNL A   1      36.382  31.197  29.480  1.00  0.00     0.338 C 
ATOM     33  O   UNL A   1      35.783  31.153  30.543  1.00  0.00    -0.246 OA
BRANCH  32  34
ATOM     34  C   UNL A   1      37.632  30.464  29.200  1.00  0.00     0.060 A 
ATOM     35  C   UNL A   1      38.492  30.161  30.264  1.00  0.00     0.016 A 
ATOM     36  C   UNL A   1      37.963  30.097  27.894  1.00  0.00     0.016 A 
ATOM     37  C   UNL A   1      39.710  29.529  30.017  1.00  0.00     0.010 A 
ATOM     38  C   UNL A   1      39.194  29.482  27.646  1.00  0.00     0.010 A 
ATOM     39  C   UNL A   1      40.088  29.231  28.702  1.00  0.00    -0.014 A 
BRANCH  39  40
ATOM     40  C   UNL A   1      41.491  28.846  28.412  1.00  0.00     0.031 A 
ATOM     41  C   UNL A   1      41.785  27.406  28.082  1.00  0.00     0.074 A 
ATOM     42  C   UNL A   1      42.484  29.753  28.413  1.00  0.00     0.049 A 
ATOM     43  N   UNL A   1      42.931  26.823  27.845  1.00  0.00    -0.248 NA
ATOM     44  C   UNL A   1      40.624  26.504  28.014  1.00  0.00     0.031 C 
ATOM     45  C   UNL A   1      42.323  31.182  28.668  1.00  0.00     0.029 A 
ATOM     46  N   UNL A   1      43.830  29.597  28.197  1.00  0.00    -0.354 N 
ATOM     47  C   UNL A   1      42.631  25.486  27.610  1.00  0.00     0.074 A 
ATOM     48  C   UNL A   1      41.201  25.339  27.764  1.00  0.00     0.031 C 
ATOM     49  C   UNL A   1      43.530  31.773  28.608  1.00  0.00     0.029 A 
ATOM     50  C   UNL A   1      44.550  30.758  28.345  1.00  0.00     0.049 A 
ATOM     51  H   UNL A   1      44.241  28.734  27.958  1.00  0.00     0.167 HD
ATOM     52  C   UNL A   1      43.471  24.474  27.287  1.00  0.00     0.037 A 
ATOM     53  C   UNL A   1      45.880  30.968  28.300  1.00  0.00     0.037 A 
ATOM     54  C   UNL A   1      44.894  24.624  27.136  1.00  0.00     0.049 A 
ATOM     55  C   UNL A   1      46.803  29.809  28.021  1.00  0.00     0.074 A 
ATOM     56  C   UNL A   1      45.830  23.663  26.795  1.00  0.00     0.029 A 
ATOM     57  N   UNL A   1      45.589  25.808  27.329  1.00  0.00    -0.354 N 
ATOM     58  N   UNL A   1      46.510  28.555  27.777  1.00  0.00    -0.248 NA
ATOM     59  C   UNL A   1      48.245  30.098  28.008  1.00  0.00     0.031 C 
ATOM     60  C   UNL A   1      47.097  24.252  26.842  1.00  0.00     0.029 A 
ATOM     61  C   UNL A   1      46.945  25.596  27.144  1.00  0.00     0.049 A 
ATOM     62  H   UNL A   1      45.179  26.673  27.562  1.00  0.00     0.167 HD
ATOM     63  C   UNL A   1      47.724  27.914  27.549  1.00  0.00     0.074 A 
ATOM     64  C   UNL A   1      48.755  28.923  27.670  1.00  0.00     0.031 C 
ATOM     65  C   UNL A   1      47.962  26.611  27.261  1.00  0.00     0.037 A 
BRANCH  52  66
ATOM     66  C   UNL A   1      42.873  23.109  27.109  1.00  0.00     0.057 A 
ATOM     67  C   UNL A   1      42.648  22.553  25.843  1.00  0.00     0.134 A 
ATOM     68  C   UNL A   1      42.544  22.327  28.224  1.00  0.00     0.134 A 
ATOM     69  F   UNL A   1      42.926  23.252  24.733  1.00  0.00    -0.206 F 
ATOM     70  C   UNL A   1      42.093  21.280  25.693  1.00  0.00     0.040 A 
ATOM     71  C   UNL A   1      42.018  21.041  28.087  1.00  0.00     0.040 A 
ATOM     72  F   UNL A   1      42.738  22.796  29.466  1.00  0.00    -0.206 F 
ATOM     73  C   UNL A   1      41.784  20.517  26.817  1.00  0.00     0.006 A 
ENDBRANCH  52  66
BRANCH  53  74
ATOM     74  C   UNL A   1      46.430  32.327  28.547  1.00  0.00     0.057 A 
ATOM     75  C   UNL A   1      46.628  33.234  27.499  1.00  0.00     0.134 A 
ATOM     76  C   UNL A   1      46.802  32.739  29.832  1.00  0.00     0.134 A 
ATOM     77  F   UNL A   1      46.316  32.889  26.241  1.00  0.00    -0.206 F 
ATOM     78  C   UNL A   1      47.195  34.491  27.716  1.00  0.00     0.040 A 
ATOM     79  C   UNL A   1      47.341  34.006  30.069  1.00  0.00     0.040 A 
ATOM     80  F   UNL A   1      46.640  31.920  30.881  1.00  0.00    -0.206 F 
ATOM     81  C   UNL A   1      47.548  34.881  29.006  1.00  0.00     0.006 A 
ENDBRANCH  53  74
BRANCH  65  82
ATOM     82  C   UNL A   1      49.387  26.205  27.010  1.00  0.00     0.057 A 
ATOM     83  C   UNL A   1      49.930  26.145  25.720  1.00  0.00     0.134 A 
ATOM     84  C   UNL A   1      50.243  25.913  28.081  1.00  0.00     0.134 A 
ATOM     85  F   UNL A   1      49.165  26.404  24.648  1.00  0.00    -0.206 F 
ATOM     86  C   UNL A   1      51.261  25.783  25.503  1.00  0.00     0.040 A 
ATOM     87  C   UNL A   1      51.583  25.582  27.880  1.00  0.00     0.040 A 
ATOM     88  F   UNL A   1      49.794  25.963  29.345  1.00  0.00    -0.206 F 
ATOM     89  C   UNL A   1      52.094  25.508  26.586  1.00  0.00     0.006 A 
ENDBRANCH  65  82
ENDBRANCH  39  40
ENDBRANCH  32  34
ENDBRANCH  31  32
ENDBRANCH  30  31
ENDBRANCH  29  30
ENDBRANCH  28  29
ENDBRANCH  27  28
ENDBRANCH  26  27
ENDBRANCH  25  26
ENDBRANCH   1  25
TORSDOF 25
ENDMDL
MODEL 3
REMARK VINA RESULT:      -9.0      2.432      4.833
REMARK SMILES CCCC1C[NH+]([C@H](CC(=O)OCCOCCOCCOCCOC(=O)c2ccc(-c3c4nc(c(-c5c(F)cccc5F)c5ccc([nH]5)c(-c5c(F)cccc5F)c5nc(c(-c6c(F)cccc6F)c6ccc3[nH]6)C=C5)C=C4)cc2)c2ccccc2)C1
REMARK SMILES IDX 16 1 15 2 14 3 13 4 12 5 11 6 9 7 10 8 8 9 7 10 6 11 4 12
REMARK SMILES IDX 5 13 86 14 3 16 2 17 1 18 80 19 81 20 85 21 82 22 84 23
REMARK SMILES IDX 83 24 17 25 18 26 19 27 20 28 21 29 22 30 23 31 24 32 25 33
REMARK SMILES IDX 26 34 27 35 79 36 28 37 78 38 29 39 30 40 31 41 72 42 32 43
REMARK SMILES IDX 77 44 71 45 73 46 33 47 76 48 70 49 69 50 34 52 60 53 43 54
REMARK SMILES IDX 59 55 44 56 47 57 58 58 74 59 45 60 46 61 57 63 75 64 48 65
REMARK SMILES IDX 35 66 36 67 41 68 37 69 38 70 40 71 42 72 39 73 61 74 62 75
REMARK SMILES IDX 67 76 63 77 64 78 66 79 68 80 65 81 49 82 50 83 55 84 51 85
REMARK SMILES IDX 52 86 54 87 56 88 53 89
REMARK H PARENT 6 15 73 51 47 62
REMARK Flexibility Score: inf
ROOT
ATOM      1  C   UNL A   1      34.245  25.794  25.119  1.00  0.00     0.188 C 
ENDROOT
BRANCH   1   2
ATOM      2  C   UNL A   1      33.581  26.827  26.033  1.00  0.00     0.188 C 
BRANCH   2   3
ATOM      3  O   UNL A   1      32.238  26.643  26.431  1.00  0.00    -0.376 OA
BRANCH   3   4
ATOM      4  C   UNL A   1      31.483  25.549  25.933  1.00  0.00     0.202 C 
BRANCH   4   5
ATOM      5  C   UNL A   1      31.209  24.252  26.719  1.00  0.00     0.261 C 
BRANCH   5   6
ATOM      6  O   UNL A   1      32.123  23.159  26.518  1.00  0.00    -0.463 OA
BRANCH   6   7
ATOM      7  C   UNL A   1      31.589  22.001  26.074  1.00  0.00     0.312 C 
ATOM      8  O   UNL A   1      30.377  21.812  25.964  1.00  0.00    -0.252 OA
BRANCH   7   9
ATOM      9  C   UNL A   1      32.559  20.931  25.617  1.00  0.00     0.192 C 
BRANCH   9  10
ATOM     10  C   UNL A   1      32.400  20.158  24.290  1.00  0.00     0.226 C 
BRANCH  10  11
ATOM     11  N   UNL A   1      32.851  20.933  23.131  1.00  0.00    -0.327 N 
ATOM     12  C   UNL A   1      32.875  22.884  22.336  1.00  0.00     0.099 C 
ATOM     13  C   UNL A   1      33.615  22.128  23.472  1.00  0.00     0.272 C 
ATOM     14  C   UNL A   1      31.892  21.666  22.324  1.00  0.00     0.272 C 
ATOM     15  H   UNL A   1      33.294  20.143  22.663  1.00  0.00     0.348 HD
BRANCH  12  16
ATOM     16  C   UNL A   1      32.269  24.264  22.586  1.00  0.00     0.015 C 
BRANCH  16  17
ATOM     17  C   UNL A   1      32.783  25.342  21.630  1.00  0.00    -0.003 C 
ATOM     18  C   UNL A   1      32.345  26.751  21.991  1.00  0.00     0.004 C 
ENDBRANCH  16  17
ENDBRANCH  12  16
ENDBRANCH  10  11
BRANCH  10  19
ATOM     19  C   UNL A   1      32.774  18.666  24.497  1.00  0.00     0.010 A 
ATOM     20  C   UNL A   1      32.599  17.931  25.674  1.00  0.00     0.010 A 
ATOM     21  C   UNL A   1      33.374  17.977  23.416  1.00  0.00     0.010 A 
ATOM     22  C   UNL A   1      32.985  16.588  25.778  1.00  0.00     0.001 A 
ATOM     23  C   UNL A   1      33.746  16.630  23.506  1.00  0.00     0.001 A 
ATOM     24  C   UNL A   1      33.551  15.935  24.692  1.00  0.00     0.000 A 
ENDBRANCH  10  19
ENDBRANCH   9  10
ENDBRANCH   7   9
ENDBRANCH   6   7
ENDBRANCH   5   6
ENDBRANCH   4   5
ENDBRANCH   3   4
ENDBRANCH   2   3
ENDBRANCH   1   2
BRANCH   1  25
ATOM     25  O   UNL A   1      35.033  24.805  25.745  1.00  0.00    -0.377 OA
BRANCH  25  26
ATOM     26  C   UNL A   1      35.944  24.031  24.976  1.00  0.00     0.188 C 
BRANCH  26  27
ATOM     27  C   UNL A   1      37.157  23.356  25.643  1.00  0.00     0.188 C 
BRANCH  27  28
ATOM     28  O   UNL A   1      37.068  21.947  25.765  1.00  0.00    -0.376 OA
BRANCH  28  29
ATOM     29  C   UNL A   1      38.085  21.140  25.190  1.00  0.00     0.202 C 
BRANCH  29  30
ATOM     30  C   UNL A   1      39.438  21.053  25.915  1.00  0.00     0.261 C 
BRANCH  30  31
ATOM     31  O   UNL A   1      39.973  19.735  26.122  1.00  0.00    -0.460 OA
BRANCH  31  32
ATOM     32  C   UNL A   1      41.311  19.586  26.143  1.00  0.00     0.338 C 
ATOM     33  O   UNL A   1      41.958  18.630  25.742  1.00  0.00    -0.246 OA
BRANCH  32  34
ATOM     34  C   UNL A   1      41.903  20.867  26.574  1.00  0.00     0.060 A 
ATOM     35  C   UNL A   1      41.925  21.178  27.940  1.00  0.00     0.016 A 
ATOM     36  C   UNL A   1      42.415  21.764  25.634  1.00  0.00     0.016 A 
ATOM     37  C   UNL A   1      42.419  22.411  28.366  1.00  0.00     0.010 A 
ATOM     38  C   UNL A   1      42.891  23.007  26.061  1.00  0.00     0.010 A 
ATOM     39  C   UNL A   1      42.858  23.350  27.425  1.00  0.00    -0.014 A 
BRANCH  39  40
ATOM     40  C   UNL A   1      43.091  24.754  27.845  1.00  0.00     0.031 A 
ATOM     41  C   UNL A   1      44.511  25.219  28.030  1.00  0.00     0.074 A 
ATOM     42  C   UNL A   1      42.071  25.610  28.033  1.00  0.00     0.049 A 
ATOM     43  N   UNL A   1      44.962  26.377  28.438  1.00  0.00    -0.248 NA
ATOM     44  C   UNL A   1      45.563  24.240  27.712  1.00  0.00     0.031 C 
ATOM     45  C   UNL A   1      40.658  25.296  27.841  1.00  0.00     0.029 A 
ATOM     46  N   UNL A   1      42.076  26.921  28.438  1.00  0.00    -0.354 N 
ATOM     47  C   UNL A   1      46.347  26.262  28.436  1.00  0.00     0.074 A 
ATOM     48  C   UNL A   1      46.661  24.915  28.017  1.00  0.00     0.031 C 
ATOM     49  C   UNL A   1      39.927  26.385  28.141  1.00  0.00     0.029 A 
ATOM     50  C   UNL A   1      40.819  27.457  28.581  1.00  0.00     0.049 A 
ATOM     51  H   UNL A   1      42.902  27.430  28.610  1.00  0.00     0.167 HD
ATOM     52  C   UNL A   1      47.275  27.199  28.747  1.00  0.00     0.037 A 
ATOM     53  C   UNL A   1      40.436  28.665  29.039  1.00  0.00     0.037 A 
ATOM     54  C   UNL A   1      46.959  28.539  29.167  1.00  0.00     0.049 A 
ATOM     55  C   UNL A   1      41.484  29.664  29.460  1.00  0.00     0.074 A 
ATOM     56  C   UNL A   1      47.826  29.568  29.490  1.00  0.00     0.029 A 
ATOM     57  N   UNL A   1      45.673  29.033  29.332  1.00  0.00    -0.354 N 
ATOM     58  N   UNL A   1      42.791  29.556  29.432  1.00  0.00    -0.248 NA
ATOM     59  C   UNL A   1      41.002  30.955  29.973  1.00  0.00     0.031 C 
ATOM     60  C   UNL A   1      47.066  30.663  29.910  1.00  0.00     0.029 A 
ATOM     61  C   UNL A   1      45.724  30.341  29.782  1.00  0.00     0.049 A 
ATOM     62  H   UNL A   1      44.846  28.528  29.156  1.00  0.00     0.167 HD
ATOM     63  C   UNL A   1      43.286  30.773  29.890  1.00  0.00     0.074 A 
ATOM     64  C   UNL A   1      42.137  31.608  30.176  1.00  0.00     0.031 C 
ATOM     65  C   UNL A   1      44.573  31.165  30.056  1.00  0.00     0.037 A 
BRANCH  52  66
ATOM     66  C   UNL A   1      48.718  26.794  28.679  1.00  0.00     0.057 A 
ATOM     67  C   UNL A   1      49.381  26.211  29.767  1.00  0.00     0.134 A 
ATOM     68  C   UNL A   1      49.450  26.967  27.496  1.00  0.00     0.134 A 
ATOM     69  F   UNL A   1      48.745  26.031  30.933  1.00  0.00    -0.206 F 
ATOM     70  C   UNL A   1      50.724  25.837  29.688  1.00  0.00     0.040 A 
ATOM     71  C   UNL A   1      50.783  26.569  27.396  1.00  0.00     0.040 A 
ATOM     72  F   UNL A   1      48.876  27.516  26.414  1.00  0.00    -0.206 F 
ATOM     73  C   UNL A   1      51.427  26.009  28.497  1.00  0.00     0.006 A 
ENDBRANCH  52  66
BRANCH  53  74
ATOM     74  C   UNL A   1      38.991  28.998  29.150  1.00  0.00     0.057 A 
ATOM     75  C   UNL A   1      38.278  29.515  28.062  1.00  0.00     0.134 A 
ATOM     76  C   UNL A   1      38.298  28.838  30.356  1.00  0.00     0.134 A 
ATOM     77  F   UNL A   1      38.892  29.717  26.887  1.00  0.00    -0.206 F 
ATOM     78  C   UNL A   1      36.935  29.881  28.174  1.00  0.00     0.040 A 
ATOM     79  C   UNL A   1      36.946  29.171  30.474  1.00  0.00     0.040 A 
ATOM     80  F   UNL A   1      38.921  28.349  31.438  1.00  0.00    -0.206 F 
ATOM     81  C   UNL A   1      36.265  29.704  29.382  1.00  0.00     0.006 A 
ENDBRANCH  53  74
BRANCH  65  82
ATOM     82  C   UNL A   1      44.815  32.573  30.524  1.00  0.00     0.057 A 
ATOM     83  C   UNL A   1      44.972  32.892  31.878  1.00  0.00     0.134 A 
ATOM     84  C   UNL A   1      44.938  33.618  29.598  1.00  0.00     0.134 A 
ATOM     85  F   UNL A   1      44.858  31.942  32.819  1.00  0.00    -0.206 F 
ATOM     86  C   UNL A   1      45.215  34.202  32.298  1.00  0.00     0.040 A 
ATOM     87  C   UNL A   1      45.212  34.926  30.002  1.00  0.00     0.040 A 
ATOM     88  F   UNL A   1      44.812  33.383  28.283  1.00  0.00    -0.206 F 
ATOM     89  C   UNL A   1      45.342  35.222  31.356  1.00  0.00     0.006 A 
ENDBRANCH  65  82
ENDBRANCH  39  40
ENDBRANCH  32  34
ENDBRANCH  31  32
ENDBRANCH  30  31
ENDBRANCH  29  30
ENDBRANCH  28  29
ENDBRANCH  27  28
ENDBRANCH  26  27
ENDBRANCH  25  26
ENDBRANCH   1  25
TORSDOF 25
ENDMDL
