MODEL 1
REMARK VINA RESULT:      -9.9      0.000      0.000
REMARK SMILES O=C(Cc1ccc(-c2ccn(C(F)F)c(=O)c2)cc1)OCCOCCOCCOCCOC(=O)c1ccc(-c2c3nc(c(-c4c(F)cccc4F)c4ccc([nH]4)c(-c4c(F)cccc4F)c4nc(c(-c5c(F)cccc5F)c5ccc2[nH]5)C=C4)C=C3)cc1
REMARK SMILES IDX 25 1 24 2 23 3 22 4 21 5 20 6 2 7 1 8 3 9 4 10 5 11 19 12
REMARK SMILES IDX 6 13 18 14 7 15 8 16 9 17 17 18 10 19 15 20 11 21 16 22
REMARK SMILES IDX 12 23 13 24 14 25 26 26 27 27 28 28 29 29 30 30 31 31 32 32
REMARK SMILES IDX 33 33 34 34 35 35 36 36 88 37 37 38 87 39 38 40 39 41 40 42
REMARK SMILES IDX 81 43 41 44 86 45 80 46 82 47 42 48 85 49 79 50 78 51 43 53
REMARK SMILES IDX 69 54 52 55 68 56 53 57 56 58 67 59 83 60 54 61 55 62 66 64
REMARK SMILES IDX 84 65 57 66 44 67 45 68 50 69 46 70 47 71 49 72 51 73 48 74
REMARK SMILES IDX 70 75 71 76 76 77 72 78 73 79 75 80 77 81 74 82 58 83 59 84
REMARK SMILES IDX 64 85 60 86 61 87 63 88 65 89 62 90
REMARK H PARENT 82 52 56 63
REMARK Flexibility Score: inf
ROOT
ATOM      1  C   UNL A   1      35.336  30.717  27.830  1.00  0.00     0.188 C 
ENDROOT
BRANCH   1   2
ATOM      2  C   UNL A   1      34.790  29.332  27.462  1.00  0.00     0.188 C 
BRANCH   2   3
ATOM      3  O   UNL A   1      34.199  29.260  26.175  1.00  0.00    -0.376 OA
BRANCH   3   4
ATOM      4  C   UNL A   1      32.959  28.639  25.918  1.00  0.00     0.202 C 
BRANCH   4   5
ATOM      5  C   UNL A   1      31.743  29.498  25.597  1.00  0.00     0.261 C 
BRANCH   5   6
ATOM      6  O   UNL A   1      31.356  29.648  24.211  1.00  0.00    -0.463 OA
BRANCH   6   7
ATOM      7  C   UNL A   1      30.176  29.472  23.591  1.00  0.00     0.310 C 
ATOM      8  O   UNL A   1      29.300  30.327  23.733  1.00  0.00    -0.252 OA
BRANCH   7   9
ATOM      9  C   UNL A   1      29.885  28.218  22.816  1.00  0.00     0.158 C 
BRANCH   9  10
ATOM     10  C   UNL A   1      30.751  27.013  23.052  1.00  0.00    -0.037 A 
ATOM     11  C   UNL A   1      30.439  26.031  23.996  1.00  0.00     0.005 A 
ATOM     12  C   UNL A   1      31.936  26.900  22.303  1.00  0.00     0.005 A 
ATOM     13  C   UNL A   1      31.280  24.940  24.170  1.00  0.00     0.009 A 
ATOM     14  C   UNL A   1      32.798  25.826  22.501  1.00  0.00     0.009 A 
ATOM     15  C   UNL A   1      32.474  24.853  23.446  1.00  0.00    -0.018 A 
BRANCH  15  16
ATOM     16  C   UNL A   1      33.458  23.847  23.844  1.00  0.00    -0.011 A 
ATOM     17  C   UNL A   1      33.027  22.650  24.533  1.00  0.00     0.027 A 
ATOM     18  C   UNL A   1      34.748  24.000  23.505  1.00  0.00     0.080 A 
ATOM     19  C   UNL A   1      33.897  21.678  24.805  1.00  0.00     0.095 A 
ATOM     20  C   UNL A   1      35.734  22.928  23.819  1.00  0.00     0.255 A 
ATOM     21  N   UNL A   1      35.227  21.802  24.451  1.00  0.00    -0.258 N 
ATOM     22  O   UNL A   1      36.904  23.096  23.489  1.00  0.00    -0.269 OA
BRANCH  21  23
ATOM     23  C   UNL A   1      36.150  20.739  24.742  1.00  0.00     0.451 C 
ATOM     24  F   UNL A   1      36.965  21.070  25.774  1.00  0.00    -0.185 F 
ATOM     25  F   UNL A   1      35.494  19.601  25.069  1.00  0.00    -0.185 F 
ENDBRANCH  21  23
ENDBRANCH  15  16
ENDBRANCH   9  10
ENDBRANCH   7   9
ENDBRANCH   6   7
ENDBRANCH   5   6
ENDBRANCH   4   5
ENDBRANCH   3   4
ENDBRANCH   2   3
ENDBRANCH   1   2
BRANCH   1  26
ATOM     26  O   UNL A   1      34.398  31.788  27.749  1.00  0.00    -0.377 OA
BRANCH  26  27
ATOM     27  C   UNL A   1      34.772  32.967  28.456  1.00  0.00     0.188 C 
BRANCH  27  28
ATOM     28  C   UNL A   1      34.378  32.953  29.947  1.00  0.00     0.188 C 
BRANCH  28  29
ATOM     29  O   UNL A   1      34.798  34.113  30.659  1.00  0.00    -0.376 OA
BRANCH  29  30
ATOM     30  C   UNL A   1      34.114  34.393  31.873  1.00  0.00     0.202 C 
BRANCH  30  31
ATOM     31  C   UNL A   1      34.319  33.398  33.027  1.00  0.00     0.261 C 
BRANCH  31  32
ATOM     32  O   UNL A   1      35.344  32.405  32.834  1.00  0.00    -0.460 OA
BRANCH  32  33
ATOM     33  C   UNL A   1      36.593  32.671  33.265  1.00  0.00     0.338 C 
ATOM     34  O   UNL A   1      36.916  33.263  34.280  1.00  0.00    -0.246 OA
BRANCH  33  35
ATOM     35  C   UNL A   1      37.530  31.911  32.406  1.00  0.00     0.060 A 
ATOM     36  C   UNL A   1      38.353  30.943  32.999  1.00  0.00     0.016 A 
ATOM     37  C   UNL A   1      37.553  32.102  31.022  1.00  0.00     0.016 A 
ATOM     38  C   UNL A   1      39.221  30.186  32.214  1.00  0.00     0.010 A 
ATOM     39  C   UNL A   1      38.445  31.364  30.238  1.00  0.00     0.010 A 
ATOM     40  C   UNL A   1      39.305  30.427  30.835  1.00  0.00    -0.014 A 
BRANCH  40  41
ATOM     41  C   UNL A   1      40.453  29.881  30.072  1.00  0.00     0.031 A 
ATOM     42  C   UNL A   1      41.617  30.800  29.814  1.00  0.00     0.074 A 
ATOM     43  C   UNL A   1      40.488  28.607  29.645  1.00  0.00     0.049 A 
ATOM     44  N   UNL A   1      42.731  30.573  29.168  1.00  0.00    -0.248 NA
ATOM     45  C   UNL A   1      41.505  32.163  30.362  1.00  0.00     0.031 C 
ATOM     46  C   UNL A   1      39.443  27.608  29.860  1.00  0.00     0.029 A 
ATOM     47  N   UNL A   1      41.452  27.939  28.931  1.00  0.00    -0.354 N 
ATOM     48  C   UNL A   1      43.453  31.757  29.240  1.00  0.00     0.074 A 
ATOM     49  C   UNL A   1      42.640  32.712  29.959  1.00  0.00     0.031 C 
ATOM     50  C   UNL A   1      39.818  26.454  29.277  1.00  0.00     0.029 A 
ATOM     51  C   UNL A   1      41.116  26.641  28.631  1.00  0.00     0.049 A 
ATOM     52  H   UNL A   1      42.304  28.350  28.660  1.00  0.00     0.167 HD
ATOM     53  C   UNL A   1      44.690  32.024  28.761  1.00  0.00     0.037 A 
ATOM     54  C   UNL A   1      41.778  25.720  27.902  1.00  0.00     0.037 A 
ATOM     55  C   UNL A   1      45.495  31.084  28.032  1.00  0.00     0.049 A 
ATOM     56  C   UNL A   1      43.120  26.070  27.306  1.00  0.00     0.074 A 
ATOM     57  C   UNL A   1      46.761  31.260  27.505  1.00  0.00     0.029 A 
ATOM     58  N   UNL A   1      45.104  29.791  27.718  1.00  0.00    -0.354 N 
ATOM     59  N   UNL A   1      43.808  27.183  27.407  1.00  0.00    -0.248 NA
ATOM     60  C   UNL A   1      43.778  25.033  26.497  1.00  0.00     0.031 C 
ATOM     61  C   UNL A   1      47.120  30.089  26.831  1.00  0.00     0.029 A 
ATOM     62  C   UNL A   1      46.098  29.165  26.984  1.00  0.00     0.049 A 
ATOM     63  H   UNL A   1      44.249  29.380  27.978  1.00  0.00     0.167 HD
ATOM     64  C   UNL A   1      44.988  26.967  26.702  1.00  0.00     0.074 A 
ATOM     65  C   UNL A   1      44.930  25.613  26.194  1.00  0.00     0.031 C 
ATOM     66  C   UNL A   1      46.027  27.813  26.494  1.00  0.00     0.037 A 
BRANCH  53  67
ATOM     67  C   UNL A   1      45.236  33.400  28.998  1.00  0.00     0.057 A 
ATOM     68  C   UNL A   1      46.044  33.692  30.103  1.00  0.00     0.134 A 
ATOM     69  C   UNL A   1      44.972  34.437  28.096  1.00  0.00     0.134 A 
ATOM     70  F   UNL A   1      46.316  32.746  31.016  1.00  0.00    -0.206 F 
ATOM     71  C   UNL A   1      46.560  34.972  30.311  1.00  0.00     0.040 A 
ATOM     72  C   UNL A   1      45.502  35.715  28.279  1.00  0.00     0.040 A 
ATOM     73  F   UNL A   1      44.201  34.224  27.018  1.00  0.00    -0.206 F 
ATOM     74  C   UNL A   1      46.295  35.986  29.392  1.00  0.00     0.006 A 
ENDBRANCH  53  67
BRANCH  54  75
ATOM     75  C   UNL A   1      41.187  24.377  27.665  1.00  0.00     0.057 A 
ATOM     76  C   UNL A   1      41.668  23.241  28.328  1.00  0.00     0.134 A 
ATOM     77  C   UNL A   1      40.167  24.187  26.724  1.00  0.00     0.134 A 
ATOM     78  F   UNL A   1      42.664  23.352  29.219  1.00  0.00    -0.206 F 
ATOM     79  C   UNL A   1      41.177  21.964  28.045  1.00  0.00     0.040 A 
ATOM     80  C   UNL A   1      39.648  22.920  26.451  1.00  0.00     0.040 A 
ATOM     81  F   UNL A   1      39.665  25.232  26.050  1.00  0.00    -0.206 F 
ATOM     82  C   UNL A   1      40.160  21.802  27.106  1.00  0.00     0.006 A 
ENDBRANCH  54  75
BRANCH  66  83
ATOM     83  C   UNL A   1      47.198  27.289  25.714  1.00  0.00     0.057 A 
ATOM     84  C   UNL A   1      47.324  27.496  24.335  1.00  0.00     0.134 A 
ATOM     85  C   UNL A   1      48.232  26.599  26.361  1.00  0.00     0.134 A 
ATOM     86  F   UNL A   1      46.364  28.140  23.654  1.00  0.00    -0.206 F 
ATOM     87  C   UNL A   1      48.422  27.012  23.621  1.00  0.00     0.040 A 
ATOM     88  C   UNL A   1      49.349  26.135  25.663  1.00  0.00     0.040 A 
ATOM     89  F   UNL A   1      48.182  26.378  27.683  1.00  0.00    -0.206 F 
ATOM     90  C   UNL A   1      49.442  26.335  24.288  1.00  0.00     0.006 A 
ENDBRANCH  66  83
ENDBRANCH  40  41
ENDBRANCH  33  35
ENDBRANCH  32  33
ENDBRANCH  31  32
ENDBRANCH  30  31
ENDBRANCH  29  30
ENDBRANCH  28  29
ENDBRANCH  27  28
ENDBRANCH  26  27
ENDBRANCH   1  26
TORSDOF 23
ENDMDL
MODEL 2
REMARK VINA RESULT:      -9.8      4.548      7.956
REMARK SMILES O=C(Cc1ccc(-c2ccn(C(F)F)c(=O)c2)cc1)OCCOCCOCCOCCOC(=O)c1ccc(-c2c3nc(c(-c4c(F)cccc4F)c4ccc([nH]4)c(-c4c(F)cccc4F)c4nc(c(-c5c(F)cccc5F)c5ccc2[nH]5)C=C4)C=C3)cc1
REMARK SMILES IDX 25 1 24 2 23 3 22 4 21 5 20 6 2 7 1 8 3 9 4 10 5 11 19 12
REMARK SMILES IDX 6 13 18 14 7 15 8 16 9 17 17 18 10 19 15 20 11 21 16 22
REMARK SMILES IDX 12 23 13 24 14 25 26 26 27 27 28 28 29 29 30 30 31 31 32 32
REMARK SMILES IDX 33 33 34 34 35 35 36 36 88 37 37 38 87 39 38 40 39 41 40 42
REMARK SMILES IDX 81 43 41 44 86 45 80 46 82 47 42 48 85 49 79 50 78 51 43 53
REMARK SMILES IDX 69 54 52 55 68 56 53 57 56 58 67 59 83 60 54 61 55 62 66 64
REMARK SMILES IDX 84 65 57 66 44 67 45 68 50 69 46 70 47 71 49 72 51 73 48 74
REMARK SMILES IDX 70 75 71 76 76 77 72 78 73 79 75 80 77 81 74 82 58 83 59 84
REMARK SMILES IDX 64 85 60 86 61 87 63 88 65 89 62 90
REMARK H PARENT 82 52 56 63
REMARK Flexibility Score: inf
ROOT
ATOM      1  C   UNL A   1      35.456  23.051  24.028  1.00  0.00     0.188 C 
ENDROOT
BRANCH   1   2
ATOM      2  C   UNL A   1      34.765  24.416  23.923  1.00  0.00     0.188 C 
BRANCH   2   3
ATOM      3  O   UNL A   1      34.147  24.852  25.123  1.00  0.00    -0.376 OA
BRANCH   3   4
ATOM      4  C   UNL A   1      34.114  26.198  25.540  1.00  0.00     0.202 C 
BRANCH   4   5
ATOM      5  C   UNL A   1      32.771  26.897  25.709  1.00  0.00     0.261 C 
BRANCH   5   6
ATOM      6  O   UNL A   1      31.959  27.117  24.532  1.00  0.00    -0.463 OA
BRANCH   6   7
ATOM      7  C   UNL A   1      30.638  26.981  24.321  1.00  0.00     0.310 C 
ATOM      8  O   UNL A   1      30.003  27.950  23.902  1.00  0.00    -0.252 OA
BRANCH   7   9
ATOM      9  C   UNL A   1      29.922  25.707  24.674  1.00  0.00     0.158 C 
BRANCH   9  10
ATOM     10  C   UNL A   1      30.653  24.405  24.507  1.00  0.00    -0.037 A 
ATOM     11  C   UNL A   1      31.077  23.930  23.263  1.00  0.00     0.005 A 
ATOM     12  C   UNL A   1      30.885  23.631  25.659  1.00  0.00     0.005 A 
ATOM     13  C   UNL A   1      31.747  22.717  23.173  1.00  0.00     0.009 A 
ATOM     14  C   UNL A   1      31.525  22.399  25.566  1.00  0.00     0.009 A 
ATOM     15  C   UNL A   1      31.944  21.938  24.317  1.00  0.00    -0.018 A 
BRANCH  15  16
ATOM     16  C   UNL A   1      32.402  20.559  24.151  1.00  0.00    -0.011 A 
ATOM     17  C   UNL A   1      33.059  19.882  25.248  1.00  0.00     0.027 A 
ATOM     18  C   UNL A   1      32.147  19.900  23.011  1.00  0.00     0.080 A 
ATOM     19  C   UNL A   1      33.383  18.593  25.147  1.00  0.00     0.095 A 
ATOM     20  C   UNL A   1      32.521  18.463  22.879  1.00  0.00     0.255 A 
ATOM     21  N   UNL A   1      33.117  17.886  23.991  1.00  0.00    -0.258 N 
ATOM     22  O   UNL A   1      32.268  17.889  21.825  1.00  0.00    -0.269 OA
BRANCH  21  23
ATOM     23  C   UNL A   1      33.464  16.494  23.903  1.00  0.00     0.451 C 
ATOM     24  F   UNL A   1      34.324  16.270  22.879  1.00  0.00    -0.185 F 
ATOM     25  F   UNL A   1      34.046  16.064  25.048  1.00  0.00    -0.185 F 
ENDBRANCH  21  23
ENDBRANCH  15  16
ENDBRANCH   9  10
ENDBRANCH   7   9
ENDBRANCH   6   7
ENDBRANCH   5   6
ENDBRANCH   4   5
ENDBRANCH   3   4
ENDBRANCH   2   3
ENDBRANCH   1   2
BRANCH   1  26
ATOM     26  O   UNL A   1      35.475  22.471  25.331  1.00  0.00    -0.377 OA
BRANCH  26  27
ATOM     27  C   UNL A   1      36.604  21.645  25.603  1.00  0.00     0.188 C 
BRANCH  27  28
ATOM     28  C   UNL A   1      37.948  22.401  25.594  1.00  0.00     0.188 C 
BRANCH  28  29
ATOM     29  O   UNL A   1      37.851  23.743  26.060  1.00  0.00    -0.376 OA
BRANCH  29  30
ATOM     30  C   UNL A   1      38.709  24.103  27.135  1.00  0.00     0.202 C 
BRANCH  30  31
ATOM     31  C   UNL A   1      40.038  23.338  27.245  1.00  0.00     0.261 C 
BRANCH  31  32
ATOM     32  O   UNL A   1      41.103  23.792  26.389  1.00  0.00    -0.460 OA
BRANCH  32  33
ATOM     33  C   UNL A   1      42.360  23.378  26.645  1.00  0.00     0.338 C 
ATOM     34  O   UNL A   1      42.771  22.231  26.679  1.00  0.00    -0.246 OA
BRANCH  33  35
ATOM     35  C   UNL A   1      43.229  24.578  26.651  1.00  0.00     0.060 A 
ATOM     36  C   UNL A   1      43.545  25.187  25.428  1.00  0.00     0.016 A 
ATOM     37  C   UNL A   1      43.675  25.137  27.852  1.00  0.00     0.016 A 
ATOM     38  C   UNL A   1      44.332  26.338  25.402  1.00  0.00     0.010 A 
ATOM     39  C   UNL A   1      44.488  26.273  27.824  1.00  0.00     0.010 A 
ATOM     40  C   UNL A   1      44.846  26.859  26.598  1.00  0.00    -0.014 A 
BRANCH  40  41
ATOM     41  C   UNL A   1      45.946  27.852  26.543  1.00  0.00     0.031 A 
ATOM     42  C   UNL A   1      45.575  29.308  26.630  1.00  0.00     0.074 A 
ATOM     43  C   UNL A   1      47.237  27.486  26.452  1.00  0.00     0.049 A 
ATOM     44  N   UNL A   1      46.341  30.366  26.597  1.00  0.00    -0.248 NA
ATOM     45  C   UNL A   1      44.140  29.607  26.776  1.00  0.00     0.031 C 
ATOM     46  C   UNL A   1      47.729  26.111  26.395  1.00  0.00     0.029 A 
ATOM     47  N   UNL A   1      48.372  28.255  26.385  1.00  0.00    -0.354 N 
ATOM     48  C   UNL A   1      45.485  31.452  26.726  1.00  0.00     0.074 A 
ATOM     49  C   UNL A   1      44.139  30.930  26.802  1.00  0.00     0.031 C 
ATOM     50  C   UNL A   1      49.071  26.134  26.290  1.00  0.00     0.029 A 
ATOM     51  C   UNL A   1      49.527  27.522  26.248  1.00  0.00     0.049 A 
ATOM     52  H   UNL A   1      48.361  29.238  26.432  1.00  0.00     0.167 HD
ATOM     53  C   UNL A   1      45.791  32.768  26.788  1.00  0.00     0.037 A 
ATOM     54  C   UNL A   1      50.801  27.935  26.091  1.00  0.00     0.037 A 
ATOM     55  C   UNL A   1      47.125  33.294  26.696  1.00  0.00     0.049 A 
ATOM     56  C   UNL A   1      51.107  29.412  26.079  1.00  0.00     0.074 A 
ATOM     57  C   UNL A   1      47.537  34.613  26.748  1.00  0.00     0.029 A 
ATOM     58  N   UNL A   1      48.264  32.522  26.523  1.00  0.00    -0.354 N 
ATOM     59  N   UNL A   1      50.293  30.430  26.233  1.00  0.00    -0.248 NA
ATOM     60  C   UNL A   1      52.512  29.798  25.874  1.00  0.00     0.031 C 
ATOM     61  C   UNL A   1      48.923  34.644  26.560  1.00  0.00     0.029 A 
ATOM     62  C   UNL A   1      49.378  33.340  26.443  1.00  0.00     0.049 A 
ATOM     63  H   UNL A   1      48.278  31.540  26.465  1.00  0.00     0.167 HD
ATOM     64  C   UNL A   1      51.090  31.568  26.174  1.00  0.00     0.074 A 
ATOM     65  C   UNL A   1      52.452  31.117  25.988  1.00  0.00     0.031 C 
ATOM     66  C   UNL A   1      50.728  32.872  26.266  1.00  0.00     0.037 A 
BRANCH  53  67
ATOM     67  C   UNL A   1      44.653  33.732  26.944  1.00  0.00     0.057 A 
ATOM     68  C   UNL A   1      44.235  34.181  28.203  1.00  0.00     0.134 A 
ATOM     69  C   UNL A   1      43.986  34.236  25.822  1.00  0.00     0.134 A 
ATOM     70  F   UNL A   1      44.819  33.717  29.319  1.00  0.00    -0.206 F 
ATOM     71  C   UNL A   1      43.183  35.087  28.341  1.00  0.00     0.040 A 
ATOM     72  C   UNL A   1      42.949  35.162  25.945  1.00  0.00     0.040 A 
ATOM     73  F   UNL A   1      44.336  33.844  24.587  1.00  0.00    -0.206 F 
ATOM     74  C   UNL A   1      42.542  35.587  27.208  1.00  0.00     0.006 A 
ENDBRANCH  53  67
BRANCH  54  75
ATOM     75  C   UNL A   1      51.896  26.946  25.908  1.00  0.00     0.057 A 
ATOM     76  C   UNL A   1      52.653  26.487  26.993  1.00  0.00     0.134 A 
ATOM     77  C   UNL A   1      52.254  26.485  24.635  1.00  0.00     0.134 A 
ATOM     78  F   UNL A   1      52.380  26.915  28.234  1.00  0.00    -0.206 F 
ATOM     79  C   UNL A   1      53.739  25.627  26.818  1.00  0.00     0.040 A 
ATOM     80  C   UNL A   1      53.321  25.604  24.447  1.00  0.00     0.040 A 
ATOM     81  F   UNL A   1      51.574  26.889  23.552  1.00  0.00    -0.206 F 
ATOM     82  C   UNL A   1      54.074  25.180  25.541  1.00  0.00     0.006 A 
ENDBRANCH  54  75
BRANCH  66  83
ATOM     83  C   UNL A   1      51.822  33.899  26.203  1.00  0.00     0.057 A 
ATOM     84  C   UNL A   1      52.505  34.327  27.348  1.00  0.00     0.134 A 
ATOM     85  C   UNL A   1      52.220  34.440  24.973  1.00  0.00     0.134 A 
ATOM     86  F   UNL A   1      52.165  33.856  28.558  1.00  0.00    -0.206 F 
ATOM     87  C   UNL A   1      53.527  35.276  27.276  1.00  0.00     0.040 A 
ATOM     88  C   UNL A   1      53.260  35.367  24.885  1.00  0.00     0.040 A 
ATOM     89  F   UNL A   1      51.617  34.063  23.835  1.00  0.00    -0.206 F 
ATOM     90  C   UNL A   1      53.911  35.793  26.041  1.00  0.00     0.006 A 
ENDBRANCH  66  83
ENDBRANCH  40  41
ENDBRANCH  33  35
ENDBRANCH  32  33
ENDBRANCH  31  32
ENDBRANCH  30  31
ENDBRANCH  29  30
ENDBRANCH  28  29
ENDBRANCH  27  28
ENDBRANCH  26  27
ENDBRANCH   1  26
TORSDOF 23
ENDMDL
MODEL 3
REMARK VINA RESULT:      -9.6      2.048      6.517
REMARK SMILES O=C(Cc1ccc(-c2ccn(C(F)F)c(=O)c2)cc1)OCCOCCOCCOCCOC(=O)c1ccc(-c2c3nc(c(-c4c(F)cccc4F)c4ccc([nH]4)c(-c4c(F)cccc4F)c4nc(c(-c5c(F)cccc5F)c5ccc2[nH]5)C=C4)C=C3)cc1
REMARK SMILES IDX 25 1 24 2 23 3 22 4 21 5 20 6 2 7 1 8 3 9 4 10 5 11 19 12
REMARK SMILES IDX 6 13 18 14 7 15 8 16 9 17 17 18 10 19 15 20 11 21 16 22
REMARK SMILES IDX 12 23 13 24 14 25 26 26 27 27 28 28 29 29 30 30 31 31 32 32
REMARK SMILES IDX 33 33 34 34 35 35 36 36 88 37 37 38 87 39 38 40 39 41 40 42
REMARK SMILES IDX 81 43 41 44 86 45 80 46 82 47 42 48 85 49 79 50 78 51 43 53
REMARK SMILES IDX 69 54 52 55 68 56 53 57 56 58 67 59 83 60 54 61 55 62 66 64
REMARK SMILES IDX 84 65 57 66 44 67 45 68 50 69 46 70 47 71 49 72 51 73 48 74
REMARK SMILES IDX 70 75 71 76 76 77 72 78 73 79 75 80 77 81 74 82 58 83 59 84
REMARK SMILES IDX 64 85 60 86 61 87 63 88 65 89 62 90
REMARK H PARENT 82 52 56 63
REMARK Flexibility Score: inf
ROOT
ATOM      1  C   UNL A   1      33.039  33.333  27.945  1.00  0.00     0.188 C 
ENDROOT
BRANCH   1   2
ATOM      2  C   UNL A   1      32.163  32.539  26.968  1.00  0.00     0.188 C 
BRANCH   2   3
ATOM      3  O   UNL A   1      32.025  31.165  27.293  1.00  0.00    -0.376 OA
BRANCH   3   4
ATOM      4  C   UNL A   1      32.591  30.122  26.532  1.00  0.00     0.202 C 
BRANCH   4   5
ATOM      5  C   UNL A   1      32.069  29.852  25.126  1.00  0.00     0.261 C 
BRANCH   5   6
ATOM      6  O   UNL A   1      32.916  29.122  24.209  1.00  0.00    -0.463 OA
BRANCH   6   7
ATOM      7  C   UNL A   1      32.677  28.614  22.987  1.00  0.00     0.310 C 
ATOM      8  O   UNL A   1      31.648  28.947  22.398  1.00  0.00    -0.252 OA
BRANCH   7   9
ATOM      9  C   UNL A   1      33.592  27.586  22.381  1.00  0.00     0.158 C 
BRANCH   9  10
ATOM     10  C   UNL A   1      33.507  26.170  22.878  1.00  0.00    -0.037 A 
ATOM     11  C   UNL A   1      34.034  25.769  24.108  1.00  0.00     0.005 A 
ATOM     12  C   UNL A   1      32.895  25.218  22.044  1.00  0.00     0.005 A 
ATOM     13  C   UNL A   1      33.925  24.445  24.513  1.00  0.00     0.009 A 
ATOM     14  C   UNL A   1      32.818  23.884  22.431  1.00  0.00     0.009 A 
ATOM     15  C   UNL A   1      33.346  23.497  23.663  1.00  0.00    -0.018 A 
BRANCH  15  16
ATOM     16  C   UNL A   1      33.492  22.080  23.996  1.00  0.00    -0.011 A 
ATOM     17  C   UNL A   1      32.408  21.162  23.724  1.00  0.00     0.027 A 
ATOM     18  C   UNL A   1      34.656  21.622  24.483  1.00  0.00     0.080 A 
ATOM     19  C   UNL A   1      32.568  19.853  23.921  1.00  0.00     0.095 A 
ATOM     20  C   UNL A   1      34.841  20.163  24.725  1.00  0.00     0.255 A 
ATOM     21  N   UNL A   1      33.761  19.353  24.405  1.00  0.00    -0.258 N 
ATOM     22  O   UNL A   1      35.919  19.777  25.165  1.00  0.00    -0.269 OA
BRANCH  21  23
ATOM     23  C   UNL A   1      33.920  17.938  24.603  1.00  0.00     0.451 C 
ATOM     24  F   UNL A   1      33.179  17.506  25.652  1.00  0.00    -0.185 F 
ATOM     25  F   UNL A   1      33.540  17.247  23.502  1.00  0.00    -0.185 F 
ENDBRANCH  21  23
ENDBRANCH  15  16
ENDBRANCH   9  10
ENDBRANCH   7   9
ENDBRANCH   6   7
ENDBRANCH   5   6
ENDBRANCH   4   5
ENDBRANCH   3   4
ENDBRANCH   2   3
ENDBRANCH   1   2
BRANCH   1  26
ATOM     26  O   UNL A   1      32.532  34.611  28.325  1.00  0.00    -0.377 OA
BRANCH  26  27
ATOM     27  C   UNL A   1      33.322  35.308  29.285  1.00  0.00     0.188 C 
BRANCH  27  28
ATOM     28  C   UNL A   1      33.914  34.402  30.383  1.00  0.00     0.188 C 
BRANCH  28  29
ATOM     29  O   UNL A   1      35.323  34.540  30.538  1.00  0.00    -0.376 OA
BRANCH  29  30
ATOM     30  C   UNL A   1      35.958  33.612  31.409  1.00  0.00     0.202 C 
BRANCH  30  31
ATOM     31  C   UNL A   1      35.347  32.204  31.482  1.00  0.00     0.261 C 
BRANCH  31  32
ATOM     32  O   UNL A   1      36.203  31.119  31.077  1.00  0.00    -0.460 OA
BRANCH  32  33
ATOM     33  C   UNL A   1      36.135  30.681  29.804  1.00  0.00     0.338 C 
ATOM     34  O   UNL A   1      35.249  30.893  28.993  1.00  0.00    -0.246 OA
BRANCH  33  35
ATOM     35  C   UNL A   1      37.447  30.082  29.469  1.00  0.00     0.060 A 
ATOM     36  C   UNL A   1      38.219  29.531  30.502  1.00  0.00     0.016 A 
ATOM     37  C   UNL A   1      37.886  30.005  28.144  1.00  0.00     0.016 A 
ATOM     38  C   UNL A   1      39.443  28.928  30.216  1.00  0.00     0.010 A 
ATOM     39  C   UNL A   1      39.127  29.427  27.861  1.00  0.00     0.010 A 
ATOM     40  C   UNL A   1      39.924  28.916  28.899  1.00  0.00    -0.014 A 
BRANCH  40  41
ATOM     41  C   UNL A   1      41.351  28.598  28.651  1.00  0.00     0.031 A 
ATOM     42  C   UNL A   1      41.695  27.181  28.277  1.00  0.00     0.074 A 
ATOM     43  C   UNL A   1      42.315  29.533  28.720  1.00  0.00     0.049 A 
ATOM     44  N   UNL A   1      42.860  26.647  28.019  1.00  0.00    -0.248 NA
ATOM     45  C   UNL A   1      40.565  26.241  28.181  1.00  0.00     0.031 C 
ATOM     46  C   UNL A   1      42.110  30.945  29.038  1.00  0.00     0.029 A 
ATOM     47  N   UNL A   1      43.670  29.424  28.529  1.00  0.00    -0.354 N 
ATOM     48  C   UNL A   1      42.602  25.315  27.723  1.00  0.00     0.074 A 
ATOM     49  C   UNL A   1      41.178  25.111  27.867  1.00  0.00     0.031 C 
ATOM     50  C   UNL A   1      43.302  31.570  29.032  1.00  0.00     0.029 A 
ATOM     51  C   UNL A   1      44.353  30.599  28.734  1.00  0.00     0.049 A 
ATOM     52  H   UNL A   1      44.112  28.583  28.271  1.00  0.00     0.167 HD
ATOM     53  C   UNL A   1      43.471  24.347  27.351  1.00  0.00     0.037 A 
ATOM     54  C   UNL A   1      45.678  30.849  28.699  1.00  0.00     0.037 A 
ATOM     55  C   UNL A   1      44.889  24.540  27.223  1.00  0.00     0.049 A 
ATOM     56  C   UNL A   1      46.635  29.731  28.364  1.00  0.00     0.074 A 
ATOM     57  C   UNL A   1      45.854  23.621  26.853  1.00  0.00     0.029 A 
ATOM     58  N   UNL A   1      45.546  25.735  27.472  1.00  0.00    -0.354 N 
ATOM     59  N   UNL A   1      46.378  28.483  28.054  1.00  0.00    -0.248 NA
ATOM     60  C   UNL A   1      48.069  30.062  28.371  1.00  0.00     0.031 C 
ATOM     61  C   UNL A   1      47.102  24.247  26.922  1.00  0.00     0.029 A 
ATOM     62  C   UNL A   1      46.908  25.571  27.286  1.00  0.00     0.049 A 
ATOM     63  H   UNL A   1      45.110  26.575  27.742  1.00  0.00     0.167 HD
ATOM     64  C   UNL A   1      47.611  27.890  27.802  1.00  0.00     0.074 A 
ATOM     65  C   UNL A   1      48.614  28.919  27.977  1.00  0.00     0.031 C 
ATOM     66  C   UNL A   1      47.891  26.609  27.456  1.00  0.00     0.037 A 
BRANCH  53  67
ATOM     67  C   UNL A   1      42.908  22.985  27.077  1.00  0.00     0.057 A 
ATOM     68  C   UNL A   1      42.724  22.513  25.771  1.00  0.00     0.134 A 
ATOM     69  C   UNL A   1      42.570  22.127  28.130  1.00  0.00     0.134 A 
ATOM     70  F   UNL A   1      43.009  23.296  24.718  1.00  0.00    -0.206 F 
ATOM     71  C   UNL A   1      42.211  21.239  25.522  1.00  0.00     0.040 A 
ATOM     72  C   UNL A   1      42.079  20.842  27.894  1.00  0.00     0.040 A 
ATOM     73  F   UNL A   1      42.718  22.521  29.404  1.00  0.00    -0.206 F 
ATOM     74  C   UNL A   1      41.894  20.397  26.587  1.00  0.00     0.006 A 
ENDBRANCH  53  67
BRANCH  54  75
ATOM     75  C   UNL A   1      46.197  32.207  29.008  1.00  0.00     0.057 A 
ATOM     76  C   UNL A   1      46.539  32.577  30.314  1.00  0.00     0.134 A 
ATOM     77  C   UNL A   1      46.304  33.188  28.014  1.00  0.00     0.134 A 
ATOM     78  F   UNL A   1      46.430  31.692  31.316  1.00  0.00    -0.206 F 
ATOM     79  C   UNL A   1      46.944  33.877  30.626  1.00  0.00     0.040 A 
ATOM     80  C   UNL A   1      46.733  34.484  28.306  1.00  0.00     0.040 A 
ATOM     81  F   UNL A   1      45.987  32.901  26.743  1.00  0.00    -0.206 F 
ATOM     82  C   UNL A   1      47.044  34.834  29.618  1.00  0.00     0.006 A 
ENDBRANCH  54  75
BRANCH  66  83
ATOM     83  C   UNL A   1      49.329  26.259  27.209  1.00  0.00     0.057 A 
ATOM     84  C   UNL A   1      50.219  25.996  28.258  1.00  0.00     0.134 A 
ATOM     85  C   UNL A   1      49.821  26.147  25.902  1.00  0.00     0.134 A 
ATOM     86  F   UNL A   1      49.815  26.096  29.534  1.00  0.00    -0.206 F 
ATOM     87  C   UNL A   1      51.554  25.662  28.017  1.00  0.00     0.040 A 
ATOM     88  C   UNL A   1      51.145  25.786  25.647  1.00  0.00     0.040 A 
ATOM     89  F   UNL A   1      49.019  26.372  24.850  1.00  0.00    -0.206 F 
ATOM     90  C   UNL A   1      52.017  25.550  26.708  1.00  0.00     0.006 A 
ENDBRANCH  66  83
ENDBRANCH  40  41
ENDBRANCH  33  35
ENDBRANCH  32  33
ENDBRANCH  31  32
ENDBRANCH  30  31
ENDBRANCH  29  30
ENDBRANCH  28  29
ENDBRANCH  27  28
ENDBRANCH  26  27
ENDBRANCH   1  26
TORSDOF 23
ENDMDL
