MODEL 1
REMARK VINA RESULT:      -9.0      0.000      0.000
REMARK SMILES C[C@@H](Sc1ccccc1[N+](=O)[O-])[C@@H](C)C(=O)OCCOCCOCCOCCOC(=O)c1ccc(-c2c3nc(c(-c4c(F)cccc4F)c4ccc([nH]4)c(-c4c(F)cccc4F)c4nc(c(-c5c(F)cccc5F)c5ccc2[nH]5)C=C4)C=C3)cc1
REMARK SMILES IDX 22 1 21 2 20 3 19 4 18 5 17 6 15 7 16 8 13 9 14 10 2 11 1 12
REMARK SMILES IDX 3 13 4 14 5 15 9 16 6 17 8 18 7 19 10 20 11 21 12 22 23 23
REMARK SMILES IDX 24 24 25 25 26 26 27 27 28 28 29 29 30 30 31 31 32 32 33 33
REMARK SMILES IDX 85 34 34 35 84 36 35 37 36 38 37 39 78 40 38 41 83 42 77 43
REMARK SMILES IDX 79 44 39 45 82 46 76 47 75 48 40 50 66 51 49 52 65 53 50 54
REMARK SMILES IDX 53 55 64 56 80 57 51 58 52 59 63 61 81 62 54 63 41 64 42 65
REMARK SMILES IDX 47 66 43 67 44 68 46 69 48 70 45 71 67 72 68 73 73 74 69 75
REMARK SMILES IDX 70 76 72 77 74 78 71 79 55 80 56 81 61 82 57 83 58 84 60 85
REMARK SMILES IDX 62 86 59 87
REMARK H PARENT 79 49 53 60
REMARK Flexibility Score: inf
ROOT
ATOM      1  C   UNL A   1      32.788  25.455  26.120  1.00  0.00     0.188 C 
ENDROOT
BRANCH   1   2
ATOM      2  C   UNL A   1      34.150  25.286  25.455  1.00  0.00     0.188 C 
BRANCH   2   3
ATOM      3  O   UNL A   1      34.464  24.003  24.916  1.00  0.00    -0.376 OA
BRANCH   3   4
ATOM      4  C   UNL A   1      33.465  22.999  25.019  1.00  0.00     0.202 C 
BRANCH   4   5
ATOM      5  C   UNL A   1      32.806  22.671  23.662  1.00  0.00     0.261 C 
BRANCH   5   6
ATOM      6  O   UNL A   1      32.723  23.734  22.672  1.00  0.00    -0.463 OA
BRANCH   6   7
ATOM      7  C   UNL A   1      31.619  24.520  22.753  1.00  0.00     0.309 C 
ATOM      8  O   UNL A   1      30.520  24.118  23.134  1.00  0.00    -0.252 OA
BRANCH   7   9
ATOM      9  C   UNL A   1      31.745  25.925  22.154  1.00  0.00     0.109 C 
ATOM     10  C   UNL A   1      32.753  25.709  21.006  1.00  0.00     0.021 C 
BRANCH   9  11
ATOM     11  C   UNL A   1      32.059  27.214  23.008  1.00  0.00     0.063 C 
ATOM     12  C   UNL A   1      33.515  27.652  22.774  1.00  0.00     0.020 C 
BRANCH  11  13
ATOM     13  S   UNL A   1      31.026  28.701  22.496  1.00  0.00    -0.115 SA
BRANCH  13  14
ATOM     14  C   UNL A   1      29.293  28.284  22.836  1.00  0.00     0.085 A 
ATOM     15  C   UNL A   1      29.058  27.066  23.498  1.00  0.00     0.022 A 
ATOM     16  C   UNL A   1      28.172  29.119  22.691  1.00  0.00     0.282 A 
ATOM     17  C   UNL A   1      27.786  26.725  23.996  1.00  0.00     0.002 A 
ATOM     18  C   UNL A   1      26.901  28.808  23.215  1.00  0.00     0.087 A 
ATOM     19  C   UNL A   1      26.713  27.603  23.875  1.00  0.00     0.007 A 
BRANCH  16  20
ATOM     20  N   UNL A   1      28.275  30.417  22.092  1.00  0.00     0.063 N 
ATOM     21  O   UNL A   1      28.180  30.496  20.860  1.00  0.00    -0.258 OA
ATOM     22  O   UNL A   1      28.334  31.364  22.867  1.00  0.00    -0.258 OA
ENDBRANCH  16  20
ENDBRANCH  13  14
ENDBRANCH  11  13
ENDBRANCH   9  11
ENDBRANCH   7   9
ENDBRANCH   6   7
ENDBRANCH   5   6
ENDBRANCH   4   5
ENDBRANCH   3   4
ENDBRANCH   2   3
ENDBRANCH   1   2
BRANCH   1  23
ATOM     23  O   UNL A   1      32.476  26.748  26.606  1.00  0.00    -0.377 OA
BRANCH  23  24
ATOM     24  C   UNL A   1      33.414  27.810  26.561  1.00  0.00     0.188 C 
BRANCH  24  25
ATOM     25  C   UNL A   1      32.999  29.230  26.182  1.00  0.00     0.188 C 
BRANCH  25  26
ATOM     26  O   UNL A   1      32.459  30.106  27.163  1.00  0.00    -0.376 OA
BRANCH  26  27
ATOM     27  C   UNL A   1      33.129  31.318  27.502  1.00  0.00     0.202 C 
BRANCH  27  28
ATOM     28  C   UNL A   1      34.647  31.282  27.626  1.00  0.00     0.261 C 
BRANCH  28  29
ATOM     29  O   UNL A   1      35.036  30.549  28.797  1.00  0.00    -0.460 OA
BRANCH  29  30
ATOM     30  C   UNL A   1      36.179  30.965  29.373  1.00  0.00     0.338 C 
ATOM     31  O   UNL A   1      36.319  31.884  30.158  1.00  0.00    -0.246 OA
BRANCH  30  32
ATOM     32  C   UNL A   1      37.269  30.026  29.049  1.00  0.00     0.060 A 
ATOM     33  C   UNL A   1      37.848  29.351  30.128  1.00  0.00     0.016 A 
ATOM     34  C   UNL A   1      37.784  29.883  27.757  1.00  0.00     0.016 A 
ATOM     35  C   UNL A   1      39.018  28.630  29.944  1.00  0.00     0.010 A 
ATOM     36  C   UNL A   1      38.961  29.151  27.570  1.00  0.00     0.010 A 
ATOM     37  C   UNL A   1      39.623  28.598  28.681  1.00  0.00    -0.014 A 
BRANCH  37  38
ATOM     38  C   UNL A   1      41.066  28.256  28.627  1.00  0.00     0.031 A 
ATOM     39  C   UNL A   1      41.446  26.847  28.245  1.00  0.00     0.074 A 
ATOM     40  C   UNL A   1      42.012  29.201  28.763  1.00  0.00     0.049 A 
ATOM     41  N   UNL A   1      42.627  26.335  28.016  1.00  0.00    -0.248 NA
ATOM     42  C   UNL A   1      40.340  25.885  28.098  1.00  0.00     0.031 C 
ATOM     43  C   UNL A   1      41.769  30.605  29.085  1.00  0.00     0.029 A 
ATOM     44  N   UNL A   1      43.374  29.116  28.622  1.00  0.00    -0.354 N 
ATOM     45  C   UNL A   1      42.404  24.998  27.702  1.00  0.00     0.074 A 
ATOM     46  C   UNL A   1      40.984  24.763  27.820  1.00  0.00     0.031 C 
ATOM     47  C   UNL A   1      42.945  31.256  29.106  1.00  0.00     0.029 A 
ATOM     48  C   UNL A   1      44.022  30.311  28.814  1.00  0.00     0.049 A 
ATOM     49  H   UNL A   1      43.843  28.278  28.403  1.00  0.00     0.167 HD
ATOM     50  C   UNL A   1      43.297  24.054  27.323  1.00  0.00     0.037 A 
ATOM     51  C   UNL A   1      45.336  30.603  28.757  1.00  0.00     0.037 A 
ATOM     52  C   UNL A   1      44.708  24.289  27.188  1.00  0.00     0.049 A 
ATOM     53  C   UNL A   1      46.316  29.521  28.380  1.00  0.00     0.074 A 
ATOM     54  C   UNL A   1      45.698  23.402  26.807  1.00  0.00     0.029 A 
ATOM     55  N   UNL A   1      45.328  25.506  27.429  1.00  0.00    -0.354 N 
ATOM     56  N   UNL A   1      46.090  28.267  28.064  1.00  0.00    -0.248 NA
ATOM     57  C   UNL A   1      47.734  29.904  28.333  1.00  0.00     0.031 C 
ATOM     58  C   UNL A   1      46.926  24.069  26.864  1.00  0.00     0.029 A 
ATOM     59  C   UNL A   1      46.691  25.388  27.220  1.00  0.00     0.049 A 
ATOM     60  H   UNL A   1      44.868  26.330  27.707  1.00  0.00     0.167 HD
ATOM     61  C   UNL A   1      47.330  27.726  27.741  1.00  0.00     0.074 A 
ATOM     62  C   UNL A   1      48.300  28.791  27.888  1.00  0.00     0.031 C 
ATOM     63  C   UNL A   1      47.640  26.464  27.354  1.00  0.00     0.037 A 
BRANCH  50  64
ATOM     64  C   UNL A   1      42.767  22.676  27.050  1.00  0.00     0.057 A 
ATOM     65  C   UNL A   1      42.610  22.183  25.747  1.00  0.00     0.134 A 
ATOM     66  C   UNL A   1      42.418  21.827  28.108  1.00  0.00     0.134 A 
ATOM     67  F   UNL A   1      42.906  22.953  24.688  1.00  0.00    -0.206 F 
ATOM     68  C   UNL A   1      42.101  20.905  25.507  1.00  0.00     0.040 A 
ATOM     69  C   UNL A   1      41.937  20.536  27.880  1.00  0.00     0.040 A 
ATOM     70  F   UNL A   1      42.542  22.236  29.379  1.00  0.00    -0.206 F 
ATOM     71  C   UNL A   1      41.770  20.076  26.576  1.00  0.00     0.006 A 
ENDBRANCH  50  64
BRANCH  51  72
ATOM     72  C   UNL A   1      45.810  31.979  29.054  1.00  0.00     0.057 A 
ATOM     73  C   UNL A   1      45.952  32.938  28.044  1.00  0.00     0.134 A 
ATOM     74  C   UNL A   1      46.179  32.352  30.353  1.00  0.00     0.134 A 
ATOM     75  F   UNL A   1      45.639  32.635  26.776  1.00  0.00    -0.206 F 
ATOM     76  C   UNL A   1      46.472  34.207  28.309  1.00  0.00     0.040 A 
ATOM     77  C   UNL A   1      46.673  33.626  30.636  1.00  0.00     0.040 A 
ATOM     78  F   UNL A   1      46.066  31.481  31.366  1.00  0.00    -0.206 F 
ATOM     79  C   UNL A   1      46.831  34.555  29.609  1.00  0.00     0.006 A 
ENDBRANCH  51  72
BRANCH  63  80
ATOM     80  C   UNL A   1      49.073  26.182  27.000  1.00  0.00     0.057 A 
ATOM     81  C   UNL A   1      50.023  25.822  27.964  1.00  0.00     0.134 A 
ATOM     82  C   UNL A   1      49.499  26.251  25.668  1.00  0.00     0.134 A 
ATOM     83  F   UNL A   1      49.684  25.743  29.259  1.00  0.00    -0.206 F 
ATOM     84  C   UNL A   1      51.354  25.577  27.619  1.00  0.00     0.040 A 
ATOM     85  C   UNL A   1      50.819  25.977  25.306  1.00  0.00     0.040 A 
ATOM     86  F   UNL A   1      48.638  26.574  24.691  1.00  0.00    -0.206 F 
ATOM     87  C   UNL A   1      51.754  25.650  26.286  1.00  0.00     0.006 A 
ENDBRANCH  63  80
ENDBRANCH  37  38
ENDBRANCH  30  32
ENDBRANCH  29  30
ENDBRANCH  28  29
ENDBRANCH  27  28
ENDBRANCH  26  27
ENDBRANCH  25  26
ENDBRANCH  24  25
ENDBRANCH  23  24
ENDBRANCH   1  23
TORSDOF 24
ENDMDL
MODEL 2
REMARK VINA RESULT:      -8.9      5.023     10.338
REMARK SMILES C[C@@H](Sc1ccccc1[N+](=O)[O-])[C@@H](C)C(=O)OCCOCCOCCOCCOC(=O)c1ccc(-c2c3nc(c(-c4c(F)cccc4F)c4ccc([nH]4)c(-c4c(F)cccc4F)c4nc(c(-c5c(F)cccc5F)c5ccc2[nH]5)C=C4)C=C3)cc1
REMARK SMILES IDX 22 1 21 2 20 3 19 4 18 5 17 6 15 7 16 8 13 9 14 10 2 11 1 12
REMARK SMILES IDX 3 13 4 14 5 15 9 16 6 17 8 18 7 19 10 20 11 21 12 22 23 23
REMARK SMILES IDX 24 24 25 25 26 26 27 27 28 28 29 29 30 30 31 31 32 32 33 33
REMARK SMILES IDX 85 34 34 35 84 36 35 37 36 38 37 39 78 40 38 41 83 42 77 43
REMARK SMILES IDX 79 44 39 45 82 46 76 47 75 48 40 50 66 51 49 52 65 53 50 54
REMARK SMILES IDX 53 55 64 56 80 57 51 58 52 59 63 61 81 62 54 63 41 64 42 65
REMARK SMILES IDX 47 66 43 67 44 68 46 69 48 70 45 71 67 72 68 73 73 74 69 75
REMARK SMILES IDX 70 76 72 77 74 78 71 79 55 80 56 81 61 82 57 83 58 84 60 85
REMARK SMILES IDX 62 86 59 87
REMARK H PARENT 79 49 53 60
REMARK Flexibility Score: inf
ROOT
ATOM      1  C   UNL A   1      32.925  25.026  25.776  1.00  0.00     0.188 C 
ENDROOT
BRANCH   1   2
ATOM      2  C   UNL A   1      34.149  24.468  25.059  1.00  0.00     0.188 C 
BRANCH   2   3
ATOM      3  O   UNL A   1      34.844  23.391  25.686  1.00  0.00    -0.376 OA
BRANCH   3   4
ATOM      4  C   UNL A   1      35.919  22.810  24.962  1.00  0.00     0.202 C 
BRANCH   4   5
ATOM      5  C   UNL A   1      36.882  22.008  25.862  1.00  0.00     0.261 C 
BRANCH   5   6
ATOM      6  O   UNL A   1      38.160  21.601  25.297  1.00  0.00    -0.463 OA
BRANCH   6   7
ATOM      7  C   UNL A   1      39.235  21.766  26.110  1.00  0.00     0.309 C 
ATOM      8  O   UNL A   1      39.375  22.721  26.874  1.00  0.00    -0.252 OA
BRANCH   7   9
ATOM      9  C   UNL A   1      40.396  20.787  25.900  1.00  0.00     0.109 C 
ATOM     10  C   UNL A   1      39.677  19.423  25.849  1.00  0.00     0.021 C 
BRANCH   9  11
ATOM     11  C   UNL A   1      41.691  20.762  26.800  1.00  0.00     0.063 C 
ATOM     12  C   UNL A   1      41.947  19.331  27.303  1.00  0.00     0.020 C 
BRANCH  11  13
ATOM     13  S   UNL A   1      43.250  21.220  25.851  1.00  0.00    -0.115 SA
BRANCH  13  14
ATOM     14  C   UNL A   1      43.825  22.810  26.513  1.00  0.00     0.085 A 
ATOM     15  C   UNL A   1      43.133  23.313  27.628  1.00  0.00     0.022 A 
ATOM     16  C   UNL A   1      44.996  23.504  26.163  1.00  0.00     0.282 A 
ATOM     17  C   UNL A   1      43.602  24.425  28.353  1.00  0.00     0.002 A 
ATOM     18  C   UNL A   1      45.497  24.596  26.900  1.00  0.00     0.087 A 
ATOM     19  C   UNL A   1      44.794  25.053  28.004  1.00  0.00     0.007 A 
BRANCH  16  20
ATOM     20  N   UNL A   1      45.834  23.067  25.086  1.00  0.00     0.063 N 
ATOM     21  O   UNL A   1      46.437  21.994  25.219  1.00  0.00    -0.258 OA
ATOM     22  O   UNL A   1      45.793  23.743  24.065  1.00  0.00    -0.258 OA
ENDBRANCH  16  20
ENDBRANCH  13  14
ENDBRANCH  11  13
ENDBRANCH   9  11
ENDBRANCH   7   9
ENDBRANCH   6   7
ENDBRANCH   5   6
ENDBRANCH   4   5
ENDBRANCH   3   4
ENDBRANCH   2   3
ENDBRANCH   1   2
BRANCH   1  23
ATOM     23  O   UNL A   1      32.664  26.407  25.603  1.00  0.00    -0.377 OA
BRANCH  23  24
ATOM     24  C   UNL A   1      33.179  27.132  24.499  1.00  0.00     0.188 C 
BRANCH  24  25
ATOM     25  C   UNL A   1      33.276  28.657  24.515  1.00  0.00     0.188 C 
BRANCH  25  26
ATOM     26  O   UNL A   1      32.967  29.383  25.698  1.00  0.00    -0.376 OA
BRANCH  26  27
ATOM     27  C   UNL A   1      31.733  30.089  25.815  1.00  0.00     0.202 C 
BRANCH  27  28
ATOM     28  C   UNL A   1      31.759  31.463  26.471  1.00  0.00     0.261 C 
BRANCH  28  29
ATOM     29  O   UNL A   1      32.988  31.653  27.186  1.00  0.00    -0.460 OA
BRANCH  29  30
ATOM     30  C   UNL A   1      33.158  32.884  27.705  1.00  0.00     0.338 C 
ATOM     31  O   UNL A   1      32.415  33.841  27.595  1.00  0.00    -0.246 OA
BRANCH  30  32
ATOM     32  C   UNL A   1      34.330  32.888  28.601  1.00  0.00     0.060 A 
ATOM     33  C   UNL A   1      35.557  33.210  28.015  1.00  0.00     0.016 A 
ATOM     34  C   UNL A   1      34.258  32.490  29.939  1.00  0.00     0.016 A 
ATOM     35  C   UNL A   1      36.733  33.016  28.725  1.00  0.00     0.010 A 
ATOM     36  C   UNL A   1      35.443  32.300  30.658  1.00  0.00     0.010 A 
ATOM     37  C   UNL A   1      36.683  32.481  30.019  1.00  0.00    -0.014 A 
BRANCH  37  38
ATOM     38  C   UNL A   1      37.917  31.845  30.540  1.00  0.00     0.031 A 
ATOM     39  C   UNL A   1      38.317  32.137  31.965  1.00  0.00     0.074 A 
ATOM     40  C   UNL A   1      38.582  30.920  29.825  1.00  0.00     0.049 A 
ATOM     41  N   UNL A   1      39.279  31.619  32.684  1.00  0.00    -0.248 NA
ATOM     42  C   UNL A   1      37.520  33.151  32.677  1.00  0.00     0.031 C 
ATOM     43  C   UNL A   1      38.264  30.518  28.457  1.00  0.00     0.029 A 
ATOM     44  N   UNL A   1      39.652  30.134  30.171  1.00  0.00    -0.354 N 
ATOM     45  C   UNL A   1      39.200  32.244  33.925  1.00  0.00     0.074 A 
ATOM     46  C   UNL A   1      38.135  33.215  33.847  1.00  0.00     0.031 C 
ATOM     47  C   UNL A   1      39.117  29.548  28.080  1.00  0.00     0.029 A 
ATOM     48  C   UNL A   1      40.047  29.276  29.175  1.00  0.00     0.049 A 
ATOM     49  H   UNL A   1      40.095  30.183  31.049  1.00  0.00     0.167 HD
ATOM     50  C   UNL A   1      39.932  32.013  35.040  1.00  0.00     0.037 A 
ATOM     51  C   UNL A   1      41.045  28.371  29.158  1.00  0.00     0.037 A 
ATOM     52  C   UNL A   1      40.982  31.035  35.126  1.00  0.00     0.049 A 
ATOM     53  C   UNL A   1      41.878  28.168  30.398  1.00  0.00     0.074 A 
ATOM     54  C   UNL A   1      41.781  30.721  36.209  1.00  0.00     0.029 A 
ATOM     55  N   UNL A   1      41.375  30.212  34.083  1.00  0.00    -0.354 N 
ATOM     56  N   UNL A   1      41.780  28.749  31.571  1.00  0.00    -0.248 NA
ATOM     57  C   UNL A   1      42.950  27.166  30.315  1.00  0.00     0.031 C 
ATOM     58  C   UNL A   1      42.693  29.739  35.808  1.00  0.00     0.029 A 
ATOM     59  C   UNL A   1      42.418  29.400  34.492  1.00  0.00     0.049 A 
ATOM     60  H   UNL A   1      40.973  30.206  33.184  1.00  0.00     0.167 HD
ATOM     61  C   UNL A   1      42.746  28.153  32.374  1.00  0.00     0.074 A 
ATOM     62  C   UNL A   1      43.411  27.159  31.558  1.00  0.00     0.031 C 
ATOM     63  C   UNL A   1      43.056  28.402  33.671  1.00  0.00     0.037 A 
BRANCH  50  64
ATOM     64  C   UNL A   1      39.629  32.853  36.247  1.00  0.00     0.057 A 
ATOM     65  C   UNL A   1      40.295  34.060  36.501  1.00  0.00     0.134 A 
ATOM     66  C   UNL A   1      38.650  32.451  37.164  1.00  0.00     0.134 A 
ATOM     67  F   UNL A   1      41.260  34.492  35.673  1.00  0.00    -0.206 F 
ATOM     68  C   UNL A   1      40.016  34.823  37.636  1.00  0.00     0.040 A 
ATOM     69  C   UNL A   1      38.341  33.222  38.286  1.00  0.00     0.040 A 
ATOM     70  F   UNL A   1      37.975  31.306  36.983  1.00  0.00    -0.206 F 
ATOM     71  C   UNL A   1      39.030  34.408  38.528  1.00  0.00     0.006 A 
ENDBRANCH  50  64
BRANCH  51  72
ATOM     72  C   UNL A   1      41.315  27.578  27.931  1.00  0.00     0.057 A 
ATOM     73  C   UNL A   1      42.325  27.941  27.033  1.00  0.00     0.134 A 
ATOM     74  C   UNL A   1      40.534  26.462  27.605  1.00  0.00     0.134 A 
ATOM     75  F   UNL A   1      43.092  29.014  27.277  1.00  0.00    -0.206 F 
ATOM     76  C   UNL A   1      42.530  27.243  25.841  1.00  0.00     0.040 A 
ATOM     77  C   UNL A   1      40.746  25.738  26.431  1.00  0.00     0.040 A 
ATOM     78  F   UNL A   1      39.551  26.060  28.423  1.00  0.00    -0.206 F 
ATOM     79  C   UNL A   1      41.740  26.136  25.539  1.00  0.00     0.006 A 
ENDBRANCH  51  72
BRANCH  63  80
ATOM     80  C   UNL A   1      44.114  27.544  34.306  1.00  0.00     0.057 A 
ATOM     81  C   UNL A   1      43.816  26.318  34.913  1.00  0.00     0.134 A 
ATOM     82  C   UNL A   1      45.456  27.945  34.286  1.00  0.00     0.134 A 
ATOM     83  F   UNL A   1      42.551  25.877  34.973  1.00  0.00    -0.206 F 
ATOM     84  C   UNL A   1      44.810  25.541  35.511  1.00  0.00     0.040 A 
ATOM     85  C   UNL A   1      46.462  27.162  34.852  1.00  0.00     0.040 A 
ATOM     86  F   UNL A   1      45.814  29.102  33.706  1.00  0.00    -0.206 F 
ATOM     87  C   UNL A   1      46.138  25.960  35.477  1.00  0.00     0.006 A 
ENDBRANCH  63  80
ENDBRANCH  37  38
ENDBRANCH  30  32
ENDBRANCH  29  30
ENDBRANCH  28  29
ENDBRANCH  27  28
ENDBRANCH  26  27
ENDBRANCH  25  26
ENDBRANCH  24  25
ENDBRANCH  23  24
ENDBRANCH   1  23
TORSDOF 24
ENDMDL
MODEL 3
REMARK VINA RESULT:      -8.6      2.785      7.667
REMARK SMILES C[C@@H](Sc1ccccc1[N+](=O)[O-])[C@@H](C)C(=O)OCCOCCOCCOCCOC(=O)c1ccc(-c2c3nc(c(-c4c(F)cccc4F)c4ccc([nH]4)c(-c4c(F)cccc4F)c4nc(c(-c5c(F)cccc5F)c5ccc2[nH]5)C=C4)C=C3)cc1
REMARK SMILES IDX 22 1 21 2 20 3 19 4 18 5 17 6 15 7 16 8 13 9 14 10 2 11 1 12
REMARK SMILES IDX 3 13 4 14 5 15 9 16 6 17 8 18 7 19 10 20 11 21 12 22 23 23
REMARK SMILES IDX 24 24 25 25 26 26 27 27 28 28 29 29 30 30 31 31 32 32 33 33
REMARK SMILES IDX 85 34 34 35 84 36 35 37 36 38 37 39 78 40 38 41 83 42 77 43
REMARK SMILES IDX 79 44 39 45 82 46 76 47 75 48 40 50 66 51 49 52 65 53 50 54
REMARK SMILES IDX 53 55 64 56 80 57 51 58 52 59 63 61 81 62 54 63 41 64 42 65
REMARK SMILES IDX 47 66 43 67 44 68 46 69 48 70 45 71 67 72 68 73 73 74 69 75
REMARK SMILES IDX 70 76 72 77 74 78 71 79 55 80 56 81 61 82 57 83 58 84 60 85
REMARK SMILES IDX 62 86 59 87
REMARK H PARENT 79 49 53 60
REMARK Flexibility Score: inf
ROOT
ATOM      1  C   UNL A   1      32.624  27.071  23.019  1.00  0.00     0.188 C 
ENDROOT
BRANCH   1   2
ATOM      2  C   UNL A   1      31.331  26.377  22.602  1.00  0.00     0.188 C 
BRANCH   2   3
ATOM      3  O   UNL A   1      31.188  24.997  22.934  1.00  0.00    -0.376 OA
BRANCH   3   4
ATOM      4  C   UNL A   1      30.289  24.678  23.985  1.00  0.00     0.202 C 
BRANCH   4   5
ATOM      5  C   UNL A   1      30.284  25.735  25.109  1.00  0.00     0.261 C 
BRANCH   5   6
ATOM      6  O   UNL A   1      30.992  25.421  26.341  1.00  0.00    -0.463 OA
BRANCH   6   7
ATOM      7  C   UNL A   1      31.044  24.102  26.662  1.00  0.00     0.309 C 
ATOM      8  O   UNL A   1      30.169  23.520  27.302  1.00  0.00    -0.252 OA
BRANCH   7   9
ATOM      9  C   UNL A   1      32.363  23.384  26.353  1.00  0.00     0.109 C 
ATOM     10  C   UNL A   1      32.621  22.590  27.651  1.00  0.00     0.021 C 
BRANCH   9  11
ATOM     11  C   UNL A   1      33.653  24.118  25.819  1.00  0.00     0.063 C 
ATOM     12  C   UNL A   1      34.863  23.745  26.691  1.00  0.00     0.020 C 
BRANCH  11  13
ATOM     13  S   UNL A   1      34.134  23.578  24.081  1.00  0.00    -0.115 SA
BRANCH  13  14
ATOM     14  C   UNL A   1      35.228  22.141  24.257  1.00  0.00     0.085 A 
ATOM     15  C   UNL A   1      36.610  22.396  24.220  1.00  0.00     0.022 A 
ATOM     16  C   UNL A   1      34.864  20.832  24.616  1.00  0.00     0.282 A 
ATOM     17  C   UNL A   1      37.557  21.406  24.544  1.00  0.00     0.002 A 
ATOM     18  C   UNL A   1      35.798  19.841  24.978  1.00  0.00     0.087 A 
ATOM     19  C   UNL A   1      37.152  20.136  24.945  1.00  0.00     0.007 A 
BRANCH  16  20
ATOM     20  N   UNL A   1      33.491  20.446  24.754  1.00  0.00     0.063 N 
ATOM     21  O   UNL A   1      32.745  20.597  23.777  1.00  0.00    -0.258 OA
ATOM     22  O   UNL A   1      33.193  19.885  25.802  1.00  0.00    -0.258 OA
ENDBRANCH  16  20
ENDBRANCH  13  14
ENDBRANCH  11  13
ENDBRANCH   9  11
ENDBRANCH   7   9
ENDBRANCH   6   7
ENDBRANCH   5   6
ENDBRANCH   4   5
ENDBRANCH   3   4
ENDBRANCH   2   3
ENDBRANCH   1   2
BRANCH   1  23
ATOM     23  O   UNL A   1      32.638  28.484  22.942  1.00  0.00    -0.377 OA
BRANCH  23  24
ATOM     24  C   UNL A   1      31.469  29.256  23.161  1.00  0.00     0.188 C 
BRANCH  24  25
ATOM     25  C   UNL A   1      31.003  29.624  24.569  1.00  0.00     0.188 C 
BRANCH  25  26
ATOM     26  O   UNL A   1      31.895  29.517  25.671  1.00  0.00    -0.376 OA
BRANCH  26  27
ATOM     27  C   UNL A   1      31.998  30.571  26.626  1.00  0.00     0.202 C 
BRANCH  27  28
ATOM     28  C   UNL A   1      33.385  31.123  26.930  1.00  0.00     0.261 C 
BRANCH  28  29
ATOM     29  O   UNL A   1      33.928  30.494  28.100  1.00  0.00    -0.460 OA
BRANCH  29  30
ATOM     30  C   UNL A   1      34.651  29.383  27.864  1.00  0.00     0.338 C 
ATOM     31  O   UNL A   1      34.304  28.393  27.246  1.00  0.00    -0.246 OA
BRANCH  30  32
ATOM     32  C   UNL A   1      36.038  29.585  28.325  1.00  0.00     0.060 A 
ATOM     33  C   UNL A   1      36.947  30.050  27.371  1.00  0.00     0.016 A 
ATOM     34  C   UNL A   1      36.465  29.234  29.609  1.00  0.00     0.016 A 
ATOM     35  C   UNL A   1      38.305  30.050  27.654  1.00  0.00     0.010 A 
ATOM     36  C   UNL A   1      37.833  29.238  29.897  1.00  0.00     0.010 A 
ATOM     37  C   UNL A   1      38.758  29.565  28.888  1.00  0.00    -0.014 A 
BRANCH  37  38
ATOM     38  C   UNL A   1      40.173  29.127  28.968  1.00  0.00     0.031 A 
ATOM     39  C   UNL A   1      41.150  30.021  29.690  1.00  0.00     0.074 A 
ATOM     40  C   UNL A   1      40.552  27.907  28.548  1.00  0.00     0.049 A 
ATOM     41  N   UNL A   1      42.405  29.811  29.995  1.00  0.00    -0.248 NA
ATOM     42  C   UNL A   1      40.641  31.332  30.131  1.00  0.00     0.031 C 
ATOM     43  C   UNL A   1      39.689  26.936  27.880  1.00  0.00     0.029 A 
ATOM     44  N   UNL A   1      41.764  27.273  28.649  1.00  0.00    -0.354 N 
ATOM     45  C   UNL A   1      42.829  30.958  30.658  1.00  0.00     0.074 A 
ATOM     46  C   UNL A   1      41.719  31.881  30.666  1.00  0.00     0.031 C 
ATOM     47  C   UNL A   1      40.399  25.819  27.639  1.00  0.00     0.029 A 
ATOM     48  C   UNL A   1      41.766  26.006  28.123  1.00  0.00     0.049 A 
ATOM     49  H   UNL A   1      42.557  27.688  29.060  1.00  0.00     0.167 HD
ATOM     50  C   UNL A   1      44.027  31.213  31.233  1.00  0.00     0.037 A 
ATOM     51  C   UNL A   1      42.762  25.102  28.046  1.00  0.00     0.037 A 
ATOM     52  C   UNL A   1      45.128  30.289  31.242  1.00  0.00     0.049 A 
ATOM     53  C   UNL A   1      44.103  25.429  28.651  1.00  0.00     0.074 A 
ATOM     54  C   UNL A   1      46.383  30.448  31.800  1.00  0.00     0.029 A 
ATOM     55  N   UNL A   1      45.101  29.029  30.664  1.00  0.00    -0.354 N 
ATOM     56  N   UNL A   1      44.485  26.508  29.294  1.00  0.00    -0.248 NA
ATOM     57  C   UNL A   1      45.148  24.401  28.535  1.00  0.00     0.031 C 
ATOM     58  C   UNL A   1      47.134  29.302  31.517  1.00  0.00     0.029 A 
ATOM     59  C   UNL A   1      46.324  28.406  30.838  1.00  0.00     0.049 A 
ATOM     60  H   UNL A   1      44.327  28.637  30.198  1.00  0.00     0.167 HD
ATOM     61  C   UNL A   1      45.796  26.270  29.695  1.00  0.00     0.074 A 
ATOM     62  C   UNL A   1      46.137  24.941  29.232  1.00  0.00     0.031 C 
ATOM     63  C   UNL A   1      46.640  27.074  30.386  1.00  0.00     0.037 A 
BRANCH  50  64
ATOM     64  C   UNL A   1      44.208  32.555  31.880  1.00  0.00     0.057 A 
ATOM     65  C   UNL A   1      44.057  32.743  33.261  1.00  0.00     0.134 A 
ATOM     66  C   UNL A   1      44.548  33.674  31.110  1.00  0.00     0.134 A 
ATOM     67  F   UNL A   1      43.711  31.716  34.053  1.00  0.00    -0.206 F 
ATOM     68  C   UNL A   1      44.213  34.000  33.848  1.00  0.00     0.040 A 
ATOM     69  C   UNL A   1      44.737  34.930  31.691  1.00  0.00     0.040 A 
ATOM     70  F   UNL A   1      44.707  33.566  29.783  1.00  0.00    -0.206 F 
ATOM     71  C   UNL A   1      44.561  35.096  33.062  1.00  0.00     0.006 A 
ENDBRANCH  50  64
BRANCH  51  72
ATOM     72  C   UNL A   1      42.536  23.794  27.378  1.00  0.00     0.057 A 
ATOM     73  C   UNL A   1      42.179  22.653  28.105  1.00  0.00     0.134 A 
ATOM     74  C   UNL A   1      42.719  23.646  25.997  1.00  0.00     0.134 A 
ATOM     75  F   UNL A   1      42.012  22.724  29.435  1.00  0.00    -0.206 F 
ATOM     76  C   UNL A   1      42.043  21.407  27.491  1.00  0.00     0.040 A 
ATOM     77  C   UNL A   1      42.558  22.412  25.366  1.00  0.00     0.040 A 
ATOM     78  F   UNL A   1      43.060  24.700  25.242  1.00  0.00    -0.206 F 
ATOM     79  C   UNL A   1      42.229  21.285  26.116  1.00  0.00     0.006 A 
ENDBRANCH  51  72
BRANCH  63  80
ATOM     80  C   UNL A   1      47.990  26.517  30.740  1.00  0.00     0.057 A 
ATOM     81  C   UNL A   1      48.217  25.804  31.924  1.00  0.00     0.134 A 
ATOM     82  C   UNL A   1      49.074  26.681  29.868  1.00  0.00     0.134 A 
ATOM     83  F   UNL A   1      47.225  25.616  32.806  1.00  0.00    -0.206 F 
ATOM     84  C   UNL A   1      49.482  25.305  32.243  1.00  0.00     0.040 A 
ATOM     85  C   UNL A   1      50.335  26.161  30.161  1.00  0.00     0.040 A 
ATOM     86  F   UNL A   1      48.924  27.341  28.709  1.00  0.00    -0.206 F 
ATOM     87  C   UNL A   1      50.544  25.480  31.358  1.00  0.00     0.006 A 
ENDBRANCH  63  80
ENDBRANCH  37  38
ENDBRANCH  30  32
ENDBRANCH  29  30
ENDBRANCH  28  29
ENDBRANCH  27  28
ENDBRANCH  26  27
ENDBRANCH  25  26
ENDBRANCH  24  25
ENDBRANCH  23  24
ENDBRANCH   1  23
TORSDOF 24
ENDMDL
