MODEL 1
REMARK VINA RESULT:     -10.7      0.000      0.000
REMARK SMILES Cc1cc(N2N=C(C(=O)OCCOCCOCCOCCOC(=O)c3ccc(-c4c5nc(c(-c6c(F)cccc6F)c6ccc([nH]6)c(-c6c(F)cccc6F)c6nc(c(-c7c(F)cccc7F)c7ccc4[nH]7)C=C6)C=C5)cc3)C[C@H]2c2ccccc2)c([N+](=O)[O-])cc1C
REMARK SMILES IDX 16 1 15 2 14 3 13 4 12 5 11 6 10 7 8 8 9 9 7 10 5 11 6 12
REMARK SMILES IDX 80 13 79 14 4 15 1 16 2 17 3 18 92 19 91 20 93 21 87 22
REMARK SMILES IDX 88 23 89 24 90 25 81 26 82 27 86 28 83 29 85 30 84 31 17 32
REMARK SMILES IDX 18 33 19 34 20 35 21 36 22 37 23 38 24 39 25 40 26 41 78 42
REMARK SMILES IDX 27 43 77 44 28 45 29 46 30 47 71 48 31 49 76 50 70 51 72 52
REMARK SMILES IDX 32 53 75 54 69 55 68 56 33 58 59 59 42 60 58 61 43 62 46 63
REMARK SMILES IDX 57 64 73 65 44 66 45 67 56 69 74 70 47 71 34 72 35 73 40 74
REMARK SMILES IDX 36 75 37 76 39 77 41 78 38 79 60 80 61 81 66 82 62 83 63 84
REMARK SMILES IDX 65 85 67 86 64 87 48 88 49 89 54 90 50 91 51 92 53 93 55 94
REMARK SMILES IDX 52 95
REMARK H PARENT 72 57 46 68
REMARK Flexibility Score: inf
ROOT
ATOM      1  O   UNL A   1      38.625  21.265  26.144  1.00  0.00    -0.377 OA
ENDROOT
BRANCH   1   2
ATOM      2  C   UNL A   1      37.957  22.235  25.348  1.00  0.00     0.188 C 
BRANCH   2   3
ATOM      3  C   UNL A   1      36.819  21.660  24.488  1.00  0.00     0.188 C 
BRANCH   3   4
ATOM      4  O   UNL A   1      35.536  21.881  25.047  1.00  0.00    -0.376 OA
BRANCH   4   5
ATOM      5  C   UNL A   1      34.693  20.801  25.408  1.00  0.00     0.202 C 
BRANCH   5   6
ATOM      6  C   UNL A   1      33.416  20.940  26.260  1.00  0.00     0.261 C 
BRANCH   6   7
ATOM      7  O   UNL A   1      32.527  21.996  25.907  1.00  0.00    -0.459 OA
BRANCH   7   8
ATOM      8  C   UNL A   1      32.378  23.003  26.777  1.00  0.00     0.354 C 
ATOM      9  O   UNL A   1      32.163  22.936  27.970  1.00  0.00    -0.245 OA
BRANCH   8  10
ATOM     10  C   UNL A   1      32.654  24.290  26.040  1.00  0.00     0.148 C 
ATOM     11  N   UNL A   1      32.372  26.192  25.177  1.00  0.00    -0.250 N 
ATOM     12  N   UNL A   1      31.773  25.240  25.941  1.00  0.00    -0.169 NA
ATOM     13  C   UNL A   1      33.593  25.704  24.500  1.00  0.00     0.144 C 
ATOM     14  C   UNL A   1      34.012  24.588  25.467  1.00  0.00     0.098 C 
BRANCH  11  15
ATOM     15  C   UNL A   1      31.705  27.377  24.916  1.00  0.00     0.138 A 
ATOM     16  C   UNL A   1      28.781  28.348  22.666  1.00  0.00     0.045 C 
ATOM     17  C   UNL A   1      29.884  28.499  23.678  1.00  0.00    -0.046 A 
ATOM     18  C   UNL A   1      30.580  27.344  24.077  1.00  0.00     0.039 A 
ATOM     19  C   UNL A   1      30.249  29.742  24.216  1.00  0.00    -0.041 A 
ATOM     20  C   UNL A   1      31.324  29.792  25.119  1.00  0.00     0.091 A 
ATOM     21  C   UNL A   1      29.525  31.020  23.897  1.00  0.00     0.045 C 
ATOM     22  C   UNL A   1      32.048  28.627  25.450  1.00  0.00     0.294 A 
BRANCH  22  23
ATOM     23  N   UNL A   1      33.173  28.780  26.373  1.00  0.00     0.065 N 
ATOM     24  O   UNL A   1      34.301  28.933  25.875  1.00  0.00    -0.258 OA
ATOM     25  O   UNL A   1      32.964  28.673  27.592  1.00  0.00    -0.258 OA
ENDBRANCH  22  23
ENDBRANCH  11  15
BRANCH  13  26
ATOM     26  C   UNL A   1      33.332  25.215  23.073  1.00  0.00    -0.023 A 
ATOM     27  C   UNL A   1      33.027  26.074  22.001  1.00  0.00     0.006 A 
ATOM     28  C   UNL A   1      33.402  23.838  22.797  1.00  0.00     0.006 A 
ATOM     29  C   UNL A   1      32.818  25.583  20.712  1.00  0.00     0.000 A 
ATOM     30  C   UNL A   1      33.243  23.351  21.496  1.00  0.00     0.000 A 
ATOM     31  C   UNL A   1      32.945  24.224  20.455  1.00  0.00     0.000 A 
ENDBRANCH  13  26
ENDBRANCH   8  10
ENDBRANCH   7   8
ENDBRANCH   6   7
ENDBRANCH   5   6
ENDBRANCH   4   5
ENDBRANCH   3   4
ENDBRANCH   2   3
ENDBRANCH   1   2
BRANCH   1  32
ATOM     32  C   UNL A   1      40.054  21.250  26.133  1.00  0.00     0.188 C 
BRANCH  32  33
ATOM     33  C   UNL A   1      40.871  19.937  26.214  1.00  0.00     0.188 C 
BRANCH  33  34
ATOM     34  O   UNL A   1      42.197  20.029  25.723  1.00  0.00    -0.376 OA
BRANCH  34  35
ATOM     35  C   UNL A   1      42.975  21.163  26.065  1.00  0.00     0.202 C 
BRANCH  35  36
ATOM     36  C   UNL A   1      43.512  22.022  24.911  1.00  0.00     0.261 C 
BRANCH  36  37
ATOM     37  O   UNL A   1      43.054  23.384  24.873  1.00  0.00    -0.460 OA
BRANCH  37  38
ATOM     38  C   UNL A   1      43.949  24.357  25.140  1.00  0.00     0.338 C 
ATOM     39  O   UNL A   1      45.008  24.566  24.572  1.00  0.00    -0.246 OA
BRANCH  38  40
ATOM     40  C   UNL A   1      43.335  25.260  26.136  1.00  0.00     0.060 A 
ATOM     41  C   UNL A   1      43.721  26.607  26.166  1.00  0.00     0.016 A 
ATOM     42  C   UNL A   1      42.368  24.782  27.022  1.00  0.00     0.016 A 
ATOM     43  C   UNL A   1      43.154  27.476  27.101  1.00  0.00     0.010 A 
ATOM     44  C   UNL A   1      41.816  25.647  27.970  1.00  0.00     0.010 A 
ATOM     45  C   UNL A   1      42.222  26.993  28.031  1.00  0.00    -0.014 A 
BRANCH  45  46
ATOM     46  C   UNL A   1      41.777  27.850  29.157  1.00  0.00     0.031 A 
ATOM     47  C   UNL A   1      42.493  27.739  30.476  1.00  0.00     0.074 A 
ATOM     48  C   UNL A   1      40.753  28.710  29.017  1.00  0.00     0.049 A 
ATOM     49  N   UNL A   1      42.231  28.325  31.615  1.00  0.00    -0.248 NA
ATOM     50  C   UNL A   1      43.657  26.840  30.512  1.00  0.00     0.031 C 
ATOM     51  C   UNL A   1      40.002  28.937  27.784  1.00  0.00     0.029 A 
ATOM     52  N   UNL A   1      40.158  29.542  29.934  1.00  0.00    -0.354 N 
ATOM     53  C   UNL A   1      43.190  27.859  32.507  1.00  0.00     0.074 A 
ATOM     54  C   UNL A   1      44.023  26.922  31.783  1.00  0.00     0.031 C 
ATOM     55  C   UNL A   1      39.030  29.834  28.027  1.00  0.00     0.029 A 
ATOM     56  C   UNL A   1      39.068  30.215  29.438  1.00  0.00     0.049 A 
ATOM     57  H   UNL A   1      40.482  29.647  30.858  1.00  0.00     0.167 HD
ATOM     58  C   UNL A   1      43.362  28.184  33.810  1.00  0.00     0.037 A 
ATOM     59  C   UNL A   1      38.181  31.017  30.062  1.00  0.00     0.037 A 
ATOM     60  C   UNL A   1      42.531  29.116  34.527  1.00  0.00     0.049 A 
ATOM     61  C   UNL A   1      38.348  31.305  31.532  1.00  0.00     0.074 A 
ATOM     62  C   UNL A   1      42.649  29.539  35.840  1.00  0.00     0.029 A 
ATOM     63  N   UNL A   1      41.421  29.755  33.999  1.00  0.00    -0.354 N 
ATOM     64  N   UNL A   1      39.282  30.892  32.357  1.00  0.00    -0.248 NA
ATOM     65  C   UNL A   1      37.335  32.166  32.160  1.00  0.00     0.031 C 
ATOM     66  C   UNL A   1      41.571  30.382  36.125  1.00  0.00     0.029 A 
ATOM     67  C   UNL A   1      40.819  30.538  34.971  1.00  0.00     0.049 A 
ATOM     68  H   UNL A   1      41.105  29.666  33.071  1.00  0.00     0.167 HD
ATOM     69  C   UNL A   1      38.983  31.463  33.588  1.00  0.00     0.074 A 
ATOM     70  C   UNL A   1      37.793  32.266  33.400  1.00  0.00     0.031 C 
ATOM     71  C   UNL A   1      39.633  31.332  34.771  1.00  0.00     0.037 A 
BRANCH  58  72
ATOM     72  C   UNL A   1      44.470  27.503  34.558  1.00  0.00     0.057 A 
ATOM     73  C   UNL A   1      44.277  26.292  35.235  1.00  0.00     0.134 A 
ATOM     74  C   UNL A   1      45.762  28.046  34.563  1.00  0.00     0.134 A 
ATOM     75  F   UNL A   1      43.063  25.724  35.282  1.00  0.00    -0.206 F 
ATOM     76  C   UNL A   1      45.323  25.657  35.909  1.00  0.00     0.040 A 
ATOM     77  C   UNL A   1      46.822  27.407  35.207  1.00  0.00     0.040 A 
ATOM     78  F   UNL A   1      46.016  29.201  33.930  1.00  0.00    -0.206 F 
ATOM     79  C   UNL A   1      46.602  26.211  35.887  1.00  0.00     0.006 A 
ENDBRANCH  58  72
BRANCH  59  80
ATOM     80  C   UNL A   1      37.030  31.584  29.311  1.00  0.00     0.057 A 
ATOM     81  C   UNL A   1      35.870  30.837  29.080  1.00  0.00     0.134 A 
ATOM     82  C   UNL A   1      37.079  32.877  28.773  1.00  0.00     0.134 A 
ATOM     83  F   UNL A   1      35.771  29.582  29.545  1.00  0.00    -0.206 F 
ATOM     84  C   UNL A   1      34.809  31.345  28.326  1.00  0.00     0.040 A 
ATOM     85  C   UNL A   1      36.014  33.408  28.042  1.00  0.00     0.040 A 
ATOM     86  F   UNL A   1      38.163  33.647  28.954  1.00  0.00    -0.206 F 
ATOM     87  C   UNL A   1      34.879  32.636  27.809  1.00  0.00     0.006 A 
ENDBRANCH  59  80
BRANCH  71  88
ATOM     88  C   UNL A   1      39.091  32.092  35.949  1.00  0.00     0.057 A 
ATOM     89  C   UNL A   1      38.219  31.502  36.874  1.00  0.00     0.134 A 
ATOM     90  C   UNL A   1      39.483  33.416  36.188  1.00  0.00     0.134 A 
ATOM     91  F   UNL A   1      37.794  30.241  36.699  1.00  0.00    -0.206 F 
ATOM     92  C   UNL A   1      37.739  32.208  37.979  1.00  0.00     0.040 A 
ATOM     93  C   UNL A   1      39.035  34.122  37.306  1.00  0.00     0.040 A 
ATOM     94  F   UNL A   1      40.325  34.039  35.350  1.00  0.00    -0.206 F 
ATOM     95  C   UNL A   1      38.154  33.519  38.201  1.00  0.00     0.006 A 
ENDBRANCH  71  88
ENDBRANCH  45  46
ENDBRANCH  38  40
ENDBRANCH  37  38
ENDBRANCH  36  37
ENDBRANCH  35  36
ENDBRANCH  34  35
ENDBRANCH  33  34
ENDBRANCH  32  33
ENDBRANCH   1  32
TORSDOF 23
ENDMDL
MODEL 2
REMARK VINA RESULT:     -10.5      2.651      8.763
REMARK SMILES Cc1cc(N2N=C(C(=O)OCCOCCOCCOCCOC(=O)c3ccc(-c4c5nc(c(-c6c(F)cccc6F)c6ccc([nH]6)c(-c6c(F)cccc6F)c6nc(c(-c7c(F)cccc7F)c7ccc4[nH]7)C=C6)C=C5)cc3)C[C@H]2c2ccccc2)c([N+](=O)[O-])cc1C
REMARK SMILES IDX 16 1 15 2 14 3 13 4 12 5 11 6 10 7 8 8 9 9 7 10 5 11 6 12
REMARK SMILES IDX 80 13 79 14 4 15 1 16 2 17 3 18 92 19 91 20 93 21 87 22
REMARK SMILES IDX 88 23 89 24 90 25 81 26 82 27 86 28 83 29 85 30 84 31 17 32
REMARK SMILES IDX 18 33 19 34 20 35 21 36 22 37 23 38 24 39 25 40 26 41 78 42
REMARK SMILES IDX 27 43 77 44 28 45 29 46 30 47 71 48 31 49 76 50 70 51 72 52
REMARK SMILES IDX 32 53 75 54 69 55 68 56 33 58 59 59 42 60 58 61 43 62 46 63
REMARK SMILES IDX 57 64 73 65 44 66 45 67 56 69 74 70 47 71 34 72 35 73 40 74
REMARK SMILES IDX 36 75 37 76 39 77 41 78 38 79 60 80 61 81 66 82 62 83 63 84
REMARK SMILES IDX 65 85 67 86 64 87 48 88 49 89 54 90 50 91 51 92 53 93 55 94
REMARK SMILES IDX 52 95
REMARK H PARENT 72 57 46 68
REMARK Flexibility Score: inf
ROOT
ATOM      1  O   UNL A   1      30.843  29.337  24.511  1.00  0.00    -0.377 OA
ENDROOT
BRANCH   1   2
ATOM      2  C   UNL A   1      30.177  29.632  23.291  1.00  0.00     0.188 C 
BRANCH   2   3
ATOM      3  C   UNL A   1      29.201  28.535  22.831  1.00  0.00     0.188 C 
BRANCH   3   4
ATOM      4  O   UNL A   1      28.932  27.575  23.837  1.00  0.00    -0.376 OA
BRANCH   4   5
ATOM      5  C   UNL A   1      29.542  26.297  23.819  1.00  0.00     0.202 C 
BRANCH   5   6
ATOM      6  C   UNL A   1      30.793  25.941  22.991  1.00  0.00     0.261 C 
BRANCH   6   7
ATOM      7  O   UNL A   1      32.047  26.360  23.521  1.00  0.00    -0.459 OA
BRANCH   7   8
ATOM      8  C   UNL A   1      32.489  25.755  24.630  1.00  0.00     0.354 C 
ATOM      9  O   UNL A   1      32.379  26.127  25.781  1.00  0.00    -0.245 OA
BRANCH   8  10
ATOM     10  C   UNL A   1      33.061  24.418  24.227  1.00  0.00     0.148 C 
ATOM     11  N   UNL A   1      33.427  22.344  24.167  1.00  0.00    -0.250 N 
ATOM     12  N   UNL A   1      32.648  23.299  24.742  1.00  0.00    -0.169 NA
ATOM     13  C   UNL A   1      34.602  22.903  23.466  1.00  0.00     0.144 C 
ATOM     14  C   UNL A   1      34.074  24.302  23.121  1.00  0.00     0.098 C 
BRANCH  11  15
ATOM     15  C   UNL A   1      33.209  21.011  24.472  1.00  0.00     0.138 A 
ATOM     16  C   UNL A   1      32.185  17.947  22.443  1.00  0.00     0.045 C 
ATOM     17  C   UNL A   1      32.605  18.766  23.633  1.00  0.00    -0.046 A 
ATOM     18  C   UNL A   1      32.927  20.120  23.426  1.00  0.00     0.039 A 
ATOM     19  C   UNL A   1      32.669  18.236  24.930  1.00  0.00    -0.041 A 
ATOM     20  C   UNL A   1      33.025  19.089  25.987  1.00  0.00     0.091 A 
ATOM     21  C   UNL A   1      32.403  16.789  25.240  1.00  0.00     0.045 C 
ATOM     22  C   UNL A   1      33.277  20.460  25.760  1.00  0.00     0.294 A 
BRANCH  22  23
ATOM     23  N   UNL A   1      33.609  21.280  26.925  1.00  0.00     0.065 N 
ATOM     24  O   UNL A   1      34.812  21.419  27.198  1.00  0.00    -0.258 OA
ATOM     25  O   UNL A   1      32.685  21.730  27.621  1.00  0.00    -0.258 OA
ENDBRANCH  22  23
ENDBRANCH  11  15
BRANCH  13  26
ATOM     26  C   UNL A   1      35.865  22.920  24.332  1.00  0.00    -0.023 A 
ATOM     27  C   UNL A   1      36.209  23.988  25.182  1.00  0.00     0.006 A 
ATOM     28  C   UNL A   1      36.736  21.818  24.294  1.00  0.00     0.006 A 
ATOM     29  C   UNL A   1      37.360  23.948  25.971  1.00  0.00     0.000 A 
ATOM     30  C   UNL A   1      37.862  21.756  25.121  1.00  0.00     0.000 A 
ATOM     31  C   UNL A   1      38.177  22.824  25.954  1.00  0.00     0.000 A 
ENDBRANCH  13  26
ENDBRANCH   8  10
ENDBRANCH   7   8
ENDBRANCH   6   7
ENDBRANCH   5   6
ENDBRANCH   4   5
ENDBRANCH   3   4
ENDBRANCH   2   3
ENDBRANCH   1   2
BRANCH   1  32
ATOM     32  C   UNL A   1      32.268  29.448  24.547  1.00  0.00     0.188 C 
BRANCH  32  33
ATOM     33  C   UNL A   1      33.066  29.457  25.873  1.00  0.00     0.188 C 
BRANCH  33  34
ATOM     34  O   UNL A   1      32.498  30.244  26.906  1.00  0.00    -0.376 OA
BRANCH  34  35
ATOM     35  C   UNL A   1      33.225  31.360  27.392  1.00  0.00     0.202 C 
BRANCH  35  36
ATOM     36  C   UNL A   1      32.495  32.709  27.435  1.00  0.00     0.261 C 
BRANCH  36  37
ATOM     37  O   UNL A   1      33.329  33.874  27.557  1.00  0.00    -0.460 OA
BRANCH  37  38
ATOM     38  C   UNL A   1      33.361  34.502  28.750  1.00  0.00     0.338 C 
ATOM     39  O   UNL A   1      32.506  35.229  29.228  1.00  0.00    -0.246 OA
BRANCH  38  40
ATOM     40  C   UNL A   1      34.548  34.007  29.479  1.00  0.00     0.060 A 
ATOM     41  C   UNL A   1      35.825  34.379  29.040  1.00  0.00     0.016 A 
ATOM     42  C   UNL A   1      34.396  33.194  30.604  1.00  0.00     0.016 A 
ATOM     43  C   UNL A   1      36.958  33.920  29.715  1.00  0.00     0.010 A 
ATOM     44  C   UNL A   1      35.531  32.718  31.267  1.00  0.00     0.010 A 
ATOM     45  C   UNL A   1      36.819  33.059  30.813  1.00  0.00    -0.014 A 
BRANCH  45  46
ATOM     46  C   UNL A   1      38.009  32.398  31.400  1.00  0.00     0.031 A 
ATOM     47  C   UNL A   1      38.663  31.278  30.638  1.00  0.00     0.074 A 
ATOM     48  C   UNL A   1      38.501  32.779  32.593  1.00  0.00     0.049 A 
ATOM     49  N   UNL A   1      39.660  30.507  30.987  1.00  0.00    -0.248 NA
ATOM     50  C   UNL A   1      38.114  30.989  29.303  1.00  0.00     0.031 C 
ATOM     51  C   UNL A   1      37.981  33.870  33.413  1.00  0.00     0.029 A 
ATOM     52  N   UNL A   1      39.545  32.271  33.327  1.00  0.00    -0.354 N 
ATOM     53  C   UNL A   1      39.850  29.633  29.922  1.00  0.00     0.074 A 
ATOM     54  C   UNL A   1      38.850  29.954  28.926  1.00  0.00     0.031 C 
ATOM     55  C   UNL A   1      38.695  33.937  34.550  1.00  0.00     0.029 A 
ATOM     56  C   UNL A   1      39.695  32.872  34.554  1.00  0.00     0.049 A 
ATOM     57  H   UNL A   1      40.129  31.546  33.006  1.00  0.00     0.167 HD
ATOM     58  C   UNL A   1      40.776  28.655  29.786  1.00  0.00     0.037 A 
ATOM     59  C   UNL A   1      40.522  32.571  35.575  1.00  0.00     0.037 A 
ATOM     60  C   UNL A   1      41.769  28.337  30.779  1.00  0.00     0.049 A 
ATOM     61  C   UNL A   1      41.494  31.427  35.431  1.00  0.00     0.074 A 
ATOM     62  C   UNL A   1      42.774  27.388  30.717  1.00  0.00     0.029 A 
ATOM     63  N   UNL A   1      41.872  28.949  32.019  1.00  0.00    -0.354 N 
ATOM     64  N   UNL A   1      41.695  30.635  34.404  1.00  0.00    -0.248 NA
ATOM     65  C   UNL A   1      42.351  31.133  36.589  1.00  0.00     0.031 C 
ATOM     66  C   UNL A   1      43.443  27.380  31.945  1.00  0.00     0.029 A 
ATOM     67  C   UNL A   1      42.898  28.369  32.748  1.00  0.00     0.049 A 
ATOM     68  H   UNL A   1      41.301  29.686  32.335  1.00  0.00     0.167 HD
ATOM     69  C   UNL A   1      42.715  29.769  34.784  1.00  0.00     0.074 A 
ATOM     70  C   UNL A   1      43.105  30.145  36.126  1.00  0.00     0.031 C 
ATOM     71  C   UNL A   1      43.276  28.752  34.085  1.00  0.00     0.037 A 
BRANCH  58  72
ATOM     72  C   UNL A   1      40.740  27.831  28.533  1.00  0.00     0.057 A 
ATOM     73  C   UNL A   1      41.486  28.170  27.396  1.00  0.00     0.134 A 
ATOM     74  C   UNL A   1      39.978  26.655  28.478  1.00  0.00     0.134 A 
ATOM     75  F   UNL A   1      42.225  29.289  27.376  1.00  0.00    -0.206 F 
ATOM     76  C   UNL A   1      41.460  27.380  26.244  1.00  0.00     0.040 A 
ATOM     77  C   UNL A   1      39.967  25.843  27.344  1.00  0.00     0.040 A 
ATOM     78  F   UNL A   1      39.244  26.271  29.533  1.00  0.00    -0.206 F 
ATOM     79  C   UNL A   1      40.706  26.208  26.220  1.00  0.00     0.006 A 
ENDBRANCH  58  72
BRANCH  59  80
ATOM     80  C   UNL A   1      40.451  33.340  36.846  1.00  0.00     0.057 A 
ATOM     81  C   UNL A   1      41.341  34.385  37.118  1.00  0.00     0.134 A 
ATOM     82  C   UNL A   1      39.512  33.022  37.836  1.00  0.00     0.134 A 
ATOM     83  F   UNL A   1      42.282  34.720  36.222  1.00  0.00    -0.206 F 
ATOM     84  C   UNL A   1      41.315  35.071  38.334  1.00  0.00     0.040 A 
ATOM     85  C   UNL A   1      39.456  33.720  39.044  1.00  0.00     0.040 A 
ATOM     86  F   UNL A   1      38.630  32.029  37.642  1.00  0.00    -0.206 F 
ATOM     87  C   UNL A   1      40.366  34.742  39.299  1.00  0.00     0.006 A 
ENDBRANCH  59  80
BRANCH  71  88
ATOM     88  C   UNL A   1      44.390  27.988  34.744  1.00  0.00     0.057 A 
ATOM     89  C   UNL A   1      44.140  26.960  35.663  1.00  0.00     0.134 A 
ATOM     90  C   UNL A   1      45.727  28.252  34.421  1.00  0.00     0.134 A 
ATOM     91  F   UNL A   1      42.883  26.663  36.026  1.00  0.00    -0.206 F 
ATOM     92  C   UNL A   1      45.181  26.240  36.253  1.00  0.00     0.040 A 
ATOM     93  C   UNL A   1      46.775  27.518  34.980  1.00  0.00     0.040 A 
ATOM     94  F   UNL A   1      46.038  29.215  33.540  1.00  0.00    -0.206 F 
ATOM     95  C   UNL A   1      46.502  26.513  35.905  1.00  0.00     0.006 A 
ENDBRANCH  71  88
ENDBRANCH  45  46
ENDBRANCH  38  40
ENDBRANCH  37  38
ENDBRANCH  36  37
ENDBRANCH  35  36
ENDBRANCH  34  35
ENDBRANCH  33  34
ENDBRANCH  32  33
ENDBRANCH   1  32
TORSDOF 23
ENDMDL
MODEL 3
REMARK VINA RESULT:     -10.3      4.452     10.182
REMARK SMILES Cc1cc(N2N=C(C(=O)OCCOCCOCCOCCOC(=O)c3ccc(-c4c5nc(c(-c6c(F)cccc6F)c6ccc([nH]6)c(-c6c(F)cccc6F)c6nc(c(-c7c(F)cccc7F)c7ccc4[nH]7)C=C6)C=C5)cc3)C[C@H]2c2ccccc2)c([N+](=O)[O-])cc1C
REMARK SMILES IDX 16 1 15 2 14 3 13 4 12 5 11 6 10 7 8 8 9 9 7 10 5 11 6 12
REMARK SMILES IDX 80 13 79 14 4 15 1 16 2 17 3 18 92 19 91 20 93 21 87 22
REMARK SMILES IDX 88 23 89 24 90 25 81 26 82 27 86 28 83 29 85 30 84 31 17 32
REMARK SMILES IDX 18 33 19 34 20 35 21 36 22 37 23 38 24 39 25 40 26 41 78 42
REMARK SMILES IDX 27 43 77 44 28 45 29 46 30 47 71 48 31 49 76 50 70 51 72 52
REMARK SMILES IDX 32 53 75 54 69 55 68 56 33 58 59 59 42 60 58 61 43 62 46 63
REMARK SMILES IDX 57 64 73 65 44 66 45 67 56 69 74 70 47 71 34 72 35 73 40 74
REMARK SMILES IDX 36 75 37 76 39 77 41 78 38 79 60 80 61 81 66 82 62 83 63 84
REMARK SMILES IDX 65 85 67 86 64 87 48 88 49 89 54 90 50 91 51 92 53 93 55 94
REMARK SMILES IDX 52 95
REMARK H PARENT 72 57 46 68
REMARK Flexibility Score: inf
ROOT
ATOM      1  O   UNL A   1      32.191  32.994  27.568  1.00  0.00    -0.377 OA
ENDROOT
BRANCH   1   2
ATOM      2  C   UNL A   1      32.916  31.983  26.881  1.00  0.00     0.188 C 
BRANCH   2   3
ATOM      3  C   UNL A   1      32.146  30.660  26.724  1.00  0.00     0.188 C 
BRANCH   3   4
ATOM      4  O   UNL A   1      31.719  30.422  25.394  1.00  0.00    -0.376 OA
BRANCH   4   5
ATOM      5  C   UNL A   1      31.843  29.143  24.798  1.00  0.00     0.202 C 
BRANCH   5   6
ATOM      6  C   UNL A   1      32.929  28.112  25.165  1.00  0.00     0.261 C 
BRANCH   6   7
ATOM      7  O   UNL A   1      32.861  26.853  24.501  1.00  0.00    -0.459 OA
BRANCH   7   8
ATOM      8  C   UNL A   1      32.282  25.836  25.151  1.00  0.00     0.354 C 
ATOM      9  O   UNL A   1      31.371  25.881  25.952  1.00  0.00    -0.245 OA
BRANCH   8  10
ATOM     10  C   UNL A   1      32.875  24.555  24.619  1.00  0.00     0.148 C 
ATOM     11  N   UNL A   1      33.305  22.505  24.383  1.00  0.00    -0.250 N 
ATOM     12  N   UNL A   1      32.527  23.386  25.067  1.00  0.00    -0.169 NA
ATOM     13  C   UNL A   1      34.423  23.158  23.668  1.00  0.00     0.144 C 
ATOM     14  C   UNL A   1      33.831  24.558  23.458  1.00  0.00     0.098 C 
BRANCH  11  15
ATOM     15  C   UNL A   1      33.147  21.146  24.596  1.00  0.00     0.138 A 
ATOM     16  C   UNL A   1      32.152  18.201  22.385  1.00  0.00     0.045 C 
ATOM     17  C   UNL A   1      32.590  18.947  23.615  1.00  0.00    -0.046 A 
ATOM     18  C   UNL A   1      32.855  20.323  23.497  1.00  0.00     0.039 A 
ATOM     19  C   UNL A   1      32.725  18.327  24.866  1.00  0.00    -0.041 A 
ATOM     20  C   UNL A   1      33.093  19.114  25.970  1.00  0.00     0.091 A 
ATOM     21  C   UNL A   1      32.523  16.852  25.078  1.00  0.00     0.045 C 
ATOM     22  C   UNL A   1      33.286  20.506  25.835  1.00  0.00     0.294 A 
BRANCH  22  23
ATOM     23  N   UNL A   1      33.635  21.251  27.045  1.00  0.00     0.065 N 
ATOM     24  O   UNL A   1      32.699  21.707  27.722  1.00  0.00    -0.258 OA
ATOM     25  O   UNL A   1      34.833  21.456  27.294  1.00  0.00    -0.258 OA
ENDBRANCH  22  23
ENDBRANCH  11  15
BRANCH  13  26
ATOM     26  C   UNL A   1      35.728  23.156  24.470  1.00  0.00    -0.023 A 
ATOM     27  C   UNL A   1      36.066  24.151  25.406  1.00  0.00     0.006 A 
ATOM     28  C   UNL A   1      36.648  22.111  24.277  1.00  0.00     0.006 A 
ATOM     29  C   UNL A   1      37.258  24.095  26.129  1.00  0.00     0.000 A 
ATOM     30  C   UNL A   1      37.819  22.028  25.038  1.00  0.00     0.000 A 
ATOM     31  C   UNL A   1      38.126  23.024  25.958  1.00  0.00     0.000 A 
ENDBRANCH  13  26
ENDBRANCH   8  10
ENDBRANCH   7   8
ENDBRANCH   6   7
ENDBRANCH   5   6
ENDBRANCH   4   5
ENDBRANCH   3   4
ENDBRANCH   2   3
ENDBRANCH   1   2
BRANCH   1  32
ATOM     32  C   UNL A   1      32.912  34.125  28.062  1.00  0.00     0.188 C 
BRANCH  32  33
ATOM     33  C   UNL A   1      34.122  33.986  29.018  1.00  0.00     0.188 C 
BRANCH  33  34
ATOM     34  O   UNL A   1      33.791  33.934  30.395  1.00  0.00    -0.376 OA
BRANCH  34  35
ATOM     35  C   UNL A   1      34.824  33.705  31.338  1.00  0.00     0.202 C 
BRANCH  35  36
ATOM     36  C   UNL A   1      35.191  32.244  31.637  1.00  0.00     0.261 C 
BRANCH  36  37
ATOM     37  O   UNL A   1      36.335  31.726  30.939  1.00  0.00    -0.460 OA
BRANCH  37  38
ATOM     38  C   UNL A   1      36.116  30.898  29.897  1.00  0.00     0.338 C 
ATOM     39  O   UNL A   1      35.105  30.814  29.218  1.00  0.00    -0.246 OA
BRANCH  38  40
ATOM     40  C   UNL A   1      37.395  30.225  29.589  1.00  0.00     0.060 A 
ATOM     41  C   UNL A   1      38.151  29.682  30.636  1.00  0.00     0.016 A 
ATOM     42  C   UNL A   1      37.834  30.115  28.269  1.00  0.00     0.016 A 
ATOM     43  C   UNL A   1      39.363  29.043  30.365  1.00  0.00     0.010 A 
ATOM     44  C   UNL A   1      39.057  29.493  28.000  1.00  0.00     0.010 A 
ATOM     45  C   UNL A   1      39.839  28.974  29.048  1.00  0.00    -0.014 A 
BRANCH  45  46
ATOM     46  C   UNL A   1      41.216  28.493  28.776  1.00  0.00     0.031 A 
ATOM     47  C   UNL A   1      42.349  29.481  28.825  1.00  0.00     0.074 A 
ATOM     48  C   UNL A   1      41.459  27.203  28.485  1.00  0.00     0.049 A 
ATOM     49  N   UNL A   1      43.615  29.307  28.546  1.00  0.00    -0.248 NA
ATOM     50  C   UNL A   1      42.004  30.850  29.239  1.00  0.00     0.031 C 
ATOM     51  C   UNL A   1      40.454  26.142  28.440  1.00  0.00     0.029 A 
ATOM     52  N   UNL A   1      42.633  26.571  28.153  1.00  0.00    -0.354 N 
ATOM     53  C   UNL A   1      44.216  30.546  28.740  1.00  0.00     0.074 A 
ATOM     54  C   UNL A   1      43.172  31.467  29.135  1.00  0.00     0.031 C 
ATOM     55  C   UNL A   1      41.052  24.993  28.080  1.00  0.00     0.029 A 
ATOM     56  C   UNL A   1      42.470  25.245  27.832  1.00  0.00     0.049 A 
ATOM     57  H   UNL A   1      43.506  27.025  28.147  1.00  0.00     0.167 HD
ATOM     58  C   UNL A   1      45.520  30.883  28.604  1.00  0.00     0.037 A 
ATOM     59  C   UNL A   1      43.360  24.349  27.358  1.00  0.00     0.037 A 
ATOM     60  C   UNL A   1      46.556  29.965  28.210  1.00  0.00     0.049 A 
ATOM     61  C   UNL A   1      44.791  24.768  27.141  1.00  0.00     0.074 A 
ATOM     62  C   UNL A   1      47.914  30.203  28.080  1.00  0.00     0.029 A 
ATOM     63  N   UNL A   1      46.349  28.638  27.866  1.00  0.00    -0.354 N 
ATOM     64  N   UNL A   1      45.359  25.929  27.367  1.00  0.00    -0.248 NA
ATOM     65  C   UNL A   1      45.707  23.752  26.599  1.00  0.00     0.031 C 
ATOM     66  C   UNL A   1      48.517  29.039  27.595  1.00  0.00     0.029 A 
ATOM     67  C   UNL A   1      47.547  28.056  27.485  1.00  0.00     0.049 A 
ATOM     68  H   UNL A   1      45.479  28.177  27.889  1.00  0.00     0.167 HD
ATOM     69  C   UNL A   1      46.696  25.775  27.020  1.00  0.00     0.074 A 
ATOM     70  C   UNL A   1      46.861  24.404  26.587  1.00  0.00     0.031 C 
ATOM     71  C   UNL A   1      47.698  26.689  27.054  1.00  0.00     0.037 A 
BRANCH  58  72
ATOM     72  C   UNL A   1      45.899  32.314  28.849  1.00  0.00     0.057 A 
ATOM     73  C   UNL A   1      46.373  32.758  30.091  1.00  0.00     0.134 A 
ATOM     74  C   UNL A   1      45.829  33.254  27.811  1.00  0.00     0.134 A 
ATOM     75  F   UNL A   1      46.451  31.914  31.130  1.00  0.00    -0.206 F 
ATOM     76  C   UNL A   1      46.743  34.088  30.297  1.00  0.00     0.040 A 
ATOM     77  C   UNL A   1      46.223  34.579  27.997  1.00  0.00     0.040 A 
ATOM     78  F   UNL A   1      45.387  32.895  26.597  1.00  0.00    -0.206 F 
ATOM     79  C   UNL A   1      46.677  35.001  29.246  1.00  0.00     0.006 A 
ENDBRANCH  58  72
BRANCH  59  80
ATOM     80  C   UNL A   1      42.921  22.969  27.020  1.00  0.00     0.057 A 
ATOM     81  C   UNL A   1      42.729  22.568  25.693  1.00  0.00     0.134 A 
ATOM     82  C   UNL A   1      42.646  22.028  28.022  1.00  0.00     0.134 A 
ATOM     83  F   UNL A   1      42.949  23.431  24.689  1.00  0.00    -0.206 F 
ATOM     84  C   UNL A   1      42.261  21.292  25.374  1.00  0.00     0.040 A 
ATOM     85  C   UNL A   1      42.206  20.739  27.715  1.00  0.00     0.040 A 
ATOM     86  F   UNL A   1      42.806  22.347  29.315  1.00  0.00    -0.206 F 
ATOM     87  C   UNL A   1      42.003  20.371  26.388  1.00  0.00     0.006 A 
ENDBRANCH  59  80
BRANCH  71  88
ATOM     88  C   UNL A   1      49.068  26.232  26.637  1.00  0.00     0.057 A 
ATOM     89  C   UNL A   1      49.563  26.459  25.345  1.00  0.00     0.134 A 
ATOM     90  C   UNL A   1      49.920  25.599  27.551  1.00  0.00     0.134 A 
ATOM     91  F   UNL A   1      48.795  27.049  24.417  1.00  0.00    -0.206 F 
ATOM     92  C   UNL A   1      50.846  26.051  24.973  1.00  0.00     0.040 A 
ATOM     93  C   UNL A   1      51.216  25.216  27.201  1.00  0.00     0.040 A 
ATOM     94  F   UNL A   1      49.516  25.362  28.807  1.00  0.00    -0.206 F 
ATOM     95  C   UNL A   1      51.678  25.436  25.905  1.00  0.00     0.006 A 
ENDBRANCH  71  88
ENDBRANCH  45  46
ENDBRANCH  38  40
ENDBRANCH  37  38
ENDBRANCH  36  37
ENDBRANCH  35  36
ENDBRANCH  34  35
ENDBRANCH  33  34
ENDBRANCH  32  33
ENDBRANCH   1  32
TORSDOF 23
ENDMDL
