MODEL 1
REMARK VINA RESULT:     -10.9      0.000      0.000
REMARK SMILES Cc1c(Cc2nc(C(C)(C)C)cs2)cccc1C(=O)OCCOCCOCCOCCOC(=O)c1ccc(-c2c3nc(c(-c4c(F)cccc4F)c4ccc([nH]4)c(-c4c(F)cccc4F)c4nc(c(-c5c(F)cccc5F)c5ccc2[nH]5)C=C4)C=C3)cc1
REMARK SMILES IDX 25 1 24 2 23 3 22 4 21 5 20 6 18 7 19 8 17 9 1 10 2 11 3 12
REMARK SMILES IDX 14 13 16 14 15 15 4 16 5 17 6 18 13 19 7 20 12 21 8 22 9 23
REMARK SMILES IDX 10 24 11 25 26 26 27 27 28 28 29 29 30 30 31 31 32 32 33 33
REMARK SMILES IDX 34 34 35 35 36 36 88 37 37 38 87 39 38 40 39 41 40 42 81 43
REMARK SMILES IDX 41 44 86 45 80 46 82 47 42 48 85 49 79 50 78 51 43 53 69 54
REMARK SMILES IDX 52 55 68 56 53 57 56 58 67 59 83 60 54 61 55 62 66 64 84 65
REMARK SMILES IDX 57 66 44 67 45 68 50 69 46 70 47 71 49 72 51 73 48 74 70 75
REMARK SMILES IDX 71 76 76 77 72 78 73 79 75 80 77 81 74 82 58 83 59 84 64 85
REMARK SMILES IDX 60 86 61 87 63 88 65 89 62 90
REMARK H PARENT 82 52 56 63
REMARK Flexibility Score: inf
ROOT
ATOM      1  C   UNL A   1      34.035  30.843  27.747  1.00  0.00     0.188 C 
ENDROOT
BRANCH   1   2
ATOM      2  C   UNL A   1      33.720  29.995  26.501  1.00  0.00     0.188 C 
BRANCH   2   3
ATOM      3  O   UNL A   1      32.415  29.966  25.950  1.00  0.00    -0.376 OA
BRANCH   3   4
ATOM      4  C   UNL A   1      31.665  28.771  26.142  1.00  0.00     0.202 C 
BRANCH   4   5
ATOM      5  C   UNL A   1      31.527  27.795  24.981  1.00  0.00     0.261 C 
BRANCH   5   6
ATOM      6  O   UNL A   1      30.555  26.812  25.330  1.00  0.00    -0.460 OA
BRANCH   6   7
ATOM      7  C   UNL A   1      29.895  26.270  24.292  1.00  0.00     0.338 C 
ATOM      8  O   UNL A   1      28.853  26.663  23.813  1.00  0.00    -0.246 OA
BRANCH   7   9
ATOM      9  C   UNL A   1      30.840  25.360  23.582  1.00  0.00     0.063 A 
ATOM     10  C   UNL A   1      30.800  23.405  25.256  1.00  0.00     0.045 C 
ATOM     11  C   UNL A   1      31.227  24.057  23.972  1.00  0.00    -0.033 A 
ATOM     12  C   UNL A   1      32.061  23.327  23.096  1.00  0.00    -0.037 A 
ATOM     13  C   UNL A   1      32.660  23.979  21.999  1.00  0.00     0.004 A 
ATOM     14  C   UNL A   1      31.451  25.982  22.480  1.00  0.00     0.016 A 
ATOM     15  C   UNL A   1      32.390  25.311  21.718  1.00  0.00     0.001 A 
BRANCH  12  16
ATOM     16  C   UNL A   1      32.134  21.802  23.142  1.00  0.00     0.103 C 
BRANCH  16  17
ATOM     17  C   UNL A   1      33.296  21.418  24.014  1.00  0.00     0.097 A 
ATOM     18  N   UNL A   1      34.304  22.234  24.224  1.00  0.00    -0.245 NA
ATOM     19  S   UNL A   1      33.508  19.834  24.632  1.00  0.00    -0.127 S 
ATOM     20  C   UNL A   1      35.407  21.539  24.672  1.00  0.00     0.057 A 
ATOM     21  C   UNL A   1      35.134  20.230  25.032  1.00  0.00     0.091 A 
BRANCH  20  22
ATOM     22  C   UNL A   1      36.731  22.281  24.713  1.00  0.00     0.005 C 
ATOM     23  C   UNL A   1      36.674  23.372  25.791  1.00  0.00     0.017 C 
ATOM     24  C   UNL A   1      37.896  21.316  25.003  1.00  0.00     0.017 C 
ATOM     25  C   UNL A   1      37.020  22.950  23.347  1.00  0.00     0.017 C 
ENDBRANCH  20  22
ENDBRANCH  16  17
ENDBRANCH  12  16
ENDBRANCH   7   9
ENDBRANCH   6   7
ENDBRANCH   5   6
ENDBRANCH   4   5
ENDBRANCH   3   4
ENDBRANCH   2   3
ENDBRANCH   1   2
BRANCH   1  26
ATOM     26  O   UNL A   1      33.626  32.199  27.821  1.00  0.00    -0.377 OA
BRANCH  26  27
ATOM     27  C   UNL A   1      34.499  33.141  28.431  1.00  0.00     0.188 C 
BRANCH  27  28
ATOM     28  C   UNL A   1      34.145  34.619  28.306  1.00  0.00     0.188 C 
BRANCH  28  29
ATOM     29  O   UNL A   1      32.981  34.890  29.081  1.00  0.00    -0.376 OA
BRANCH  29  30
ATOM     30  C   UNL A   1      32.900  36.190  29.662  1.00  0.00     0.202 C 
BRANCH  30  31
ATOM     31  C   UNL A   1      32.761  36.187  31.189  1.00  0.00     0.261 C 
BRANCH  31  32
ATOM     32  O   UNL A   1      34.029  36.503  31.793  1.00  0.00    -0.460 OA
BRANCH  32  33
ATOM     33  C   UNL A   1      34.384  35.715  32.843  1.00  0.00     0.338 C 
ATOM     34  O   UNL A   1      34.503  36.085  34.000  1.00  0.00    -0.246 OA
BRANCH  33  35
ATOM     35  C   UNL A   1      34.914  34.414  32.340  1.00  0.00     0.060 A 
ATOM     36  C   UNL A   1      34.633  33.229  33.040  1.00  0.00     0.016 A 
ATOM     37  C   UNL A   1      35.964  34.441  31.433  1.00  0.00     0.016 A 
ATOM     38  C   UNL A   1      35.531  32.151  32.987  1.00  0.00     0.010 A 
ATOM     39  C   UNL A   1      36.895  33.428  31.479  1.00  0.00     0.010 A 
ATOM     40  C   UNL A   1      36.729  32.299  32.294  1.00  0.00    -0.014 A 
BRANCH  40  41
ATOM     41  C   UNL A   1      37.928  31.453  32.456  1.00  0.00     0.031 A 
ATOM     42  C   UNL A   1      38.050  30.203  31.632  1.00  0.00     0.074 A 
ATOM     43  C   UNL A   1      39.033  31.998  33.033  1.00  0.00     0.049 A 
ATOM     44  N   UNL A   1      39.116  29.488  31.538  1.00  0.00    -0.248 NA
ATOM     45  C   UNL A   1      36.988  29.679  30.772  1.00  0.00     0.031 C 
ATOM     46  C   UNL A   1      40.425  31.589  32.838  1.00  0.00     0.029 A 
ATOM     47  N   UNL A   1      39.196  33.088  33.872  1.00  0.00    -0.354 N 
ATOM     48  C   UNL A   1      39.028  28.677  30.426  1.00  0.00     0.074 A 
ATOM     49  C   UNL A   1      37.645  28.773  30.035  1.00  0.00     0.031 C 
ATOM     50  C   UNL A   1      41.253  32.286  33.627  1.00  0.00     0.029 A 
ATOM     51  C   UNL A   1      40.412  32.988  34.553  1.00  0.00     0.049 A 
ATOM     52  H   UNL A   1      38.552  33.825  33.972  1.00  0.00     0.167 HD
ATOM     53  C   UNL A   1      40.178  28.129  29.926  1.00  0.00     0.037 A 
ATOM     54  C   UNL A   1      40.481  32.729  35.893  1.00  0.00     0.037 A 
ATOM     55  C   UNL A   1      41.309  28.334  30.859  1.00  0.00     0.049 A 
ATOM     56  C   UNL A   1      41.029  31.306  36.082  1.00  0.00     0.074 A 
ATOM     57  C   UNL A   1      42.579  28.879  30.760  1.00  0.00     0.029 A 
ATOM     58  N   UNL A   1      41.111  28.107  32.226  1.00  0.00    -0.354 N 
ATOM     59  N   UNL A   1      40.780  30.312  35.249  1.00  0.00    -0.248 NA
ATOM     60  C   UNL A   1      42.150  31.005  36.976  1.00  0.00     0.031 C 
ATOM     61  C   UNL A   1      43.045  29.150  32.086  1.00  0.00     0.029 A 
ATOM     62  C   UNL A   1      42.105  28.677  32.997  1.00  0.00     0.049 A 
ATOM     63  H   UNL A   1      40.351  27.599  32.595  1.00  0.00     0.167 HD
ATOM     64  C   UNL A   1      41.788  29.378  35.348  1.00  0.00     0.074 A 
ATOM     65  C   UNL A   1      42.581  29.826  36.488  1.00  0.00     0.031 C 
ATOM     66  C   UNL A   1      42.153  28.423  34.432  1.00  0.00     0.037 A 
BRANCH  53  67
ATOM     67  C   UNL A   1      40.358  27.538  28.524  1.00  0.00     0.057 A 
ATOM     68  C   UNL A   1      39.884  26.242  28.220  1.00  0.00     0.134 A 
ATOM     69  C   UNL A   1      41.069  28.134  27.458  1.00  0.00     0.134 A 
ATOM     70  F   UNL A   1      39.179  25.531  29.112  1.00  0.00    -0.206 F 
ATOM     71  C   UNL A   1      40.104  25.599  26.987  1.00  0.00     0.040 A 
ATOM     72  C   UNL A   1      41.247  27.525  26.200  1.00  0.00     0.040 A 
ATOM     73  F   UNL A   1      41.677  29.319  27.582  1.00  0.00    -0.206 F 
ATOM     74  C   UNL A   1      40.776  26.245  25.964  1.00  0.00     0.006 A 
ENDBRANCH  53  67
BRANCH  54  75
ATOM     75  C   UNL A   1      39.502  33.586  36.633  1.00  0.00     0.057 A 
ATOM     76  C   UNL A   1      38.430  32.851  37.197  1.00  0.00     0.134 A 
ATOM     77  C   UNL A   1      39.929  34.706  37.359  1.00  0.00     0.134 A 
ATOM     78  F   UNL A   1      37.927  31.794  36.538  1.00  0.00    -0.206 F 
ATOM     79  C   UNL A   1      38.022  33.032  38.525  1.00  0.00     0.040 A 
ATOM     80  C   UNL A   1      39.490  34.920  38.680  1.00  0.00     0.040 A 
ATOM     81  F   UNL A   1      40.932  35.470  36.905  1.00  0.00    -0.206 F 
ATOM     82  C   UNL A   1      38.601  34.035  39.291  1.00  0.00     0.006 A 
ENDBRANCH  54  75
BRANCH  66  83
ATOM     83  C   UNL A   1      42.565  27.033  34.871  1.00  0.00     0.057 A 
ATOM     84  C   UNL A   1      41.826  26.279  35.793  1.00  0.00     0.134 A 
ATOM     85  C   UNL A   1      43.583  26.318  34.193  1.00  0.00     0.134 A 
ATOM     86  F   UNL A   1      40.781  26.797  36.453  1.00  0.00    -0.206 F 
ATOM     87  C   UNL A   1      42.093  24.930  36.041  1.00  0.00     0.040 A 
ATOM     88  C   UNL A   1      43.819  24.958  34.393  1.00  0.00     0.040 A 
ATOM     89  F   UNL A   1      44.369  26.884  33.267  1.00  0.00    -0.206 F 
ATOM     90  C   UNL A   1      43.079  24.260  35.329  1.00  0.00     0.006 A 
ENDBRANCH  66  83
ENDBRANCH  40  41
ENDBRANCH  33  35
ENDBRANCH  32  33
ENDBRANCH  31  32
ENDBRANCH  30  31
ENDBRANCH  29  30
ENDBRANCH  28  29
ENDBRANCH  27  28
ENDBRANCH  26  27
ENDBRANCH   1  26
TORSDOF 23
ENDMDL
MODEL 2
REMARK VINA RESULT:     -10.5      1.271      2.017
REMARK SMILES Cc1c(Cc2nc(C(C)(C)C)cs2)cccc1C(=O)OCCOCCOCCOCCOC(=O)c1ccc(-c2c3nc(c(-c4c(F)cccc4F)c4ccc([nH]4)c(-c4c(F)cccc4F)c4nc(c(-c5c(F)cccc5F)c5ccc2[nH]5)C=C4)C=C3)cc1
REMARK SMILES IDX 25 1 24 2 23 3 22 4 21 5 20 6 18 7 19 8 17 9 1 10 2 11 3 12
REMARK SMILES IDX 14 13 16 14 15 15 4 16 5 17 6 18 13 19 7 20 12 21 8 22 9 23
REMARK SMILES IDX 10 24 11 25 26 26 27 27 28 28 29 29 30 30 31 31 32 32 33 33
REMARK SMILES IDX 34 34 35 35 36 36 88 37 37 38 87 39 38 40 39 41 40 42 81 43
REMARK SMILES IDX 41 44 86 45 80 46 82 47 42 48 85 49 79 50 78 51 43 53 69 54
REMARK SMILES IDX 52 55 68 56 53 57 56 58 67 59 83 60 54 61 55 62 66 64 84 65
REMARK SMILES IDX 57 66 44 67 45 68 50 69 46 70 47 71 49 72 51 73 48 74 70 75
REMARK SMILES IDX 71 76 76 77 72 78 73 79 75 80 77 81 74 82 58 83 59 84 64 85
REMARK SMILES IDX 60 86 61 87 63 88 65 89 62 90
REMARK H PARENT 82 52 56 63
REMARK Flexibility Score: inf
ROOT
ATOM      1  C   UNL A   1      33.859  30.708  27.739  1.00  0.00     0.188 C 
ENDROOT
BRANCH   1   2
ATOM      2  C   UNL A   1      33.539  29.767  26.563  1.00  0.00     0.188 C 
BRANCH   2   3
ATOM      3  O   UNL A   1      32.327  29.891  25.839  1.00  0.00    -0.376 OA
BRANCH   3   4
ATOM      4  C   UNL A   1      31.405  28.810  25.943  1.00  0.00     0.202 C 
BRANCH   4   5
ATOM      5  C   UNL A   1      31.609  27.583  25.064  1.00  0.00     0.261 C 
BRANCH   5   6
ATOM      6  O   UNL A   1      30.484  27.454  24.199  1.00  0.00    -0.460 OA
BRANCH   6   7
ATOM      7  C   UNL A   1      30.780  27.216  22.910  1.00  0.00     0.338 C 
ATOM      8  O   UNL A   1      30.650  27.988  21.984  1.00  0.00    -0.246 OA
BRANCH   7   9
ATOM      9  C   UNL A   1      31.653  26.008  22.863  1.00  0.00     0.063 A 
ATOM     10  C   UNL A   1      29.941  24.279  23.701  1.00  0.00     0.045 C 
ATOM     11  C   UNL A   1      31.289  24.677  23.171  1.00  0.00    -0.033 A 
ATOM     12  C   UNL A   1      32.251  23.665  22.962  1.00  0.00    -0.037 A 
ATOM     13  C   UNL A   1      33.587  24.019  22.683  1.00  0.00     0.004 A 
ATOM     14  C   UNL A   1      32.992  26.330  22.582  1.00  0.00     0.016 A 
ATOM     15  C   UNL A   1      33.964  25.347  22.536  1.00  0.00     0.001 A 
BRANCH  12  16
ATOM     16  C   UNL A   1      31.851  22.203  22.773  1.00  0.00     0.103 C 
BRANCH  16  17
ATOM     17  C   UNL A   1      32.602  21.380  23.781  1.00  0.00     0.097 A 
ATOM     18  N   UNL A   1      33.075  20.190  23.489  1.00  0.00    -0.245 NA
ATOM     19  S   UNL A   1      32.727  21.822  25.433  1.00  0.00    -0.127 S 
ATOM     20  C   UNL A   1      33.328  19.472  24.639  1.00  0.00     0.057 A 
ATOM     21  C   UNL A   1      33.273  20.232  25.795  1.00  0.00     0.091 A 
BRANCH  20  22
ATOM     22  C   UNL A   1      33.627  17.991  24.486  1.00  0.00     0.005 C 
ATOM     23  C   UNL A   1      35.137  17.756  24.626  1.00  0.00     0.017 C 
ATOM     24  C   UNL A   1      32.866  17.164  25.539  1.00  0.00     0.017 C 
ATOM     25  C   UNL A   1      33.175  17.488  23.094  1.00  0.00     0.017 C 
ENDBRANCH  20  22
ENDBRANCH  16  17
ENDBRANCH  12  16
ENDBRANCH   7   9
ENDBRANCH   6   7
ENDBRANCH   5   6
ENDBRANCH   4   5
ENDBRANCH   3   4
ENDBRANCH   2   3
ENDBRANCH   1   2
BRANCH   1  26
ATOM     26  O   UNL A   1      33.552  32.091  27.662  1.00  0.00    -0.377 OA
BRANCH  26  27
ATOM     27  C   UNL A   1      34.466  33.023  28.225  1.00  0.00     0.188 C 
BRANCH  27  28
ATOM     28  C   UNL A   1      34.196  34.506  27.996  1.00  0.00     0.188 C 
BRANCH  28  29
ATOM     29  O   UNL A   1      32.949  34.854  28.591  1.00  0.00    -0.376 OA
BRANCH  29  30
ATOM     30  C   UNL A   1      32.903  36.107  29.269  1.00  0.00     0.202 C 
BRANCH  30  31
ATOM     31  C   UNL A   1      32.841  35.991  30.797  1.00  0.00     0.261 C 
BRANCH  31  32
ATOM     32  O   UNL A   1      34.173  36.041  31.342  1.00  0.00    -0.460 OA
BRANCH  32  33
ATOM     33  C   UNL A   1      34.411  35.186  32.373  1.00  0.00     0.338 C 
ATOM     34  O   UNL A   1      34.368  35.475  33.558  1.00  0.00    -0.246 OA
BRANCH  33  35
ATOM     35  C   UNL A   1      35.038  33.935  31.855  1.00  0.00     0.060 A 
ATOM     36  C   UNL A   1      34.776  32.710  32.490  1.00  0.00     0.016 A 
ATOM     37  C   UNL A   1      36.139  34.052  31.019  1.00  0.00     0.016 A 
ATOM     38  C   UNL A   1      35.730  31.681  32.453  1.00  0.00     0.010 A 
ATOM     39  C   UNL A   1      37.117  33.084  31.086  1.00  0.00     0.010 A 
ATOM     40  C   UNL A   1      36.960  31.916  31.845  1.00  0.00    -0.014 A 
BRANCH  40  41
ATOM     41  C   UNL A   1      38.189  31.124  32.052  1.00  0.00     0.031 A 
ATOM     42  C   UNL A   1      38.431  29.924  31.182  1.00  0.00     0.074 A 
ATOM     43  C   UNL A   1      39.222  31.695  32.728  1.00  0.00     0.049 A 
ATOM     44  N   UNL A   1      39.538  29.268  31.130  1.00  0.00    -0.248 NA
ATOM     45  C   UNL A   1      37.459  29.390  30.228  1.00  0.00     0.031 C 
ATOM     46  C   UNL A   1      40.643  31.367  32.611  1.00  0.00     0.029 A 
ATOM     47  N   UNL A   1      39.270  32.750  33.624  1.00  0.00    -0.354 N 
ATOM     48  C   UNL A   1      39.567  28.509  29.980  1.00  0.00     0.074 A 
ATOM     49  C   UNL A   1      38.211  28.554  29.498  1.00  0.00     0.031 C 
ATOM     50  C   UNL A   1      41.378  32.065  33.486  1.00  0.00     0.029 A 
ATOM     51  C   UNL A   1      40.441  32.678  34.383  1.00  0.00     0.049 A 
ATOM     52  H   UNL A   1      38.582  33.448  33.712  1.00  0.00     0.167 HD
ATOM     53  C   UNL A   1      40.777  28.044  29.535  1.00  0.00     0.037 A 
ATOM     54  C   UNL A   1      40.434  32.358  35.711  1.00  0.00     0.037 A 
ATOM     55  C   UNL A   1      41.830  28.260  30.553  1.00  0.00     0.049 A 
ATOM     56  C   UNL A   1      41.044  30.957  35.873  1.00  0.00     0.074 A 
ATOM     57  C   UNL A   1      43.072  28.872  30.567  1.00  0.00     0.029 A 
ATOM     58  N   UNL A   1      41.553  27.957  31.891  1.00  0.00    -0.354 N 
ATOM     59  N   UNL A   1      40.905  29.993  34.981  1.00  0.00    -0.248 NA
ATOM     60  C   UNL A   1      42.117  30.669  36.828  1.00  0.00     0.031 C 
ATOM     61  C   UNL A   1      43.434  29.101  31.933  1.00  0.00     0.029 A 
ATOM     62  C   UNL A   1      42.462  28.538  32.754  1.00  0.00     0.049 A 
ATOM     63  H   UNL A   1      40.799  27.394  32.184  1.00  0.00     0.167 HD
ATOM     64  C   UNL A   1      41.952  29.107  35.107  1.00  0.00     0.074 A 
ATOM     65  C   UNL A   1      42.641  29.538  36.318  1.00  0.00     0.031 C 
ATOM     66  C   UNL A   1      42.427  28.217  34.176  1.00  0.00     0.037 A 
BRANCH  53  67
ATOM     67  C   UNL A   1      41.081  27.531  28.124  1.00  0.00     0.057 A 
ATOM     68  C   UNL A   1      41.634  28.390  27.148  1.00  0.00     0.134 A 
ATOM     69  C   UNL A   1      40.768  26.248  27.623  1.00  0.00     0.134 A 
ATOM     70  F   UNL A   1      42.001  29.644  27.450  1.00  0.00    -0.206 F 
ATOM     71  C   UNL A   1      41.844  28.015  25.808  1.00  0.00     0.040 A 
ATOM     72  C   UNL A   1      41.026  25.843  26.299  1.00  0.00     0.040 A 
ATOM     73  F   UNL A   1      40.150  25.325  28.367  1.00  0.00    -0.206 F 
ATOM     74  C   UNL A   1      41.553  26.731  25.379  1.00  0.00     0.006 A 
ENDBRANCH  53  67
BRANCH  54  75
ATOM     75  C   UNL A   1      39.364  33.127  36.419  1.00  0.00     0.057 A 
ATOM     76  C   UNL A   1      38.287  32.317  36.855  1.00  0.00     0.134 A 
ATOM     77  C   UNL A   1      39.683  34.219  37.239  1.00  0.00     0.134 A 
ATOM     78  F   UNL A   1      37.885  31.282  36.099  1.00  0.00    -0.206 F 
ATOM     79  C   UNL A   1      37.771  32.401  38.155  1.00  0.00     0.040 A 
ATOM     80  C   UNL A   1      39.137  34.335  38.531  1.00  0.00     0.040 A 
ATOM     81  F   UNL A   1      40.682  35.050  36.909  1.00  0.00    -0.206 F 
ATOM     82  C   UNL A   1      38.245  33.379  39.020  1.00  0.00     0.006 A 
ENDBRANCH  54  75
BRANCH  66  83
ATOM     83  C   UNL A   1      42.883  26.830  34.580  1.00  0.00     0.057 A 
ATOM     84  C   UNL A   1      44.235  26.476  34.682  1.00  0.00     0.134 A 
ATOM     85  C   UNL A   1      41.975  25.883  35.115  1.00  0.00     0.134 A 
ATOM     86  F   UNL A   1      45.214  27.305  34.291  1.00  0.00    -0.206 F 
ATOM     87  C   UNL A   1      44.653  25.268  35.246  1.00  0.00     0.040 A 
ATOM     88  C   UNL A   1      42.385  24.700  35.731  1.00  0.00     0.040 A 
ATOM     89  F   UNL A   1      40.649  26.073  35.115  1.00  0.00    -0.206 F 
ATOM     90  C   UNL A   1      43.730  24.384  35.788  1.00  0.00     0.006 A 
ENDBRANCH  66  83
ENDBRANCH  40  41
ENDBRANCH  33  35
ENDBRANCH  32  33
ENDBRANCH  31  32
ENDBRANCH  30  31
ENDBRANCH  29  30
ENDBRANCH  28  29
ENDBRANCH  27  28
ENDBRANCH  26  27
ENDBRANCH   1  26
TORSDOF 23
ENDMDL
MODEL 3
REMARK VINA RESULT:     -10.0      5.072     10.132
REMARK SMILES Cc1c(Cc2nc(C(C)(C)C)cs2)cccc1C(=O)OCCOCCOCCOCCOC(=O)c1ccc(-c2c3nc(c(-c4c(F)cccc4F)c4ccc([nH]4)c(-c4c(F)cccc4F)c4nc(c(-c5c(F)cccc5F)c5ccc2[nH]5)C=C4)C=C3)cc1
REMARK SMILES IDX 25 1 24 2 23 3 22 4 21 5 20 6 18 7 19 8 17 9 1 10 2 11 3 12
REMARK SMILES IDX 14 13 16 14 15 15 4 16 5 17 6 18 13 19 7 20 12 21 8 22 9 23
REMARK SMILES IDX 10 24 11 25 26 26 27 27 28 28 29 29 30 30 31 31 32 32 33 33
REMARK SMILES IDX 34 34 35 35 36 36 88 37 37 38 87 39 38 40 39 41 40 42 81 43
REMARK SMILES IDX 41 44 86 45 80 46 82 47 42 48 85 49 79 50 78 51 43 53 69 54
REMARK SMILES IDX 52 55 68 56 53 57 56 58 67 59 83 60 54 61 55 62 66 64 84 65
REMARK SMILES IDX 57 66 44 67 45 68 50 69 46 70 47 71 49 72 51 73 48 74 70 75
REMARK SMILES IDX 71 76 76 77 72 78 73 79 75 80 77 81 74 82 58 83 59 84 64 85
REMARK SMILES IDX 60 86 61 87 63 88 65 89 62 90
REMARK H PARENT 82 52 56 63
REMARK Flexibility Score: inf
ROOT
ATOM      1  C   UNL A   1      42.623  20.550  26.150  1.00  0.00     0.188 C 
ENDROOT
BRANCH   1   2
ATOM      2  C   UNL A   1      41.114  20.837  26.042  1.00  0.00     0.188 C 
BRANCH   2   3
ATOM      3  O   UNL A   1      40.463  21.676  26.980  1.00  0.00    -0.376 OA
BRANCH   3   4
ATOM      4  C   UNL A   1      39.198  22.206  26.597  1.00  0.00     0.202 C 
BRANCH   4   5
ATOM      5  C   UNL A   1      38.458  21.568  25.428  1.00  0.00     0.261 C 
BRANCH   5   6
ATOM      6  O   UNL A   1      37.063  21.810  25.590  1.00  0.00    -0.460 OA
BRANCH   6   7
ATOM      7  C   UNL A   1      36.256  20.965  24.925  1.00  0.00     0.338 C 
ATOM      8  O   UNL A   1      36.257  19.755  25.001  1.00  0.00    -0.246 OA
BRANCH   7   9
ATOM      9  C   UNL A   1      35.114  21.759  24.389  1.00  0.00     0.063 A 
ATOM     10  C   UNL A   1      33.193  20.316  25.312  1.00  0.00     0.045 C 
ATOM     11  C   UNL A   1      33.735  21.513  24.585  1.00  0.00    -0.033 A 
ATOM     12  C   UNL A   1      32.818  22.454  24.067  1.00  0.00    -0.037 A 
ATOM     13  C   UNL A   1      33.271  23.463  23.193  1.00  0.00     0.004 A 
ATOM     14  C   UNL A   1      35.536  22.777  23.517  1.00  0.00     0.016 A 
ATOM     15  C   UNL A   1      34.617  23.597  22.885  1.00  0.00     0.001 A 
BRANCH  12  16
ATOM     16  C   UNL A   1      31.398  22.579  24.618  1.00  0.00     0.103 C 
BRANCH  16  17
ATOM     17  C   UNL A   1      31.187  24.004  25.043  1.00  0.00     0.097 A 
ATOM     18  N   UNL A   1      30.605  24.882  24.258  1.00  0.00    -0.245 NA
ATOM     19  S   UNL A   1      31.861  24.655  26.479  1.00  0.00    -0.127 S 
ATOM     20  C   UNL A   1      30.903  26.167  24.659  1.00  0.00     0.057 A 
ATOM     21  C   UNL A   1      31.510  26.237  25.901  1.00  0.00     0.091 A 
BRANCH  20  22
ATOM     22  C   UNL A   1      30.532  27.297  23.716  1.00  0.00     0.005 C 
ATOM     23  C   UNL A   1      29.011  27.310  23.504  1.00  0.00     0.017 C 
ATOM     24  C   UNL A   1      30.997  28.655  24.272  1.00  0.00     0.017 C 
ATOM     25  C   UNL A   1      31.221  27.105  22.343  1.00  0.00     0.017 C 
ENDBRANCH  20  22
ENDBRANCH  16  17
ENDBRANCH  12  16
ENDBRANCH   7   9
ENDBRANCH   6   7
ENDBRANCH   5   6
ENDBRANCH   4   5
ENDBRANCH   3   4
ENDBRANCH   2   3
ENDBRANCH   1   2
BRANCH   1  26
ATOM     26  O   UNL A   1      43.456  20.620  25.003  1.00  0.00    -0.377 OA
BRANCH  26  27
ATOM     27  C   UNL A   1      44.473  21.613  24.961  1.00  0.00     0.188 C 
BRANCH  27  28
ATOM     28  C   UNL A   1      44.485  22.564  23.770  1.00  0.00     0.188 C 
BRANCH  28  29
ATOM     29  O   UNL A   1      45.606  23.438  23.878  1.00  0.00    -0.376 OA
BRANCH  29  30
ATOM     30  C   UNL A   1      46.406  23.293  25.049  1.00  0.00     0.202 C 
BRANCH  30  31
ATOM     31  C   UNL A   1      47.168  24.562  25.448  1.00  0.00     0.261 C 
BRANCH  31  32
ATOM     32  O   UNL A   1      46.381  25.724  25.125  1.00  0.00    -0.460 OA
BRANCH  32  33
ATOM     33  C   UNL A   1      47.092  26.856  24.874  1.00  0.00     0.338 C 
ATOM     34  O   UNL A   1      47.979  26.966  24.042  1.00  0.00    -0.246 OA
BRANCH  33  35
ATOM     35  C   UNL A   1      46.861  27.849  25.963  1.00  0.00     0.060 A 
ATOM     36  C   UNL A   1      46.848  27.424  27.302  1.00  0.00     0.016 A 
ATOM     37  C   UNL A   1      46.295  29.070  25.626  1.00  0.00     0.016 A 
ATOM     38  C   UNL A   1      46.087  28.121  28.253  1.00  0.00     0.010 A 
ATOM     39  C   UNL A   1      45.459  29.678  26.537  1.00  0.00     0.010 A 
ATOM     40  C   UNL A   1      45.292  29.187  27.839  1.00  0.00    -0.014 A 
BRANCH  40  41
ATOM     41  C   UNL A   1      44.160  29.762  28.593  1.00  0.00     0.031 A 
ATOM     42  C   UNL A   1      44.372  31.039  29.354  1.00  0.00     0.074 A 
ATOM     43  C   UNL A   1      42.900  29.357  28.279  1.00  0.00     0.049 A 
ATOM     44  N   UNL A   1      43.432  31.738  29.889  1.00  0.00    -0.248 NA
ATOM     45  C   UNL A   1      45.671  31.690  29.524  1.00  0.00     0.031 C 
ATOM     46  C   UNL A   1      41.658  30.105  28.473  1.00  0.00     0.029 A 
ATOM     47  N   UNL A   1      42.425  28.219  27.649  1.00  0.00    -0.354 N 
ATOM     48  C   UNL A   1      43.896  33.011  30.145  1.00  0.00     0.074 A 
ATOM     49  C   UNL A   1      45.322  32.901  29.980  1.00  0.00     0.031 C 
ATOM     50  C   UNL A   1      40.589  29.372  28.132  1.00  0.00     0.029 A 
ATOM     51  C   UNL A   1      41.074  28.034  27.954  1.00  0.00     0.049 A 
ATOM     52  H   UNL A   1      42.959  27.628  27.070  1.00  0.00     0.167 HD
ATOM     53  C   UNL A   1      42.981  34.010  30.348  1.00  0.00     0.037 A 
ATOM     54  C   UNL A   1      40.637  27.020  28.760  1.00  0.00     0.037 A 
ATOM     55  C   UNL A   1      41.617  33.453  30.492  1.00  0.00     0.049 A 
ATOM     56  C   UNL A   1      40.159  27.631  30.087  1.00  0.00     0.074 A 
ATOM     57  C   UNL A   1      40.396  33.674  29.877  1.00  0.00     0.029 A 
ATOM     58  N   UNL A   1      41.426  32.326  31.299  1.00  0.00    -0.354 N 
ATOM     59  N   UNL A   1      40.708  28.698  30.638  1.00  0.00    -0.248 NA
ATOM     60  C   UNL A   1      38.851  27.323  30.671  1.00  0.00     0.031 C 
ATOM     61  C   UNL A   1      39.546  32.561  30.175  1.00  0.00     0.029 A 
ATOM     62  C   UNL A   1      40.213  31.712  31.054  1.00  0.00     0.049 A 
ATOM     63  H   UNL A   1      42.079  32.008  31.964  1.00  0.00     0.167 HD
ATOM     64  C   UNL A   1      39.783  29.308  31.456  1.00  0.00     0.074 A 
ATOM     65  C   UNL A   1      38.665  28.373  31.493  1.00  0.00     0.031 C 
ATOM     66  C   UNL A   1      39.768  30.609  31.897  1.00  0.00     0.037 A 
BRANCH  53  67
ATOM     67  C   UNL A   1      43.258  35.514  30.264  1.00  0.00     0.057 A 
ATOM     68  C   UNL A   1      42.975  36.236  29.083  1.00  0.00     0.134 A 
ATOM     69  C   UNL A   1      43.889  36.297  31.257  1.00  0.00     0.134 A 
ATOM     70  F   UNL A   1      42.367  35.653  28.040  1.00  0.00    -0.206 F 
ATOM     71  C   UNL A   1      43.297  37.594  28.902  1.00  0.00     0.040 A 
ATOM     72  C   UNL A   1      44.165  37.671  31.109  1.00  0.00     0.040 A 
ATOM     73  F   UNL A   1      44.323  35.774  32.408  1.00  0.00    -0.206 F 
ATOM     74  C   UNL A   1      43.882  38.324  29.922  1.00  0.00     0.006 A 
ENDBRANCH  53  67
BRANCH  54  75
ATOM     75  C   UNL A   1      41.296  25.735  28.372  1.00  0.00     0.057 A 
ATOM     76  C   UNL A   1      40.906  25.270  27.091  1.00  0.00     0.134 A 
ATOM     77  C   UNL A   1      42.617  25.458  28.750  1.00  0.00     0.134 A 
ATOM     78  F   UNL A   1      39.641  25.449  26.675  1.00  0.00    -0.206 F 
ATOM     79  C   UNL A   1      41.840  24.841  26.139  1.00  0.00     0.040 A 
ATOM     80  C   UNL A   1      43.553  24.985  27.810  1.00  0.00     0.040 A 
ATOM     81  F   UNL A   1      43.079  25.849  29.945  1.00  0.00    -0.206 F 
ATOM     82  C   UNL A   1      43.183  24.757  26.484  1.00  0.00     0.006 A 
ENDBRANCH  54  75
BRANCH  66  83
ATOM     83  C   UNL A   1      39.345  30.952  33.311  1.00  0.00     0.057 A 
ATOM     84  C   UNL A   1      38.117  31.558  33.608  1.00  0.00     0.134 A 
ATOM     85  C   UNL A   1      40.055  30.457  34.434  1.00  0.00     0.134 A 
ATOM     86  F   UNL A   1      37.297  32.003  32.645  1.00  0.00    -0.206 F 
ATOM     87  C   UNL A   1      37.643  31.688  34.916  1.00  0.00     0.040 A 
ATOM     88  C   UNL A   1      39.563  30.532  35.737  1.00  0.00     0.040 A 
ATOM     89  F   UNL A   1      41.236  29.834  34.324  1.00  0.00    -0.206 F 
ATOM     90  C   UNL A   1      38.356  31.159  35.984  1.00  0.00     0.006 A 
ENDBRANCH  66  83
ENDBRANCH  40  41
ENDBRANCH  33  35
ENDBRANCH  32  33
ENDBRANCH  31  32
ENDBRANCH  30  31
ENDBRANCH  29  30
ENDBRANCH  28  29
ENDBRANCH  27  28
ENDBRANCH  26  27
ENDBRANCH   1  26
TORSDOF 23
ENDMDL
