MODEL 1
REMARK VINA RESULT:     -11.0      0.000      0.000
REMARK SMILES CC(=O)NS(=O)(=O)c1cc(-c2ccn(C(F)F)c(=O)c2)ccc1C(=O)OCCOCCOCCOCCOC(=O)c1ccc(-c2c3nc(c(-c4c(F)cccc4F)c4ccc([nH]4)c(-c4c(F)cccc4F)c4nc(c(-c5c(F)cccc5F)c5ccc2[nH]5)C=C4)C=C3)cc1
REMARK SMILES IDX 32 1 31 2 30 3 29 4 28 5 27 6 26 7 24 8 25 9 23 10 8 11 9 12
REMARK SMILES IDX 10 13 22 14 21 15 5 16 6 17 7 18 4 19 1 20 2 21 3 22 11 24
REMARK SMILES IDX 12 25 20 26 13 27 18 28 14 29 19 30 15 31 16 32 17 33 33 34
REMARK SMILES IDX 34 35 35 36 36 37 37 38 38 39 39 40 40 41 41 42 42 43 94 44
REMARK SMILES IDX 43 45 93 46 44 47 45 48 46 49 87 50 47 51 92 52 86 53 88 54
REMARK SMILES IDX 48 55 91 56 85 57 84 58 49 60 75 61 58 62 74 63 59 64 62 65
REMARK SMILES IDX 73 66 89 67 60 68 61 69 72 71 90 72 63 73 50 74 51 75 56 76
REMARK SMILES IDX 52 77 53 78 55 79 57 80 54 81 76 82 77 83 82 84 78 85 79 86
REMARK SMILES IDX 81 87 83 88 80 89 64 90 65 91 70 92 66 93 67 94 69 95 71 96
REMARK SMILES IDX 68 97
REMARK H PARENT 4 23 88 59 62 70
REMARK Flexibility Score: inf
ROOT
ATOM      1  O   UNL A   1      35.137  22.117  26.307  1.00  0.00    -0.377 OA
ENDROOT
BRANCH   1   2
ATOM      2  C   UNL A   1      33.830  21.688  26.650  1.00  0.00     0.188 C 
BRANCH   2   3
ATOM      3  C   UNL A   1      33.226  22.262  27.933  1.00  0.00     0.188 C 
BRANCH   3   4
ATOM      4  O   UNL A   1      32.150  23.164  27.678  1.00  0.00    -0.376 OA
BRANCH   4   5
ATOM      5  C   UNL A   1      31.404  22.948  26.483  1.00  0.00     0.202 C 
BRANCH   5   6
ATOM      6  C   UNL A   1      30.041  23.647  26.511  1.00  0.00     0.261 C 
BRANCH   6   7
ATOM      7  O   UNL A   1      30.141  25.075  26.372  1.00  0.00    -0.460 OA
BRANCH   7   8
ATOM      8  C   UNL A   1      30.897  25.537  25.368  1.00  0.00     0.339 C 
ATOM      9  O   UNL A   1      31.058  24.987  24.290  1.00  0.00    -0.246 OA
BRANCH   8  10
ATOM     10  C   UNL A   1      31.351  26.930  25.627  1.00  0.00     0.080 A 
ATOM     11  C   UNL A   1      31.077  28.076  24.865  1.00  0.00     0.103 A 
ATOM     12  C   UNL A   1      31.403  29.340  25.387  1.00  0.00     0.032 A 
ATOM     13  C   UNL A   1      32.158  29.471  26.557  1.00  0.00    -0.017 A 
ATOM     14  C   UNL A   1      32.106  27.074  26.810  1.00  0.00     0.018 A 
ATOM     15  C   UNL A   1      32.541  28.327  27.250  1.00  0.00     0.010 A 
BRANCH  11  16
ATOM     16  S   UNL A   1      30.454  28.011  23.203  1.00  0.00     0.264 S 
ATOM     17  O   UNL A   1      30.383  29.376  22.731  1.00  0.00    -0.201 OA
ATOM     18  O   UNL A   1      29.341  27.099  23.123  1.00  0.00    -0.201 OA
BRANCH  16  19
ATOM     19  N   UNL A   1      31.678  27.270  22.306  1.00  0.00    -0.249 N 
ATOM     20  C   UNL A   1      33.726  28.665  22.584  1.00  0.00     0.115 C 
ATOM     21  C   UNL A   1      33.034  27.332  22.709  1.00  0.00     0.230 C 
ATOM     22  O   UNL A   1      33.648  26.297  22.926  1.00  0.00    -0.274 OA
ATOM     23  H   UNL A   1      31.443  26.784  21.483  1.00  0.00     0.183 HD
ENDBRANCH  16  19
ENDBRANCH  11  16
BRANCH  13  24
ATOM     24  C   UNL A   1      32.581  30.807  27.005  1.00  0.00    -0.011 A 
ATOM     25  C   UNL A   1      31.758  31.988  26.841  1.00  0.00     0.027 A 
ATOM     26  C   UNL A   1      33.772  30.914  27.619  1.00  0.00     0.080 A 
ATOM     27  C   UNL A   1      32.180  33.175  27.292  1.00  0.00     0.095 A 
ATOM     28  C   UNL A   1      34.254  32.229  28.125  1.00  0.00     0.255 A 
ATOM     29  N   UNL A   1      33.405  33.303  27.921  1.00  0.00    -0.258 N 
ATOM     30  O   UNL A   1      35.346  32.272  28.682  1.00  0.00    -0.269 OA
BRANCH  29  31
ATOM     31  C   UNL A   1      33.861  34.589  28.385  1.00  0.00     0.451 C 
ATOM     32  F   UNL A   1      34.776  35.116  27.537  1.00  0.00    -0.185 F 
ATOM     33  F   UNL A   1      32.828  35.459  28.487  1.00  0.00    -0.185 F 
ENDBRANCH  29  31
ENDBRANCH  13  24
ENDBRANCH   8  10
ENDBRANCH   7   8
ENDBRANCH   6   7
ENDBRANCH   5   6
ENDBRANCH   4   5
ENDBRANCH   3   4
ENDBRANCH   2   3
ENDBRANCH   1   2
BRANCH   1  34
ATOM     34  C   UNL A   1      35.435  22.141  24.917  1.00  0.00     0.188 C 
BRANCH  34  35
ATOM     35  C   UNL A   1      36.896  22.520  24.586  1.00  0.00     0.188 C 
BRANCH  35  36
ATOM     36  O   UNL A   1      37.998  22.174  25.425  1.00  0.00    -0.376 OA
BRANCH  36  37
ATOM     37  C   UNL A   1      38.407  20.827  25.569  1.00  0.00     0.202 C 
BRANCH  37  38
ATOM     38  C   UNL A   1      39.861  20.603  26.006  1.00  0.00     0.261 C 
BRANCH  38  39
ATOM     39  O   UNL A   1      40.437  19.367  25.568  1.00  0.00    -0.460 OA
BRANCH  39  40
ATOM     40  C   UNL A   1      41.674  19.110  26.056  1.00  0.00     0.338 C 
ATOM     41  O   UNL A   1      42.226  18.027  26.150  1.00  0.00    -0.246 OA
BRANCH  40  42
ATOM     42  C   UNL A   1      42.344  20.387  26.378  1.00  0.00     0.060 A 
ATOM     43  C   UNL A   1      42.217  20.888  27.680  1.00  0.00     0.016 A 
ATOM     44  C   UNL A   1      43.046  21.108  25.408  1.00  0.00     0.016 A 
ATOM     45  C   UNL A   1      42.760  22.129  28.007  1.00  0.00     0.010 A 
ATOM     46  C   UNL A   1      43.567  22.365  25.728  1.00  0.00     0.010 A 
ATOM     47  C   UNL A   1      43.393  22.893  27.018  1.00  0.00    -0.014 A 
BRANCH  47  48
ATOM     48  C   UNL A   1      43.665  24.326  27.277  1.00  0.00     0.031 A 
ATOM     49  C   UNL A   1      45.086  24.807  27.174  1.00  0.00     0.074 A 
ATOM     50  C   UNL A   1      42.676  25.187  27.572  1.00  0.00     0.049 A 
ATOM     51  N   UNL A   1      45.576  26.003  27.369  1.00  0.00    -0.248 NA
ATOM     52  C   UNL A   1      46.090  23.798  26.795  1.00  0.00     0.031 C 
ATOM     53  C   UNL A   1      41.257  24.850  27.662  1.00  0.00     0.029 A 
ATOM     54  N   UNL A   1      42.725  26.528  27.855  1.00  0.00    -0.354 N 
ATOM     55  C   UNL A   1      46.940  25.891  27.134  1.00  0.00     0.074 A 
ATOM     56  C   UNL A   1      47.206  24.509  26.806  1.00  0.00     0.031 C 
ATOM     57  C   UNL A   1      40.569  25.957  27.994  1.00  0.00     0.029 A 
ATOM     58  C   UNL A   1      41.501  27.070  28.162  1.00  0.00     0.049 A 
ATOM     59  H   UNL A   1      43.559  27.052  27.840  1.00  0.00     0.167 HD
ATOM     60  C   UNL A   1      47.887  26.857  27.179  1.00  0.00     0.037 A 
ATOM     61  C   UNL A   1      41.182  28.320  28.551  1.00  0.00     0.037 A 
ATOM     62  C   UNL A   1      47.628  28.228  27.522  1.00  0.00     0.049 A 
ATOM     63  C   UNL A   1      42.265  29.359  28.671  1.00  0.00     0.074 A 
ATOM     64  C   UNL A   1      48.521  29.283  27.596  1.00  0.00     0.029 A 
ATOM     65  N   UNL A   1      46.381  28.730  27.858  1.00  0.00    -0.354 N 
ATOM     66  N   UNL A   1      43.548  29.251  28.422  1.00  0.00    -0.248 NA
ATOM     67  C   UNL A   1      41.856  30.696  29.128  1.00  0.00     0.031 C 
ATOM     68  C   UNL A   1      47.818  30.418  28.015  1.00  0.00     0.029 A 
ATOM     69  C   UNL A   1      46.483  30.077  28.162  1.00  0.00     0.049 A 
ATOM     70  H   UNL A   1      45.547  28.207  27.878  1.00  0.00     0.167 HD
ATOM     71  C   UNL A   1      44.092  30.507  28.665  1.00  0.00     0.074 A 
ATOM     72  C   UNL A   1      42.999  31.364  29.074  1.00  0.00     0.031 C 
ATOM     73  C   UNL A   1      45.381  30.915  28.557  1.00  0.00     0.037 A 
BRANCH  60  74
ATOM     74  C   UNL A   1      49.295  26.445  26.877  1.00  0.00     0.057 A 
ATOM     75  C   UNL A   1      50.166  26.003  27.882  1.00  0.00     0.134 A 
ATOM     76  C   UNL A   1      49.785  26.484  25.567  1.00  0.00     0.134 A 
ATOM     77  F   UNL A   1      49.762  25.962  29.160  1.00  0.00    -0.206 F 
ATOM     78  C   UNL A   1      51.480  25.632  27.596  1.00  0.00     0.040 A 
ATOM     79  C   UNL A   1      51.091  26.096  25.264  1.00  0.00     0.040 A 
ATOM     80  F   UNL A   1      49.002  26.901  24.559  1.00  0.00    -0.206 F 
ATOM     81  C   UNL A   1      51.944  25.672  26.282  1.00  0.00     0.006 A 
ENDBRANCH  60  74
BRANCH  61  82
ATOM     82  C   UNL A   1      39.774  28.662  28.872  1.00  0.00     0.057 A 
ATOM     83  C   UNL A   1      39.236  28.403  30.139  1.00  0.00     0.134 A 
ATOM     84  C   UNL A   1      38.925  29.225  27.913  1.00  0.00     0.134 A 
ATOM     85  F   UNL A   1      39.993  27.838  31.091  1.00  0.00    -0.206 F 
ATOM     86  C   UNL A   1      37.900  28.679  30.435  1.00  0.00     0.040 A 
ATOM     87  C   UNL A   1      37.593  29.526  28.202  1.00  0.00     0.040 A 
ATOM     88  F   UNL A   1      39.379  29.491  26.680  1.00  0.00    -0.206 F 
ATOM     89  C   UNL A   1      37.075  29.247  29.466  1.00  0.00     0.006 A 
ENDBRANCH  61  82
BRANCH  73  90
ATOM     90  C   UNL A   1      45.674  32.356  28.850  1.00  0.00     0.057 A 
ATOM     91  C   UNL A   1      45.626  33.336  27.852  1.00  0.00     0.134 A 
ATOM     92  C   UNL A   1      45.954  32.773  30.158  1.00  0.00     0.134 A 
ATOM     93  F   UNL A   1      45.373  32.998  26.578  1.00  0.00    -0.206 F 
ATOM     94  C   UNL A   1      45.863  34.681  28.142  1.00  0.00     0.040 A 
ATOM     95  C   UNL A   1      46.170  34.117  30.462  1.00  0.00     0.040 A 
ATOM     96  F   UNL A   1      46.004  31.883  31.161  1.00  0.00    -0.206 F 
ATOM     97  C   UNL A   1      46.129  35.075  29.452  1.00  0.00     0.006 A 
ENDBRANCH  73  90
ENDBRANCH  47  48
ENDBRANCH  40  42
ENDBRANCH  39  40
ENDBRANCH  38  39
ENDBRANCH  37  38
ENDBRANCH  36  37
ENDBRANCH  35  36
ENDBRANCH  34  35
ENDBRANCH   1  34
TORSDOF 24
ENDMDL
MODEL 2
REMARK VINA RESULT:     -10.5      0.678      5.750
REMARK SMILES CC(=O)NS(=O)(=O)c1cc(-c2ccn(C(F)F)c(=O)c2)ccc1C(=O)OCCOCCOCCOCCOC(=O)c1ccc(-c2c3nc(c(-c4c(F)cccc4F)c4ccc([nH]4)c(-c4c(F)cccc4F)c4nc(c(-c5c(F)cccc5F)c5ccc2[nH]5)C=C4)C=C3)cc1
REMARK SMILES IDX 32 1 31 2 30 3 29 4 28 5 27 6 26 7 24 8 25 9 23 10 8 11 9 12
REMARK SMILES IDX 10 13 22 14 21 15 5 16 6 17 7 18 4 19 1 20 2 21 3 22 11 24
REMARK SMILES IDX 12 25 20 26 13 27 18 28 14 29 19 30 15 31 16 32 17 33 33 34
REMARK SMILES IDX 34 35 35 36 36 37 37 38 38 39 39 40 40 41 41 42 42 43 94 44
REMARK SMILES IDX 43 45 93 46 44 47 45 48 46 49 87 50 47 51 92 52 86 53 88 54
REMARK SMILES IDX 48 55 91 56 85 57 84 58 49 60 75 61 58 62 74 63 59 64 62 65
REMARK SMILES IDX 73 66 89 67 60 68 61 69 72 71 90 72 63 73 50 74 51 75 56 76
REMARK SMILES IDX 52 77 53 78 55 79 57 80 54 81 76 82 77 83 82 84 78 85 79 86
REMARK SMILES IDX 81 87 83 88 80 89 64 90 65 91 70 92 66 93 67 94 69 95 71 96
REMARK SMILES IDX 68 97
REMARK H PARENT 4 23 88 59 62 70
REMARK Flexibility Score: inf
ROOT
ATOM      1  O   UNL A   1      34.836  22.037  26.082  1.00  0.00    -0.377 OA
ENDROOT
BRANCH   1   2
ATOM      2  C   UNL A   1      33.776  21.452  26.820  1.00  0.00     0.188 C 
BRANCH   2   3
ATOM      3  C   UNL A   1      33.281  22.218  28.050  1.00  0.00     0.188 C 
BRANCH   3   4
ATOM      4  O   UNL A   1      32.167  23.060  27.760  1.00  0.00    -0.376 OA
BRANCH   4   5
ATOM      5  C   UNL A   1      31.539  22.878  26.494  1.00  0.00     0.202 C 
BRANCH   5   6
ATOM      6  C   UNL A   1      30.176  23.573  26.414  1.00  0.00     0.261 C 
BRANCH   6   7
ATOM      7  O   UNL A   1      30.281  25.006  26.352  1.00  0.00    -0.460 OA
BRANCH   7   8
ATOM      8  C   UNL A   1      30.918  25.524  25.295  1.00  0.00     0.339 C 
ATOM      9  O   UNL A   1      30.952  25.035  24.177  1.00  0.00    -0.246 OA
BRANCH   8  10
ATOM     10  C   UNL A   1      31.406  26.901  25.577  1.00  0.00     0.080 A 
ATOM     11  C   UNL A   1      31.092  28.079  24.883  1.00  0.00     0.103 A 
ATOM     12  C   UNL A   1      31.469  29.318  25.431  1.00  0.00     0.032 A 
ATOM     13  C   UNL A   1      32.306  29.395  26.549  1.00  0.00    -0.017 A 
ATOM     14  C   UNL A   1      32.244  26.990  26.709  1.00  0.00     0.018 A 
ATOM     15  C   UNL A   1      32.724  28.219  27.167  1.00  0.00     0.010 A 
BRANCH  11  16
ATOM     16  S   UNL A   1      30.353  28.089  23.268  1.00  0.00     0.264 S 
ATOM     17  O   UNL A   1      30.247  29.474  22.867  1.00  0.00    -0.201 OA
ATOM     18  O   UNL A   1      29.240  27.176  23.224  1.00  0.00    -0.201 OA
BRANCH  16  19
ATOM     19  N   UNL A   1      31.514  27.397  22.254  1.00  0.00    -0.249 N 
ATOM     20  C   UNL A   1      33.566  28.800  22.436  1.00  0.00     0.115 C 
ATOM     21  C   UNL A   1      32.895  27.457  22.557  1.00  0.00     0.230 C 
ATOM     22  O   UNL A   1      33.531  26.420  22.686  1.00  0.00    -0.274 OA
ATOM     23  H   UNL A   1      31.221  26.942  21.430  1.00  0.00     0.183 HD
ENDBRANCH  16  19
ENDBRANCH  11  16
BRANCH  13  24
ATOM     24  C   UNL A   1      32.776  30.707  27.020  1.00  0.00    -0.011 A 
ATOM     25  C   UNL A   1      31.994  31.919  26.877  1.00  0.00     0.027 A 
ATOM     26  C   UNL A   1      33.969  30.763  27.634  1.00  0.00     0.080 A 
ATOM     27  C   UNL A   1      32.457  33.083  27.348  1.00  0.00     0.095 A 
ATOM     28  C   UNL A   1      34.497  32.051  28.162  1.00  0.00     0.255 A 
ATOM     29  N   UNL A   1      33.685  33.157  27.978  1.00  0.00    -0.258 N 
ATOM     30  O   UNL A   1      35.590  32.046  28.718  1.00  0.00    -0.269 OA
BRANCH  29  31
ATOM     31  C   UNL A   1      34.186  34.418  28.464  1.00  0.00     0.451 C 
ATOM     32  F   UNL A   1      34.423  35.275  27.441  1.00  0.00    -0.185 F 
ATOM     33  F   UNL A   1      33.297  34.999  29.304  1.00  0.00    -0.185 F 
ENDBRANCH  29  31
ENDBRANCH  13  24
ENDBRANCH   8  10
ENDBRANCH   7   8
ENDBRANCH   6   7
ENDBRANCH   5   6
ENDBRANCH   4   5
ENDBRANCH   3   4
ENDBRANCH   2   3
ENDBRANCH   1   2
BRANCH   1  34
ATOM     34  C   UNL A   1      35.222  21.347  24.901  1.00  0.00     0.188 C 
BRANCH  34  35
ATOM     35  C   UNL A   1      36.493  21.906  24.223  1.00  0.00     0.188 C 
BRANCH  35  36
ATOM     36  O   UNL A   1      37.788  21.836  24.822  1.00  0.00    -0.376 OA
BRANCH  36  37
ATOM     37  C   UNL A   1      38.265  20.627  25.382  1.00  0.00     0.202 C 
BRANCH  37  38
ATOM     38  C   UNL A   1      39.608  20.705  26.120  1.00  0.00     0.261 C 
BRANCH  38  39
ATOM     39  O   UNL A   1      40.693  20.038  25.466  1.00  0.00    -0.460 OA
BRANCH  39  40
ATOM     40  C   UNL A   1      41.751  19.756  26.263  1.00  0.00     0.338 C 
ATOM     41  O   UNL A   1      42.084  18.666  26.698  1.00  0.00    -0.246 OA
BRANCH  40  42
ATOM     42  C   UNL A   1      42.554  20.981  26.459  1.00  0.00     0.060 A 
ATOM     43  C   UNL A   1      42.798  21.405  27.771  1.00  0.00     0.016 A 
ATOM     44  C   UNL A   1      43.017  21.731  25.374  1.00  0.00     0.016 A 
ATOM     45  C   UNL A   1      43.477  22.600  28.003  1.00  0.00     0.010 A 
ATOM     46  C   UNL A   1      43.673  22.943  25.607  1.00  0.00     0.010 A 
ATOM     47  C   UNL A   1      43.872  23.397  26.922  1.00  0.00    -0.014 A 
BRANCH  47  48
ATOM     48  C   UNL A   1      44.281  24.799  27.170  1.00  0.00     0.031 A 
ATOM     49  C   UNL A   1      43.229  25.774  27.619  1.00  0.00     0.074 A 
ATOM     50  C   UNL A   1      45.557  25.195  27.024  1.00  0.00     0.049 A 
ATOM     51  N   UNL A   1      43.335  27.051  27.882  1.00  0.00    -0.248 NA
ATOM     52  C   UNL A   1      41.871  25.232  27.798  1.00  0.00     0.031 C 
ATOM     53  C   UNL A   1      46.672  24.336  26.633  1.00  0.00     0.029 A 
ATOM     54  N   UNL A   1      46.124  26.433  27.189  1.00  0.00    -0.354 N 
ATOM     55  C   UNL A   1      42.063  27.461  28.261  1.00  0.00     0.074 A 
ATOM     56  C   UNL A   1      41.196  26.308  28.170  1.00  0.00     0.031 C 
ATOM     57  C   UNL A   1      47.792  25.080  26.573  1.00  0.00     0.029 A 
ATOM     58  C   UNL A   1      47.465  26.467  26.899  1.00  0.00     0.049 A 
ATOM     59  H   UNL A   1      45.616  27.223  27.487  1.00  0.00     0.167 HD
ATOM     60  C   UNL A   1      41.655  28.689  28.657  1.00  0.00     0.037 A 
ATOM     61  C   UNL A   1      48.322  27.508  26.883  1.00  0.00     0.037 A 
ATOM     62  C   UNL A   1      42.510  29.841  28.732  1.00  0.00     0.049 A 
ATOM     63  C   UNL A   1      47.826  28.881  27.251  1.00  0.00     0.074 A 
ATOM     64  C   UNL A   1      42.192  31.129  29.121  1.00  0.00     0.029 A 
ATOM     65  N   UNL A   1      43.856  29.841  28.398  1.00  0.00    -0.354 N 
ATOM     66  N   UNL A   1      46.628  29.255  27.632  1.00  0.00    -0.248 NA
ATOM     67  C   UNL A   1      48.802  29.979  27.186  1.00  0.00     0.031 C 
ATOM     68  C   UNL A   1      43.338  31.920  28.987  1.00  0.00     0.029 A 
ATOM     69  C   UNL A   1      44.378  31.113  28.552  1.00  0.00     0.049 A 
ATOM     70  H   UNL A   1      44.364  29.054  28.097  1.00  0.00     0.167 HD
ATOM     71  C   UNL A   1      46.714  30.621  27.878  1.00  0.00     0.074 A 
ATOM     72  C   UNL A   1      48.083  31.008  27.610  1.00  0.00     0.031 C 
ATOM     73  C   UNL A   1      45.746  31.477  28.290  1.00  0.00     0.037 A 
BRANCH  60  74
ATOM     74  C   UNL A   1      40.207  28.845  29.010  1.00  0.00     0.057 A 
ATOM     75  C   UNL A   1      39.748  28.683  30.323  1.00  0.00     0.134 A 
ATOM     76  C   UNL A   1      39.263  29.168  28.029  1.00  0.00     0.134 A 
ATOM     77  F   UNL A   1      40.601  28.354  31.305  1.00  0.00    -0.206 F 
ATOM     78  C   UNL A   1      38.397  28.818  30.644  1.00  0.00     0.040 A 
ATOM     79  C   UNL A   1      37.913  29.327  28.340  1.00  0.00     0.040 A 
ATOM     80  F   UNL A   1      39.639  29.334  26.751  1.00  0.00    -0.206 F 
ATOM     81  C   UNL A   1      37.475  29.147  29.652  1.00  0.00     0.006 A 
ENDBRANCH  60  74
BRANCH  61  82
ATOM     82  C   UNL A   1      49.737  27.300  26.490  1.00  0.00     0.057 A 
ATOM     83  C   UNL A   1      50.732  27.080  27.450  1.00  0.00     0.134 A 
ATOM     84  C   UNL A   1      50.133  27.346  25.148  1.00  0.00     0.134 A 
ATOM     85  F   UNL A   1      50.418  27.053  28.753  1.00  0.00    -0.206 F 
ATOM     86  C   UNL A   1      52.073  26.929  27.091  1.00  0.00     0.040 A 
ATOM     87  C   UNL A   1      51.466  27.175  24.773  1.00  0.00     0.040 A 
ATOM     88  F   UNL A   1      49.228  27.559  24.183  1.00  0.00    -0.206 F 
ATOM     89  C   UNL A   1      52.443  26.972  25.748  1.00  0.00     0.006 A 
ENDBRANCH  61  82
BRANCH  73  90
ATOM     90  C   UNL A   1      46.140  32.906  28.511  1.00  0.00     0.057 A 
ATOM     91  C   UNL A   1      46.691  33.341  29.722  1.00  0.00     0.134 A 
ATOM     92  C   UNL A   1      46.016  33.846  27.480  1.00  0.00     0.134 A 
ATOM     93  F   UNL A   1      46.827  32.491  30.752  1.00  0.00    -0.206 F 
ATOM     94  C   UNL A   1      47.090  34.666  29.906  1.00  0.00     0.040 A 
ATOM     95  C   UNL A   1      46.433  35.167  27.644  1.00  0.00     0.040 A 
ATOM     96  F   UNL A   1      45.505  33.490  26.291  1.00  0.00    -0.206 F 
ATOM     97  C   UNL A   1      46.968  35.582  28.862  1.00  0.00     0.006 A 
ENDBRANCH  73  90
ENDBRANCH  47  48
ENDBRANCH  40  42
ENDBRANCH  39  40
ENDBRANCH  38  39
ENDBRANCH  37  38
ENDBRANCH  36  37
ENDBRANCH  35  36
ENDBRANCH  34  35
ENDBRANCH   1  34
TORSDOF 24
ENDMDL
MODEL 3
REMARK VINA RESULT:     -10.4      2.852      4.689
REMARK SMILES CC(=O)NS(=O)(=O)c1cc(-c2ccn(C(F)F)c(=O)c2)ccc1C(=O)OCCOCCOCCOCCOC(=O)c1ccc(-c2c3nc(c(-c4c(F)cccc4F)c4ccc([nH]4)c(-c4c(F)cccc4F)c4nc(c(-c5c(F)cccc5F)c5ccc2[nH]5)C=C4)C=C3)cc1
REMARK SMILES IDX 32 1 31 2 30 3 29 4 28 5 27 6 26 7 24 8 25 9 23 10 8 11 9 12
REMARK SMILES IDX 10 13 22 14 21 15 5 16 6 17 7 18 4 19 1 20 2 21 3 22 11 24
REMARK SMILES IDX 12 25 20 26 13 27 18 28 14 29 19 30 15 31 16 32 17 33 33 34
REMARK SMILES IDX 34 35 35 36 36 37 37 38 38 39 39 40 40 41 41 42 42 43 94 44
REMARK SMILES IDX 43 45 93 46 44 47 45 48 46 49 87 50 47 51 92 52 86 53 88 54
REMARK SMILES IDX 48 55 91 56 85 57 84 58 49 60 75 61 58 62 74 63 59 64 62 65
REMARK SMILES IDX 73 66 89 67 60 68 61 69 72 71 90 72 63 73 50 74 51 75 56 76
REMARK SMILES IDX 52 77 53 78 55 79 57 80 54 81 76 82 77 83 82 84 78 85 79 86
REMARK SMILES IDX 81 87 83 88 80 89 64 90 65 91 70 92 66 93 67 94 69 95 71 96
REMARK SMILES IDX 68 97
REMARK H PARENT 4 23 88 59 62 70
REMARK Flexibility Score: inf
ROOT
ATOM      1  O   UNL A   1      35.523  22.619  25.609  1.00  0.00    -0.377 OA
ENDROOT
BRANCH   1   2
ATOM      2  C   UNL A   1      34.815  21.895  24.617  1.00  0.00     0.188 C 
BRANCH   2   3
ATOM      3  C   UNL A   1      33.734  20.927  25.104  1.00  0.00     0.188 C 
BRANCH   3   4
ATOM      4  O   UNL A   1      32.734  21.572  25.893  1.00  0.00    -0.376 OA
BRANCH   4   5
ATOM      5  C   UNL A   1      31.781  22.367  25.193  1.00  0.00     0.202 C 
BRANCH   5   6
ATOM      6  C   UNL A   1      31.356  23.604  25.990  1.00  0.00     0.261 C 
BRANCH   6   7
ATOM      7  O   UNL A   1      31.273  24.791  25.181  1.00  0.00    -0.460 OA
BRANCH   7   8
ATOM      8  C   UNL A   1      30.448  25.757  25.601  1.00  0.00     0.339 C 
ATOM      9  O   UNL A   1      29.277  25.605  25.914  1.00  0.00    -0.246 OA
BRANCH   8  10
ATOM     10  C   UNL A   1      31.183  27.024  25.865  1.00  0.00     0.080 A 
ATOM     11  C   UNL A   1      31.510  28.031  24.945  1.00  0.00     0.103 A 
ATOM     12  C   UNL A   1      32.009  29.257  25.420  1.00  0.00     0.032 A 
ATOM     13  C   UNL A   1      32.359  29.429  26.763  1.00  0.00    -0.017 A 
ATOM     14  C   UNL A   1      31.532  27.210  27.219  1.00  0.00     0.018 A 
ATOM     15  C   UNL A   1      32.152  28.383  27.658  1.00  0.00     0.010 A 
BRANCH  11  16
ATOM     16  S   UNL A   1      31.455  27.795  23.185  1.00  0.00     0.264 S 
ATOM     17  O   UNL A   1      32.328  28.790  22.604  1.00  0.00    -0.201 OA
ATOM     18  O   UNL A   1      30.095  27.600  22.751  1.00  0.00    -0.201 OA
BRANCH  16  19
ATOM     19  N   UNL A   1      32.205  26.305  22.921  1.00  0.00    -0.249 N 
ATOM     20  C   UNL A   1      32.049  25.837  20.477  1.00  0.00     0.115 C 
ATOM     21  C   UNL A   1      32.889  26.022  21.714  1.00  0.00     0.230 C 
ATOM     22  O   UNL A   1      34.075  25.725  21.746  1.00  0.00    -0.274 OA
ATOM     23  H   UNL A   1      32.165  25.616  23.623  1.00  0.00     0.183 HD
ENDBRANCH  16  19
ENDBRANCH  11  16
BRANCH  13  24
ATOM     24  C   UNL A   1      32.990  30.685  27.197  1.00  0.00    -0.011 A 
ATOM     25  C   UNL A   1      34.381  30.769  27.592  1.00  0.00     0.027 A 
ATOM     26  C   UNL A   1      32.238  31.798  27.194  1.00  0.00     0.080 A 
ATOM     27  C   UNL A   1      34.912  31.943  27.954  1.00  0.00     0.095 A 
ATOM     28  C   UNL A   1      32.815  33.111  27.594  1.00  0.00     0.255 A 
ATOM     29  N   UNL A   1      34.150  33.097  27.960  1.00  0.00    -0.258 N 
ATOM     30  O   UNL A   1      32.087  34.097  27.569  1.00  0.00    -0.269 OA
BRANCH  29  31
ATOM     31  C   UNL A   1      34.724  34.353  28.370  1.00  0.00     0.451 C 
ATOM     32  F   UNL A   1      36.002  34.192  28.788  1.00  0.00    -0.185 F 
ATOM     33  F   UNL A   1      34.723  35.241  27.347  1.00  0.00    -0.185 F 
ENDBRANCH  29  31
ENDBRANCH  13  24
ENDBRANCH   8  10
ENDBRANCH   7   8
ENDBRANCH   6   7
ENDBRANCH   5   6
ENDBRANCH   4   5
ENDBRANCH   3   4
ENDBRANCH   2   3
ENDBRANCH   1   2
BRANCH   1  34
ATOM     34  C   UNL A   1      36.677  23.317  25.160  1.00  0.00     0.188 C 
BRANCH  34  35
ATOM     35  C   UNL A   1      37.963  23.003  25.958  1.00  0.00     0.188 C 
BRANCH  35  36
ATOM     36  O   UNL A   1      38.676  21.773  25.827  1.00  0.00    -0.376 OA
BRANCH  36  37
ATOM     37  C   UNL A   1      39.828  21.515  26.607  1.00  0.00     0.202 C 
BRANCH  37  38
ATOM     38  C   UNL A   1      41.174  21.896  25.977  1.00  0.00     0.261 C 
BRANCH  38  39
ATOM     39  O   UNL A   1      42.047  22.646  26.830  1.00  0.00    -0.460 OA
BRANCH  39  40
ATOM     40  C   UNL A   1      43.351  22.631  26.464  1.00  0.00     0.338 C 
ATOM     41  O   UNL A   1      43.994  21.684  26.043  1.00  0.00    -0.246 OA
BRANCH  40  42
ATOM     42  C   UNL A   1      43.894  24.003  26.541  1.00  0.00     0.060 A 
ATOM     43  C   UNL A   1      44.024  24.729  25.351  1.00  0.00     0.016 A 
ATOM     44  C   UNL A   1      44.316  24.553  27.755  1.00  0.00     0.016 A 
ATOM     45  C   UNL A   1      44.609  25.994  25.364  1.00  0.00     0.010 A 
ATOM     46  C   UNL A   1      44.928  25.810  27.764  1.00  0.00     0.010 A 
ATOM     47  C   UNL A   1      45.108  26.517  26.563  1.00  0.00    -0.014 A 
BRANCH  47  48
ATOM     48  C   UNL A   1      46.015  27.687  26.519  1.00  0.00     0.031 A 
ATOM     49  C   UNL A   1      47.490  27.434  26.376  1.00  0.00     0.074 A 
ATOM     50  C   UNL A   1      45.544  28.944  26.579  1.00  0.00     0.049 A 
ATOM     51  N   UNL A   1      48.480  28.287  26.330  1.00  0.00    -0.248 NA
ATOM     52  C   UNL A   1      47.902  26.024  26.266  1.00  0.00     0.031 C 
ATOM     53  C   UNL A   1      44.135  29.317  26.678  1.00  0.00     0.029 A 
ATOM     54  N   UNL A   1      46.213  30.142  26.568  1.00  0.00    -0.354 N 
ATOM     55  C   UNL A   1      49.628  27.519  26.183  1.00  0.00     0.074 A 
ATOM     56  C   UNL A   1      49.218  26.132  26.172  1.00  0.00     0.031 C 
ATOM     57  C   UNL A   1      44.045  30.659  26.735  1.00  0.00     0.029 A 
ATOM     58  C   UNL A   1      45.389  31.232  26.699  1.00  0.00     0.049 A 
ATOM     59  H   UNL A   1      47.191  30.212  26.477  1.00  0.00     0.167 HD
ATOM     60  C   UNL A   1      50.911  27.932  26.060  1.00  0.00     0.037 A 
ATOM     61  C   UNL A   1      45.696  32.541  26.796  1.00  0.00     0.037 A 
ATOM     62  C   UNL A   1      51.324  29.308  26.087  1.00  0.00     0.049 A 
ATOM     63  C   UNL A   1      47.138  32.971  26.736  1.00  0.00     0.074 A 
ATOM     64  C   UNL A   1      52.600  29.829  25.971  1.00  0.00     0.029 A 
ATOM     65  N   UNL A   1      50.463  30.381  26.254  1.00  0.00    -0.354 N 
ATOM     66  N   UNL A   1      48.214  32.241  26.572  1.00  0.00    -0.248 NA
ATOM     67  C   UNL A   1      47.407  34.410  26.877  1.00  0.00     0.031 C 
ATOM     68  C   UNL A   1      52.515  31.219  26.106  1.00  0.00     0.029 A 
ATOM     69  C   UNL A   1      51.182  31.563  26.266  1.00  0.00     0.049 A 
ATOM     70  H   UNL A   1      49.485  30.313  26.350  1.00  0.00     0.167 HD
ATOM     71  C   UNL A   1      49.282  33.131  26.561  1.00  0.00     0.074 A 
ATOM     72  C   UNL A   1      48.724  34.456  26.729  1.00  0.00     0.031 C 
ATOM     73  C   UNL A   1      50.606  32.874  26.423  1.00  0.00     0.037 A 
BRANCH  60  74
ATOM     74  C   UNL A   1      51.958  26.871  25.914  1.00  0.00     0.057 A 
ATOM     75  C   UNL A   1      52.292  26.332  24.664  1.00  0.00     0.134 A 
ATOM     76  C   UNL A   1      52.646  26.387  27.032  1.00  0.00     0.134 A 
ATOM     77  F   UNL A   1      51.654  26.740  23.557  1.00  0.00    -0.206 F 
ATOM     78  C   UNL A   1      53.260  25.335  24.536  1.00  0.00     0.040 A 
ATOM     79  C   UNL A   1      53.631  25.406  26.914  1.00  0.00     0.040 A 
ATOM     80  F   UNL A   1      52.371  26.860  28.258  1.00  0.00    -0.206 F 
ATOM     81  C   UNL A   1      53.937  24.873  25.663  1.00  0.00     0.006 A 
ENDBRANCH  60  74
BRANCH  61  82
ATOM     82  C   UNL A   1      44.618  33.545  26.976  1.00  0.00     0.057 A 
ATOM     83  C   UNL A   1      44.014  34.167  25.876  1.00  0.00     0.134 A 
ATOM     84  C   UNL A   1      44.189  33.930  28.251  1.00  0.00     0.134 A 
ATOM     85  F   UNL A   1      44.404  33.861  24.631  1.00  0.00    -0.206 F 
ATOM     86  C   UNL A   1      43.032  35.145  26.039  1.00  0.00     0.040 A 
ATOM     87  C   UNL A   1      43.193  34.891  28.428  1.00  0.00     0.040 A 
ATOM     88  F   UNL A   1      44.732  33.375  29.344  1.00  0.00    -0.206 F 
ATOM     89  C   UNL A   1      42.615  35.507  27.319  1.00  0.00     0.006 A 
ENDBRANCH  61  82
BRANCH  73  90
ATOM     90  C   UNL A   1      51.538  34.048  26.412  1.00  0.00     0.057 A 
ATOM     91  C   UNL A   1      52.129  34.533  27.585  1.00  0.00     0.134 A 
ATOM     92  C   UNL A   1      51.889  34.666  25.204  1.00  0.00     0.134 A 
ATOM     93  F   UNL A   1      51.825  33.990  28.773  1.00  0.00    -0.206 F 
ATOM     94  C   UNL A   1      53.025  35.603  27.559  1.00  0.00     0.040 A 
ATOM     95  C   UNL A   1      52.800  35.721  25.164  1.00  0.00     0.040 A 
ATOM     96  F   UNL A   1      51.365  34.242  24.044  1.00  0.00    -0.206 F 
ATOM     97  C   UNL A   1      53.368  36.196  26.345  1.00  0.00     0.006 A 
ENDBRANCH  73  90
ENDBRANCH  47  48
ENDBRANCH  40  42
ENDBRANCH  39  40
ENDBRANCH  38  39
ENDBRANCH  37  38
ENDBRANCH  36  37
ENDBRANCH  35  36
ENDBRANCH  34  35
ENDBRANCH   1  34
TORSDOF 24
ENDMDL
