MODEL 1
REMARK VINA RESULT:      -7.8      0.000      0.000
REMARK SMILES C[C@@H](NC(=O)[C@H]1CC=CC[C@@H]1C(=O)OCCOCCOCCOCCOC(=O)c1ccc(-c2c3nc(c(-c4c(F)cccc4F)c4ccc([nH]4)c(-c4c(F)cccc4F)c4nc(c(-c5c(F)cccc5F)c5ccc2[nH]5)C=C4)C=C3)cc1)c1ccc(-n2ccnc2)cc1
REMARK SMILES IDX 19 1 18 2 17 3 16 4 15 5 14 6 12 7 13 8 11 9 6 10 7 11 8 12
REMARK SMILES IDX 10 13 9 14 4 15 3 16 5 18 2 19 1 20 83 21 84 22 93 23 85 24
REMARK SMILES IDX 92 25 86 26 87 27 88 28 91 29 89 30 90 31 20 32 21 33 22 34
REMARK SMILES IDX 23 35 24 36 25 37 26 38 27 39 28 40 29 41 30 42 82 43 31 44
REMARK SMILES IDX 81 45 32 46 33 47 34 48 75 49 35 50 80 51 74 52 76 53 36 54
REMARK SMILES IDX 79 55 73 56 72 57 37 59 63 60 46 61 62 62 47 63 50 64 61 65
REMARK SMILES IDX 77 66 48 67 49 68 60 70 78 71 51 72 38 73 39 74 44 75 40 76
REMARK SMILES IDX 41 77 43 78 45 79 42 80 64 81 65 82 70 83 66 84 67 85 69 86
REMARK SMILES IDX 71 87 68 88 52 89 53 90 58 91 54 92 55 93 57 94 59 95 56 96
REMARK H PARENT 3 17 76 58 50 69
REMARK Flexibility Score: inf
ROOT
ATOM      1  C   UNL A   1      42.606  23.708  28.175  1.00  0.00     0.188 C 
ENDROOT
BRANCH   1   2
ATOM      2  C   UNL A   1      42.126  25.078  28.726  1.00  0.00     0.188 C 
BRANCH   2   3
ATOM      3  O   UNL A   1      40.898  25.729  28.361  1.00  0.00    -0.376 OA
BRANCH   3   4
ATOM      4  C   UNL A   1      40.440  27.192  27.829  1.00  0.00     0.202 C 
BRANCH   4   5
ATOM      5  C   UNL A   1      39.519  28.989  28.862  1.00  0.00     0.261 C 
BRANCH   5   6
ATOM      6  O   UNL A   1      40.149  29.678  30.286  1.00  0.00    -0.463 OA
BRANCH   6   7
ATOM      7  C   UNL A   1      40.488  31.001  30.438  1.00  0.00     0.310 C 
ATOM      8  O   UNL A   1      41.353  31.544  29.764  1.00  0.00    -0.252 OA
BRANCH   7   9
ATOM      9  C   UNL A   1      39.564  31.747  31.449  1.00  0.00     0.115 C 
ATOM     10  C   UNL A   1      38.041  31.456  31.340  1.00  0.00     0.097 C 
ATOM     11  C   UNL A   1      37.477  31.898  29.959  1.00  0.00     0.041 C 
ATOM     12  C   UNL A   1      38.009  33.216  29.499  1.00  0.00    -0.030 C 
ATOM     13  C   UNL A   1      39.781  33.254  31.272  1.00  0.00     0.043 C 
ATOM     14  C   UNL A   1      39.029  33.838  30.107  1.00  0.00    -0.030 C 
BRANCH  10  15
ATOM     15  C   UNL A   1      37.130  32.014  32.486  1.00  0.00     0.224 C 
ATOM     16  N   UNL A   1      37.382  32.013  33.824  1.00  0.00    -0.349 N 
ATOM     17  H   UNL A   1      36.561  32.233  34.322  1.00  0.00     0.164 HD
ATOM     18  O   UNL A   1      35.980  32.400  32.224  1.00  0.00    -0.275 OA
BRANCH  16  19
ATOM     19  C   UNL A   1      38.510  31.782  34.775  1.00  0.00     0.109 C 
ATOM     20  C   UNL A   1      38.692  30.277  34.935  1.00  0.00     0.036 C 
BRANCH  19  21
ATOM     21  C   UNL A   1      38.392  32.595  36.041  1.00  0.00    -0.026 A 
ATOM     22  C   UNL A   1      37.250  33.355  36.147  1.00  0.00     0.008 A 
ATOM     23  C   UNL A   1      39.240  32.506  37.164  1.00  0.00     0.008 A 
ATOM     24  C   UNL A   1      36.698  33.406  37.394  1.00  0.00     0.027 A 
ATOM     25  C   UNL A   1      38.765  32.862  38.436  1.00  0.00     0.027 A 
ATOM     26  C   UNL A   1      37.415  33.154  38.529  1.00  0.00     0.046 A 
BRANCH  26  27
ATOM     27  N   UNL A   1      36.655  32.938  39.698  1.00  0.00    -0.306 N 
ATOM     28  C   UNL A   1      36.909  33.845  41.263  1.00  0.00     0.113 A 
ATOM     29  C   UNL A   1      35.540  31.471  40.040  1.00  0.00     0.204 A 
ATOM     30  C   UNL A   1      36.003  33.050  42.503  1.00  0.00     0.131 A 
ATOM     31  N   UNL A   1      35.125  31.555  41.694  1.00  0.00    -0.245 NA
ENDBRANCH  26  27
ENDBRANCH  19  21
ENDBRANCH  16  19
ENDBRANCH  10  15
ENDBRANCH   7   9
ENDBRANCH   6   7
ENDBRANCH   5   6
ENDBRANCH   4   5
ENDBRANCH   3   4
ENDBRANCH   2   3
ENDBRANCH   1   2
BRANCH   1  32
ATOM     32  O   UNL A   1      43.315  23.642  26.950  1.00  0.00    -0.377 OA
BRANCH  32  33
ATOM     33  C   UNL A   1      44.122  22.499  26.743  1.00  0.00     0.188 C 
BRANCH  33  34
ATOM     34  C   UNL A   1      43.784  21.652  25.512  1.00  0.00     0.188 C 
BRANCH  34  35
ATOM     35  O   UNL A   1      44.559  21.972  24.377  1.00  0.00    -0.376 OA
BRANCH  35  36
ATOM     36  C   UNL A   1      45.939  22.262  24.540  1.00  0.00     0.202 C 
BRANCH  36  37
ATOM     37  C   UNL A   1      46.553  23.658  24.280  1.00  0.00     0.261 C 
BRANCH  37  38
ATOM     38  O   UNL A   1      45.819  24.849  24.632  1.00  0.00    -0.460 OA
BRANCH  38  39
ATOM     39  C   UNL A   1      46.472  26.007  24.861  1.00  0.00     0.338 C 
ATOM     40  O   UNL A   1      47.193  26.600  24.080  1.00  0.00    -0.246 OA
BRANCH  39  41
ATOM     41  C   UNL A   1      45.998  26.574  26.160  1.00  0.00     0.060 A 
ATOM     42  C   UNL A   1      44.633  26.859  26.332  1.00  0.00     0.016 A 
ATOM     43  C   UNL A   1      46.894  26.859  27.193  1.00  0.00     0.016 A 
ATOM     44  C   UNL A   1      44.174  27.505  27.485  1.00  0.00     0.010 A 
ATOM     45  C   UNL A   1      46.440  27.539  28.335  1.00  0.00     0.010 A 
ATOM     46  C   UNL A   1      45.090  27.921  28.457  1.00  0.00    -0.014 A 
BRANCH  46  47
ATOM     47  C   UNL A   1      44.701  28.984  29.426  1.00  0.00     0.031 A 
ATOM     48  C   UNL A   1      44.264  28.552  30.805  1.00  0.00     0.074 A 
ATOM     49  C   UNL A   1      44.757  30.295  29.131  1.00  0.00     0.049 A 
ATOM     50  N   UNL A   1      43.797  29.265  31.798  1.00  0.00    -0.248 NA
ATOM     51  C   UNL A   1      44.366  27.112  31.097  1.00  0.00     0.031 C 
ATOM     52  C   UNL A   1      45.224  30.863  27.870  1.00  0.00     0.029 A 
ATOM     53  N   UNL A   1      44.400  31.389  29.883  1.00  0.00    -0.354 N 
ATOM     54  C   UNL A   1      43.534  28.361  32.822  1.00  0.00     0.074 A 
ATOM     55  C   UNL A   1      43.863  27.046  32.319  1.00  0.00     0.031 C 
ATOM     56  C   UNL A   1      45.103  32.202  27.926  1.00  0.00     0.029 A 
ATOM     57  C   UNL A   1      44.515  32.582  29.211  1.00  0.00     0.049 A 
ATOM     58  H   UNL A   1      44.091  31.324  30.816  1.00  0.00     0.167 HD
ATOM     59  C   UNL A   1      43.068  28.600  34.071  1.00  0.00     0.037 A 
ATOM     60  C   UNL A   1      44.156  33.830  29.578  1.00  0.00     0.037 A 
ATOM     61  C   UNL A   1      42.738  29.907  34.575  1.00  0.00     0.049 A 
ATOM     62  C   UNL A   1      43.548  34.065  30.940  1.00  0.00     0.074 A 
ATOM     63  C   UNL A   1      42.267  30.251  35.830  1.00  0.00     0.029 A 
ATOM     64  N   UNL A   1      42.833  31.082  33.848  1.00  0.00    -0.354 N 
ATOM     65  N   UNL A   1      43.312  33.205  31.903  1.00  0.00    -0.248 NA
ATOM     66  C   UNL A   1      43.158  35.445  31.266  1.00  0.00     0.031 C 
ATOM     67  C   UNL A   1      42.015  31.626  35.840  1.00  0.00     0.029 A 
ATOM     68  C   UNL A   1      42.399  32.150  34.617  1.00  0.00     0.049 A 
ATOM     69  H   UNL A   1      43.161  31.148  32.922  1.00  0.00     0.167 HD
ATOM     70  C   UNL A   1      42.783  33.946  32.957  1.00  0.00     0.074 A 
ATOM     71  C   UNL A   1      42.742  35.324  32.519  1.00  0.00     0.031 C 
ATOM     72  C   UNL A   1      42.371  33.522  34.177  1.00  0.00     0.037 A 
BRANCH  59  73
ATOM     73  C   UNL A   1      42.852  27.414  34.969  1.00  0.00     0.057 A 
ATOM     74  C   UNL A   1      43.816  26.993  35.894  1.00  0.00     0.134 A 
ATOM     75  C   UNL A   1      41.647  26.701  34.924  1.00  0.00     0.134 A 
ATOM     76  F   UNL A   1      44.998  27.621  35.980  1.00  0.00    -0.206 F 
ATOM     77  C   UNL A   1      43.601  25.887  36.720  1.00  0.00     0.040 A 
ATOM     78  C   UNL A   1      41.407  25.615  35.768  1.00  0.00     0.040 A 
ATOM     79  F   UNL A   1      40.677  27.052  34.066  1.00  0.00    -0.206 F 
ATOM     80  C   UNL A   1      42.391  25.200  36.664  1.00  0.00     0.006 A 
ENDBRANCH  59  73
BRANCH  60  81
ATOM     81  C   UNL A   1      44.334  34.967  28.635  1.00  0.00     0.057 A 
ATOM     82  C   UNL A   1      45.566  35.616  28.498  1.00  0.00     0.134 A 
ATOM     83  C   UNL A   1      43.263  35.457  27.875  1.00  0.00     0.134 A 
ATOM     84  F   UNL A   1      46.624  35.214  29.218  1.00  0.00    -0.206 F 
ATOM     85  C   UNL A   1      45.725  36.722  27.659  1.00  0.00     0.040 A 
ATOM     86  C   UNL A   1      43.414  36.542  27.010  1.00  0.00     0.040 A 
ATOM     87  F   UNL A   1      42.054  34.884  27.959  1.00  0.00    -0.206 F 
ATOM     88  C   UNL A   1      44.646  37.183  26.907  1.00  0.00     0.006 A 
ENDBRANCH  60  81
BRANCH  72  89
ATOM     89  C   UNL A   1      41.887  34.560  35.152  1.00  0.00     0.057 A 
ATOM     90  C   UNL A   1      40.603  35.117  35.077  1.00  0.00     0.134 A 
ATOM     91  C   UNL A   1      42.706  34.975  36.213  1.00  0.00     0.134 A 
ATOM     92  F   UNL A   1      39.770  34.773  34.084  1.00  0.00    -0.206 F 
ATOM     93  C   UNL A   1      40.163  36.066  36.003  1.00  0.00     0.040 A 
ATOM     94  C   UNL A   1      42.265  35.897  37.163  1.00  0.00     0.040 A 
ATOM     95  F   UNL A   1      43.942  34.473  36.356  1.00  0.00    -0.206 F 
ATOM     96  C   UNL A   1      40.993  36.453  37.055  1.00  0.00     0.006 A 
ENDBRANCH  72  89
ENDBRANCH  46  47
ENDBRANCH  39  41
ENDBRANCH  38  39
ENDBRANCH  37  38
ENDBRANCH  36  37
ENDBRANCH  35  36
ENDBRANCH  34  35
ENDBRANCH  33  34
ENDBRANCH  32  33
ENDBRANCH   1  32
TORSDOF 24
ENDMDL
MODEL 2
REMARK VINA RESULT:      -7.7      4.183      8.372
REMARK SMILES C[C@@H](NC(=O)[C@H]1CC=CC[C@@H]1C(=O)OCCOCCOCCOCCOC(=O)c1ccc(-c2c3nc(c(-c4c(F)cccc4F)c4ccc([nH]4)c(-c4c(F)cccc4F)c4nc(c(-c5c(F)cccc5F)c5ccc2[nH]5)C=C4)C=C3)cc1)c1ccc(-n2ccnc2)cc1
REMARK SMILES IDX 19 1 18 2 17 3 16 4 15 5 14 6 12 7 13 8 11 9 6 10 7 11 8 12
REMARK SMILES IDX 10 13 9 14 4 15 3 16 5 18 2 19 1 20 83 21 84 22 93 23 85 24
REMARK SMILES IDX 92 25 86 26 87 27 88 28 91 29 89 30 90 31 20 32 21 33 22 34
REMARK SMILES IDX 23 35 24 36 25 37 26 38 27 39 28 40 29 41 30 42 82 43 31 44
REMARK SMILES IDX 81 45 32 46 33 47 34 48 75 49 35 50 80 51 74 52 76 53 36 54
REMARK SMILES IDX 79 55 73 56 72 57 37 59 63 60 46 61 62 62 47 63 50 64 61 65
REMARK SMILES IDX 77 66 48 67 49 68 60 70 78 71 51 72 38 73 39 74 44 75 40 76
REMARK SMILES IDX 41 77 43 78 45 79 42 80 64 81 65 82 70 83 66 84 67 85 69 86
REMARK SMILES IDX 71 87 68 88 52 89 53 90 58 91 54 92 55 93 57 94 59 95 56 96
REMARK H PARENT 3 17 76 58 50 69
REMARK Flexibility Score: inf
ROOT
ATOM      1  C   UNL A   1      45.975  30.969  26.363  1.00  0.00     0.188 C 
ENDROOT
BRANCH   1   2
ATOM      2  C   UNL A   1      46.901  32.098  26.890  1.00  0.00     0.188 C 
BRANCH   2   3
ATOM      3  O   UNL A   1      47.366  33.213  26.112  1.00  0.00    -0.376 OA
BRANCH   3   4
ATOM      4  C   UNL A   1      47.150  34.821  26.090  1.00  0.00     0.202 C 
BRANCH   4   5
ATOM      5  C   UNL A   1      45.869  36.222  27.331  1.00  0.00     0.261 C 
BRANCH   5   6
ATOM      6  O   UNL A   1      44.493  37.019  26.724  1.00  0.00    -0.463 OA
BRANCH   6   7
ATOM      7  C   UNL A   1      43.655  37.819  27.465  1.00  0.00     0.310 C 
ATOM      8  O   UNL A   1      43.287  37.525  28.594  1.00  0.00    -0.252 OA
BRANCH   7   9
ATOM      9  C   UNL A   1      43.351  39.181  26.768  1.00  0.00     0.115 C 
ATOM     10  C   UNL A   1      44.100  40.425  27.322  1.00  0.00     0.097 C 
ATOM     11  C   UNL A   1      43.723  40.700  28.806  1.00  0.00     0.041 C 
ATOM     12  C   UNL A   1      42.264  40.535  29.083  1.00  0.00    -0.030 C 
ATOM     13  C   UNL A   1      41.843  39.441  26.867  1.00  0.00     0.043 C 
ATOM     14  C   UNL A   1      41.415  39.993  28.200  1.00  0.00    -0.030 C 
BRANCH  10  15
ATOM     15  C   UNL A   1      43.982  41.749  26.493  1.00  0.00     0.224 C 
ATOM     16  N   UNL A   1      44.755  42.866  26.595  1.00  0.00    -0.349 N 
ATOM     17  H   UNL A   1      44.335  43.612  26.108  1.00  0.00     0.164 HD
ATOM     18  O   UNL A   1      43.019  41.912  25.728  1.00  0.00    -0.275 OA
BRANCH  16  19
ATOM     19  C   UNL A   1      46.036  43.317  27.214  1.00  0.00     0.109 C 
ATOM     20  C   UNL A   1      47.112  42.292  26.874  1.00  0.00     0.036 C 
BRANCH  19  21
ATOM     21  C   UNL A   1      45.890  43.699  28.666  1.00  0.00    -0.026 A 
ATOM     22  C   UNL A   1      44.969  44.689  28.924  1.00  0.00     0.008 A 
ATOM     23  C   UNL A   1      46.469  43.027  29.762  1.00  0.00     0.008 A 
ATOM     24  C   UNL A   1      44.226  44.513  30.055  1.00  0.00     0.027 A 
ATOM     25  C   UNL A   1      45.870  43.097  31.030  1.00  0.00     0.027 A 
ATOM     26  C   UNL A   1      44.638  43.727  31.093  1.00  0.00     0.046 A 
BRANCH  26  27
ATOM     27  N   UNL A   1      43.646  43.394  32.040  1.00  0.00    -0.306 N 
ATOM     28  C   UNL A   1      43.372  44.311  33.596  1.00  0.00     0.113 A 
ATOM     29  C   UNL A   1      42.695  41.782  32.129  1.00  0.00     0.204 A 
ATOM     30  C   UNL A   1      42.302  43.383  34.589  1.00  0.00     0.131 A 
ATOM     31  N   UNL A   1      41.871  41.790  33.624  1.00  0.00    -0.245 NA
ENDBRANCH  26  27
ENDBRANCH  19  21
ENDBRANCH  16  19
ENDBRANCH  10  15
ENDBRANCH   7   9
ENDBRANCH   6   7
ENDBRANCH   5   6
ENDBRANCH   4   5
ENDBRANCH   3   4
ENDBRANCH   2   3
ENDBRANCH   1   2
BRANCH   1  32
ATOM     32  O   UNL A   1      46.431  30.084  25.356  1.00  0.00    -0.377 OA
BRANCH  32  33
ATOM     33  C   UNL A   1      46.503  28.713  25.697  1.00  0.00     0.188 C 
BRANCH  33  34
ATOM     34  C   UNL A   1      46.870  27.756  24.558  1.00  0.00     0.188 C 
BRANCH  34  35
ATOM     35  O   UNL A   1      47.771  26.742  24.944  1.00  0.00    -0.376 OA
BRANCH  35  36
ATOM     36  C   UNL A   1      47.424  25.384  24.719  1.00  0.00     0.202 C 
BRANCH  36  37
ATOM     37  C   UNL A   1      46.119  24.739  25.241  1.00  0.00     0.261 C 
BRANCH  37  38
ATOM     38  O   UNL A   1      44.885  24.912  24.513  1.00  0.00    -0.460 OA
BRANCH  38  39
ATOM     39  C   UNL A   1      43.771  24.255  24.898  1.00  0.00     0.338 C 
ATOM     40  O   UNL A   1      43.561  23.061  24.793  1.00  0.00    -0.246 OA
BRANCH  39  41
ATOM     41  C   UNL A   1      42.911  25.192  25.683  1.00  0.00     0.060 A 
ATOM     42  C   UNL A   1      43.130  26.577  25.584  1.00  0.00     0.016 A 
ATOM     43  C   UNL A   1      41.918  24.714  26.540  1.00  0.00     0.016 A 
ATOM     44  C   UNL A   1      42.430  27.473  26.398  1.00  0.00     0.010 A 
ATOM     45  C   UNL A   1      41.240  25.610  27.382  1.00  0.00     0.010 A 
ATOM     46  C   UNL A   1      41.538  26.986  27.360  1.00  0.00    -0.014 A 
BRANCH  46  47
ATOM     47  C   UNL A   1      41.152  27.852  28.509  1.00  0.00     0.031 A 
ATOM     48  C   UNL A   1      41.972  27.752  29.771  1.00  0.00     0.074 A 
ATOM     49  C   UNL A   1      40.134  28.730  28.449  1.00  0.00     0.049 A 
ATOM     50  N   UNL A   1      41.796  28.327  30.933  1.00  0.00    -0.248 NA
ATOM     51  C   UNL A   1      43.154  26.875  29.710  1.00  0.00     0.031 C 
ATOM     52  C   UNL A   1      39.301  28.988  27.279  1.00  0.00     0.029 A 
ATOM     53  N   UNL A   1      39.625  29.563  29.417  1.00  0.00    -0.354 N 
ATOM     54  C   UNL A   1      42.830  27.869  31.743  1.00  0.00     0.074 A 
ATOM     55  C   UNL A   1      43.610  26.945  30.950  1.00  0.00     0.031 C 
ATOM     56  C   UNL A   1      38.366  29.899  27.603  1.00  0.00     0.029 A 
ATOM     57  C   UNL A   1      38.512  30.262  29.014  1.00  0.00     0.049 A 
ATOM     58  H   UNL A   1      40.020  29.651  30.315  1.00  0.00     0.167 HD
ATOM     59  C   UNL A   1      43.113  28.191  33.028  1.00  0.00     0.037 A 
ATOM     60  C   UNL A   1      37.689  31.073  29.710  1.00  0.00     0.037 A 
ATOM     61  C   UNL A   1      42.339  29.108  33.822  1.00  0.00     0.049 A 
ATOM     62  C   UNL A   1      37.965  31.345  31.171  1.00  0.00     0.074 A 
ATOM     63  C   UNL A   1      42.552  29.505  35.130  1.00  0.00     0.029 A 
ATOM     64  N   UNL A   1      41.199  29.763  33.385  1.00  0.00    -0.354 N 
ATOM     65  N   UNL A   1      38.950  30.915  31.923  1.00  0.00    -0.248 NA
ATOM     66  C   UNL A   1      37.015  32.218  31.876  1.00  0.00     0.031 C 
ATOM     67  C   UNL A   1      41.503  30.350  35.507  1.00  0.00     0.029 A 
ATOM     68  C   UNL A   1      40.678  30.537  34.410  1.00  0.00     0.049 A 
ATOM     69  H   UNL A   1      40.816  29.690  32.482  1.00  0.00     0.167 HD
ATOM     70  C   UNL A   1      38.757  31.493  33.175  1.00  0.00     0.074 A 
ATOM     71  C   UNL A   1      37.568  32.312  33.077  1.00  0.00     0.031 C 
ATOM     72  C   UNL A   1      39.499  31.359  34.302  1.00  0.00     0.037 A 
BRANCH  59  73
ATOM     73  C   UNL A   1      44.293  27.514  33.668  1.00  0.00     0.057 A 
ATOM     74  C   UNL A   1      45.544  28.136  33.772  1.00  0.00     0.134 A 
ATOM     75  C   UNL A   1      44.164  26.230  34.213  1.00  0.00     0.134 A 
ATOM     76  F   UNL A   1      45.741  29.359  33.259  1.00  0.00    -0.206 F 
ATOM     77  C   UNL A   1      46.631  27.493  34.369  1.00  0.00     0.040 A 
ATOM     78  C   UNL A   1      45.234  25.591  34.841  1.00  0.00     0.040 A 
ATOM     79  F   UNL A   1      42.993  25.577  34.154  1.00  0.00    -0.206 F 
ATOM     80  C   UNL A   1      46.476  26.220  34.913  1.00  0.00     0.006 A 
ENDBRANCH  59  73
BRANCH  60  81
ATOM     81  C   UNL A   1      36.499  31.675  29.052  1.00  0.00     0.057 A 
ATOM     82  C   UNL A   1      35.373  30.906  28.736  1.00  0.00     0.134 A 
ATOM     83  C   UNL A   1      36.474  33.028  28.688  1.00  0.00     0.134 A 
ATOM     84  F   UNL A   1      35.345  29.598  29.031  1.00  0.00    -0.206 F 
ATOM     85  C   UNL A   1      34.276  31.451  28.064  1.00  0.00     0.040 A 
ATOM     86  C   UNL A   1      35.372  33.593  28.044  1.00  0.00     0.040 A 
ATOM     87  F   UNL A   1      37.520  33.822  28.959  1.00  0.00    -0.206 F 
ATOM     88  C   UNL A   1      34.273  32.802  27.722  1.00  0.00     0.006 A 
ENDBRANCH  60  81
BRANCH  72  89
ATOM     89  C   UNL A   1      39.084  32.153  35.511  1.00  0.00     0.057 A 
ATOM     90  C   UNL A   1      38.350  31.587  36.562  1.00  0.00     0.134 A 
ATOM     91  C   UNL A   1      39.469  33.495  35.646  1.00  0.00     0.134 A 
ATOM     92  F   UNL A   1      37.942  30.310  36.497  1.00  0.00    -0.206 F 
ATOM     93  C   UNL A   1      37.991  32.334  37.687  1.00  0.00     0.040 A 
ATOM     94  C   UNL A   1      39.144  34.241  36.779  1.00  0.00     0.040 A 
ATOM     95  F   UNL A   1      40.185  34.097  34.685  1.00  0.00    -0.206 F 
ATOM     96  C   UNL A   1      38.395  33.663  37.801  1.00  0.00     0.006 A 
ENDBRANCH  72  89
ENDBRANCH  46  47
ENDBRANCH  39  41
ENDBRANCH  38  39
ENDBRANCH  37  38
ENDBRANCH  36  37
ENDBRANCH  35  36
ENDBRANCH  34  35
ENDBRANCH  33  34
ENDBRANCH  32  33
ENDBRANCH   1  32
TORSDOF 24
ENDMDL
MODEL 3
REMARK VINA RESULT:      -7.6      5.966     11.449
REMARK SMILES C[C@@H](NC(=O)[C@H]1CC=CC[C@@H]1C(=O)OCCOCCOCCOCCOC(=O)c1ccc(-c2c3nc(c(-c4c(F)cccc4F)c4ccc([nH]4)c(-c4c(F)cccc4F)c4nc(c(-c5c(F)cccc5F)c5ccc2[nH]5)C=C4)C=C3)cc1)c1ccc(-n2ccnc2)cc1
REMARK SMILES IDX 19 1 18 2 17 3 16 4 15 5 14 6 12 7 13 8 11 9 6 10 7 11 8 12
REMARK SMILES IDX 10 13 9 14 4 15 3 16 5 18 2 19 1 20 83 21 84 22 93 23 85 24
REMARK SMILES IDX 92 25 86 26 87 27 88 28 91 29 89 30 90 31 20 32 21 33 22 34
REMARK SMILES IDX 23 35 24 36 25 37 26 38 27 39 28 40 29 41 30 42 82 43 31 44
REMARK SMILES IDX 81 45 32 46 33 47 34 48 75 49 35 50 80 51 74 52 76 53 36 54
REMARK SMILES IDX 79 55 73 56 72 57 37 59 63 60 46 61 62 62 47 63 50 64 61 65
REMARK SMILES IDX 77 66 48 67 49 68 60 70 78 71 51 72 38 73 39 74 44 75 40 76
REMARK SMILES IDX 41 77 43 78 45 79 42 80 64 81 65 82 70 83 66 84 67 85 69 86
REMARK SMILES IDX 71 87 68 88 52 89 53 90 58 91 54 92 55 93 57 94 59 95 56 96
REMARK H PARENT 3 17 76 58 50 69
REMARK Flexibility Score: inf
ROOT
ATOM      1  C   UNL A   1      37.606  30.252  30.103  1.00  0.00     0.188 C 
ENDROOT
BRANCH   1   2
ATOM      2  C   UNL A   1      36.282  29.696  29.514  1.00  0.00     0.188 C 
BRANCH   2   3
ATOM      3  O   UNL A   1      35.989  29.574  28.113  1.00  0.00    -0.376 OA
BRANCH   3   4
ATOM      4  C   UNL A   1      34.801  28.960  27.194  1.00  0.00     0.202 C 
BRANCH   4   5
ATOM      5  C   UNL A   1      32.611  28.529  27.592  1.00  0.00     0.261 C 
BRANCH   5   6
ATOM      6  O   UNL A   1      31.469  28.256  26.359  1.00  0.00    -0.463 OA
BRANCH   6   7
ATOM      7  C   UNL A   1      31.322  29.033  25.234  1.00  0.00     0.310 C 
ATOM      8  O   UNL A   1      31.417  30.252  25.256  1.00  0.00    -0.252 OA
BRANCH   7   9
ATOM      9  C   UNL A   1      31.166  28.185  23.934  1.00  0.00     0.115 C 
ATOM     10  C   UNL A   1      31.852  26.791  23.930  1.00  0.00     0.097 C 
ATOM     11  C   UNL A   1      33.394  26.917  24.081  1.00  0.00     0.041 C 
ATOM     12  C   UNL A   1      33.978  28.027  23.267  1.00  0.00    -0.030 C 
ATOM     13  C   UNL A   1      31.723  29.002  22.763  1.00  0.00     0.043 C 
ATOM     14  C   UNL A   1      33.223  28.949  22.653  1.00  0.00    -0.030 C 
BRANCH  10  15
ATOM     15  C   UNL A   1      31.514  25.840  22.731  1.00  0.00     0.224 C 
ATOM     16  N   UNL A   1      31.364  24.487  22.760  1.00  0.00    -0.349 N 
ATOM     17  H   UNL A   1      31.362  24.128  21.842  1.00  0.00     0.164 HD
ATOM     18  O   UNL A   1      31.493  26.292  21.576  1.00  0.00    -0.275 OA
BRANCH  16  19
ATOM     19  C   UNL A   1      31.203  23.374  23.742  1.00  0.00     0.109 C 
ATOM     20  C   UNL A   1      30.670  23.966  25.042  1.00  0.00     0.036 C 
BRANCH  19  21
ATOM     21  C   UNL A   1      32.422  22.492  23.842  1.00  0.00    -0.026 A 
ATOM     22  C   UNL A   1      33.456  22.820  22.995  1.00  0.00     0.008 A 
ATOM     23  C   UNL A   1      32.651  21.503  24.821  1.00  0.00     0.008 A 
ATOM     24  C   UNL A   1      34.706  22.699  23.529  1.00  0.00     0.027 A 
ATOM     25  C   UNL A   1      33.963  21.139  25.163  1.00  0.00     0.027 A 
ATOM     26  C   UNL A   1      34.977  21.895  24.599  1.00  0.00     0.046 A 
BRANCH  26  27
ATOM     27  N   UNL A   1      36.224  22.109  25.226  1.00  0.00    -0.306 N 
ATOM     28  C   UNL A   1      36.711  23.682  26.017  1.00  0.00     0.113 A 
ATOM     29  C   UNL A   1      37.750  21.037  25.052  1.00  0.00     0.204 A 
ATOM     30  C   UNL A   1      38.405  23.613  26.359  1.00  0.00     0.131 A 
ATOM     31  N   UNL A   1      39.037  21.912  25.754  1.00  0.00    -0.245 NA
ENDBRANCH  26  27
ENDBRANCH  19  21
ENDBRANCH  16  19
ENDBRANCH  10  15
ENDBRANCH   7   9
ENDBRANCH   6   7
ENDBRANCH   5   6
ENDBRANCH   4   5
ENDBRANCH   3   4
ENDBRANCH   2   3
ENDBRANCH   1   2
BRANCH   1  32
ATOM     32  O   UNL A   1      38.310  31.280  29.429  1.00  0.00    -0.377 OA
BRANCH  32  33
ATOM     33  C   UNL A   1      37.531  32.287  28.812  1.00  0.00     0.188 C 
BRANCH  33  34
ATOM     34  C   UNL A   1      37.810  33.724  29.265  1.00  0.00     0.188 C 
BRANCH  34  35
ATOM     35  O   UNL A   1      36.674  34.559  29.221  1.00  0.00    -0.376 OA
BRANCH  35  36
ATOM     36  C   UNL A   1      35.420  34.004  28.855  1.00  0.00     0.202 C 
BRANCH  36  37
ATOM     37  C   UNL A   1      34.244  33.828  29.844  1.00  0.00     0.261 C 
BRANCH  37  38
ATOM     38  O   UNL A   1      34.388  32.971  30.996  1.00  0.00    -0.460 OA
BRANCH  38  39
ATOM     39  C   UNL A   1      34.387  33.497  32.238  1.00  0.00     0.338 C 
ATOM     40  O   UNL A   1      33.414  33.868  32.868  1.00  0.00    -0.246 OA
BRANCH  39  41
ATOM     41  C   UNL A   1      35.756  33.351  32.820  1.00  0.00     0.060 A 
ATOM     42  C   UNL A   1      36.303  32.067  32.982  1.00  0.00     0.016 A 
ATOM     43  C   UNL A   1      36.485  34.465  33.238  1.00  0.00     0.016 A 
ATOM     44  C   UNL A   1      37.526  31.886  33.637  1.00  0.00     0.010 A 
ATOM     45  C   UNL A   1      37.695  34.282  33.926  1.00  0.00     0.010 A 
ATOM     46  C   UNL A   1      38.189  32.989  34.184  1.00  0.00    -0.014 A 
BRANCH  46  47
ATOM     47  C   UNL A   1      39.208  32.779  35.251  1.00  0.00     0.031 A 
ATOM     48  C   UNL A   1      38.730  32.742  36.682  1.00  0.00     0.074 A 
ATOM     49  C   UNL A   1      40.513  32.589  34.984  1.00  0.00     0.049 A 
ATOM     50  N   UNL A   1      39.417  32.660  37.793  1.00  0.00    -0.248 NA
ATOM     51  C   UNL A   1      37.274  32.813  36.882  1.00  0.00     0.031 C 
ATOM     52  C   UNL A   1      41.109  32.528  33.653  1.00  0.00     0.029 A 
ATOM     53  N   UNL A   1      41.578  32.425  35.839  1.00  0.00    -0.354 N 
ATOM     54  C   UNL A   1      38.480  32.687  38.820  1.00  0.00     0.074 A 
ATOM     55  C   UNL A   1      37.180  32.826  38.202  1.00  0.00     0.031 C 
ATOM     56  C   UNL A   1      42.438  32.364  33.779  1.00  0.00     0.029 A 
ATOM     57  C   UNL A   1      42.792  32.346  35.199  1.00  0.00     0.049 A 
ATOM     58  H   UNL A   1      41.480  32.370  36.817  1.00  0.00     0.167 HD
ATOM     59  C   UNL A   1      38.677  32.598  40.157  1.00  0.00     0.037 A 
ATOM     60  C   UNL A   1      44.043  32.297  35.702  1.00  0.00     0.037 A 
ATOM     61  C   UNL A   1      39.969  32.462  40.777  1.00  0.00     0.049 A 
ATOM     62  C   UNL A   1      44.250  32.297  37.198  1.00  0.00     0.074 A 
ATOM     63  C   UNL A   1      40.270  32.355  42.123  1.00  0.00     0.029 A 
ATOM     64  N   UNL A   1      41.173  32.424  40.093  1.00  0.00    -0.354 N 
ATOM     65  N   UNL A   1      43.357  32.313  38.160  1.00  0.00    -0.248 NA
ATOM     66  C   UNL A   1      45.640  32.267  37.678  1.00  0.00     0.031 C 
ATOM     67  C   UNL A   1      41.661  32.319  42.258  1.00  0.00     0.029 A 
ATOM     68  C   UNL A   1      42.223  32.329  40.993  1.00  0.00     0.049 A 
ATOM     69  H   UNL A   1      41.269  32.460  39.114  1.00  0.00     0.167 HD
ATOM     70  C   UNL A   1      44.075  32.260  39.350  1.00  0.00     0.074 A 
ATOM     71  C   UNL A   1      45.475  32.199  38.991  1.00  0.00     0.031 C 
ATOM     72  C   UNL A   1      43.615  32.258  40.627  1.00  0.00     0.037 A 
BRANCH  59  73
ATOM     73  C   UNL A   1      37.467  32.684  41.044  1.00  0.00     0.057 A 
ATOM     74  C   UNL A   1      37.026  33.896  41.589  1.00  0.00     0.134 A 
ATOM     75  C   UNL A   1      36.716  31.537  41.332  1.00  0.00     0.134 A 
ATOM     76  F   UNL A   1      37.706  35.031  41.366  1.00  0.00    -0.206 F 
ATOM     77  C   UNL A   1      35.900  33.960  42.413  1.00  0.00     0.040 A 
ATOM     78  C   UNL A   1      35.569  31.593  42.126  1.00  0.00     0.040 A 
ATOM     79  F   UNL A   1      37.076  30.342  40.839  1.00  0.00    -0.206 F 
ATOM     80  C   UNL A   1      35.163  32.807  42.677  1.00  0.00     0.006 A 
ENDBRANCH  59  73
BRANCH  60  81
ATOM     81  C   UNL A   1      45.216  32.273  34.787  1.00  0.00     0.057 A 
ATOM     82  C   UNL A   1      45.786  33.456  34.300  1.00  0.00     0.134 A 
ATOM     83  C   UNL A   1      45.772  31.065  34.347  1.00  0.00     0.134 A 
ATOM     84  F   UNL A   1      45.282  34.645  34.660  1.00  0.00    -0.206 F 
ATOM     85  C   UNL A   1      46.848  33.440  33.394  1.00  0.00     0.040 A 
ATOM     86  C   UNL A   1      46.854  31.034  33.466  1.00  0.00     0.040 A 
ATOM     87  F   UNL A   1      45.273  29.895  34.772  1.00  0.00    -0.206 F 
ATOM     88  C   UNL A   1      47.389  32.224  32.980  1.00  0.00     0.006 A 
ENDBRANCH  60  81
BRANCH  72  89
ATOM     89  C   UNL A   1      44.626  32.136  41.734  1.00  0.00     0.057 A 
ATOM     90  C   UNL A   1      45.175  33.256  42.373  1.00  0.00     0.134 A 
ATOM     91  C   UNL A   1      45.020  30.873  42.201  1.00  0.00     0.134 A 
ATOM     92  F   UNL A   1      44.850  34.495  41.973  1.00  0.00    -0.206 F 
ATOM     93  C   UNL A   1      46.098  33.124  43.414  1.00  0.00     0.040 A 
ATOM     94  C   UNL A   1      45.915  30.729  43.261  1.00  0.00     0.040 A 
ATOM     95  F   UNL A   1      44.524  29.757  41.646  1.00  0.00    -0.206 F 
ATOM     96  C   UNL A   1      46.464  31.857  43.866  1.00  0.00     0.006 A 
ENDBRANCH  72  89
ENDBRANCH  46  47
ENDBRANCH  39  41
ENDBRANCH  38  39
ENDBRANCH  37  38
ENDBRANCH  36  37
ENDBRANCH  35  36
ENDBRANCH  34  35
ENDBRANCH  33  34
ENDBRANCH  32  33
ENDBRANCH   1  32
TORSDOF 24
ENDMDL
