MODEL 1
REMARK VINA RESULT:     -10.6      0.000      0.000
REMARK SMILES Cc1cccc(-c2ccc(Cl)c(C(=O)OCCOCCOCCOCCOC(=O)c3ccc(-c4c5nc(c(-c6c(F)cccc6F)c6ccc([nH]6)c(-c6c(F)cccc6F)c6nc(c(-c7c(F)cccc7F)c7ccc4[nH]7)C=C6)C=C5)cc3)c2)c1
REMARK SMILES IDX 22 1 21 2 20 3 19 4 18 5 17 6 16 7 15 8 13 9 14 10 12 11
REMARK SMILES IDX 7 12 8 13 84 14 9 15 10 16 11 17 6 18 1 19 2 20 3 21 85 22
REMARK SMILES IDX 4 23 5 24 23 25 24 26 25 27 26 28 27 29 28 30 29 31 30 32
REMARK SMILES IDX 31 33 83 34 32 35 82 36 33 37 34 38 35 39 76 40 36 41 81 42
REMARK SMILES IDX 75 43 77 44 37 45 80 46 74 47 73 48 38 50 64 51 47 52 63 53
REMARK SMILES IDX 48 54 51 55 62 56 78 57 49 58 50 59 61 61 79 62 52 63 39 64
REMARK SMILES IDX 40 65 45 66 41 67 42 68 44 69 46 70 43 71 65 72 66 73 71 74
REMARK SMILES IDX 67 75 68 76 70 77 72 78 69 79 53 80 54 81 59 82 55 83 56 84
REMARK SMILES IDX 58 85 60 86 57 87
REMARK H PARENT 77 49 51 60
REMARK Flexibility Score: inf
ROOT
ATOM      1  C   UNL A   1      32.479  29.307  25.092  1.00  0.00     0.188 C 
ENDROOT
BRANCH   1   2
ATOM      2  O   UNL A   1      32.022  28.010  24.706  1.00  0.00    -0.377 OA
BRANCH   2   3
ATOM      3  C   UNL A   1      30.870  27.919  23.888  1.00  0.00     0.188 C 
BRANCH   3   4
ATOM      4  C   UNL A   1      31.056  27.365  22.464  1.00  0.00     0.188 C 
BRANCH   4   5
ATOM      5  O   UNL A   1      32.011  26.346  22.209  1.00  0.00    -0.376 OA
BRANCH   5   6
ATOM      6  C   UNL A   1      31.812  25.131  22.928  1.00  0.00     0.202 C 
BRANCH   6   7
ATOM      7  C   UNL A   1      33.002  24.195  23.024  1.00  0.00     0.261 C 
BRANCH   7   8
ATOM      8  O   UNL A   1      33.762  24.589  24.169  1.00  0.00    -0.460 OA
BRANCH   8   9
ATOM      9  C   UNL A   1      33.422  23.942  25.292  1.00  0.00     0.339 C 
ATOM     10  O   UNL A   1      32.411  24.083  25.953  1.00  0.00    -0.246 OA
BRANCH   9  11
ATOM     11  C   UNL A   1      34.152  22.674  25.274  1.00  0.00     0.079 A 
ATOM     12  C   UNL A   1      36.431  21.884  25.549  1.00  0.00    -0.017 A 
ATOM     13  C   UNL A   1      36.045  20.629  25.093  1.00  0.00     0.010 A 
ATOM     14  C   UNL A   1      35.468  22.881  25.652  1.00  0.00     0.026 A 
ATOM     15  C   UNL A   1      34.689  20.374  24.846  1.00  0.00     0.022 A 
ATOM     16  C   UNL A   1      33.733  21.394  24.956  1.00  0.00     0.055 A 
ATOM     17  Cl  UNL A   1      32.108  20.951  24.675  1.00  0.00    -0.083 Cl
BRANCH  12  18
ATOM     18  C   UNL A   1      37.783  22.395  25.679  1.00  0.00    -0.018 A 
ATOM     19  C   UNL A   1      39.023  25.449  27.534  1.00  0.00     0.044 C 
ATOM     20  C   UNL A   1      39.018  24.099  26.888  1.00  0.00    -0.051 A 
ATOM     21  C   UNL A   1      40.092  23.211  27.016  1.00  0.00     0.003 A 
ATOM     22  C   UNL A   1      37.888  23.698  26.181  1.00  0.00     0.012 A 
ATOM     23  C   UNL A   1      40.022  21.928  26.468  1.00  0.00     0.001 A 
ATOM     24  C   UNL A   1      38.870  21.516  25.802  1.00  0.00     0.009 A 
ENDBRANCH  12  18
ENDBRANCH   9  11
ENDBRANCH   8   9
ENDBRANCH   7   8
ENDBRANCH   6   7
ENDBRANCH   5   6
ENDBRANCH   4   5
ENDBRANCH   3   4
ENDBRANCH   2   3
ENDBRANCH   1   2
BRANCH   1  25
ATOM     25  C   UNL A   1      31.515  30.308  25.705  1.00  0.00     0.188 C 
BRANCH  25  26
ATOM     26  O   UNL A   1      32.193  30.933  26.786  1.00  0.00    -0.376 OA
BRANCH  26  27
ATOM     27  C   UNL A   1      33.463  30.395  27.121  1.00  0.00     0.202 C 
BRANCH  27  28
ATOM     28  C   UNL A   1      34.313  31.367  27.944  1.00  0.00     0.261 C 
BRANCH  28  29
ATOM     29  O   UNL A   1      33.871  32.720  27.692  1.00  0.00    -0.460 OA
BRANCH  29  30
ATOM     30  C   UNL A   1      33.686  33.496  28.797  1.00  0.00     0.338 C 
ATOM     31  O   UNL A   1      32.769  34.288  28.949  1.00  0.00    -0.246 OA
BRANCH  30  32
ATOM     32  C   UNL A   1      34.904  33.464  29.668  1.00  0.00     0.060 A 
ATOM     33  C   UNL A   1      36.153  33.888  29.174  1.00  0.00     0.016 A 
ATOM     34  C   UNL A   1      34.870  32.697  30.817  1.00  0.00     0.016 A 
ATOM     35  C   UNL A   1      37.356  33.368  29.706  1.00  0.00     0.010 A 
ATOM     36  C   UNL A   1      36.047  32.124  31.262  1.00  0.00     0.010 A 
ATOM     37  C   UNL A   1      37.310  32.393  30.702  1.00  0.00    -0.014 A 
BRANCH  37  38
ATOM     38  C   UNL A   1      38.420  31.493  31.142  1.00  0.00     0.031 A 
ATOM     39  C   UNL A   1      38.739  30.253  30.308  1.00  0.00     0.074 A 
ATOM     40  C   UNL A   1      39.372  31.923  32.024  1.00  0.00     0.049 A 
ATOM     41  N   UNL A   1      39.762  29.477  30.470  1.00  0.00    -0.248 NA
ATOM     42  C   UNL A   1      37.938  29.794  29.171  1.00  0.00     0.031 C 
ATOM     43  C   UNL A   1      40.769  31.497  32.000  1.00  0.00     0.029 A 
ATOM     44  N   UNL A   1      39.378  32.856  33.073  1.00  0.00    -0.354 N 
ATOM     45  C   UNL A   1      39.966  28.722  29.328  1.00  0.00     0.074 A 
ATOM     46  C   UNL A   1      38.741  28.891  28.591  1.00  0.00     0.031 C 
ATOM     47  C   UNL A   1      41.467  32.013  33.005  1.00  0.00     0.029 A 
ATOM     48  C   UNL A   1      40.522  32.630  33.876  1.00  0.00     0.049 A 
ATOM     49  H   UNL A   1      38.699  33.552  33.225  1.00  0.00     0.167 HD
ATOM     50  C   UNL A   1      41.201  28.160  29.103  1.00  0.00     0.037 A 
ATOM     51  C   UNL A   1      40.500  32.379  35.213  1.00  0.00     0.037 A 
ATOM     52  C   UNL A   1      42.098  28.377  30.258  1.00  0.00     0.049 A 
ATOM     53  C   UNL A   1      41.080  30.999  35.453  1.00  0.00     0.074 A 
ATOM     54  C   UNL A   1      43.360  28.927  30.413  1.00  0.00     0.029 A 
ATOM     55  N   UNL A   1      41.641  28.130  31.550  1.00  0.00    -0.354 N 
ATOM     56  N   UNL A   1      40.932  30.023  34.581  1.00  0.00    -0.248 NA
ATOM     57  C   UNL A   1      42.088  30.687  36.471  1.00  0.00     0.031 C 
ATOM     58  C   UNL A   1      43.603  29.114  31.803  1.00  0.00     0.029 A 
ATOM     59  C   UNL A   1      42.534  28.572  32.501  1.00  0.00     0.049 A 
ATOM     60  H   UNL A   1      40.783  27.694  31.759  1.00  0.00     0.167 HD
ATOM     61  C   UNL A   1      41.905  29.084  34.799  1.00  0.00     0.074 A 
ATOM     62  C   UNL A   1      42.564  29.507  36.027  1.00  0.00     0.031 C 
ATOM     63  C   UNL A   1      42.376  28.182  33.887  1.00  0.00     0.037 A 
BRANCH  50  64
ATOM     64  C   UNL A   1      41.744  27.556  27.790  1.00  0.00     0.057 A 
ATOM     65  C   UNL A   1      42.421  26.309  27.795  1.00  0.00     0.134 A 
ATOM     66  C   UNL A   1      41.722  28.156  26.515  1.00  0.00     0.134 A 
ATOM     67  F   UNL A   1      42.487  25.548  28.897  1.00  0.00    -0.206 F 
ATOM     68  C   UNL A   1      43.061  25.752  26.671  1.00  0.00     0.040 A 
ATOM     69  C   UNL A   1      42.312  27.582  25.367  1.00  0.00     0.040 A 
ATOM     70  F   UNL A   1      41.155  29.344  26.295  1.00  0.00    -0.206 F 
ATOM     71  C   UNL A   1      43.004  26.387  25.444  1.00  0.00     0.006 A 
ENDBRANCH  50  64
BRANCH  51  72
ATOM     72  C   UNL A   1      39.479  33.226  35.895  1.00  0.00     0.057 A 
ATOM     73  C   UNL A   1      38.376  32.479  36.376  1.00  0.00     0.134 A 
ATOM     74  C   UNL A   1      39.925  34.273  36.711  1.00  0.00     0.134 A 
ATOM     75  F   UNL A   1      37.860  31.490  35.628  1.00  0.00    -0.206 F 
ATOM     76  C   UNL A   1      37.956  32.562  37.710  1.00  0.00     0.040 A 
ATOM     77  C   UNL A   1      39.508  34.363  38.050  1.00  0.00     0.040 A 
ATOM     78  F   UNL A   1      40.954  35.039  36.324  1.00  0.00    -0.206 F 
ATOM     79  C   UNL A   1      38.576  33.462  38.570  1.00  0.00     0.006 A 
ENDBRANCH  51  72
BRANCH  63  80
ATOM     80  C   UNL A   1      42.689  26.752  34.262  1.00  0.00     0.057 A 
ATOM     81  C   UNL A   1      43.986  26.226  34.241  1.00  0.00     0.134 A 
ATOM     82  C   UNL A   1      41.714  25.921  34.870  1.00  0.00     0.134 A 
ATOM     83  F   UNL A   1      45.023  26.925  33.761  1.00  0.00    -0.206 F 
ATOM     84  C   UNL A   1      44.289  24.964  34.760  1.00  0.00     0.040 A 
ATOM     85  C   UNL A   1      42.016  24.681  35.434  1.00  0.00     0.040 A 
ATOM     86  F   UNL A   1      40.429  26.282  34.992  1.00  0.00    -0.206 F 
ATOM     87  C   UNL A   1      43.308  24.193  35.371  1.00  0.00     0.006 A 
ENDBRANCH  63  80
ENDBRANCH  37  38
ENDBRANCH  30  32
ENDBRANCH  29  30
ENDBRANCH  28  29
ENDBRANCH  27  28
ENDBRANCH  26  27
ENDBRANCH  25  26
ENDBRANCH   1  25
TORSDOF 21
ENDMDL
MODEL 2
REMARK VINA RESULT:     -10.4      3.862      9.644
REMARK SMILES Cc1cccc(-c2ccc(Cl)c(C(=O)OCCOCCOCCOCCOC(=O)c3ccc(-c4c5nc(c(-c6c(F)cccc6F)c6ccc([nH]6)c(-c6c(F)cccc6F)c6nc(c(-c7c(F)cccc7F)c7ccc4[nH]7)C=C6)C=C5)cc3)c2)c1
REMARK SMILES IDX 22 1 21 2 20 3 19 4 18 5 17 6 16 7 15 8 13 9 14 10 12 11
REMARK SMILES IDX 7 12 8 13 84 14 9 15 10 16 11 17 6 18 1 19 2 20 3 21 85 22
REMARK SMILES IDX 4 23 5 24 23 25 24 26 25 27 26 28 27 29 28 30 29 31 30 32
REMARK SMILES IDX 31 33 83 34 32 35 82 36 33 37 34 38 35 39 76 40 36 41 81 42
REMARK SMILES IDX 75 43 77 44 37 45 80 46 74 47 73 48 38 50 64 51 47 52 63 53
REMARK SMILES IDX 48 54 51 55 62 56 78 57 49 58 50 59 61 61 79 62 52 63 39 64
REMARK SMILES IDX 40 65 45 66 41 67 42 68 44 69 46 70 43 71 65 72 66 73 71 74
REMARK SMILES IDX 67 75 68 76 70 77 72 78 69 79 53 80 54 81 59 82 55 83 56 84
REMARK SMILES IDX 58 85 60 86 57 87
REMARK H PARENT 77 49 51 60
REMARK Flexibility Score: inf
ROOT
ATOM      1  C   UNL A   1      33.562  19.666  24.806  1.00  0.00     0.188 C 
ENDROOT
BRANCH   1   2
ATOM      2  O   UNL A   1      32.269  19.916  24.254  1.00  0.00    -0.377 OA
BRANCH   2   3
ATOM      3  C   UNL A   1      32.184  20.326  22.902  1.00  0.00     0.188 C 
BRANCH   3   4
ATOM      4  C   UNL A   1      32.320  21.832  22.609  1.00  0.00     0.188 C 
BRANCH   4   5
ATOM      5  O   UNL A   1      31.344  22.746  23.085  1.00  0.00    -0.376 OA
BRANCH   5   6
ATOM      6  C   UNL A   1      31.853  23.998  23.541  1.00  0.00     0.202 C 
BRANCH   6   7
ATOM      7  C   UNL A   1      33.361  24.165  23.525  1.00  0.00     0.261 C 
BRANCH   7   8
ATOM      8  O   UNL A   1      33.664  25.360  24.249  1.00  0.00    -0.460 OA
BRANCH   8   9
ATOM      9  C   UNL A   1      33.536  25.236  25.577  1.00  0.00     0.339 C 
ATOM     10  O   UNL A   1      34.246  24.604  26.335  1.00  0.00    -0.246 OA
BRANCH   9  11
ATOM     11  C   UNL A   1      32.788  26.409  26.031  1.00  0.00     0.079 A 
ATOM     12  C   UNL A   1      33.236  28.686  26.741  1.00  0.00    -0.017 A 
ATOM     13  C   UNL A   1      31.920  28.804  27.174  1.00  0.00     0.010 A 
ATOM     14  C   UNL A   1      33.641  27.493  26.156  1.00  0.00     0.026 A 
ATOM     15  C   UNL A   1      31.018  27.763  26.920  1.00  0.00     0.022 A 
ATOM     16  C   UNL A   1      31.446  26.566  26.328  1.00  0.00     0.055 A 
ATOM     17  Cl  UNL A   1      30.246  25.390  26.028  1.00  0.00    -0.083 Cl
BRANCH  12  18
ATOM     18  C   UNL A   1      34.350  29.557  27.068  1.00  0.00    -0.018 A 
ATOM     19  C   UNL A   1      34.406  32.689  29.187  1.00  0.00     0.044 C 
ATOM     20  C   UNL A   1      34.876  31.449  28.493  1.00  0.00    -0.051 A 
ATOM     21  C   UNL A   1      36.144  30.905  28.727  1.00  0.00     0.003 A 
ATOM     22  C   UNL A   1      34.005  30.792  27.630  1.00  0.00     0.012 A 
ATOM     23  C   UNL A   1      36.522  29.702  28.125  1.00  0.00     0.001 A 
ATOM     24  C   UNL A   1      35.629  29.025  27.297  1.00  0.00     0.009 A 
ENDBRANCH  12  18
ENDBRANCH   9  11
ENDBRANCH   8   9
ENDBRANCH   7   8
ENDBRANCH   6   7
ENDBRANCH   5   6
ENDBRANCH   4   5
ENDBRANCH   3   4
ENDBRANCH   2   3
ENDBRANCH   1   2
BRANCH   1  25
ATOM     25  C   UNL A   1      34.326  20.779  25.502  1.00  0.00     0.188 C 
BRANCH  25  26
ATOM     26  O   UNL A   1      35.582  20.895  24.849  1.00  0.00    -0.376 OA
BRANCH  26  27
ATOM     27  C   UNL A   1      36.570  21.657  25.525  1.00  0.00     0.202 C 
BRANCH  27  28
ATOM     28  C   UNL A   1      37.994  21.266  25.118  1.00  0.00     0.261 C 
BRANCH  28  29
ATOM     29  O   UNL A   1      38.925  21.756  26.111  1.00  0.00    -0.460 OA
BRANCH  29  30
ATOM     30  C   UNL A   1      40.123  21.109  26.166  1.00  0.00     0.338 C 
ATOM     31  O   UNL A   1      40.269  19.900  26.075  1.00  0.00    -0.246 OA
BRANCH  30  32
ATOM     32  C   UNL A   1      41.198  22.038  26.641  1.00  0.00     0.060 A 
ATOM     33  C   UNL A   1      41.335  22.339  28.009  1.00  0.00     0.016 A 
ATOM     34  C   UNL A   1      41.811  22.860  25.714  1.00  0.00     0.016 A 
ATOM     35  C   UNL A   1      41.900  23.567  28.426  1.00  0.00     0.010 A 
ATOM     36  C   UNL A   1      42.271  24.096  26.132  1.00  0.00     0.010 A 
ATOM     37  C   UNL A   1      42.286  24.512  27.477  1.00  0.00    -0.014 A 
BRANCH  37  38
ATOM     38  C   UNL A   1      42.574  25.962  27.703  1.00  0.00     0.031 A 
ATOM     39  C   UNL A   1      41.407  26.914  27.960  1.00  0.00     0.074 A 
ATOM     40  C   UNL A   1      43.827  26.388  28.050  1.00  0.00     0.049 A 
ATOM     41  N   UNL A   1      41.510  28.150  28.329  1.00  0.00    -0.248 NA
ATOM     42  C   UNL A   1      39.996  26.536  27.861  1.00  0.00     0.031 C 
ATOM     43  C   UNL A   1      44.096  27.524  28.927  1.00  0.00     0.029 A 
ATOM     44  N   UNL A   1      45.123  25.914  27.794  1.00  0.00    -0.354 N 
ATOM     45  C   UNL A   1      40.307  28.585  28.858  1.00  0.00     0.074 A 
ATOM     46  C   UNL A   1      39.374  27.568  28.449  1.00  0.00     0.031 C 
ATOM     47  C   UNL A   1      45.396  27.766  29.049  1.00  0.00     0.029 A 
ATOM     48  C   UNL A   1      46.049  26.945  28.084  1.00  0.00     0.049 A 
ATOM     49  H   UNL A   1      45.350  25.015  27.466  1.00  0.00     0.167 HD
ATOM     50  C   UNL A   1      40.291  29.685  29.683  1.00  0.00     0.037 A 
ATOM     51  C   UNL A   1      46.960  27.446  27.207  1.00  0.00     0.037 A 
ATOM     52  C   UNL A   1      41.629  30.311  29.754  1.00  0.00     0.049 A 
ATOM     53  C   UNL A   1      46.657  28.916  26.985  1.00  0.00     0.074 A 
ATOM     54  C   UNL A   1      42.484  30.651  30.789  1.00  0.00     0.029 A 
ATOM     55  N   UNL A   1      42.350  30.546  28.585  1.00  0.00    -0.354 N 
ATOM     56  N   UNL A   1      45.426  29.383  27.020  1.00  0.00    -0.248 NA
ATOM     57  C   UNL A   1      47.659  29.985  27.022  1.00  0.00     0.031 C 
ATOM     58  C   UNL A   1      43.754  30.977  30.236  1.00  0.00     0.029 A 
ATOM     59  C   UNL A   1      43.640  30.946  28.854  1.00  0.00     0.049 A 
ATOM     60  H   UNL A   1      41.982  30.439  27.678  1.00  0.00     0.167 HD
ATOM     61  C   UNL A   1      45.471  30.730  27.260  1.00  0.00     0.074 A 
ATOM     62  C   UNL A   1      46.885  31.075  27.191  1.00  0.00     0.031 C 
ATOM     63  C   UNL A   1      44.470  31.489  27.797  1.00  0.00     0.037 A 
BRANCH  50  64
ATOM     64  C   UNL A   1      39.153  30.158  30.613  1.00  0.00     0.057 A 
ATOM     65  C   UNL A   1      38.835  31.537  30.721  1.00  0.00     0.134 A 
ATOM     66  C   UNL A   1      38.389  29.356  31.484  1.00  0.00     0.134 A 
ATOM     67  F   UNL A   1      39.401  32.454  29.925  1.00  0.00    -0.206 F 
ATOM     68  C   UNL A   1      37.907  32.064  31.640  1.00  0.00     0.040 A 
ATOM     69  C   UNL A   1      37.416  29.866  32.371  1.00  0.00     0.040 A 
ATOM     70  F   UNL A   1      38.547  28.032  31.557  1.00  0.00    -0.206 F 
ATOM     71  C   UNL A   1      37.185  31.226  32.469  1.00  0.00     0.006 A 
ENDBRANCH  50  64
BRANCH  51  72
ATOM     72  C   UNL A   1      47.555  26.357  26.380  1.00  0.00     0.057 A 
ATOM     73  C   UNL A   1      47.236  26.472  25.005  1.00  0.00     0.134 A 
ATOM     74  C   UNL A   1      48.854  25.928  26.683  1.00  0.00     0.134 A 
ATOM     75  F   UNL A   1      45.995  26.830  24.633  1.00  0.00    -0.206 F 
ATOM     76  C   UNL A   1      48.228  26.472  24.016  1.00  0.00     0.040 A 
ATOM     77  C   UNL A   1      49.855  25.925  25.697  1.00  0.00     0.040 A 
ATOM     78  F   UNL A   1      49.234  25.779  27.960  1.00  0.00    -0.206 F 
ATOM     79  C   UNL A   1      49.556  26.267  24.376  1.00  0.00     0.006 A 
ENDBRANCH  51  72
BRANCH  63  80
ATOM     80  C   UNL A   1      44.150  32.874  27.284  1.00  0.00     0.057 A 
ATOM     81  C   UNL A   1      43.855  33.139  25.942  1.00  0.00     0.134 A 
ATOM     82  C   UNL A   1      43.911  33.951  28.175  1.00  0.00     0.134 A 
ATOM     83  F   UNL A   1      43.964  32.196  24.996  1.00  0.00    -0.206 F 
ATOM     84  C   UNL A   1      43.384  34.382  25.512  1.00  0.00     0.040 A 
ATOM     85  C   UNL A   1      43.396  35.179  27.763  1.00  0.00     0.040 A 
ATOM     86  F   UNL A   1      44.121  33.857  29.496  1.00  0.00    -0.206 F 
ATOM     87  C   UNL A   1      43.139  35.403  26.422  1.00  0.00     0.006 A 
ENDBRANCH  63  80
ENDBRANCH  37  38
ENDBRANCH  30  32
ENDBRANCH  29  30
ENDBRANCH  28  29
ENDBRANCH  27  28
ENDBRANCH  26  27
ENDBRANCH  25  26
ENDBRANCH   1  25
TORSDOF 21
ENDMDL
MODEL 3
REMARK VINA RESULT:     -10.2      1.452      2.786
REMARK SMILES Cc1cccc(-c2ccc(Cl)c(C(=O)OCCOCCOCCOCCOC(=O)c3ccc(-c4c5nc(c(-c6c(F)cccc6F)c6ccc([nH]6)c(-c6c(F)cccc6F)c6nc(c(-c7c(F)cccc7F)c7ccc4[nH]7)C=C6)C=C5)cc3)c2)c1
REMARK SMILES IDX 22 1 21 2 20 3 19 4 18 5 17 6 16 7 15 8 13 9 14 10 12 11
REMARK SMILES IDX 7 12 8 13 84 14 9 15 10 16 11 17 6 18 1 19 2 20 3 21 85 22
REMARK SMILES IDX 4 23 5 24 23 25 24 26 25 27 26 28 27 29 28 30 29 31 30 32
REMARK SMILES IDX 31 33 83 34 32 35 82 36 33 37 34 38 35 39 76 40 36 41 81 42
REMARK SMILES IDX 75 43 77 44 37 45 80 46 74 47 73 48 38 50 64 51 47 52 63 53
REMARK SMILES IDX 48 54 51 55 62 56 78 57 49 58 50 59 61 61 79 62 52 63 39 64
REMARK SMILES IDX 40 65 45 66 41 67 42 68 44 69 46 70 43 71 65 72 66 73 71 74
REMARK SMILES IDX 67 75 68 76 70 77 72 78 69 79 53 80 54 81 59 82 55 83 56 84
REMARK SMILES IDX 58 85 60 86 57 87
REMARK H PARENT 77 49 51 60
REMARK Flexibility Score: inf
ROOT
ATOM      1  C   UNL A   1      31.924  29.579  25.501  1.00  0.00     0.188 C 
ENDROOT
BRANCH   1   2
ATOM      2  O   UNL A   1      31.072  28.477  25.189  1.00  0.00    -0.377 OA
BRANCH   2   3
ATOM      3  C   UNL A   1      30.497  28.416  23.897  1.00  0.00     0.188 C 
BRANCH   3   4
ATOM      4  C   UNL A   1      30.134  27.025  23.348  1.00  0.00     0.188 C 
BRANCH   4   5
ATOM      5  O   UNL A   1      31.134  26.029  23.198  1.00  0.00    -0.376 OA
BRANCH   5   6
ATOM      6  C   UNL A   1      31.674  25.899  21.884  1.00  0.00     0.202 C 
BRANCH   6   7
ATOM      7  C   UNL A   1      32.941  25.077  21.748  1.00  0.00     0.261 C 
BRANCH   7   8
ATOM      8  O   UNL A   1      32.895  24.057  22.748  1.00  0.00    -0.460 OA
BRANCH   8   9
ATOM      9  C   UNL A   1      34.099  23.570  23.081  1.00  0.00     0.339 C 
ATOM     10  O   UNL A   1      35.188  24.039  22.813  1.00  0.00    -0.246 OA
BRANCH   9  11
ATOM     11  C   UNL A   1      33.895  22.745  24.272  1.00  0.00     0.079 A 
ATOM     12  C   UNL A   1      33.840  20.391  24.864  1.00  0.00    -0.017 A 
ATOM     13  C   UNL A   1      33.333  20.724  26.115  1.00  0.00     0.010 A 
ATOM     14  C   UNL A   1      34.133  21.414  23.970  1.00  0.00     0.026 A 
ATOM     15  C   UNL A   1      33.225  22.073  26.476  1.00  0.00     0.022 A 
ATOM     16  C   UNL A   1      33.526  23.091  25.559  1.00  0.00     0.055 A 
ATOM     17  Cl  UNL A   1      33.401  24.695  26.131  1.00  0.00    -0.083 Cl
BRANCH  12  18
ATOM     18  C   UNL A   1      33.854  19.081  24.240  1.00  0.00    -0.018 A 
ATOM     19  C   UNL A   1      35.551  15.899  25.380  1.00  0.00     0.044 C 
ATOM     20  C   UNL A   1      34.581  16.811  24.697  1.00  0.00    -0.051 A 
ATOM     21  C   UNL A   1      33.433  16.329  24.058  1.00  0.00     0.003 A 
ATOM     22  C   UNL A   1      34.804  18.184  24.743  1.00  0.00     0.012 A 
ATOM     23  C   UNL A   1      32.505  17.212  23.500  1.00  0.00     0.001 A 
ATOM     24  C   UNL A   1      32.711  18.587  23.590  1.00  0.00     0.009 A 
ENDBRANCH  12  18
ENDBRANCH   9  11
ENDBRANCH   8   9
ENDBRANCH   7   8
ENDBRANCH   6   7
ENDBRANCH   5   6
ENDBRANCH   4   5
ENDBRANCH   3   4
ENDBRANCH   2   3
ENDBRANCH   1   2
BRANCH   1  25
ATOM     25  C   UNL A   1      31.331  30.936  25.838  1.00  0.00     0.188 C 
BRANCH  25  26
ATOM     26  O   UNL A   1      32.149  31.510  26.848  1.00  0.00    -0.376 OA
BRANCH  26  27
ATOM     27  C   UNL A   1      33.243  30.721  27.290  1.00  0.00     0.202 C 
BRANCH  27  28
ATOM     28  C   UNL A   1      34.426  31.570  27.764  1.00  0.00     0.261 C 
BRANCH  28  29
ATOM     29  O   UNL A   1      34.060  32.968  27.712  1.00  0.00    -0.460 OA
BRANCH  29  30
ATOM     30  C   UNL A   1      33.788  33.551  28.914  1.00  0.00     0.338 C 
ATOM     31  O   UNL A   1      32.825  34.266  29.142  1.00  0.00    -0.246 OA
BRANCH  30  32
ATOM     32  C   UNL A   1      34.970  33.438  29.828  1.00  0.00     0.060 A 
ATOM     33  C   UNL A   1      36.244  33.873  29.415  1.00  0.00     0.016 A 
ATOM     34  C   UNL A   1      34.877  32.595  30.920  1.00  0.00     0.016 A 
ATOM     35  C   UNL A   1      37.416  33.296  29.958  1.00  0.00     0.010 A 
ATOM     36  C   UNL A   1      36.026  31.972  31.372  1.00  0.00     0.010 A 
ATOM     37  C   UNL A   1      37.315  32.257  30.881  1.00  0.00    -0.014 A 
BRANCH  37  38
ATOM     38  C   UNL A   1      38.392  31.309  31.302  1.00  0.00     0.031 A 
ATOM     39  C   UNL A   1      38.654  30.066  30.453  1.00  0.00     0.074 A 
ATOM     40  C   UNL A   1      39.369  31.693  32.179  1.00  0.00     0.049 A 
ATOM     41  N   UNL A   1      39.647  29.248  30.599  1.00  0.00    -0.248 NA
ATOM     42  C   UNL A   1      37.825  29.650  29.320  1.00  0.00     0.031 C 
ATOM     43  C   UNL A   1      40.747  31.212  32.138  1.00  0.00     0.029 A 
ATOM     44  N   UNL A   1      39.422  32.615  33.237  1.00  0.00    -0.354 N 
ATOM     45  C   UNL A   1      39.811  28.497  29.448  1.00  0.00     0.074 A 
ATOM     46  C   UNL A   1      38.587  28.721  28.725  1.00  0.00     0.031 C 
ATOM     47  C   UNL A   1      41.475  31.690  33.142  1.00  0.00     0.029 A 
ATOM     48  C   UNL A   1      40.562  32.335  34.027  1.00  0.00     0.049 A 
ATOM     49  H   UNL A   1      38.772  33.335  33.402  1.00  0.00     0.167 HD
ATOM     50  C   UNL A   1      41.020  27.889  29.206  1.00  0.00     0.037 A 
ATOM     51  C   UNL A   1      40.543  32.073  35.362  1.00  0.00     0.037 A 
ATOM     52  C   UNL A   1      41.936  28.060  30.354  1.00  0.00     0.049 A 
ATOM     53  C   UNL A   1      41.071  30.668  35.583  1.00  0.00     0.074 A 
ATOM     54  C   UNL A   1      43.220  28.558  30.502  1.00  0.00     0.029 A 
ATOM     55  N   UNL A   1      41.481  27.818  31.648  1.00  0.00    -0.354 N 
ATOM     56  N   UNL A   1      40.876  29.707  34.704  1.00  0.00    -0.248 NA
ATOM     57  C   UNL A   1      42.074  30.307  36.588  1.00  0.00     0.031 C 
ATOM     58  C   UNL A   1      43.483  28.721  31.891  1.00  0.00     0.029 A 
ATOM     59  C   UNL A   1      42.400  28.215  32.594  1.00  0.00     0.049 A 
ATOM     60  H   UNL A   1      40.609  27.414  31.861  1.00  0.00     0.167 HD
ATOM     61  C   UNL A   1      41.813  28.729  34.903  1.00  0.00     0.074 A 
ATOM     62  C   UNL A   1      42.499  29.114  36.129  1.00  0.00     0.031 C 
ATOM     63  C   UNL A   1      42.239  27.818  33.979  1.00  0.00     0.037 A 
BRANCH  50  64
ATOM     64  C   UNL A   1      41.527  27.277  27.882  1.00  0.00     0.057 A 
ATOM     65  C   UNL A   1      41.867  28.110  26.785  1.00  0.00     0.134 A 
ATOM     66  C   UNL A   1      41.628  25.906  27.573  1.00  0.00     0.134 A 
ATOM     67  F   UNL A   1      41.903  29.445  26.899  1.00  0.00    -0.206 F 
ATOM     68  C   UNL A   1      42.208  27.631  25.505  1.00  0.00     0.040 A 
ATOM     69  C   UNL A   1      42.023  25.412  26.311  1.00  0.00     0.040 A 
ATOM     70  F   UNL A   1      41.332  24.951  28.458  1.00  0.00    -0.206 F 
ATOM     71  C   UNL A   1      42.293  26.274  25.262  1.00  0.00     0.006 A 
ENDBRANCH  50  64
BRANCH  51  72
ATOM     72  C   UNL A   1      39.563  32.952  36.061  1.00  0.00     0.057 A 
ATOM     73  C   UNL A   1      38.385  32.267  36.448  1.00  0.00     0.134 A 
ATOM     74  C   UNL A   1      40.053  33.904  36.964  1.00  0.00     0.134 A 
ATOM     75  F   UNL A   1      37.826  31.373  35.614  1.00  0.00    -0.206 F 
ATOM     76  C   UNL A   1      37.916  32.296  37.768  1.00  0.00     0.040 A 
ATOM     77  C   UNL A   1      39.588  33.940  38.290  1.00  0.00     0.040 A 
ATOM     78  F   UNL A   1      41.155  34.609  36.669  1.00  0.00    -0.206 F 
ATOM     79  C   UNL A   1      38.567  33.084  38.710  1.00  0.00     0.006 A 
ENDBRANCH  51  72
BRANCH  63  80
ATOM     80  C   UNL A   1      42.499  26.373  34.336  1.00  0.00     0.057 A 
ATOM     81  C   UNL A   1      43.719  25.734  34.087  1.00  0.00     0.134 A 
ATOM     82  C   UNL A   1      41.594  25.643  35.148  1.00  0.00     0.134 A 
ATOM     83  F   UNL A   1      44.699  26.331  33.394  1.00  0.00    -0.206 F 
ATOM     84  C   UNL A   1      44.011  24.461  34.583  1.00  0.00     0.040 A 
ATOM     85  C   UNL A   1      41.895  24.392  35.687  1.00  0.00     0.040 A 
ATOM     86  F   UNL A   1      40.392  26.118  35.500  1.00  0.00    -0.206 F 
ATOM     87  C   UNL A   1      43.106  23.791  35.396  1.00  0.00     0.006 A 
ENDBRANCH  63  80
ENDBRANCH  37  38
ENDBRANCH  30  32
ENDBRANCH  29  30
ENDBRANCH  28  29
ENDBRANCH  27  28
ENDBRANCH  26  27
ENDBRANCH  25  26
ENDBRANCH   1  25
TORSDOF 21
ENDMDL
