MODEL 1
REMARK VINA RESULT:     -10.3      0.000      0.000
REMARK SMILES O=C(OCCOCCOCCOCCOC(=O)[C@H]1CC[C@@H](CNC(=O)N2CCO[C@@H]3CCC[C@H]32)O1)c1ccc(-c2c3nc(c(-c4c(F)cccc4F)c4ccc([nH]4)c(-c4c(F)cccc4F)c4nc(c(-c5c(F)cccc5F)c5ccc2[nH]5)C=C4)C=C3)cc1
REMARK SMILES IDX 10 1 9 2 8 3 7 4 6 5 5 6 4 7 3 8 2 9 1 10 36 11 37 12 89 13
REMARK SMILES IDX 38 14 88 15 39 16 40 17 41 18 82 19 42 20 87 21 81 22 83 23
REMARK SMILES IDX 43 24 86 25 80 26 79 27 44 29 70 30 53 31 69 32 54 33 57 34
REMARK SMILES IDX 68 35 84 36 55 37 56 38 67 40 85 41 58 42 45 43 46 44 51 45
REMARK SMILES IDX 47 46 48 47 50 48 52 49 49 50 71 51 72 52 77 53 73 54 74 55
REMARK SMILES IDX 76 56 78 57 75 58 59 59 60 60 65 61 61 62 62 63 64 64 66 65
REMARK SMILES IDX 63 66 11 67 12 68 13 69 14 70 15 71 16 72 17 73 18 74 19 75
REMARK SMILES IDX 35 76 20 77 21 78 22 79 23 80 24 81 25 83 26 84 27 85 34 86
REMARK SMILES IDX 28 87 30 88 33 89 29 90 31 91 32 92
REMARK H PARENT 83 28 57 39 23 82
REMARK Flexibility Score: inf
ROOT
ATOM      1  C   UNL A   1      34.429  34.533  29.057  1.00  0.00     0.188 C 
ENDROOT
BRANCH   1   2
ATOM      2  O   UNL A   1      33.230  34.670  29.799  1.00  0.00    -0.377 OA
BRANCH   2   3
ATOM      3  C   UNL A   1      32.856  36.018  30.045  1.00  0.00     0.188 C 
BRANCH   3   4
ATOM      4  C   UNL A   1      33.130  36.364  31.485  1.00  0.00     0.188 C 
BRANCH   4   5
ATOM      5  O   UNL A   1      33.483  35.216  32.237  1.00  0.00    -0.376 OA
BRANCH   5   6
ATOM      6  C   UNL A   1      34.738  35.121  32.882  1.00  0.00     0.202 C 
BRANCH   6   7
ATOM      7  C   UNL A   1      34.978  33.944  33.836  1.00  0.00     0.261 C 
BRANCH   7   8
ATOM      8  O   UNL A   1      35.481  32.704  33.294  1.00  0.00    -0.460 OA
BRANCH   8   9
ATOM      9  C   UNL A   1      35.509  32.159  32.057  1.00  0.00     0.338 C 
ATOM     10  O   UNL A   1      34.463  32.139  31.409  1.00  0.00    -0.246 OA
BRANCH   9  11
ATOM     11  C   UNL A   1      36.697  31.499  31.447  1.00  0.00     0.060 A 
ATOM     12  C   UNL A   1      37.512  30.599  32.115  1.00  0.00     0.016 A 
ATOM     13  C   UNL A   1      36.958  31.707  30.083  1.00  0.00     0.016 A 
ATOM     14  C   UNL A   1      38.530  29.903  31.504  1.00  0.00     0.010 A 
ATOM     15  C   UNL A   1      38.012  31.039  29.445  1.00  0.00     0.010 A 
ATOM     16  C   UNL A   1      38.801  30.139  30.169  1.00  0.00    -0.014 A 
BRANCH  16  17
ATOM     17  C   UNL A   1      40.066  29.593  29.672  1.00  0.00     0.031 A 
ATOM     18  C   UNL A   1      41.257  30.493  29.732  1.00  0.00     0.074 A 
ATOM     19  C   UNL A   1      40.167  28.285  29.381  1.00  0.00     0.049 A 
ATOM     20  N   UNL A   1      42.445  30.325  29.229  1.00  0.00    -0.248 NA
ATOM     21  C   UNL A   1      41.089  31.755  30.480  1.00  0.00     0.031 C 
ATOM     22  C   UNL A   1      39.092  27.297  29.532  1.00  0.00     0.029 A 
ATOM     23  N   UNL A   1      41.226  27.557  28.918  1.00  0.00    -0.354 N 
ATOM     24  C   UNL A   1      43.139  31.487  29.532  1.00  0.00     0.074 A 
ATOM     25  C   UNL A   1      42.265  32.337  30.302  1.00  0.00     0.031 C 
ATOM     26  C   UNL A   1      39.548  26.094  29.147  1.00  0.00     0.029 A 
ATOM     27  C   UNL A   1      40.902  26.252  28.636  1.00  0.00     0.049 A 
ATOM     28  H   UNL A   1      42.130  27.929  28.800  1.00  0.00     0.167 HD
ATOM     29  C   UNL A   1      44.394  31.809  29.153  1.00  0.00     0.037 A 
ATOM     30  C   UNL A   1      41.609  25.331  27.956  1.00  0.00     0.037 A 
ATOM     31  C   UNL A   1      45.221  30.908  28.403  1.00  0.00     0.049 A 
ATOM     32  C   UNL A   1      42.955  25.756  27.433  1.00  0.00     0.074 A 
ATOM     33  C   UNL A   1      46.491  31.108  27.901  1.00  0.00     0.029 A 
ATOM     34  N   UNL A   1      44.840  29.618  28.052  1.00  0.00    -0.354 N 
ATOM     35  N   UNL A   1      43.595  26.889  27.622  1.00  0.00    -0.248 NA
ATOM     36  C   UNL A   1      43.663  24.804  26.571  1.00  0.00     0.031 C 
ATOM     37  C   UNL A   1      46.854  29.956  27.196  1.00  0.00     0.029 A 
ATOM     38  C   UNL A   1      45.832  29.021  27.304  1.00  0.00     0.049 A 
ATOM     39  H   UNL A   1      43.987  29.194  28.301  1.00  0.00     0.167 HD
ATOM     40  C   UNL A   1      44.779  26.785  26.909  1.00  0.00     0.074 A 
ATOM     41  C   UNL A   1      44.782  25.464  26.308  1.00  0.00     0.031 C 
ATOM     42  C   UNL A   1      45.773  27.693  26.746  1.00  0.00     0.037 A 
BRANCH  29  43
ATOM     43  C   UNL A   1      44.864  33.201  29.434  1.00  0.00     0.057 A 
ATOM     44  C   UNL A   1      44.621  34.274  28.569  1.00  0.00     0.134 A 
ATOM     45  C   UNL A   1      45.608  33.460  30.593  1.00  0.00     0.134 A 
ATOM     46  F   UNL A   1      43.952  34.086  27.422  1.00  0.00    -0.206 F 
ATOM     47  C   UNL A   1      45.107  35.555  28.844  1.00  0.00     0.040 A 
ATOM     48  C   UNL A   1      46.082  34.738  30.889  1.00  0.00     0.040 A 
ATOM     49  F   UNL A   1      45.896  32.470  31.452  1.00  0.00    -0.206 F 
ATOM     50  C   UNL A   1      45.835  35.790  30.011  1.00  0.00     0.006 A 
ENDBRANCH  29  43
BRANCH  30  51
ATOM     51  C   UNL A   1      41.019  24.008  27.617  1.00  0.00     0.057 A 
ATOM     52  C   UNL A   1      41.470  22.827  28.217  1.00  0.00     0.134 A 
ATOM     53  C   UNL A   1      40.020  23.884  26.640  1.00  0.00     0.134 A 
ATOM     54  F   UNL A   1      42.438  22.867  29.144  1.00  0.00    -0.206 F 
ATOM     55  C   UNL A   1      40.971  21.576  27.841  1.00  0.00     0.040 A 
ATOM     56  C   UNL A   1      39.489  22.645  26.278  1.00  0.00     0.040 A 
ATOM     57  F   UNL A   1      39.541  24.971  26.016  1.00  0.00    -0.206 F 
ATOM     58  C   UNL A   1      39.975  21.483  26.870  1.00  0.00     0.006 A 
ENDBRANCH  30  51
BRANCH  42  59
ATOM     59  C   UNL A   1      46.934  27.271  25.901  1.00  0.00     0.057 A 
ATOM     60  C   UNL A   1      46.996  27.583  24.540  1.00  0.00     0.134 A 
ATOM     61  C   UNL A   1      48.029  26.621  26.480  1.00  0.00     0.134 A 
ATOM     62  F   UNL A   1      45.968  28.193  23.932  1.00  0.00    -0.206 F 
ATOM     63  C   UNL A   1      48.113  27.253  23.775  1.00  0.00     0.040 A 
ATOM     64  C   UNL A   1      49.163  26.312  25.732  1.00  0.00     0.040 A 
ATOM     65  F   UNL A   1      48.026  26.309  27.786  1.00  0.00    -0.206 F 
ATOM     66  C   UNL A   1      49.205  26.626  24.375  1.00  0.00     0.006 A 
ENDBRANCH  42  59
ENDBRANCH  16  17
ENDBRANCH   9  11
ENDBRANCH   8   9
ENDBRANCH   7   8
ENDBRANCH   6   7
ENDBRANCH   5   6
ENDBRANCH   4   5
ENDBRANCH   3   4
ENDBRANCH   2   3
ENDBRANCH   1   2
BRANCH   1  67
ATOM     67  C   UNL A   1      34.501  33.444  27.984  1.00  0.00     0.188 C 
BRANCH  67  68
ATOM     68  O   UNL A   1      33.898  32.180  28.189  1.00  0.00    -0.376 OA
BRANCH  68  69
ATOM     69  C   UNL A   1      33.960  31.198  27.166  1.00  0.00     0.202 C 
BRANCH  69  70
ATOM     70  C   UNL A   1      33.614  29.740  27.524  1.00  0.00     0.261 C 
BRANCH  70  71
ATOM     71  O   UNL A   1      33.881  28.738  26.508  1.00  0.00    -0.461 OA
BRANCH  71  72
ATOM     72  C   UNL A   1      32.834  27.944  26.130  1.00  0.00     0.335 C 
ATOM     73  O   UNL A   1      32.128  27.325  26.919  1.00  0.00    -0.249 OA
BRANCH  72  74
ATOM     74  C   UNL A   1      32.579  27.908  24.595  1.00  0.00     0.228 C 
ATOM     75  C   UNL A   1      33.736  27.464  23.711  1.00  0.00     0.047 C 
ATOM     76  O   UNL A   1      31.464  27.129  24.165  1.00  0.00    -0.361 OA
ATOM     77  C   UNL A   1      33.444  25.993  23.484  1.00  0.00     0.037 C 
ATOM     78  C   UNL A   1      31.929  25.981  23.407  1.00  0.00     0.138 C 
BRANCH  78  79
ATOM     79  C   UNL A   1      31.171  24.767  23.958  1.00  0.00     0.149 C 
BRANCH  79  80
ATOM     80  N   UNL A   1      31.063  24.612  25.395  1.00  0.00    -0.335 N 
ATOM     81  C   UNL A   1      31.477  23.611  26.213  1.00  0.00     0.317 C 
ATOM     82  H   UNL A   1      30.614  25.358  25.856  1.00  0.00     0.165 HD
ATOM     83  O   UNL A   1      31.049  23.645  27.371  1.00  0.00    -0.249 OA
BRANCH  81  84
ATOM     84  N   UNL A   1      32.316  22.632  25.758  1.00  0.00    -0.317 N 
ATOM     85  C   UNL A   1      31.886  21.353  25.167  1.00  0.00     0.150 C 
ATOM     86  C   UNL A   1      33.774  22.733  25.843  1.00  0.00     0.116 C 
ATOM     87  C   UNL A   1      32.680  20.966  23.907  1.00  0.00     0.182 C 
ATOM     88  C   UNL A   1      34.423  22.387  24.499  1.00  0.00     0.141 C 
ATOM     89  C   UNL A   1      34.511  24.015  26.222  1.00  0.00     0.028 C 
ATOM     90  O   UNL A   1      34.100  21.055  24.107  1.00  0.00    -0.374 OA
ATOM     91  C   UNL A   1      35.899  22.570  24.803  1.00  0.00     0.034 C 
ATOM     92  C   UNL A   1      35.935  23.827  25.672  1.00  0.00     0.005 C 
ENDBRANCH  81  84
ENDBRANCH  79  80
ENDBRANCH  78  79
ENDBRANCH  72  74
ENDBRANCH  71  72
ENDBRANCH  70  71
ENDBRANCH  69  70
ENDBRANCH  68  69
ENDBRANCH  67  68
ENDBRANCH   1  67
TORSDOF 23
ENDMDL
MODEL 2
REMARK VINA RESULT:     -10.2      4.279      9.883
REMARK SMILES O=C(OCCOCCOCCOCCOC(=O)[C@H]1CC[C@@H](CNC(=O)N2CCO[C@@H]3CCC[C@H]32)O1)c1ccc(-c2c3nc(c(-c4c(F)cccc4F)c4ccc([nH]4)c(-c4c(F)cccc4F)c4nc(c(-c5c(F)cccc5F)c5ccc2[nH]5)C=C4)C=C3)cc1
REMARK SMILES IDX 10 1 9 2 8 3 7 4 6 5 5 6 4 7 3 8 2 9 1 10 36 11 37 12 89 13
REMARK SMILES IDX 38 14 88 15 39 16 40 17 41 18 82 19 42 20 87 21 81 22 83 23
REMARK SMILES IDX 43 24 86 25 80 26 79 27 44 29 70 30 53 31 69 32 54 33 57 34
REMARK SMILES IDX 68 35 84 36 55 37 56 38 67 40 85 41 58 42 45 43 46 44 51 45
REMARK SMILES IDX 47 46 48 47 50 48 52 49 49 50 71 51 72 52 77 53 73 54 74 55
REMARK SMILES IDX 76 56 78 57 75 58 59 59 60 60 65 61 61 62 62 63 64 64 66 65
REMARK SMILES IDX 63 66 11 67 12 68 13 69 14 70 15 71 16 72 17 73 18 74 19 75
REMARK SMILES IDX 35 76 20 77 21 78 22 79 23 80 24 81 25 83 26 84 27 85 34 86
REMARK SMILES IDX 28 87 30 88 33 89 29 90 31 91 32 92
REMARK H PARENT 83 28 57 39 23 82
REMARK Flexibility Score: inf
ROOT
ATOM      1  C   UNL A   1      35.461  22.460  25.671  1.00  0.00     0.188 C 
ENDROOT
BRANCH   1   2
ATOM      2  O   UNL A   1      36.635  21.916  25.093  1.00  0.00    -0.377 OA
BRANCH   2   3
ATOM      3  C   UNL A   1      37.838  22.362  25.704  1.00  0.00     0.188 C 
BRANCH   3   4
ATOM      4  C   UNL A   1      38.860  21.256  25.677  1.00  0.00     0.188 C 
BRANCH   4   5
ATOM      5  O   UNL A   1      39.842  21.433  26.682  1.00  0.00    -0.376 OA
BRANCH   5   6
ATOM      6  C   UNL A   1      40.983  20.598  26.746  1.00  0.00     0.202 C 
BRANCH   6   7
ATOM      7  C   UNL A   1      42.256  21.051  26.020  1.00  0.00     0.261 C 
BRANCH   7   8
ATOM      8  O   UNL A   1      42.240  22.308  25.310  1.00  0.00    -0.460 OA
BRANCH   8   9
ATOM      9  C   UNL A   1      42.869  23.493  25.479  1.00  0.00     0.338 C 
ATOM     10  O   UNL A   1      43.895  23.702  24.831  1.00  0.00    -0.246 OA
BRANCH   9  11
ATOM     11  C   UNL A   1      42.461  24.538  26.459  1.00  0.00     0.060 A 
ATOM     12  C   UNL A   1      42.997  25.815  26.499  1.00  0.00     0.016 A 
ATOM     13  C   UNL A   1      41.395  24.265  27.332  1.00  0.00     0.016 A 
ATOM     14  C   UNL A   1      42.524  26.808  27.326  1.00  0.00     0.010 A 
ATOM     15  C   UNL A   1      40.918  25.246  28.211  1.00  0.00     0.010 A 
ATOM     16  C   UNL A   1      41.497  26.520  28.205  1.00  0.00    -0.014 A 
BRANCH  16  17
ATOM     17  C   UNL A   1      41.250  27.522  29.244  1.00  0.00     0.031 A 
ATOM     18  C   UNL A   1      42.198  27.541  30.400  1.00  0.00     0.074 A 
ATOM     19  C   UNL A   1      40.345  28.494  29.042  1.00  0.00     0.049 A 
ATOM     20  N   UNL A   1      42.128  28.209  31.514  1.00  0.00    -0.248 NA
ATOM     21  C   UNL A   1      43.404  26.698  30.273  1.00  0.00     0.031 C 
ATOM     22  C   UNL A   1      39.551  28.672  27.820  1.00  0.00     0.029 A 
ATOM     23  N   UNL A   1      39.955  29.528  29.846  1.00  0.00    -0.354 N 
ATOM     24  C   UNL A   1      43.235  27.811  32.249  1.00  0.00     0.074 A 
ATOM     25  C   UNL A   1      43.989  26.881  31.446  1.00  0.00     0.031 C 
ATOM     26  C   UNL A   1      38.752  29.741  27.970  1.00  0.00     0.029 A 
ATOM     27  C   UNL A   1      38.913  30.254  29.324  1.00  0.00     0.049 A 
ATOM     28  H   UNL A   1      40.379  29.731  30.711  1.00  0.00     0.167 HD
ATOM     29  C   UNL A   1      43.552  28.180  33.509  1.00  0.00     0.037 A 
ATOM     30  C   UNL A   1      38.130  31.168  29.926  1.00  0.00     0.037 A 
ATOM     31  C   UNL A   1      42.768  29.127  34.248  1.00  0.00     0.049 A 
ATOM     32  C   UNL A   1      38.425  31.469  31.372  1.00  0.00     0.074 A 
ATOM     33  C   UNL A   1      42.930  29.562  35.548  1.00  0.00     0.029 A 
ATOM     34  N   UNL A   1      41.662  29.790  33.728  1.00  0.00    -0.354 N 
ATOM     35  N   UNL A   1      39.410  31.029  32.124  1.00  0.00    -0.248 NA
ATOM     36  C   UNL A   1      37.487  32.355  32.070  1.00  0.00     0.031 C 
ATOM     37  C   UNL A   1      41.884  30.446  35.831  1.00  0.00     0.029 A 
ATOM     38  C   UNL A   1      41.103  30.601  34.693  1.00  0.00     0.049 A 
ATOM     39  H   UNL A   1      41.328  29.693  32.808  1.00  0.00     0.167 HD
ATOM     40  C   UNL A   1      39.214  31.585  33.378  1.00  0.00     0.074 A 
ATOM     41  C   UNL A   1      38.032  32.420  33.277  1.00  0.00     0.031 C 
ATOM     42  C   UNL A   1      39.928  31.418  34.519  1.00  0.00     0.037 A 
BRANCH  29  43
ATOM     43  C   UNL A   1      44.691  27.470  34.170  1.00  0.00     0.057 A 
ATOM     44  C   UNL A   1      46.001  27.962  34.160  1.00  0.00     0.134 A 
ATOM     45  C   UNL A   1      44.466  26.242  34.807  1.00  0.00     0.134 A 
ATOM     46  F   UNL A   1      46.292  29.111  33.532  1.00  0.00    -0.206 F 
ATOM     47  C   UNL A   1      47.048  27.254  34.755  1.00  0.00     0.040 A 
ATOM     48  C   UNL A   1      45.499  25.536  35.421  1.00  0.00     0.040 A 
ATOM     49  F   UNL A   1      43.237  25.704  34.831  1.00  0.00    -0.206 F 
ATOM     50  C   UNL A   1      46.797  26.039  35.393  1.00  0.00     0.006 A 
ENDBRANCH  29  43
BRANCH  30  51
ATOM     51  C   UNL A   1      36.944  31.739  29.234  1.00  0.00     0.057 A 
ATOM     52  C   UNL A   1      35.774  30.996  29.047  1.00  0.00     0.134 A 
ATOM     53  C   UNL A   1      36.969  33.033  28.691  1.00  0.00     0.134 A 
ATOM     54  F   UNL A   1      35.686  29.744  29.519  1.00  0.00    -0.206 F 
ATOM     55  C   UNL A   1      34.689  31.504  28.326  1.00  0.00     0.040 A 
ATOM     56  C   UNL A   1      35.882  33.566  27.999  1.00  0.00     0.040 A 
ATOM     57  F   UNL A   1      38.059  33.805  28.825  1.00  0.00    -0.206 F 
ATOM     58  C   UNL A   1      34.740  32.795  27.802  1.00  0.00     0.006 A 
ENDBRANCH  30  51
BRANCH  42  59
ATOM     59  C   UNL A   1      39.450  32.165  35.723  1.00  0.00     0.057 A 
ATOM     60  C   UNL A   1      39.907  33.454  36.011  1.00  0.00     0.134 A 
ATOM     61  C   UNL A   1      38.463  31.616  36.549  1.00  0.00     0.134 A 
ATOM     62  F   UNL A   1      40.863  34.023  35.260  1.00  0.00    -0.206 F 
ATOM     63  C   UNL A   1      39.403  34.174  37.092  1.00  0.00     0.040 A 
ATOM     64  C   UNL A   1      37.930  32.337  37.615  1.00  0.00     0.040 A 
ATOM     65  F   UNL A   1      37.979  30.387  36.310  1.00  0.00    -0.206 F 
ATOM     66  C   UNL A   1      38.402  33.619  37.889  1.00  0.00     0.006 A 
ENDBRANCH  42  59
ENDBRANCH  16  17
ENDBRANCH   9  11
ENDBRANCH   8   9
ENDBRANCH   7   8
ENDBRANCH   6   7
ENDBRANCH   5   6
ENDBRANCH   4   5
ENDBRANCH   3   4
ENDBRANCH   2   3
ENDBRANCH   1   2
BRANCH   1  67
ATOM     67  C   UNL A   1      34.808  21.712  26.835  1.00  0.00     0.188 C 
BRANCH  67  68
ATOM     68  O   UNL A   1      33.568  21.049  26.669  1.00  0.00    -0.376 OA
BRANCH  68  69
ATOM     69  C   UNL A   1      33.421  20.083  25.640  1.00  0.00     0.202 C 
BRANCH  69  70
ATOM     70  C   UNL A   1      32.248  20.231  24.652  1.00  0.00     0.261 C 
BRANCH  70  71
ATOM     71  O   UNL A   1      32.559  20.794  23.350  1.00  0.00    -0.461 OA
BRANCH  71  72
ATOM     72  C   UNL A   1      32.715  22.150  23.282  1.00  0.00     0.335 C 
ATOM     73  O   UNL A   1      33.646  22.703  22.706  1.00  0.00    -0.249 OA
BRANCH  72  74
ATOM     74  C   UNL A   1      31.582  22.961  23.978  1.00  0.00     0.228 C 
ATOM     75  C   UNL A   1      31.975  23.806  25.181  1.00  0.00     0.047 C 
ATOM     76  O   UNL A   1      30.834  23.838  23.138  1.00  0.00    -0.361 OA
ATOM     77  C   UNL A   1      32.170  25.184  24.579  1.00  0.00     0.037 C 
ATOM     78  C   UNL A   1      31.092  25.217  23.512  1.00  0.00     0.138 C 
BRANCH  78  79
ATOM     79  C   UNL A   1      31.368  25.972  22.206  1.00  0.00     0.149 C 
BRANCH  79  80
ATOM     80  N   UNL A   1      32.692  26.518  21.988  1.00  0.00    -0.335 N 
ATOM     81  C   UNL A   1      33.184  27.765  22.203  1.00  0.00     0.317 C 
ATOM     82  H   UNL A   1      33.345  25.878  21.623  1.00  0.00     0.165 HD
ATOM     83  O   UNL A   1      34.293  28.002  21.713  1.00  0.00    -0.249 OA
BRANCH  81  84
ATOM     84  N   UNL A   1      32.474  28.688  22.919  1.00  0.00    -0.317 N 
ATOM     85  C   UNL A   1      31.329  29.460  22.408  1.00  0.00     0.150 C 
ATOM     86  C   UNL A   1      32.805  29.046  24.299  1.00  0.00     0.116 C 
ATOM     87  C   UNL A   1      30.156  29.542  23.400  1.00  0.00     0.182 C 
ATOM     88  C   UNL A   1      31.554  29.017  25.184  1.00  0.00     0.141 C 
ATOM     89  C   UNL A   1      33.807  28.276  25.155  1.00  0.00     0.028 C 
ATOM     90  O   UNL A   1      30.578  29.944  24.714  1.00  0.00    -0.374 OA
ATOM     91  C   UNL A   1      32.117  29.393  26.543  1.00  0.00     0.034 C 
ATOM     92  C   UNL A   1      33.442  28.635  26.606  1.00  0.00     0.005 C 
ENDBRANCH  81  84
ENDBRANCH  79  80
ENDBRANCH  78  79
ENDBRANCH  72  74
ENDBRANCH  71  72
ENDBRANCH  70  71
ENDBRANCH  69  70
ENDBRANCH  68  69
ENDBRANCH  67  68
ENDBRANCH   1  67
TORSDOF 23
ENDMDL
MODEL 3
REMARK VINA RESULT:     -10.0      4.370     10.313
REMARK SMILES O=C(OCCOCCOCCOCCOC(=O)[C@H]1CC[C@@H](CNC(=O)N2CCO[C@@H]3CCC[C@H]32)O1)c1ccc(-c2c3nc(c(-c4c(F)cccc4F)c4ccc([nH]4)c(-c4c(F)cccc4F)c4nc(c(-c5c(F)cccc5F)c5ccc2[nH]5)C=C4)C=C3)cc1
REMARK SMILES IDX 10 1 9 2 8 3 7 4 6 5 5 6 4 7 3 8 2 9 1 10 36 11 37 12 89 13
REMARK SMILES IDX 38 14 88 15 39 16 40 17 41 18 82 19 42 20 87 21 81 22 83 23
REMARK SMILES IDX 43 24 86 25 80 26 79 27 44 29 70 30 53 31 69 32 54 33 57 34
REMARK SMILES IDX 68 35 84 36 55 37 56 38 67 40 85 41 58 42 45 43 46 44 51 45
REMARK SMILES IDX 47 46 48 47 50 48 52 49 49 50 71 51 72 52 77 53 73 54 74 55
REMARK SMILES IDX 76 56 78 57 75 58 59 59 60 60 65 61 61 62 62 63 64 64 66 65
REMARK SMILES IDX 63 66 11 67 12 68 13 69 14 70 15 71 16 72 17 73 18 74 19 75
REMARK SMILES IDX 35 76 20 77 21 78 22 79 23 80 24 81 25 83 26 84 27 85 34 86
REMARK SMILES IDX 28 87 30 88 33 89 29 90 31 91 32 92
REMARK H PARENT 83 28 57 39 23 82
REMARK Flexibility Score: inf
ROOT
ATOM      1  C   UNL A   1      41.357  20.420  26.972  1.00  0.00     0.188 C 
ENDROOT
BRANCH   1   2
ATOM      2  O   UNL A   1      41.667  19.464  25.973  1.00  0.00    -0.377 OA
BRANCH   2   3
ATOM      3  C   UNL A   1      42.706  18.566  26.337  1.00  0.00     0.188 C 
BRANCH   3   4
ATOM      4  C   UNL A   1      43.696  18.452  25.207  1.00  0.00     0.188 C 
BRANCH   4   5
ATOM      5  O   UNL A   1      44.769  19.363  25.364  1.00  0.00    -0.376 OA
BRANCH   5   6
ATOM      6  C   UNL A   1      44.755  20.627  24.729  1.00  0.00     0.202 C 
BRANCH   6   7
ATOM      7  C   UNL A   1      44.862  21.882  25.605  1.00  0.00     0.261 C 
BRANCH   7   8
ATOM      8  O   UNL A   1      43.652  22.584  25.960  1.00  0.00    -0.460 OA
BRANCH   8   9
ATOM      9  C   UNL A   1      43.184  23.831  25.726  1.00  0.00     0.338 C 
ATOM     10  O   UNL A   1      43.080  24.202  24.557  1.00  0.00    -0.246 OA
BRANCH   9  11
ATOM     11  C   UNL A   1      42.862  24.829  26.785  1.00  0.00     0.060 A 
ATOM     12  C   UNL A   1      41.985  24.594  27.832  1.00  0.00     0.016 A 
ATOM     13  C   UNL A   1      43.563  26.046  26.799  1.00  0.00     0.016 A 
ATOM     14  C   UNL A   1      41.793  25.476  28.870  1.00  0.00     0.010 A 
ATOM     15  C   UNL A   1      43.359  26.979  27.825  1.00  0.00     0.010 A 
ATOM     16  C   UNL A   1      42.462  26.686  28.858  1.00  0.00    -0.014 A 
BRANCH  16  17
ATOM     17  C   UNL A   1      41.991  27.682  29.824  1.00  0.00     0.031 A 
ATOM     18  C   UNL A   1      42.809  27.860  31.061  1.00  0.00     0.074 A 
ATOM     19  C   UNL A   1      40.996  28.522  29.493  1.00  0.00     0.049 A 
ATOM     20  N   UNL A   1      42.547  28.549  32.132  1.00  0.00    -0.248 NA
ATOM     21  C   UNL A   1      44.118  27.176  31.086  1.00  0.00     0.031 C 
ATOM     22  C   UNL A   1      40.310  28.556  28.196  1.00  0.00     0.029 A 
ATOM     23  N   UNL A   1      40.402  29.522  30.209  1.00  0.00    -0.354 N 
ATOM     24  C   UNL A   1      43.617  28.322  32.986  1.00  0.00     0.074 A 
ATOM     25  C   UNL A   1      44.557  27.471  32.300  1.00  0.00     0.031 C 
ATOM     26  C   UNL A   1      39.373  29.518  28.222  1.00  0.00     0.029 A 
ATOM     27  C   UNL A   1      39.334  30.091  29.560  1.00  0.00     0.049 A 
ATOM     28  H   UNL A   1      40.710  29.807  31.101  1.00  0.00     0.167 HD
ATOM     29  C   UNL A   1      43.759  28.770  34.252  1.00  0.00     0.037 A 
ATOM     30  C   UNL A   1      38.388  30.916  30.044  1.00  0.00     0.037 A 
ATOM     31  C   UNL A   1      42.794  29.632  34.870  1.00  0.00     0.049 A 
ATOM     32  C   UNL A   1      38.498  31.300  31.496  1.00  0.00     0.074 A 
ATOM     33  C   UNL A   1      42.770  30.126  36.158  1.00  0.00     0.029 A 
ATOM     34  N   UNL A   1      41.671  30.130  34.219  1.00  0.00    -0.354 N 
ATOM     35  N   UNL A   1      39.451  31.015  32.356  1.00  0.00    -0.248 NA
ATOM     36  C   UNL A   1      37.393  32.080  32.062  1.00  0.00     0.031 C 
ATOM     37  C   UNL A   1      41.599  30.878  36.302  1.00  0.00     0.029 A 
ATOM     38  C   UNL A   1      40.922  30.893  35.089  1.00  0.00     0.049 A 
ATOM     39  H   UNL A   1      41.443  29.960  33.277  1.00  0.00     0.167 HD
ATOM     40  C   UNL A   1      39.065  31.582  33.559  1.00  0.00     0.074 A 
ATOM     41  C   UNL A   1      37.803  32.254  33.310  1.00  0.00     0.031 C 
ATOM     42  C   UNL A   1      39.677  31.547  34.769  1.00  0.00     0.037 A 
BRANCH  29  43
ATOM     43  C   UNL A   1      44.907  28.234  35.048  1.00  0.00     0.057 A 
ATOM     44  C   UNL A   1      46.180  28.813  35.028  1.00  0.00     0.134 A 
ATOM     45  C   UNL A   1      44.730  27.087  35.832  1.00  0.00     0.134 A 
ATOM     46  F   UNL A   1      46.428  29.888  34.265  1.00  0.00    -0.206 F 
ATOM     47  C   UNL A   1      47.240  28.265  35.754  1.00  0.00     0.040 A 
ATOM     48  C   UNL A   1      45.775  26.541  36.578  1.00  0.00     0.040 A 
ATOM     49  F   UNL A   1      43.539  26.470  35.876  1.00  0.00    -0.206 F 
ATOM     50  C   UNL A   1      47.036  27.128  36.538  1.00  0.00     0.006 A 
ENDBRANCH  29  43
BRANCH  30  51
ATOM     51  C   UNL A   1      37.214  31.307  29.218  1.00  0.00     0.057 A 
ATOM     52  C   UNL A   1      37.071  32.602  28.710  1.00  0.00     0.134 A 
ATOM     53  C   UNL A   1      36.172  30.403  28.958  1.00  0.00     0.134 A 
ATOM     54  F   UNL A   1      38.017  33.525  28.937  1.00  0.00    -0.206 F 
ATOM     55  C   UNL A   1      35.930  32.991  28.001  1.00  0.00     0.040 A 
ATOM     56  C   UNL A   1      35.043  30.767  28.224  1.00  0.00     0.040 A 
ATOM     57  F   UNL A   1      36.235  29.144  29.417  1.00  0.00    -0.206 F 
ATOM     58  C   UNL A   1      34.912  32.071  27.754  1.00  0.00     0.006 A 
ENDBRANCH  30  51
BRANCH  42  59
ATOM     59  C   UNL A   1      38.992  32.265  35.888  1.00  0.00     0.057 A 
ATOM     60  C   UNL A   1      38.120  31.600  36.755  1.00  0.00     0.134 A 
ATOM     61  C   UNL A   1      39.277  33.611  36.143  1.00  0.00     0.134 A 
ATOM     62  F   UNL A   1      37.802  30.313  36.549  1.00  0.00    -0.206 F 
ATOM     63  C   UNL A   1      37.543  32.256  37.840  1.00  0.00     0.040 A 
ATOM     64  C   UNL A   1      38.729  34.269  37.241  1.00  0.00     0.040 A 
ATOM     65  F   UNL A   1      40.117  34.293  35.349  1.00  0.00    -0.206 F 
ATOM     66  C   UNL A   1      37.858  33.592  38.092  1.00  0.00     0.006 A 
ENDBRANCH  42  59
ENDBRANCH  16  17
ENDBRANCH   9  11
ENDBRANCH   8   9
ENDBRANCH   7   8
ENDBRANCH   6   7
ENDBRANCH   5   6
ENDBRANCH   4   5
ENDBRANCH   3   4
ENDBRANCH   2   3
ENDBRANCH   1   2
BRANCH   1  67
ATOM     67  C   UNL A   1      40.284  21.467  26.670  1.00  0.00     0.188 C 
BRANCH  67  68
ATOM     68  O   UNL A   1      39.347  21.269  25.627  1.00  0.00    -0.376 OA
BRANCH  68  69
ATOM     69  C   UNL A   1      38.093  21.930  25.675  1.00  0.00     0.202 C 
BRANCH  69  70
ATOM     70  C   UNL A   1      36.889  21.278  24.968  1.00  0.00     0.261 C 
BRANCH  70  71
ATOM     71  O   UNL A   1      35.604  21.382  25.636  1.00  0.00    -0.461 OA
BRANCH  71  72
ATOM     72  C   UNL A   1      34.658  22.169  25.041  1.00  0.00     0.335 C 
ATOM     73  O   UNL A   1      34.884  22.902  24.083  1.00  0.00    -0.249 OA
BRANCH  72  74
ATOM     74  C   UNL A   1      33.236  22.042  25.661  1.00  0.00     0.228 C 
ATOM     75  C   UNL A   1      32.889  22.993  26.797  1.00  0.00     0.047 C 
ATOM     76  O   UNL A   1      32.145  22.142  24.748  1.00  0.00    -0.361 OA
ATOM     77  C   UNL A   1      32.146  24.110  26.090  1.00  0.00     0.037 C 
ATOM     78  C   UNL A   1      31.389  23.353  25.015  1.00  0.00     0.138 C 
BRANCH  78  79
ATOM     79  C   UNL A   1      31.165  24.027  23.656  1.00  0.00     0.149 C 
BRANCH  79  80
ATOM     80  N   UNL A   1      32.322  24.402  22.869  1.00  0.00    -0.335 N 
ATOM     81  C   UNL A   1      32.745  25.618  22.437  1.00  0.00     0.317 C 
ATOM     82  H   UNL A   1      32.899  23.651  22.603  1.00  0.00     0.165 HD
ATOM     83  O   UNL A   1      33.647  25.610  21.593  1.00  0.00    -0.249 OA
BRANCH  81  84
ATOM     84  N   UNL A   1      32.187  26.769  22.920  1.00  0.00    -0.317 N 
ATOM     85  C   UNL A   1      30.990  27.428  22.369  1.00  0.00     0.150 C 
ATOM     86  C   UNL A   1      32.754  27.515  24.045  1.00  0.00     0.116 C 
ATOM     87  C   UNL A   1      30.003  27.903  23.449  1.00  0.00     0.182 C 
ATOM     88  C   UNL A   1      31.669  27.858  25.072  1.00  0.00     0.141 C 
ATOM     89  C   UNL A   1      33.868  26.976  24.939  1.00  0.00     0.028 C 
ATOM     90  O   UNL A   1      30.649  28.662  24.484  1.00  0.00    -0.374 OA
ATOM     91  C   UNL A   1      32.461  28.595  26.137  1.00  0.00     0.034 C 
ATOM     92  C   UNL A   1      33.761  27.796  26.236  1.00  0.00     0.005 C 
ENDBRANCH  81  84
ENDBRANCH  79  80
ENDBRANCH  78  79
ENDBRANCH  72  74
ENDBRANCH  71  72
ENDBRANCH  70  71
ENDBRANCH  69  70
ENDBRANCH  68  69
ENDBRANCH  67  68
ENDBRANCH   1  67
TORSDOF 23
ENDMDL
