MODEL 1
REMARK VINA RESULT:      -7.6      0.000      0.000
REMARK SMILES CC(C)n1c2c(c3ccccc31)[C@@H](c1ccccc1)N(CC(=O)OCCOCCOCCOCCOC(=O)c1ccc(-c3c4nc(c(-c5c(F)cccc5F)c5ccc([nH]5)c(-c5c(F)cccc5F)c5nc(c(-c6c(F)cccc6F)c6ccc3[nH]6)C=C5)C=C4)cc1)C2=O
REMARK SMILES IDX 30 1 29 2 28 3 27 4 26 5 25 6 24 7 22 8 23 9 21 10 20 11
REMARK SMILES IDX 4 12 5 13 12 14 6 15 93 16 7 17 11 18 13 19 94 20 8 21 10 22
REMARK SMILES IDX 9 23 2 24 1 25 3 26 14 27 15 28 19 29 16 30 18 31 17 32
REMARK SMILES IDX 31 33 32 34 33 35 34 36 35 37 36 38 37 39 38 40 39 41 40 42
REMARK SMILES IDX 92 43 41 44 91 45 42 46 43 47 44 48 85 49 45 50 90 51 84 52
REMARK SMILES IDX 86 53 46 54 89 55 83 56 82 57 47 59 73 60 56 61 72 62 57 63
REMARK SMILES IDX 60 64 71 65 87 66 58 67 59 68 70 70 88 71 61 72 48 73 49 74
REMARK SMILES IDX 54 75 50 76 51 77 53 78 55 79 52 80 74 81 75 82 80 83 76 84
REMARK SMILES IDX 77 85 79 86 81 87 78 88 62 89 63 90 68 91 64 92 65 93 67 94
REMARK SMILES IDX 69 95 66 96
REMARK H PARENT 86 58 60 69
REMARK Flexibility Score: inf
ROOT
ATOM      1  O   UNL A   1      34.433  35.477  31.915  1.00  0.00    -0.377 OA
ENDROOT
BRANCH   1   2
ATOM      2  C   UNL A   1      34.326  34.877  33.176  1.00  0.00     0.188 C 
BRANCH   2   3
ATOM      3  C   UNL A   1      35.640  34.375  33.755  1.00  0.00     0.188 C 
BRANCH   3   4
ATOM      4  O   UNL A   1      35.775  34.257  35.156  1.00  0.00    -0.376 OA
BRANCH   4   5
ATOM      5  C   UNL A   1      36.766  33.402  35.722  1.00  0.00     0.202 C 
BRANCH   5   6
ATOM      6  C   UNL A   1      38.060  33.921  36.392  1.00  0.00     0.261 C 
BRANCH   6   7
ATOM      7  O   UNL A   1      38.641  35.134  35.843  1.00  0.00    -0.462 OA
BRANCH   7   8
ATOM      8  C   UNL A   1      39.975  35.297  35.992  1.00  0.00     0.325 C 
ATOM      9  O   UNL A   1      40.562  35.081  37.054  1.00  0.00    -0.250 OA
BRANCH   8  10
ATOM     10  C   UNL A   1      40.782  35.743  34.746  1.00  0.00     0.243 C 
BRANCH  10  11
ATOM     11  N   UNL A   1      41.635  34.937  33.866  1.00  0.00    -0.315 N 
ATOM     12  N   UNL A   1      44.728  33.694  32.481  1.00  0.00    -0.334 N 
ATOM     13  C   UNL A   1      43.533  34.125  32.981  1.00  0.00     0.114 A 
ATOM     14  C   UNL A   1      44.466  33.259  31.174  1.00  0.00     0.049 A 
ATOM     15  C   UNL A   1      42.515  33.593  32.239  1.00  0.00     0.018 A 
ATOM     16  C   UNL A   1      43.031  34.990  34.007  1.00  0.00     0.272 C 
ATOM     17  C   UNL A   1      43.082  33.012  31.087  1.00  0.00     0.006 A 
ATOM     18  C   UNL A   1      45.292  33.070  30.050  1.00  0.00     0.027 A 
ATOM     19  C   UNL A   1      41.182  34.033  32.756  1.00  0.00     0.150 C 
ATOM     20  O   UNL A   1      43.648  35.670  34.797  1.00  0.00    -0.267 OA
ATOM     21  C   UNL A   1      42.568  32.391  29.934  1.00  0.00     0.011 A 
ATOM     22  C   UNL A   1      44.732  32.552  28.877  1.00  0.00     0.002 A 
ATOM     23  C   UNL A   1      43.396  32.182  28.828  1.00  0.00     0.001 A 
BRANCH  12  24
ATOM     24  C   UNL A   1      46.025  33.689  33.174  1.00  0.00     0.082 C 
ATOM     25  C   UNL A   1      45.960  33.064  34.580  1.00  0.00     0.031 C 
ATOM     26  C   UNL A   1      47.132  32.913  32.433  1.00  0.00     0.031 C 
ENDBRANCH  12  24
BRANCH  19  27
ATOM     27  C   UNL A   1      40.296  32.835  33.103  1.00  0.00    -0.021 A 
ATOM     28  C   UNL A   1      40.581  32.082  34.263  1.00  0.00     0.006 A 
ATOM     29  C   UNL A   1      39.099  32.502  32.440  1.00  0.00     0.006 A 
ATOM     30  C   UNL A   1      39.734  31.074  34.739  1.00  0.00     0.000 A 
ATOM     31  C   UNL A   1      38.235  31.506  32.923  1.00  0.00     0.000 A 
ATOM     32  C   UNL A   1      38.551  30.792  34.072  1.00  0.00     0.000 A 
ENDBRANCH  19  27
ENDBRANCH  10  11
ENDBRANCH   8  10
ENDBRANCH   7   8
ENDBRANCH   6   7
ENDBRANCH   5   6
ENDBRANCH   4   5
ENDBRANCH   3   4
ENDBRANCH   2   3
ENDBRANCH   1   2
BRANCH   1  33
ATOM     33  C   UNL A   1      33.327  35.530  31.040  1.00  0.00     0.188 C 
BRANCH  33  34
ATOM     34  C   UNL A   1      33.564  35.349  29.537  1.00  0.00     0.188 C 
BRANCH  34  35
ATOM     35  O   UNL A   1      32.921  34.197  29.021  1.00  0.00    -0.376 OA
BRANCH  35  36
ATOM     36  C   UNL A   1      33.487  33.506  27.917  1.00  0.00     0.202 C 
BRANCH  36  37
ATOM     37  C   UNL A   1      33.861  32.016  27.994  1.00  0.00     0.261 C 
BRANCH  37  38
ATOM     38  O   UNL A   1      35.259  31.739  28.123  1.00  0.00    -0.460 OA
BRANCH  38  39
ATOM     39  C   UNL A   1      35.893  31.717  29.308  1.00  0.00     0.338 C 
ATOM     40  O   UNL A   1      35.466  32.081  30.385  1.00  0.00    -0.246 OA
BRANCH  39  41
ATOM     41  C   UNL A   1      37.035  30.794  29.072  1.00  0.00     0.060 A 
ATOM     42  C   UNL A   1      36.893  29.401  29.120  1.00  0.00     0.016 A 
ATOM     43  C   UNL A   1      38.304  31.380  29.157  1.00  0.00     0.016 A 
ATOM     44  C   UNL A   1      38.023  28.610  29.357  1.00  0.00     0.010 A 
ATOM     45  C   UNL A   1      39.416  30.593  29.447  1.00  0.00     0.010 A 
ATOM     46  C   UNL A   1      39.276  29.211  29.590  1.00  0.00    -0.014 A 
BRANCH  46  47
ATOM     47  C   UNL A   1      40.468  28.356  29.723  1.00  0.00     0.031 A 
ATOM     48  C   UNL A   1      40.972  28.334  31.125  1.00  0.00     0.074 A 
ATOM     49  C   UNL A   1      40.980  27.513  28.794  1.00  0.00     0.049 A 
ATOM     50  N   UNL A   1      42.134  28.687  31.567  1.00  0.00    -0.248 NA
ATOM     51  C   UNL A   1      40.000  28.003  32.181  1.00  0.00     0.031 C 
ATOM     52  C   UNL A   1      40.431  27.206  27.472  1.00  0.00     0.029 A 
ATOM     53  N   UNL A   1      42.071  26.679  28.862  1.00  0.00    -0.354 N 
ATOM     54  C   UNL A   1      42.100  28.439  32.937  1.00  0.00     0.074 A 
ATOM     55  C   UNL A   1      40.726  28.195  33.280  1.00  0.00     0.031 C 
ATOM     56  C   UNL A   1      41.082  26.147  26.940  1.00  0.00     0.029 A 
ATOM     57  C   UNL A   1      42.143  25.730  27.840  1.00  0.00     0.049 A 
ATOM     58  H   UNL A   1      42.748  26.745  29.574  1.00  0.00     0.167 HD
ATOM     59  C   UNL A   1      43.237  28.184  33.635  1.00  0.00     0.037 A 
ATOM     60  C   UNL A   1      42.969  24.651  27.734  1.00  0.00     0.037 A 
ATOM     61  C   UNL A   1      44.399  28.691  32.955  1.00  0.00     0.049 A 
ATOM     62  C   UNL A   1      44.111  24.861  28.650  1.00  0.00     0.074 A 
ATOM     63  C   UNL A   1      44.830  29.938  32.545  1.00  0.00     0.029 A 
ATOM     64  N   UNL A   1      45.196  27.791  32.296  1.00  0.00    -0.354 N 
ATOM     65  N   UNL A   1      45.037  25.756  28.460  1.00  0.00    -0.248 NA
ATOM     66  C   UNL A   1      43.982  24.369  30.010  1.00  0.00     0.031 C 
ATOM     67  C   UNL A   1      45.534  29.709  31.326  1.00  0.00     0.029 A 
ATOM     68  C   UNL A   1      45.531  28.335  31.086  1.00  0.00     0.049 A 
ATOM     69  H   UNL A   1      45.478  26.911  32.633  1.00  0.00     0.167 HD
ATOM     70  C   UNL A   1      45.279  26.272  29.723  1.00  0.00     0.074 A 
ATOM     71  C   UNL A   1      44.668  25.321  30.648  1.00  0.00     0.031 C 
ATOM     72  C   UNL A   1      45.704  27.560  29.881  1.00  0.00     0.037 A 
BRANCH  59  73
ATOM     73  C   UNL A   1      43.324  27.109  34.695  1.00  0.00     0.057 A 
ATOM     74  C   UNL A   1      43.141  27.335  36.078  1.00  0.00     0.134 A 
ATOM     75  C   UNL A   1      43.262  25.762  34.301  1.00  0.00     0.134 A 
ATOM     76  F   UNL A   1      43.107  28.560  36.615  1.00  0.00    -0.206 F 
ATOM     77  C   UNL A   1      42.875  26.309  36.987  1.00  0.00     0.040 A 
ATOM     78  C   UNL A   1      42.944  24.732  35.195  1.00  0.00     0.040 A 
ATOM     79  F   UNL A   1      43.417  25.414  33.014  1.00  0.00    -0.206 F 
ATOM     80  C   UNL A   1      42.737  25.007  36.541  1.00  0.00     0.006 A 
ENDBRANCH  59  73
BRANCH  60  81
ATOM     81  C   UNL A   1      42.730  23.337  27.077  1.00  0.00     0.057 A 
ATOM     82  C   UNL A   1      42.014  22.318  27.731  1.00  0.00     0.134 A 
ATOM     83  C   UNL A   1      43.404  22.945  25.907  1.00  0.00     0.134 A 
ATOM     84  F   UNL A   1      41.412  22.546  28.906  1.00  0.00    -0.206 F 
ATOM     85  C   UNL A   1      41.961  21.003  27.255  1.00  0.00     0.040 A 
ATOM     86  C   UNL A   1      43.365  21.626  25.422  1.00  0.00     0.040 A 
ATOM     87  F   UNL A   1      44.166  23.817  25.232  1.00  0.00    -0.206 F 
ATOM     88  C   UNL A   1      42.646  20.647  26.101  1.00  0.00     0.006 A 
ENDBRANCH  60  81
BRANCH  72  89
ATOM     89  C   UNL A   1      46.163  28.296  28.653  1.00  0.00     0.057 A 
ATOM     90  C   UNL A   1      47.537  28.413  28.418  1.00  0.00     0.134 A 
ATOM     91  C   UNL A   1      45.308  28.992  27.783  1.00  0.00     0.134 A 
ATOM     92  F   UNL A   1      48.416  27.815  29.237  1.00  0.00    -0.206 F 
ATOM     93  C   UNL A   1      48.043  29.182  27.367  1.00  0.00     0.040 A 
ATOM     94  C   UNL A   1      45.801  29.737  26.707  1.00  0.00     0.040 A 
ATOM     95  F   UNL A   1      43.983  29.014  27.979  1.00  0.00    -0.206 F 
ATOM     96  C   UNL A   1      47.175  29.841  26.502  1.00  0.00     0.006 A 
ENDBRANCH  72  89
ENDBRANCH  46  47
ENDBRANCH  39  41
ENDBRANCH  38  39
ENDBRANCH  37  38
ENDBRANCH  36  37
ENDBRANCH  35  36
ENDBRANCH  34  35
ENDBRANCH  33  34
ENDBRANCH   1  33
TORSDOF 23
ENDMDL
MODEL 2
REMARK VINA RESULT:      -7.1      9.958     12.807
REMARK SMILES CC(C)n1c2c(c3ccccc31)[C@@H](c1ccccc1)N(CC(=O)OCCOCCOCCOCCOC(=O)c1ccc(-c3c4nc(c(-c5c(F)cccc5F)c5ccc([nH]5)c(-c5c(F)cccc5F)c5nc(c(-c6c(F)cccc6F)c6ccc3[nH]6)C=C5)C=C4)cc1)C2=O
REMARK SMILES IDX 30 1 29 2 28 3 27 4 26 5 25 6 24 7 22 8 23 9 21 10 20 11
REMARK SMILES IDX 4 12 5 13 12 14 6 15 93 16 7 17 11 18 13 19 94 20 8 21 10 22
REMARK SMILES IDX 9 23 2 24 1 25 3 26 14 27 15 28 19 29 16 30 18 31 17 32
REMARK SMILES IDX 31 33 32 34 33 35 34 36 35 37 36 38 37 39 38 40 39 41 40 42
REMARK SMILES IDX 92 43 41 44 91 45 42 46 43 47 44 48 85 49 45 50 90 51 84 52
REMARK SMILES IDX 86 53 46 54 89 55 83 56 82 57 47 59 73 60 56 61 72 62 57 63
REMARK SMILES IDX 60 64 71 65 87 66 58 67 59 68 70 70 88 71 61 72 48 73 49 74
REMARK SMILES IDX 54 75 50 76 51 77 53 78 55 79 52 80 74 81 75 82 80 83 76 84
REMARK SMILES IDX 77 85 79 86 81 87 78 88 62 89 63 90 68 91 64 92 65 93 67 94
REMARK SMILES IDX 69 95 66 96
REMARK H PARENT 86 58 60 69
REMARK Flexibility Score: inf
ROOT
ATOM      1  O   UNL A   1      42.607  39.909  27.848  1.00  0.00    -0.377 OA
ENDROOT
BRANCH   1   2
ATOM      2  C   UNL A   1      42.908  40.021  26.484  1.00  0.00     0.188 C 
BRANCH   2   3
ATOM      3  C   UNL A   1      42.076  41.048  25.732  1.00  0.00     0.188 C 
BRANCH   3   4
ATOM      4  O   UNL A   1      42.443  41.401  24.414  1.00  0.00    -0.376 OA
BRANCH   4   5
ATOM      5  C   UNL A   1      43.130  42.623  24.153  1.00  0.00     0.202 C 
BRANCH   5   6
ATOM      6  C   UNL A   1      43.920  42.899  22.852  1.00  0.00     0.261 C 
BRANCH   6   7
ATOM      7  O   UNL A   1      45.339  43.175  22.993  1.00  0.00    -0.462 OA
BRANCH   7   8
ATOM      8  C   UNL A   1      46.136  42.834  21.955  1.00  0.00     0.325 C 
ATOM      9  O   UNL A   1      47.234  42.292  22.103  1.00  0.00    -0.250 OA
BRANCH   8  10
ATOM     10  C   UNL A   1      45.607  43.118  20.526  1.00  0.00     0.243 C 
BRANCH  10  11
ATOM     11  N   UNL A   1      45.616  44.377  19.776  1.00  0.00    -0.315 N 
ATOM     12  N   UNL A   1      47.038  47.055  17.815  1.00  0.00    -0.334 N 
ATOM     13  C   UNL A   1      46.453  46.059  18.544  1.00  0.00     0.114 A 
ATOM     14  C   UNL A   1      46.255  48.199  18.024  1.00  0.00     0.049 A 
ATOM     15  C   UNL A   1      45.161  46.407  18.826  1.00  0.00     0.018 A 
ATOM     16  C   UNL A   1      46.792  44.798  19.133  1.00  0.00     0.272 C 
ATOM     17  C   UNL A   1      44.997  47.764  18.483  1.00  0.00     0.006 A 
ATOM     18  C   UNL A   1      46.520  49.574  17.876  1.00  0.00     0.027 A 
ATOM     19  C   UNL A   1      44.474  45.340  19.619  1.00  0.00     0.150 C 
ATOM     20  O   UNL A   1      47.859  44.225  19.139  1.00  0.00    -0.267 OA
ATOM     21  C   UNL A   1      43.951  48.698  18.603  1.00  0.00     0.011 A 
ATOM     22  C   UNL A   1      45.489  50.491  18.107  1.00  0.00     0.002 A 
ATOM     23  C   UNL A   1      44.211  50.059  18.431  1.00  0.00     0.001 A 
BRANCH  12  24
ATOM     24  C   UNL A   1      48.245  46.946  16.982  1.00  0.00     0.082 C 
ATOM     25  C   UNL A   1      49.543  46.843  17.804  1.00  0.00     0.031 C 
ATOM     26  C   UNL A   1      48.255  45.719  16.048  1.00  0.00     0.031 C 
ENDBRANCH  12  24
BRANCH  19  27
ATOM     27  C   UNL A   1      43.201  44.859  18.921  1.00  0.00    -0.021 A 
ATOM     28  C   UNL A   1      42.266  44.090  19.648  1.00  0.00     0.006 A 
ATOM     29  C   UNL A   1      42.793  45.255  17.633  1.00  0.00     0.006 A 
ATOM     30  C   UNL A   1      41.009  43.745  19.138  1.00  0.00     0.000 A 
ATOM     31  C   UNL A   1      41.525  44.930  17.123  1.00  0.00     0.000 A 
ATOM     32  C   UNL A   1      40.633  44.176  17.875  1.00  0.00     0.000 A 
ENDBRANCH  19  27
ENDBRANCH  10  11
ENDBRANCH   8  10
ENDBRANCH   7   8
ENDBRANCH   6   7
ENDBRANCH   5   6
ENDBRANCH   4   5
ENDBRANCH   3   4
ENDBRANCH   2   3
ENDBRANCH   1   2
BRANCH   1  33
ATOM     33  C   UNL A   1      43.007  40.905  28.764  1.00  0.00     0.188 C 
BRANCH  33  34
ATOM     34  C   UNL A   1      44.276  41.713  28.472  1.00  0.00     0.188 C 
BRANCH  34  35
ATOM     35  O   UNL A   1      45.334  41.404  29.362  1.00  0.00    -0.376 OA
BRANCH  35  36
ATOM     36  C   UNL A   1      46.448  40.654  28.903  1.00  0.00     0.202 C 
BRANCH  36  37
ATOM     37  C   UNL A   1      46.620  39.163  29.240  1.00  0.00     0.261 C 
BRANCH  37  38
ATOM     38  O   UNL A   1      45.515  38.322  28.894  1.00  0.00    -0.460 OA
BRANCH  38  39
ATOM     39  C   UNL A   1      45.419  37.691  27.711  1.00  0.00     0.338 C 
ATOM     40  O   UNL A   1      45.956  37.992  26.663  1.00  0.00    -0.246 OA
BRANCH  39  41
ATOM     41  C   UNL A   1      44.864  36.360  28.074  1.00  0.00     0.060 A 
ATOM     42  C   UNL A   1      43.992  35.658  27.231  1.00  0.00     0.016 A 
ATOM     43  C   UNL A   1      44.968  36.019  29.428  1.00  0.00     0.016 A 
ATOM     44  C   UNL A   1      43.153  34.682  27.782  1.00  0.00     0.010 A 
ATOM     45  C   UNL A   1      44.093  35.087  29.981  1.00  0.00     0.010 A 
ATOM     46  C   UNL A   1      43.154  34.444  29.171  1.00  0.00    -0.014 A 
BRANCH  46  47
ATOM     47  C   UNL A   1      42.347  33.336  29.710  1.00  0.00     0.031 A 
ATOM     48  C   UNL A   1      41.059  33.823  30.278  1.00  0.00     0.074 A 
ATOM     49  C   UNL A   1      42.579  32.009  29.568  1.00  0.00     0.049 A 
ATOM     50  N   UNL A   1      40.616  33.702  31.486  1.00  0.00    -0.248 NA
ATOM     51  C   UNL A   1      40.224  34.674  29.412  1.00  0.00     0.031 C 
ATOM     52  C   UNL A   1      43.643  31.370  28.793  1.00  0.00     0.029 A 
ATOM     53  N   UNL A   1      41.859  30.931  30.027  1.00  0.00    -0.354 N 
ATOM     54  C   UNL A   1      39.357  34.298  31.480  1.00  0.00     0.074 A 
ATOM     55  C   UNL A   1      39.247  35.025  30.246  1.00  0.00     0.031 C 
ATOM     56  C   UNL A   1      43.404  30.042  28.694  1.00  0.00     0.029 A 
ATOM     57  C   UNL A   1      42.211  29.708  29.451  1.00  0.00     0.049 A 
ATOM     58  H   UNL A   1      41.152  31.014  30.707  1.00  0.00     0.167 HD
ATOM     59  C   UNL A   1      38.397  33.924  32.366  1.00  0.00     0.037 A 
ATOM     60  C   UNL A   1      41.569  28.509  29.537  1.00  0.00     0.037 A 
ATOM     61  C   UNL A   1      38.968  33.297  33.529  1.00  0.00     0.049 A 
ATOM     62  C   UNL A   1      40.663  28.560  30.705  1.00  0.00     0.074 A 
ATOM     63  C   UNL A   1      39.849  33.684  34.520  1.00  0.00     0.029 A 
ATOM     64  N   UNL A   1      38.882  31.932  33.624  1.00  0.00    -0.354 N 
ATOM     65  N   UNL A   1      41.075  28.579  31.940  1.00  0.00    -0.248 NA
ATOM     66  C   UNL A   1      39.309  29.036  30.486  1.00  0.00     0.031 C 
ATOM     67  C   UNL A   1      40.593  32.509  34.839  1.00  0.00     0.029 A 
ATOM     68  C   UNL A   1      40.094  31.466  34.059  1.00  0.00     0.049 A 
ATOM     69  H   UNL A   1      38.092  31.384  33.416  1.00  0.00     0.167 HD
ATOM     70  C   UNL A   1      40.233  29.483  32.568  1.00  0.00     0.074 A 
ATOM     71  C   UNL A   1      39.112  29.664  31.649  1.00  0.00     0.031 C 
ATOM     72  C   UNL A   1      40.664  30.208  33.641  1.00  0.00     0.037 A 
BRANCH  59  73
ATOM     73  C   UNL A   1      36.948  33.738  31.974  1.00  0.00     0.057 A 
ATOM     74  C   UNL A   1      35.891  34.566  32.411  1.00  0.00     0.134 A 
ATOM     75  C   UNL A   1      36.643  32.916  30.876  1.00  0.00     0.134 A 
ATOM     76  F   UNL A   1      36.027  35.455  33.402  1.00  0.00    -0.206 F 
ATOM     77  C   UNL A   1      34.646  34.607  31.780  1.00  0.00     0.040 A 
ATOM     78  C   UNL A   1      35.417  32.986  30.204  1.00  0.00     0.040 A 
ATOM     79  F   UNL A   1      37.563  32.084  30.363  1.00  0.00    -0.206 F 
ATOM     80  C   UNL A   1      34.418  33.844  30.648  1.00  0.00     0.006 A 
ENDBRANCH  59  73
BRANCH  60  81
ATOM     81  C   UNL A   1      41.499  27.400  28.546  1.00  0.00     0.057 A 
ATOM     82  C   UNL A   1      42.264  26.231  28.710  1.00  0.00     0.134 A 
ATOM     83  C   UNL A   1      40.889  27.549  27.288  1.00  0.00     0.134 A 
ATOM     84  F   UNL A   1      42.972  26.025  29.830  1.00  0.00    -0.206 F 
ATOM     85  C   UNL A   1      42.408  25.271  27.703  1.00  0.00     0.040 A 
ATOM     86  C   UNL A   1      41.031  26.596  26.265  1.00  0.00     0.040 A 
ATOM     87  F   UNL A   1      40.184  28.652  26.996  1.00  0.00    -0.206 F 
ATOM     88  C   UNL A   1      41.798  25.453  26.469  1.00  0.00     0.006 A 
ENDBRANCH  60  81
BRANCH  72  89
ATOM     89  C   UNL A   1      41.961  29.797  34.282  1.00  0.00     0.057 A 
ATOM     90  C   UNL A   1      41.917  29.131  35.511  1.00  0.00     0.134 A 
ATOM     91  C   UNL A   1      43.230  30.150  33.795  1.00  0.00     0.134 A 
ATOM     92  F   UNL A   1      40.737  28.804  36.062  1.00  0.00    -0.206 F 
ATOM     93  C   UNL A   1      43.078  28.823  36.225  1.00  0.00     0.040 A 
ATOM     94  C   UNL A   1      44.400  29.818  34.485  1.00  0.00     0.040 A 
ATOM     95  F   UNL A   1      43.370  30.868  32.673  1.00  0.00    -0.206 F 
ATOM     96  C   UNL A   1      44.326  29.159  35.709  1.00  0.00     0.006 A 
ENDBRANCH  72  89
ENDBRANCH  46  47
ENDBRANCH  39  41
ENDBRANCH  38  39
ENDBRANCH  37  38
ENDBRANCH  36  37
ENDBRANCH  35  36
ENDBRANCH  34  35
ENDBRANCH  33  34
ENDBRANCH   1  33
TORSDOF 23
ENDMDL
MODEL 3
REMARK VINA RESULT:      -7.0      4.392     10.107
REMARK SMILES CC(C)n1c2c(c3ccccc31)[C@@H](c1ccccc1)N(CC(=O)OCCOCCOCCOCCOC(=O)c1ccc(-c3c4nc(c(-c5c(F)cccc5F)c5ccc([nH]5)c(-c5c(F)cccc5F)c5nc(c(-c6c(F)cccc6F)c6ccc3[nH]6)C=C5)C=C4)cc1)C2=O
REMARK SMILES IDX 30 1 29 2 28 3 27 4 26 5 25 6 24 7 22 8 23 9 21 10 20 11
REMARK SMILES IDX 4 12 5 13 12 14 6 15 93 16 7 17 11 18 13 19 94 20 8 21 10 22
REMARK SMILES IDX 9 23 2 24 1 25 3 26 14 27 15 28 19 29 16 30 18 31 17 32
REMARK SMILES IDX 31 33 32 34 33 35 34 36 35 37 36 38 37 39 38 40 39 41 40 42
REMARK SMILES IDX 92 43 41 44 91 45 42 46 43 47 44 48 85 49 45 50 90 51 84 52
REMARK SMILES IDX 86 53 46 54 89 55 83 56 82 57 47 59 73 60 56 61 72 62 57 63
REMARK SMILES IDX 60 64 71 65 87 66 58 67 59 68 70 70 88 71 61 72 48 73 49 74
REMARK SMILES IDX 54 75 50 76 51 77 53 78 55 79 52 80 74 81 75 82 80 83 76 84
REMARK SMILES IDX 77 85 79 86 81 87 78 88 62 89 63 90 68 91 64 92 65 93 67 94
REMARK SMILES IDX 69 95 66 96
REMARK H PARENT 86 58 60 69
REMARK Flexibility Score: inf
ROOT
ATOM      1  O   UNL A   1      39.064  28.128  30.104  1.00  0.00    -0.377 OA
ENDROOT
BRANCH   1   2
ATOM      2  C   UNL A   1      38.600  28.321  28.796  1.00  0.00     0.188 C 
BRANCH   2   3
ATOM      3  C   UNL A   1      38.144  29.738  28.487  1.00  0.00     0.188 C 
BRANCH   3   4
ATOM      4  O   UNL A   1      37.054  29.935  27.610  1.00  0.00    -0.376 OA
BRANCH   4   5
ATOM      5  C   UNL A   1      35.982  30.806  27.968  1.00  0.00     0.202 C 
BRANCH   5   6
ATOM      6  C   UNL A   1      34.489  30.413  27.857  1.00  0.00     0.261 C 
BRANCH   6   7
ATOM      7  O   UNL A   1      33.769  30.901  26.693  1.00  0.00    -0.462 OA
BRANCH   7   8
ATOM      8  C   UNL A   1      32.445  31.135  26.846  1.00  0.00     0.325 C 
ATOM      9  O   UNL A   1      31.972  32.270  26.935  1.00  0.00    -0.250 OA
BRANCH   8  10
ATOM     10  C   UNL A   1      31.501  29.906  26.870  1.00  0.00     0.243 C 
BRANCH  10  11
ATOM     11  N   UNL A   1      31.479  28.746  25.973  1.00  0.00    -0.315 N 
ATOM     12  N   UNL A   1      31.625  25.252  25.072  1.00  0.00    -0.334 N 
ATOM     13  C   UNL A   1      31.552  26.584  25.366  1.00  0.00     0.114 A 
ATOM     14  C   UNL A   1      32.054  25.173  23.739  1.00  0.00     0.049 A 
ATOM     15  C   UNL A   1      31.491  27.300  24.202  1.00  0.00     0.018 A 
ATOM     16  C   UNL A   1      31.563  27.450  26.508  1.00  0.00     0.272 C 
ATOM     17  C   UNL A   1      31.785  26.420  23.141  1.00  0.00     0.006 A 
ATOM     18  C   UNL A   1      32.665  24.147  22.995  1.00  0.00     0.027 A 
ATOM     19  C   UNL A   1      31.401  28.768  24.474  1.00  0.00     0.150 C 
ATOM     20  O   UNL A   1      31.675  27.160  27.679  1.00  0.00    -0.267 OA
ATOM     21  C   UNL A   1      31.951  26.563  21.751  1.00  0.00     0.011 A 
ATOM     22  C   UNL A   1      32.919  24.355  21.636  1.00  0.00     0.002 A 
ATOM     23  C   UNL A   1      32.535  25.532  21.011  1.00  0.00     0.001 A 
BRANCH  12  24
ATOM     24  C   UNL A   1      31.319  24.132  25.973  1.00  0.00     0.082 C 
ATOM     25  C   UNL A   1      30.881  22.857  25.230  1.00  0.00     0.031 C 
ATOM     26  C   UNL A   1      32.500  23.700  26.864  1.00  0.00     0.031 C 
ENDBRANCH  12  24
BRANCH  19  27
ATOM     27  C   UNL A   1      30.164  29.382  23.815  1.00  0.00    -0.021 A 
ATOM     28  C   UNL A   1      29.201  28.530  23.232  1.00  0.00     0.006 A 
ATOM     29  C   UNL A   1      29.813  30.745  23.879  1.00  0.00     0.006 A 
ATOM     30  C   UNL A   1      27.971  28.995  22.751  1.00  0.00     0.000 A 
ATOM     31  C   UNL A   1      28.573  31.214  23.417  1.00  0.00     0.000 A 
ATOM     32  C   UNL A   1      27.651  30.340  22.854  1.00  0.00     0.000 A 
ENDBRANCH  19  27
ENDBRANCH  10  11
ENDBRANCH   8  10
ENDBRANCH   7   8
ENDBRANCH   6   7
ENDBRANCH   5   6
ENDBRANCH   4   5
ENDBRANCH   3   4
ENDBRANCH   2   3
ENDBRANCH   1   2
BRANCH   1  33
ATOM     33  C   UNL A   1      38.687  29.003  31.144  1.00  0.00     0.188 C 
BRANCH  33  34
ATOM     34  C   UNL A   1      37.749  28.488  32.241  1.00  0.00     0.188 C 
BRANCH  34  35
ATOM     35  O   UNL A   1      36.696  29.393  32.523  1.00  0.00    -0.376 OA
BRANCH  35  36
ATOM     36  C   UNL A   1      36.665  30.661  31.889  1.00  0.00     0.202 C 
BRANCH  36  37
ATOM     37  C   UNL A   1      36.624  31.973  32.691  1.00  0.00     0.261 C 
BRANCH  37  38
ATOM     38  O   UNL A   1      37.900  32.530  33.025  1.00  0.00    -0.460 OA
BRANCH  38  39
ATOM     39  C   UNL A   1      38.548  33.400  32.230  1.00  0.00     0.338 C 
ATOM     40  O   UNL A   1      38.311  34.581  32.075  1.00  0.00    -0.246 OA
BRANCH  39  41
ATOM     41  C   UNL A   1      39.824  32.702  31.923  1.00  0.00     0.060 A 
ATOM     42  C   UNL A   1      40.168  32.309  30.622  1.00  0.00     0.016 A 
ATOM     43  C   UNL A   1      40.482  32.146  33.028  1.00  0.00     0.016 A 
ATOM     44  C   UNL A   1      41.103  31.282  30.447  1.00  0.00     0.010 A 
ATOM     45  C   UNL A   1      41.371  31.088  32.849  1.00  0.00     0.010 A 
ATOM     46  C   UNL A   1      41.654  30.623  31.564  1.00  0.00    -0.014 A 
BRANCH  46  47
ATOM     47  C   UNL A   1      42.718  29.626  31.355  1.00  0.00     0.031 A 
ATOM     48  C   UNL A   1      43.835  30.178  30.539  1.00  0.00     0.074 A 
ATOM     49  C   UNL A   1      42.836  28.416  31.955  1.00  0.00     0.049 A 
ATOM     50  N   UNL A   1      44.289  29.755  29.406  1.00  0.00    -0.248 NA
ATOM     51  C   UNL A   1      44.426  31.452  30.988  1.00  0.00     0.031 C 
ATOM     52  C   UNL A   1      41.976  27.851  32.996  1.00  0.00     0.029 A 
ATOM     53  N   UNL A   1      43.808  27.453  31.819  1.00  0.00    -0.354 N 
ATOM     54  C   UNL A   1      45.352  30.599  29.094  1.00  0.00     0.074 A 
ATOM     55  C   UNL A   1      45.275  31.714  29.997  1.00  0.00     0.031 C 
ATOM     56  C   UNL A   1      42.550  26.741  33.512  1.00  0.00     0.029 A 
ATOM     57  C   UNL A   1      43.786  26.462  32.803  1.00  0.00     0.049 A 
ATOM     58  H   UNL A   1      44.468  27.462  31.089  1.00  0.00     0.167 HD
ATOM     59  C   UNL A   1      46.373  30.182  28.300  1.00  0.00     0.037 A 
ATOM     60  C   UNL A   1      44.715  25.500  33.065  1.00  0.00     0.037 A 
ATOM     61  C   UNL A   1      45.979  29.072  27.474  1.00  0.00     0.049 A 
ATOM     62  C   UNL A   1      45.572  25.356  31.869  1.00  0.00     0.074 A 
ATOM     63  C   UNL A   1      45.023  28.866  26.497  1.00  0.00     0.029 A 
ATOM     64  N   UNL A   1      46.412  27.823  27.835  1.00  0.00    -0.354 N 
ATOM     65  N   UNL A   1      45.165  24.844  30.743  1.00  0.00    -0.248 NA
ATOM     66  C   UNL A   1      46.759  26.190  31.787  1.00  0.00     0.031 C 
ATOM     67  C   UNL A   1      44.606  27.511  26.662  1.00  0.00     0.029 A 
ATOM     68  C   UNL A   1      45.360  26.958  27.696  1.00  0.00     0.049 A 
ATOM     69  H   UNL A   1      47.318  27.588  28.139  1.00  0.00     0.167 HD
ATOM     70  C   UNL A   1      45.743  25.647  29.772  1.00  0.00     0.074 A 
ATOM     71  C   UNL A   1      46.783  26.400  30.469  1.00  0.00     0.031 C 
ATOM     72  C   UNL A   1      45.136  25.827  28.564  1.00  0.00     0.037 A 
BRANCH  59  73
ATOM     73  C   UNL A   1      47.822  30.499  28.595  1.00  0.00     0.057 A 
ATOM     74  C   UNL A   1      48.550  29.966  29.681  1.00  0.00     0.134 A 
ATOM     75  C   UNL A   1      48.605  31.089  27.588  1.00  0.00     0.134 A 
ATOM     76  F   UNL A   1      47.969  29.314  30.695  1.00  0.00    -0.206 F 
ATOM     77  C   UNL A   1      49.945  29.980  29.741  1.00  0.00     0.040 A 
ATOM     78  C   UNL A   1      50.004  31.061  27.613  1.00  0.00     0.040 A 
ATOM     79  F   UNL A   1      48.034  31.629  26.501  1.00  0.00    -0.206 F 
ATOM     80  C   UNL A   1      50.679  30.493  28.687  1.00  0.00     0.006 A 
ENDBRANCH  59  73
BRANCH  60  81
ATOM     81  C   UNL A   1      45.072  24.857  34.360  1.00  0.00     0.057 A 
ATOM     82  C   UNL A   1      44.727  23.519  34.625  1.00  0.00     0.134 A 
ATOM     83  C   UNL A   1      45.528  25.593  35.468  1.00  0.00     0.134 A 
ATOM     84  F   UNL A   1      44.188  22.746  33.672  1.00  0.00    -0.206 F 
ATOM     85  C   UNL A   1      44.834  22.946  35.897  1.00  0.00     0.040 A 
ATOM     86  C   UNL A   1      45.633  25.031  36.752  1.00  0.00     0.040 A 
ATOM     87  F   UNL A   1      45.830  26.894  35.347  1.00  0.00    -0.206 F 
ATOM     88  C   UNL A   1      45.280  23.704  36.971  1.00  0.00     0.006 A 
ENDBRANCH  60  81
BRANCH  72  89
ATOM     89  C   UNL A   1      43.986  24.919  28.221  1.00  0.00     0.057 A 
ATOM     90  C   UNL A   1      42.690  25.326  28.554  1.00  0.00     0.134 A 
ATOM     91  C   UNL A   1      44.131  23.622  27.703  1.00  0.00     0.134 A 
ATOM     92  F   UNL A   1      42.481  26.535  29.100  1.00  0.00    -0.206 F 
ATOM     93  C   UNL A   1      41.586  24.489  28.378  1.00  0.00     0.040 A 
ATOM     94  C   UNL A   1      43.029  22.787  27.490  1.00  0.00     0.040 A 
ATOM     95  F   UNL A   1      45.340  23.108  27.438  1.00  0.00    -0.206 F 
ATOM     96  C   UNL A   1      41.751  23.218  27.837  1.00  0.00     0.006 A 
ENDBRANCH  72  89
ENDBRANCH  46  47
ENDBRANCH  39  41
ENDBRANCH  38  39
ENDBRANCH  37  38
ENDBRANCH  36  37
ENDBRANCH  35  36
ENDBRANCH  34  35
ENDBRANCH  33  34
ENDBRANCH   1  33
TORSDOF 23
ENDMDL
