MODEL 1
REMARK VINA RESULT:      -9.8      0.000      0.000
REMARK SMILES O=C(CSc1ccnc(C(=O)OCCOCCOCCOCCOC(=O)c2ccc(-c3c4nc(c(-c5c(F)cccc5F)c5ccc([nH]5)c(-c5c(F)cccc5F)c5nc(c(-c6c(F)cccc6F)c6ccc3[nH]6)C=C5)C=C4)cc2)c1)NC[C@@H]1CCCO1
REMARK SMILES IDX 16 1 15 2 14 3 13 4 12 5 10 6 11 7 9 8 5 9 6 10 81 11 7 12
REMARK SMILES IDX 8 13 4 14 3 15 2 16 1 17 82 18 83 20 84 21 85 22 88 23 86 24
REMARK SMILES IDX 87 25 17 26 18 27 19 28 20 29 21 30 22 31 23 32 24 33 25 34
REMARK SMILES IDX 26 35 27 36 28 37 80 38 29 39 79 40 30 41 31 42 32 43 73 44
REMARK SMILES IDX 33 45 78 46 72 47 74 48 34 49 77 50 71 51 70 52 35 54 61 55
REMARK SMILES IDX 44 56 60 57 45 58 48 59 59 60 75 61 46 62 47 63 58 65 76 66
REMARK SMILES IDX 49 67 36 68 37 69 42 70 38 71 39 72 41 73 43 74 40 75 62 76
REMARK SMILES IDX 63 77 68 78 64 79 65 80 67 81 69 82 66 83 50 84 51 85 56 86
REMARK SMILES IDX 52 87 53 88 55 89 57 90 54 91
REMARK H PARENT 82 19 74 53 48 64
REMARK Flexibility Score: inf
ROOT
ATOM      1  C   UNL A   1      36.448  22.622  25.504  1.00  0.00     0.188 C 
ENDROOT
BRANCH   1   2
ATOM      2  O   UNL A   1      36.434  22.131  24.173  1.00  0.00    -0.376 OA
BRANCH   2   3
ATOM      3  C   UNL A   1      36.084  22.989  23.102  1.00  0.00     0.202 C 
BRANCH   3   4
ATOM      4  C   UNL A   1      34.633  23.416  22.799  1.00  0.00     0.261 C 
BRANCH   4   5
ATOM      5  O   UNL A   1      34.335  24.816  22.806  1.00  0.00    -0.459 OA
BRANCH   5   6
ATOM      6  C   UNL A   1      33.275  25.230  22.074  1.00  0.00     0.357 C 
ATOM      7  O   UNL A   1      33.220  25.286  20.858  1.00  0.00    -0.244 OA
BRANCH   6   8
ATOM      8  C   UNL A   1      32.128  25.429  23.013  1.00  0.00     0.149 A 
ATOM      9  C   UNL A   1      30.800  24.817  24.900  1.00  0.00     0.012 A 
ATOM     10  C   UNL A   1      29.960  25.891  24.608  1.00  0.00     0.035 A 
ATOM     11  C   UNL A   1      31.895  24.558  24.074  1.00  0.00     0.051 A 
ATOM     12  C   UNL A   1      30.252  26.680  23.510  1.00  0.00     0.113 A 
ATOM     13  N   UNL A   1      31.322  26.485  22.717  1.00  0.00    -0.249 NA
BRANCH   9  14
ATOM     14  S   UNL A   1      30.542  23.927  26.428  1.00  0.00    -0.116 SA
BRANCH  14  15
ATOM     15  C   UNL A   1      30.716  22.198  25.879  1.00  0.00     0.174 C 
BRANCH  15  16
ATOM     16  C   UNL A   1      32.171  21.778  25.750  1.00  0.00     0.230 C 
ATOM     17  O   UNL A   1      33.045  22.258  26.467  1.00  0.00    -0.274 OA
ATOM     18  N   UNL A   1      32.412  20.781  24.827  1.00  0.00    -0.353 N 
ATOM     19  H   UNL A   1      31.675  20.481  24.248  1.00  0.00     0.163 HD
BRANCH  18  20
ATOM     20  C   UNL A   1      33.721  20.157  24.681  1.00  0.00     0.147 C 
BRANCH  20  21
ATOM     21  C   UNL A   1      33.732  18.666  25.045  1.00  0.00     0.137 C 
ATOM     22  C   UNL A   1      33.999  17.729  23.876  1.00  0.00     0.036 C 
ATOM     23  O   UNL A   1      32.475  18.258  25.620  1.00  0.00    -0.376 OA
ATOM     24  C   UNL A   1      33.313  16.464  24.331  1.00  0.00     0.031 C 
ATOM     25  C   UNL A   1      32.089  17.009  25.033  1.00  0.00     0.160 C 
ENDBRANCH  20  21
ENDBRANCH  18  20
ENDBRANCH  15  16
ENDBRANCH  14  15
ENDBRANCH   9  14
ENDBRANCH   6   8
ENDBRANCH   5   6
ENDBRANCH   4   5
ENDBRANCH   3   4
ENDBRANCH   2   3
ENDBRANCH   1   2
BRANCH   1  26
ATOM     26  C   UNL A   1      37.875  22.850  26.038  1.00  0.00     0.188 C 
BRANCH  26  27
ATOM     27  O   UNL A   1      38.778  21.788  25.769  1.00  0.00    -0.377 OA
BRANCH  27  28
ATOM     28  C   UNL A   1      40.112  21.869  26.273  1.00  0.00     0.188 C 
BRANCH  28  29
ATOM     29  C   UNL A   1      40.818  20.701  27.006  1.00  0.00     0.188 C 
BRANCH  29  30
ATOM     30  O   UNL A   1      42.220  20.849  27.159  1.00  0.00    -0.376 OA
BRANCH  30  31
ATOM     31  C   UNL A   1      43.058  20.517  26.068  1.00  0.00     0.202 C 
BRANCH  31  32
ATOM     32  C   UNL A   1      43.698  21.685  25.307  1.00  0.00     0.261 C 
BRANCH  32  33
ATOM     33  O   UNL A   1      44.236  22.739  26.118  1.00  0.00    -0.460 OA
BRANCH  33  34
ATOM     34  C   UNL A   1      44.333  23.964  25.564  1.00  0.00     0.338 C 
ATOM     35  O   UNL A   1      44.793  24.249  24.470  1.00  0.00    -0.246 OA
BRANCH  34  36
ATOM     36  C   UNL A   1      43.612  24.907  26.443  1.00  0.00     0.060 A 
ATOM     37  C   UNL A   1      43.971  26.261  26.434  1.00  0.00     0.016 A 
ATOM     38  C   UNL A   1      42.576  24.454  27.264  1.00  0.00     0.016 A 
ATOM     39  C   UNL A   1      43.318  27.161  27.279  1.00  0.00     0.010 A 
ATOM     40  C   UNL A   1      41.937  25.352  28.122  1.00  0.00     0.010 A 
ATOM     41  C   UNL A   1      42.329  26.702  28.160  1.00  0.00    -0.014 A 
BRANCH  41  42
ATOM     42  C   UNL A   1      41.849  27.580  29.254  1.00  0.00     0.031 A 
ATOM     43  C   UNL A   1      42.561  27.522  30.578  1.00  0.00     0.074 A 
ATOM     44  C   UNL A   1      40.817  28.424  29.079  1.00  0.00     0.049 A 
ATOM     45  N   UNL A   1      42.299  28.151  31.694  1.00  0.00    -0.248 NA
ATOM     46  C   UNL A   1      43.727  26.626  30.652  1.00  0.00     0.031 C 
ATOM     47  C   UNL A   1      40.070  28.604  27.837  1.00  0.00     0.029 A 
ATOM     48  N   UNL A   1      40.214  29.285  29.963  1.00  0.00    -0.354 N 
ATOM     49  C   UNL A   1      43.261  27.723  32.601  1.00  0.00     0.074 A 
ATOM     50  C   UNL A   1      44.088  26.754  31.918  1.00  0.00     0.031 C 
ATOM     51  C   UNL A   1      39.099  29.512  28.041  1.00  0.00     0.029 A 
ATOM     52  C   UNL A   1      39.135  29.950  29.436  1.00  0.00     0.049 A 
ATOM     53  H   UNL A   1      40.526  29.413  30.889  1.00  0.00     0.167 HD
ATOM     54  C   UNL A   1      43.443  28.108  33.887  1.00  0.00     0.037 A 
ATOM     55  C   UNL A   1      38.264  30.796  30.021  1.00  0.00     0.037 A 
ATOM     56  C   UNL A   1      42.614  29.069  34.566  1.00  0.00     0.049 A 
ATOM     57  C   UNL A   1      38.437  31.147  31.478  1.00  0.00     0.074 A 
ATOM     58  C   UNL A   1      42.728  29.540  35.861  1.00  0.00     0.029 A 
ATOM     59  N   UNL A   1      41.511  29.695  34.007  1.00  0.00    -0.354 N 
ATOM     60  N   UNL A   1      39.365  30.761  32.319  1.00  0.00    -0.248 NA
ATOM     61  C   UNL A   1      37.439  32.054  32.065  1.00  0.00     0.031 C 
ATOM     62  C   UNL A   1      41.657  30.405  36.107  1.00  0.00     0.029 A 
ATOM     63  C   UNL A   1      40.915  30.525  34.943  1.00  0.00     0.049 A 
ATOM     64  H   UNL A   1      41.197  29.568  33.082  1.00  0.00     0.167 HD
ATOM     65  C   UNL A   1      39.085  31.404  33.521  1.00  0.00     0.074 A 
ATOM     66  C   UNL A   1      37.906  32.212  33.296  1.00  0.00     0.031 C 
ATOM     67  C   UNL A   1      39.746  31.333  34.703  1.00  0.00     0.037 A 
BRANCH  54  68
ATOM     68  C   UNL A   1      44.565  27.464  34.648  1.00  0.00     0.057 A 
ATOM     69  C   UNL A   1      45.833  28.053  34.747  1.00  0.00     0.134 A 
ATOM     70  C   UNL A   1      44.366  26.248  35.315  1.00  0.00     0.134 A 
ATOM     71  F   UNL A   1      46.096  29.211  34.120  1.00  0.00    -0.206 F 
ATOM     72  C   UNL A   1      46.868  27.443  35.456  1.00  0.00     0.040 A 
ATOM     73  C   UNL A   1      45.385  25.644  36.052  1.00  0.00     0.040 A 
ATOM     74  F   UNL A   1      43.175  25.632  35.266  1.00  0.00    -0.206 F 
ATOM     75  C   UNL A   1      46.644  26.238  36.118  1.00  0.00     0.006 A 
ENDBRANCH  54  68
BRANCH  55  76
ATOM     76  C   UNL A   1      37.133  31.363  29.240  1.00  0.00     0.057 A 
ATOM     77  C   UNL A   1      37.165  32.679  28.764  1.00  0.00     0.134 A 
ATOM     78  C   UNL A   1      35.978  30.614  28.979  1.00  0.00     0.134 A 
ATOM     79  F   UNL A   1      38.231  33.457  29.003  1.00  0.00    -0.206 F 
ATOM     80  C   UNL A   1      36.085  33.236  28.077  1.00  0.00     0.040 A 
ATOM     81  C   UNL A   1      34.903  31.149  28.268  1.00  0.00     0.040 A 
ATOM     82  F   UNL A   1      35.880  29.347  29.409  1.00  0.00    -0.206 F 
ATOM     83  C   UNL A   1      34.951  32.468  27.823  1.00  0.00     0.006 A 
ENDBRANCH  55  76
BRANCH  67  84
ATOM     84  C   UNL A   1      39.242  32.183  35.836  1.00  0.00     0.057 A 
ATOM     85  C   UNL A   1      39.657  33.509  36.013  1.00  0.00     0.134 A 
ATOM     86  C   UNL A   1      38.288  31.680  36.731  1.00  0.00     0.134 A 
ATOM     87  F   UNL A   1      40.575  34.050  35.199  1.00  0.00    -0.206 F 
ATOM     88  C   UNL A   1      39.155  34.297  37.051  1.00  0.00     0.040 A 
ATOM     89  C   UNL A   1      37.757  32.468  37.752  1.00  0.00     0.040 A 
ATOM     90  F   UNL A   1      37.838  30.422  36.612  1.00  0.00    -0.206 F 
ATOM     91  C   UNL A   1      38.196  33.779  37.919  1.00  0.00     0.006 A 
ENDBRANCH  67  84
ENDBRANCH  41  42
ENDBRANCH  34  36
ENDBRANCH  33  34
ENDBRANCH  32  33
ENDBRANCH  31  32
ENDBRANCH  30  31
ENDBRANCH  29  30
ENDBRANCH  28  29
ENDBRANCH  27  28
ENDBRANCH  26  27
ENDBRANCH   1  26
TORSDOF 25
ENDMDL
MODEL 2
REMARK VINA RESULT:      -9.8      4.796     10.115
REMARK SMILES O=C(CSc1ccnc(C(=O)OCCOCCOCCOCCOC(=O)c2ccc(-c3c4nc(c(-c5c(F)cccc5F)c5ccc([nH]5)c(-c5c(F)cccc5F)c5nc(c(-c6c(F)cccc6F)c6ccc3[nH]6)C=C5)C=C4)cc2)c1)NC[C@@H]1CCCO1
REMARK SMILES IDX 16 1 15 2 14 3 13 4 12 5 10 6 11 7 9 8 5 9 6 10 81 11 7 12
REMARK SMILES IDX 8 13 4 14 3 15 2 16 1 17 82 18 83 20 84 21 85 22 88 23 86 24
REMARK SMILES IDX 87 25 17 26 18 27 19 28 20 29 21 30 22 31 23 32 24 33 25 34
REMARK SMILES IDX 26 35 27 36 28 37 80 38 29 39 79 40 30 41 31 42 32 43 73 44
REMARK SMILES IDX 33 45 78 46 72 47 74 48 34 49 77 50 71 51 70 52 35 54 61 55
REMARK SMILES IDX 44 56 60 57 45 58 48 59 59 60 75 61 46 62 47 63 58 65 76 66
REMARK SMILES IDX 49 67 36 68 37 69 42 70 38 71 39 72 41 73 43 74 40 75 62 76
REMARK SMILES IDX 63 77 68 78 64 79 65 80 67 81 69 82 66 83 50 84 51 85 56 86
REMARK SMILES IDX 52 87 53 88 55 89 57 90 54 91
REMARK H PARENT 82 19 74 53 48 64
REMARK Flexibility Score: inf
ROOT
ATOM      1  C   UNL A   1      34.125  30.928  28.046  1.00  0.00     0.188 C 
ENDROOT
BRANCH   1   2
ATOM      2  O   UNL A   1      33.833  30.856  26.660  1.00  0.00    -0.376 OA
BRANCH   2   3
ATOM      3  C   UNL A   1      32.769  30.044  26.198  1.00  0.00     0.202 C 
BRANCH   3   4
ATOM      4  C   UNL A   1      32.981  28.657  25.557  1.00  0.00     0.261 C 
BRANCH   4   5
ATOM      5  O   UNL A   1      33.083  27.527  26.430  1.00  0.00    -0.459 OA
BRANCH   5   6
ATOM      6  C   UNL A   1      31.931  27.004  26.908  1.00  0.00     0.357 C 
ATOM      7  O   UNL A   1      31.050  27.614  27.486  1.00  0.00    -0.244 OA
BRANCH   6   8
ATOM      8  C   UNL A   1      31.850  25.586  26.437  1.00  0.00     0.149 A 
ATOM      9  C   UNL A   1      32.682  23.698  25.236  1.00  0.00     0.012 A 
ATOM     10  C   UNL A   1      31.534  23.002  25.612  1.00  0.00     0.035 A 
ATOM     11  C   UNL A   1      32.838  25.028  25.631  1.00  0.00     0.051 A 
ATOM     12  C   UNL A   1      30.589  23.652  26.386  1.00  0.00     0.113 A 
ATOM     13  N   UNL A   1      30.726  24.919  26.820  1.00  0.00    -0.249 NA
BRANCH   9  14
ATOM     14  S   UNL A   1      33.991  22.800  24.416  1.00  0.00    -0.116 SA
BRANCH  14  15
ATOM     15  C   UNL A   1      33.542  23.017  22.663  1.00  0.00     0.174 C 
BRANCH  15  16
ATOM     16  C   UNL A   1      33.258  24.469  22.317  1.00  0.00     0.230 C 
ATOM     17  O   UNL A   1      34.144  25.319  22.334  1.00  0.00    -0.274 OA
ATOM     18  N   UNL A   1      31.964  24.733  21.921  1.00  0.00    -0.353 N 
ATOM     19  H   UNL A   1      31.291  24.017  21.983  1.00  0.00     0.163 HD
BRANCH  18  20
ATOM     20  C   UNL A   1      31.557  26.037  21.413  1.00  0.00     0.147 C 
BRANCH  20  21
ATOM     21  C   UNL A   1      31.129  27.017  22.514  1.00  0.00     0.137 C 
ATOM     22  C   UNL A   1      30.101  26.464  23.491  1.00  0.00     0.036 C 
ATOM     23  O   UNL A   1      30.560  28.217  21.955  1.00  0.00    -0.376 OA
ATOM     24  C   UNL A   1      29.412  27.723  23.959  1.00  0.00     0.031 C 
ATOM     25  C   UNL A   1      29.378  28.549  22.693  1.00  0.00     0.160 C 
ENDBRANCH  20  21
ENDBRANCH  18  20
ENDBRANCH  15  16
ENDBRANCH  14  15
ENDBRANCH   9  14
ENDBRANCH   6   8
ENDBRANCH   5   6
ENDBRANCH   4   5
ENDBRANCH   3   4
ENDBRANCH   2   3
ENDBRANCH   1   2
BRANCH   1  26
ATOM     26  C   UNL A   1      34.842  32.236  28.435  1.00  0.00     0.188 C 
BRANCH  26  27
ATOM     27  O   UNL A   1      34.349  33.392  27.775  1.00  0.00    -0.377 OA
BRANCH  27  28
ATOM     28  C   UNL A   1      33.291  34.136  28.382  1.00  0.00     0.188 C 
BRANCH  28  29
ATOM     29  C   UNL A   1      33.486  35.029  29.632  1.00  0.00     0.188 C 
BRANCH  29  30
ATOM     30  O   UNL A   1      34.467  34.572  30.548  1.00  0.00    -0.376 OA
BRANCH  30  31
ATOM     31  C   UNL A   1      34.128  34.495  31.920  1.00  0.00     0.202 C 
BRANCH  31  32
ATOM     32  C   UNL A   1      34.431  33.170  32.633  1.00  0.00     0.261 C 
BRANCH  32  33
ATOM     33  O   UNL A   1      35.511  32.399  32.088  1.00  0.00    -0.460 OA
BRANCH  33  34
ATOM     34  C   UNL A   1      36.502  32.034  32.927  1.00  0.00     0.338 C 
ATOM     35  O   UNL A   1      36.495  32.082  34.147  1.00  0.00    -0.246 OA
BRANCH  34  36
ATOM     36  C   UNL A   1      37.552  31.385  32.117  1.00  0.00     0.060 A 
ATOM     37  C   UNL A   1      38.641  30.785  32.762  1.00  0.00     0.016 A 
ATOM     38  C   UNL A   1      37.453  31.360  30.723  1.00  0.00     0.016 A 
ATOM     39  C   UNL A   1      39.656  30.191  32.010  1.00  0.00     0.010 A 
ATOM     40  C   UNL A   1      38.479  30.782  29.972  1.00  0.00     0.010 A 
ATOM     41  C   UNL A   1      39.602  30.227  30.610  1.00  0.00    -0.014 A 
BRANCH  41  42
ATOM     42  C   UNL A   1      40.802  29.871  29.815  1.00  0.00     0.031 A 
ATOM     43  C   UNL A   1      40.890  28.481  29.245  1.00  0.00     0.074 A 
ATOM     44  C   UNL A   1      41.787  30.757  29.587  1.00  0.00     0.049 A 
ATOM     45  N   UNL A   1      41.855  27.919  28.563  1.00  0.00    -0.248 NA
ATOM     46  C   UNL A   1      39.731  27.605  29.481  1.00  0.00     0.031 C 
ATOM     47  C   UNL A   1      41.803  32.143  30.050  1.00  0.00     0.029 A 
ATOM     48  N   UNL A   1      42.973  30.613  28.911  1.00  0.00    -0.354 N 
ATOM     49  C   UNL A   1      41.422  26.626  28.297  1.00  0.00     0.074 A 
ATOM     50  C   UNL A   1      40.127  26.474  28.920  1.00  0.00     0.031 C 
ATOM     51  C   UNL A   1      42.951  32.720  29.652  1.00  0.00     0.029 A 
ATOM     52  C   UNL A   1      43.764  31.735  28.939  1.00  0.00     0.049 A 
ATOM     53  H   UNL A   1      43.233  29.782  28.449  1.00  0.00     0.167 HD
ATOM     54  C   UNL A   1      42.045  25.654  27.588  1.00  0.00     0.037 A 
ATOM     55  C   UNL A   1      45.009  31.934  28.464  1.00  0.00     0.037 A 
ATOM     56  C   UNL A   1      43.337  25.806  26.973  1.00  0.00     0.049 A 
ATOM     57  C   UNL A   1      45.718  30.810  27.750  1.00  0.00     0.074 A 
ATOM     58  C   UNL A   1      44.044  24.887  26.219  1.00  0.00     0.029 A 
ATOM     59  N   UNL A   1      44.120  26.947  27.053  1.00  0.00    -0.354 N 
ATOM     60  N   UNL A   1      45.290  29.601  27.476  1.00  0.00    -0.248 NA
ATOM     61  C   UNL A   1      47.084  31.079  27.278  1.00  0.00     0.031 C 
ATOM     62  C   UNL A   1      45.282  25.451  25.894  1.00  0.00     0.029 A 
ATOM     63  C   UNL A   1      45.318  26.745  26.388  1.00  0.00     0.049 A 
ATOM     64  H   UNL A   1      43.862  27.779  27.514  1.00  0.00     0.167 HD
ATOM     65  C   UNL A   1      46.317  28.981  26.772  1.00  0.00     0.074 A 
ATOM     66  C   UNL A   1      47.385  29.950  26.652  1.00  0.00     0.031 C 
ATOM     67  C   UNL A   1      46.370  27.723  26.267  1.00  0.00     0.037 A 
BRANCH  54  68
ATOM     68  C   UNL A   1      41.346  24.330  27.469  1.00  0.00     0.057 A 
ATOM     69  C   UNL A   1      40.251  24.140  26.615  1.00  0.00     0.134 A 
ATOM     70  C   UNL A   1      41.791  23.223  28.202  1.00  0.00     0.134 A 
ATOM     71  F   UNL A   1      39.764  25.164  25.895  1.00  0.00    -0.206 F 
ATOM     72  C   UNL A   1      39.609  22.905  26.516  1.00  0.00     0.040 A 
ATOM     73  C   UNL A   1      41.176  21.976  28.088  1.00  0.00     0.040 A 
ATOM     74  F   UNL A   1      42.838  23.333  29.035  1.00  0.00    -0.206 F 
ATOM     75  C   UNL A   1      40.076  21.816  27.248  1.00  0.00     0.006 A 
ENDBRANCH  54  68
BRANCH  55  76
ATOM     76  C   UNL A   1      45.683  33.244  28.657  1.00  0.00     0.057 A 
ATOM     77  C   UNL A   1      46.519  33.477  29.756  1.00  0.00     0.134 A 
ATOM     78  C   UNL A   1      45.482  34.307  27.767  1.00  0.00     0.134 A 
ATOM     79  F   UNL A   1      46.732  32.509  30.659  1.00  0.00    -0.206 F 
ATOM     80  C   UNL A   1      47.112  34.722  29.975  1.00  0.00     0.040 A 
ATOM     81  C   UNL A   1      46.092  35.548  27.958  1.00  0.00     0.040 A 
ATOM     82  F   UNL A   1      44.691  34.153  26.695  1.00  0.00    -0.206 F 
ATOM     83  C   UNL A   1      46.903  35.761  29.070  1.00  0.00     0.006 A 
ENDBRANCH  55  76
BRANCH  67  84
ATOM     84  C   UNL A   1      47.601  27.331  25.499  1.00  0.00     0.057 A 
ATOM     85  C   UNL A   1      47.736  27.587  24.129  1.00  0.00     0.134 A 
ATOM     86  C   UNL A   1      48.687  26.735  26.154  1.00  0.00     0.134 A 
ATOM     87  F   UNL A   1      46.731  28.146  23.438  1.00  0.00    -0.206 F 
ATOM     88  C   UNL A   1      48.899  27.246  23.435  1.00  0.00     0.040 A 
ATOM     89  C   UNL A   1      49.865  26.418  25.478  1.00  0.00     0.040 A 
ATOM     90  F   UNL A   1      48.629  26.472  27.468  1.00  0.00    -0.206 F 
ATOM     91  C   UNL A   1      49.972  26.668  24.112  1.00  0.00     0.006 A 
ENDBRANCH  67  84
ENDBRANCH  41  42
ENDBRANCH  34  36
ENDBRANCH  33  34
ENDBRANCH  32  33
ENDBRANCH  31  32
ENDBRANCH  30  31
ENDBRANCH  29  30
ENDBRANCH  28  29
ENDBRANCH  27  28
ENDBRANCH  26  27
ENDBRANCH   1  26
TORSDOF 25
ENDMDL
MODEL 3
REMARK VINA RESULT:      -9.5      1.681      4.246
REMARK SMILES O=C(CSc1ccnc(C(=O)OCCOCCOCCOCCOC(=O)c2ccc(-c3c4nc(c(-c5c(F)cccc5F)c5ccc([nH]5)c(-c5c(F)cccc5F)c5nc(c(-c6c(F)cccc6F)c6ccc3[nH]6)C=C5)C=C4)cc2)c1)NC[C@@H]1CCCO1
REMARK SMILES IDX 16 1 15 2 14 3 13 4 12 5 10 6 11 7 9 8 5 9 6 10 81 11 7 12
REMARK SMILES IDX 8 13 4 14 3 15 2 16 1 17 82 18 83 20 84 21 85 22 88 23 86 24
REMARK SMILES IDX 87 25 17 26 18 27 19 28 20 29 21 30 22 31 23 32 24 33 25 34
REMARK SMILES IDX 26 35 27 36 28 37 80 38 29 39 79 40 30 41 31 42 32 43 73 44
REMARK SMILES IDX 33 45 78 46 72 47 74 48 34 49 77 50 71 51 70 52 35 54 61 55
REMARK SMILES IDX 44 56 60 57 45 58 48 59 59 60 75 61 46 62 47 63 58 65 76 66
REMARK SMILES IDX 49 67 36 68 37 69 42 70 38 71 39 72 41 73 43 74 40 75 62 76
REMARK SMILES IDX 63 77 68 78 64 79 65 80 67 81 69 82 66 83 50 84 51 85 56 86
REMARK SMILES IDX 52 87 53 88 55 89 57 90 54 91
REMARK H PARENT 82 19 74 53 48 64
REMARK Flexibility Score: inf
ROOT
ATOM      1  C   UNL A   1      39.765  20.307  26.107  1.00  0.00     0.188 C 
ENDROOT
BRANCH   1   2
ATOM      2  O   UNL A   1      39.717  21.703  25.862  1.00  0.00    -0.376 OA
BRANCH   2   3
ATOM      3  C   UNL A   1      38.483  22.395  25.925  1.00  0.00     0.202 C 
BRANCH   3   4
ATOM      4  C   UNL A   1      37.140  21.769  25.495  1.00  0.00     0.261 C 
BRANCH   4   5
ATOM      5  O   UNL A   1      35.990  22.621  25.454  1.00  0.00    -0.459 OA
BRANCH   5   6
ATOM      6  C   UNL A   1      34.814  22.100  25.872  1.00  0.00     0.357 C 
ATOM      7  O   UNL A   1      34.639  21.440  26.881  1.00  0.00    -0.244 OA
BRANCH   6   8
ATOM      8  C   UNL A   1      33.741  22.633  24.976  1.00  0.00     0.149 A 
ATOM      9  C   UNL A   1      31.727  23.847  24.569  1.00  0.00     0.012 A 
ATOM     10  C   UNL A   1      31.828  23.488  23.225  1.00  0.00     0.035 A 
ATOM     11  C   UNL A   1      32.686  23.392  25.475  1.00  0.00     0.051 A 
ATOM     12  C   UNL A   1      32.894  22.701  22.829  1.00  0.00     0.113 A 
ATOM     13  N   UNL A   1      33.859  22.279  23.667  1.00  0.00    -0.249 NA
BRANCH   9  14
ATOM     14  S   UNL A   1      30.471  25.028  25.041  1.00  0.00    -0.116 SA
BRANCH  14  15
ATOM     15  C   UNL A   1      31.482  26.470  25.509  1.00  0.00     0.174 C 
BRANCH  15  16
ATOM     16  C   UNL A   1      31.811  27.354  24.318  1.00  0.00     0.230 C 
ATOM     17  O   UNL A   1      32.830  27.185  23.654  1.00  0.00    -0.274 OA
ATOM     18  N   UNL A   1      30.853  28.298  24.008  1.00  0.00    -0.353 N 
ATOM     19  H   UNL A   1      30.087  28.415  24.615  1.00  0.00     0.163 HD
BRANCH  18  20
ATOM     20  C   UNL A   1      30.937  29.126  22.812  1.00  0.00     0.147 C 
BRANCH  20  21
ATOM     21  C   UNL A   1      29.581  29.684  22.359  1.00  0.00     0.137 C 
ATOM     22  C   UNL A   1      29.152  30.963  23.064  1.00  0.00     0.036 C 
ATOM     23  O   UNL A   1      28.524  28.727  22.567  1.00  0.00    -0.376 OA
ATOM     24  C   UNL A   1      27.649  30.886  22.957  1.00  0.00     0.031 C 
ATOM     25  C   UNL A   1      27.399  29.405  23.139  1.00  0.00     0.160 C 
ENDBRANCH  20  21
ENDBRANCH  18  20
ENDBRANCH  15  16
ENDBRANCH  14  15
ENDBRANCH   9  14
ENDBRANCH   6   8
ENDBRANCH   5   6
ENDBRANCH   4   5
ENDBRANCH   3   4
ENDBRANCH   2   3
ENDBRANCH   1   2
BRANCH   1  26
ATOM     26  C   UNL A   1      41.170  19.824  26.517  1.00  0.00     0.188 C 
BRANCH  26  27
ATOM     27  O   UNL A   1      41.926  19.256  25.458  1.00  0.00    -0.377 OA
BRANCH  27  28
ATOM     28  C   UNL A   1      43.208  18.695  25.747  1.00  0.00     0.188 C 
BRANCH  28  29
ATOM     29  C   UNL A   1      44.457  18.925  24.860  1.00  0.00     0.188 C 
BRANCH  29  30
ATOM     30  O   UNL A   1      45.339  19.937  25.317  1.00  0.00    -0.376 OA
BRANCH  30  31
ATOM     31  C   UNL A   1      45.097  21.274  24.919  1.00  0.00     0.202 C 
BRANCH  31  32
ATOM     32  C   UNL A   1      44.578  22.233  25.998  1.00  0.00     0.261 C 
BRANCH  32  33
ATOM     33  O   UNL A   1      43.262  22.761  25.785  1.00  0.00    -0.460 OA
BRANCH  33  34
ATOM     34  C   UNL A   1      43.163  24.046  25.387  1.00  0.00     0.338 C 
ATOM     35  O   UNL A   1      43.118  24.466  24.243  1.00  0.00    -0.246 OA
BRANCH  34  36
ATOM     36  C   UNL A   1      42.932  24.866  26.594  1.00  0.00     0.060 A 
ATOM     37  C   UNL A   1      42.005  24.430  27.550  1.00  0.00     0.016 A 
ATOM     38  C   UNL A   1      43.639  26.056  26.784  1.00  0.00     0.016 A 
ATOM     39  C   UNL A   1      41.756  25.207  28.683  1.00  0.00     0.010 A 
ATOM     40  C   UNL A   1      43.374  26.840  27.908  1.00  0.00     0.010 A 
ATOM     41  C   UNL A   1      42.406  26.438  28.845  1.00  0.00    -0.014 A 
BRANCH  41  42
ATOM     42  C   UNL A   1      41.932  27.393  29.875  1.00  0.00     0.031 A 
ATOM     43  C   UNL A   1      42.623  27.397  31.213  1.00  0.00     0.074 A 
ATOM     44  C   UNL A   1      40.926  28.251  29.633  1.00  0.00     0.049 A 
ATOM     45  N   UNL A   1      42.361  28.099  32.284  1.00  0.00    -0.248 NA
ATOM     46  C   UNL A   1      43.763  26.477  31.359  1.00  0.00     0.031 C 
ATOM     47  C   UNL A   1      40.203  28.374  28.370  1.00  0.00     0.029 A 
ATOM     48  N   UNL A   1      40.333  29.179  30.454  1.00  0.00    -0.354 N 
ATOM     49  C   UNL A   1      43.297  27.701  33.232  1.00  0.00     0.074 A 
ATOM     50  C   UNL A   1      44.108  26.673  32.622  1.00  0.00     0.031 C 
ATOM     51  C   UNL A   1      39.253  29.318  28.503  1.00  0.00     0.029 A 
ATOM     52  C   UNL A   1      39.280  29.838  29.870  1.00  0.00     0.049 A 
ATOM     53  H   UNL A   1      40.634  29.355  31.375  1.00  0.00     0.167 HD
ATOM     54  C   UNL A   1      43.470  28.159  34.494  1.00  0.00     0.037 A 
ATOM     55  C   UNL A   1      38.423  30.740  30.389  1.00  0.00     0.037 A 
ATOM     56  C   UNL A   1      42.657  29.180  35.101  1.00  0.00     0.049 A 
ATOM     57  C   UNL A   1      38.583  31.174  31.824  1.00  0.00     0.074 A 
ATOM     58  C   UNL A   1      42.764  29.725  36.367  1.00  0.00     0.029 A 
ATOM     59  N   UNL A   1      41.579  29.799  34.487  1.00  0.00    -0.354 N 
ATOM     60  N   UNL A   1      39.488  30.816  32.703  1.00  0.00    -0.248 NA
ATOM     61  C   UNL A   1      37.601  32.140  32.340  1.00  0.00     0.031 C 
ATOM     62  C   UNL A   1      41.712  30.631  36.543  1.00  0.00     0.029 A 
ATOM     63  C   UNL A   1      40.992  30.699  35.361  1.00  0.00     0.049 A 
ATOM     64  H   UNL A   1      41.276  29.625  33.566  1.00  0.00     0.167 HD
ATOM     65  C   UNL A   1      39.207  31.537  33.859  1.00  0.00     0.074 A 
ATOM     66  C   UNL A   1      38.053  32.360  33.567  1.00  0.00     0.031 C 
ATOM     67  C   UNL A   1      39.848  31.521  35.054  1.00  0.00     0.037 A 
BRANCH  54  68
ATOM     68  C   UNL A   1      44.563  27.534  35.312  1.00  0.00     0.057 A 
ATOM     69  C   UNL A   1      45.847  28.091  35.390  1.00  0.00     0.134 A 
ATOM     70  C   UNL A   1      44.320  26.370  36.052  1.00  0.00     0.134 A 
ATOM     71  F   UNL A   1      46.151  29.198  34.694  1.00  0.00    -0.206 F 
ATOM     72  C   UNL A   1      46.855  27.498  36.152  1.00  0.00     0.040 A 
ATOM     73  C   UNL A   1      45.311  25.785  36.842  1.00  0.00     0.040 A 
ATOM     74  F   UNL A   1      43.112  25.786  36.027  1.00  0.00    -0.206 F 
ATOM     75  C   UNL A   1      46.586  26.346  36.887  1.00  0.00     0.006 A 
ENDBRANCH  54  68
BRANCH  55  76
ATOM     76  C   UNL A   1      37.320  31.287  29.557  1.00  0.00     0.057 A 
ATOM     77  C   UNL A   1      36.162  30.543  29.302  1.00  0.00     0.134 A 
ATOM     78  C   UNL A   1      37.410  32.555  28.967  1.00  0.00     0.134 A 
ATOM     79  F   UNL A   1      36.025  29.311  29.815  1.00  0.00    -0.206 F 
ATOM     80  C   UNL A   1      35.145  31.028  28.477  1.00  0.00     0.040 A 
ATOM     81  C   UNL A   1      36.388  33.065  28.164  1.00  0.00     0.040 A 
ATOM     82  F   UNL A   1      38.493  33.320  29.168  1.00  0.00    -0.206 F 
ATOM     83  C   UNL A   1      35.255  32.295  27.910  1.00  0.00     0.006 A 
ENDBRANCH  55  76
BRANCH  67  84
ATOM     84  C   UNL A   1      39.350  32.451  36.125  1.00  0.00     0.057 A 
ATOM     85  C   UNL A   1      39.840  33.755  36.266  1.00  0.00     0.134 A 
ATOM     86  C   UNL A   1      38.327  32.049  36.995  1.00  0.00     0.134 A 
ATOM     87  F   UNL A   1      40.826  34.201  35.473  1.00  0.00    -0.206 F 
ATOM     88  C   UNL A   1      39.345  34.618  37.245  1.00  0.00     0.040 A 
ATOM     89  C   UNL A   1      37.803  32.913  37.956  1.00  0.00     0.040 A 
ATOM     90  F   UNL A   1      37.804  30.816  36.908  1.00  0.00    -0.206 F 
ATOM     91  C   UNL A   1      38.317  34.200  38.088  1.00  0.00     0.006 A 
ENDBRANCH  67  84
ENDBRANCH  41  42
ENDBRANCH  34  36
ENDBRANCH  33  34
ENDBRANCH  32  33
ENDBRANCH  31  32
ENDBRANCH  30  31
ENDBRANCH  29  30
ENDBRANCH  28  29
ENDBRANCH  27  28
ENDBRANCH  26  27
ENDBRANCH   1  26
TORSDOF 25
ENDMDL
