MODEL 1
REMARK VINA RESULT:      -9.0      0.000      0.000
REMARK SMILES CC(C)CSc1cc2c(cc1Cl)C=C(C(=O)OCCOCCOCCOCCOC(=O)c1ccc(-c3c4nc(c(-c5c(F)cccc5F)c5ccc([nH]5)c(-c5c(F)cccc5F)c5nc(c(-c6c(F)cccc6F)c6ccc3[nH]6)C=C5)C=C4)cc1)[C@H](C(F)(F)F)O2
REMARK SMILES IDX 22 1 21 2 20 3 19 4 18 5 17 6 15 7 16 8 14 9 6 10 7 11 11 12
REMARK SMILES IDX 8 13 10 14 12 15 9 16 91 17 13 18 86 19 5 20 4 21 2 22 1 23
REMARK SMILES IDX 3 24 87 25 88 26 89 27 90 28 23 29 24 30 25 31 26 32 27 33
REMARK SMILES IDX 28 34 29 35 30 36 31 37 32 38 33 39 85 40 34 41 84 42 35 43
REMARK SMILES IDX 36 44 37 45 78 46 38 47 83 48 77 49 79 50 39 51 82 52 76 53
REMARK SMILES IDX 75 54 40 56 66 57 49 58 65 59 50 60 53 61 64 62 80 63 51 64
REMARK SMILES IDX 52 65 63 67 81 68 54 69 41 70 42 71 47 72 43 73 44 74 46 75
REMARK SMILES IDX 48 76 45 77 67 78 68 79 73 80 69 81 70 82 72 83 74 84 71 85
REMARK SMILES IDX 55 86 56 87 61 88 57 89 58 90 60 91 62 92 59 93
REMARK H PARENT 79 55 53 66
REMARK Flexibility Score: inf
ROOT
ATOM      1  C   UNL A   1      38.676  28.395  28.707  1.00  0.00     0.188 C 
ENDROOT
BRANCH   1   2
ATOM      2  C   UNL A   1      38.178  29.842  28.773  1.00  0.00     0.188 C 
BRANCH   2   3
ATOM      3  O   UNL A   1      36.783  30.057  28.868  1.00  0.00    -0.376 OA
BRANCH   3   4
ATOM      4  C   UNL A   1      35.925  29.681  27.796  1.00  0.00     0.202 C 
BRANCH   4   5
ATOM      5  C   UNL A   1      34.488  30.211  27.654  1.00  0.00     0.261 C 
BRANCH   5   6
ATOM      6  O   UNL A   1      33.978  30.252  26.309  1.00  0.00    -0.460 OA
BRANCH   6   7
ATOM      7  C   UNL A   1      32.710  29.809  26.160  1.00  0.00     0.338 C 
ATOM      8  O   UNL A   1      31.692  30.461  26.341  1.00  0.00    -0.246 OA
BRANCH   7   9
ATOM      9  C   UNL A   1      32.660  28.440  25.623  1.00  0.00     0.087 C 
ATOM     10  C   UNL A   1      32.365  23.427  25.847  1.00  0.00     0.030 A 
ATOM     11  C   UNL A   1      33.329  24.340  25.388  1.00  0.00     0.063 A 
ATOM     12  C   UNL A   1      31.173  23.931  26.400  1.00  0.00     0.055 A 
ATOM     13  C   UNL A   1      33.096  25.717  25.441  1.00  0.00     0.129 A 
ATOM     14  C   UNL A   1      30.945  25.310  26.464  1.00  0.00     0.033 A 
ATOM     15  Cl  UNL A   1      29.928  22.906  27.035  1.00  0.00    -0.083 Cl
ATOM     16  C   UNL A   1      31.907  26.204  25.986  1.00  0.00     0.019 A 
ATOM     17  O   UNL A   1      34.112  26.532  25.011  1.00  0.00    -0.475 OA
ATOM     18  C   UNL A   1      31.751  27.633  26.188  1.00  0.00     0.027 C 
ATOM     19  C   UNL A   1      33.794  27.940  24.778  1.00  0.00     0.316 C 
BRANCH  10  20
ATOM     20  S   UNL A   1      32.691  21.664  25.776  1.00  0.00    -0.124 SA
BRANCH  20  21
ATOM     21  C   UNL A   1      34.416  21.535  26.371  1.00  0.00     0.078 C 
BRANCH  21  22
ATOM     22  C   UNL A   1      35.391  20.802  25.432  1.00  0.00    -0.007 C 
ATOM     23  C   UNL A   1      34.765  19.613  24.699  1.00  0.00     0.008 C 
ATOM     24  C   UNL A   1      35.920  21.799  24.394  1.00  0.00     0.008 C 
ENDBRANCH  21  22
ENDBRANCH  20  21
ENDBRANCH  10  20
BRANCH  19  25
ATOM     25  C   UNL A   1      33.656  28.185  23.264  1.00  0.00     0.430 C 
ATOM     26  F   UNL A   1      33.648  27.034  22.553  1.00  0.00    -0.167 F 
ATOM     27  F   UNL A   1      32.546  28.877  22.937  1.00  0.00    -0.167 F 
ATOM     28  F   UNL A   1      34.705  28.922  22.817  1.00  0.00    -0.167 F 
ENDBRANCH  19  25
ENDBRANCH   7   9
ENDBRANCH   6   7
ENDBRANCH   5   6
ENDBRANCH   4   5
ENDBRANCH   3   4
ENDBRANCH   2   3
ENDBRANCH   1   2
BRANCH   1  29
ATOM     29  O   UNL A   1      39.739  28.121  27.811  1.00  0.00    -0.377 OA
BRANCH  29  30
ATOM     30  C   UNL A   1      40.216  26.782  27.679  1.00  0.00     0.188 C 
BRANCH  30  31
ATOM     31  C   UNL A   1      39.255  25.611  27.929  1.00  0.00     0.188 C 
BRANCH  31  32
ATOM     32  O   UNL A   1      38.743  24.901  26.798  1.00  0.00    -0.376 OA
BRANCH  32  33
ATOM     33  C   UNL A   1      38.860  23.481  26.763  1.00  0.00     0.202 C 
BRANCH  33  34
ATOM     34  C   UNL A   1      40.207  22.949  27.236  1.00  0.00     0.261 C 
BRANCH  34  35
ATOM     35  O   UNL A   1      41.252  23.330  26.332  1.00  0.00    -0.460 OA
BRANCH  35  36
ATOM     36  C   UNL A   1      42.516  23.119  26.774  1.00  0.00     0.338 C 
ATOM     37  O   UNL A   1      43.035  22.064  27.070  1.00  0.00    -0.246 OA
BRANCH  36  38
ATOM     38  C   UNL A   1      43.244  24.401  26.705  1.00  0.00     0.060 A 
ATOM     39  C   UNL A   1      43.670  25.044  27.869  1.00  0.00     0.016 A 
ATOM     40  C   UNL A   1      43.531  24.940  25.445  1.00  0.00     0.016 A 
ATOM     41  C   UNL A   1      44.422  26.212  27.769  1.00  0.00     0.010 A 
ATOM     42  C   UNL A   1      44.291  26.105  25.345  1.00  0.00     0.010 A 
ATOM     43  C   UNL A   1      44.766  26.729  26.508  1.00  0.00    -0.014 A 
BRANCH  43  44
ATOM     44  C   UNL A   1      45.767  27.814  26.425  1.00  0.00     0.031 A 
ATOM     45  C   UNL A   1      45.384  29.252  26.576  1.00  0.00     0.074 A 
ATOM     46  C   UNL A   1      47.051  27.465  26.219  1.00  0.00     0.049 A 
ATOM     47  N   UNL A   1      46.160  30.304  26.632  1.00  0.00    -0.248 NA
ATOM     48  C   UNL A   1      43.949  29.549  26.672  1.00  0.00     0.031 C 
ATOM     49  C   UNL A   1      47.525  26.092  26.024  1.00  0.00     0.029 A 
ATOM     50  N   UNL A   1      48.189  28.224  26.156  1.00  0.00    -0.354 N 
ATOM     51  C   UNL A   1      45.312  31.390  26.796  1.00  0.00     0.074 A 
ATOM     52  C   UNL A   1      43.958  30.872  26.772  1.00  0.00     0.031 C 
ATOM     53  C   UNL A   1      48.860  26.103  25.904  1.00  0.00     0.029 A 
ATOM     54  C   UNL A   1      49.331  27.482  25.976  1.00  0.00     0.049 A 
ATOM     55  H   UNL A   1      48.189  29.205  26.232  1.00  0.00     0.167 HD
ATOM     56  C   UNL A   1      45.640  32.695  26.966  1.00  0.00     0.037 A 
ATOM     57  C   UNL A   1      50.615  27.872  25.884  1.00  0.00     0.037 A 
ATOM     58  C   UNL A   1      46.991  33.199  26.950  1.00  0.00     0.049 A 
ATOM     59  C   UNL A   1      50.940  29.333  26.010  1.00  0.00     0.074 A 
ATOM     60  C   UNL A   1      47.431  34.499  27.134  1.00  0.00     0.029 A 
ATOM     61  N   UNL A   1      48.123  32.429  26.715  1.00  0.00    -0.354 N 
ATOM     62  N   UNL A   1      50.137  30.343  26.244  1.00  0.00    -0.248 NA
ATOM     63  C   UNL A   1      52.352  29.707  25.863  1.00  0.00     0.031 C 
ATOM     64  C   UNL A   1      48.818  34.525  26.949  1.00  0.00     0.029 A 
ATOM     65  C   UNL A   1      49.253  33.230  26.717  1.00  0.00     0.049 A 
ATOM     66  H   UNL A   1      48.121  31.455  26.569  1.00  0.00     0.167 HD
ATOM     67  C   UNL A   1      50.949  31.467  26.305  1.00  0.00     0.074 A 
ATOM     68  C   UNL A   1      52.309  31.010  26.102  1.00  0.00     0.031 C 
ATOM     69  C   UNL A   1      50.602  32.761  26.512  1.00  0.00     0.037 A 
BRANCH  56  70
ATOM     70  C   UNL A   1      44.514  33.668  27.170  1.00  0.00     0.057 A 
ATOM     71  C   UNL A   1      44.014  33.933  28.451  1.00  0.00     0.134 A 
ATOM     72  C   UNL A   1      43.900  34.322  26.092  1.00  0.00     0.134 A 
ATOM     73  F   UNL A   1      44.546  33.335  29.527  1.00  0.00    -0.206 F 
ATOM     74  C   UNL A   1      42.950  34.814  28.653  1.00  0.00     0.040 A 
ATOM     75  C   UNL A   1      42.854  35.227  26.285  1.00  0.00     0.040 A 
ATOM     76  F   UNL A   1      44.332  34.118  24.838  1.00  0.00    -0.206 F 
ATOM     77  C   UNL A   1      42.373  35.471  27.569  1.00  0.00     0.006 A 
ENDBRANCH  56  70
BRANCH  57  78
ATOM     78  C   UNL A   1      51.688  26.869  25.675  1.00  0.00     0.057 A 
ATOM     79  C   UNL A   1      52.138  26.539  24.391  1.00  0.00     0.134 A 
ATOM     80  C   UNL A   1      52.309  26.235  26.757  1.00  0.00     0.134 A 
ATOM     81  F   UNL A   1      51.575  27.101  23.310  1.00  0.00    -0.206 F 
ATOM     82  C   UNL A   1      53.169  25.621  24.190  1.00  0.00     0.040 A 
ATOM     83  C   UNL A   1      53.363  25.338  26.573  1.00  0.00     0.040 A 
ATOM     84  F   UNL A   1      51.932  26.519  28.013  1.00  0.00    -0.206 F 
ATOM     85  C   UNL A   1      53.793  25.027  25.285  1.00  0.00     0.006 A 
ENDBRANCH  57  78
BRANCH  69  86
ATOM     86  C   UNL A   1      51.720  33.765  26.569  1.00  0.00     0.057 A 
ATOM     87  C   UNL A   1      52.141  34.427  25.409  1.00  0.00     0.134 A 
ATOM     88  C   UNL A   1      52.386  34.071  27.764  1.00  0.00     0.134 A 
ATOM     89  F   UNL A   1      51.550  34.177  24.230  1.00  0.00    -0.206 F 
ATOM     90  C   UNL A   1      53.181  35.355  25.432  1.00  0.00     0.040 A 
ATOM     91  C   UNL A   1      53.407  35.023  27.806  1.00  0.00     0.040 A 
ATOM     92  F   UNL A   1      52.024  33.486  28.915  1.00  0.00    -0.206 F 
ATOM     93  C   UNL A   1      53.811  35.662  26.636  1.00  0.00     0.006 A 
ENDBRANCH  69  86
ENDBRANCH  43  44
ENDBRANCH  36  38
ENDBRANCH  35  36
ENDBRANCH  34  35
ENDBRANCH  33  34
ENDBRANCH  32  33
ENDBRANCH  31  32
ENDBRANCH  30  31
ENDBRANCH  29  30
ENDBRANCH   1  29
TORSDOF 24
ENDMDL
MODEL 2
REMARK VINA RESULT:      -8.9      0.516      5.908
REMARK SMILES CC(C)CSc1cc2c(cc1Cl)C=C(C(=O)OCCOCCOCCOCCOC(=O)c1ccc(-c3c4nc(c(-c5c(F)cccc5F)c5ccc([nH]5)c(-c5c(F)cccc5F)c5nc(c(-c6c(F)cccc6F)c6ccc3[nH]6)C=C5)C=C4)cc1)[C@H](C(F)(F)F)O2
REMARK SMILES IDX 22 1 21 2 20 3 19 4 18 5 17 6 15 7 16 8 14 9 6 10 7 11 11 12
REMARK SMILES IDX 8 13 10 14 12 15 9 16 91 17 13 18 86 19 5 20 4 21 2 22 1 23
REMARK SMILES IDX 3 24 87 25 88 26 89 27 90 28 23 29 24 30 25 31 26 32 27 33
REMARK SMILES IDX 28 34 29 35 30 36 31 37 32 38 33 39 85 40 34 41 84 42 35 43
REMARK SMILES IDX 36 44 37 45 78 46 38 47 83 48 77 49 79 50 39 51 82 52 76 53
REMARK SMILES IDX 75 54 40 56 66 57 49 58 65 59 50 60 53 61 64 62 80 63 51 64
REMARK SMILES IDX 52 65 63 67 81 68 54 69 41 70 42 71 47 72 43 73 44 74 46 75
REMARK SMILES IDX 48 76 45 77 67 78 68 79 73 80 69 81 70 82 72 83 74 84 71 85
REMARK SMILES IDX 55 86 56 87 61 88 57 89 58 90 60 91 62 92 59 93
REMARK H PARENT 79 55 53 66
REMARK Flexibility Score: inf
ROOT
ATOM      1  C   UNL A   1      38.776  28.543  28.379  1.00  0.00     0.188 C 
ENDROOT
BRANCH   1   2
ATOM      2  C   UNL A   1      38.427  30.014  28.626  1.00  0.00     0.188 C 
BRANCH   2   3
ATOM      3  O   UNL A   1      37.080  30.411  28.462  1.00  0.00    -0.376 OA
BRANCH   3   4
ATOM      4  C   UNL A   1      36.212  29.670  27.610  1.00  0.00     0.202 C 
BRANCH   4   5
ATOM      5  C   UNL A   1      34.679  29.792  27.674  1.00  0.00     0.261 C 
BRANCH   5   6
ATOM      6  O   UNL A   1      34.040  30.146  26.434  1.00  0.00    -0.460 OA
BRANCH   6   7
ATOM      7  C   UNL A   1      32.761  29.729  26.307  1.00  0.00     0.338 C 
ATOM      8  O   UNL A   1      31.761  30.368  26.603  1.00  0.00    -0.246 OA
BRANCH   7   9
ATOM      9  C   UNL A   1      32.666  28.421  25.642  1.00  0.00     0.087 C 
ATOM     10  C   UNL A   1      32.486  23.404  25.380  1.00  0.00     0.030 A 
ATOM     11  C   UNL A   1      33.369  24.387  24.902  1.00  0.00     0.063 A 
ATOM     12  C   UNL A   1      31.364  23.814  26.125  1.00  0.00     0.055 A 
ATOM     13  C   UNL A   1      33.121  25.744  25.126  1.00  0.00     0.129 A 
ATOM     14  C   UNL A   1      31.124  25.172  26.359  1.00  0.00     0.033 A 
ATOM     15  Cl  UNL A   1      30.226  22.694  26.800  1.00  0.00    -0.083 Cl
ATOM     16  C   UNL A   1      32.002  26.138  25.862  1.00  0.00     0.019 A 
ATOM     17  O   UNL A   1      34.061  26.628  24.661  1.00  0.00    -0.475 OA
ATOM     18  C   UNL A   1      31.849  27.535  26.228  1.00  0.00     0.027 C 
ATOM     19  C   UNL A   1      33.692  28.042  24.615  1.00  0.00     0.316 C 
BRANCH  10  20
ATOM     20  S   UNL A   1      32.829  21.668  25.087  1.00  0.00    -0.124 SA
BRANCH  20  21
ATOM     21  C   UNL A   1      34.279  21.344  26.155  1.00  0.00     0.078 C 
BRANCH  21  22
ATOM     22  C   UNL A   1      35.601  21.069  25.417  1.00  0.00    -0.007 C 
ATOM     23  C   UNL A   1      35.743  19.629  24.920  1.00  0.00     0.008 C 
ATOM     24  C   UNL A   1      35.704  22.018  24.217  1.00  0.00     0.008 C 
ENDBRANCH  21  22
ENDBRANCH  20  21
ENDBRANCH  10  20
BRANCH  19  25
ATOM     25  C   UNL A   1      33.361  28.434  23.164  1.00  0.00     0.430 C 
ATOM     26  F   UNL A   1      32.037  28.359  22.898  1.00  0.00    -0.167 F 
ATOM     27  F   UNL A   1      33.775  29.675  22.841  1.00  0.00    -0.167 F 
ATOM     28  F   UNL A   1      33.989  27.591  22.303  1.00  0.00    -0.167 F 
ENDBRANCH  19  25
ENDBRANCH   7   9
ENDBRANCH   6   7
ENDBRANCH   5   6
ENDBRANCH   4   5
ENDBRANCH   3   4
ENDBRANCH   2   3
ENDBRANCH   1   2
BRANCH   1  29
ATOM     29  O   UNL A   1      39.808  28.275  27.446  1.00  0.00    -0.377 OA
BRANCH  29  30
ATOM     30  C   UNL A   1      40.265  26.933  27.275  1.00  0.00     0.188 C 
BRANCH  30  31
ATOM     31  C   UNL A   1      39.892  25.870  28.319  1.00  0.00     0.188 C 
BRANCH  31  32
ATOM     32  O   UNL A   1      38.907  24.895  27.971  1.00  0.00    -0.376 OA
BRANCH  32  33
ATOM     33  C   UNL A   1      39.229  23.903  27.000  1.00  0.00     0.202 C 
BRANCH  33  34
ATOM     34  C   UNL A   1      40.541  23.172  27.258  1.00  0.00     0.261 C 
BRANCH  34  35
ATOM     35  O   UNL A   1      41.443  23.337  26.157  1.00  0.00    -0.460 OA
BRANCH  35  36
ATOM     36  C   UNL A   1      42.741  23.048  26.414  1.00  0.00     0.338 C 
ATOM     37  O   UNL A   1      43.266  21.956  26.463  1.00  0.00    -0.246 OA
BRANCH  36  38
ATOM     38  C   UNL A   1      43.486  24.321  26.489  1.00  0.00     0.060 A 
ATOM     39  C   UNL A   1      43.894  24.837  27.721  1.00  0.00     0.016 A 
ATOM     40  C   UNL A   1      43.807  24.979  25.296  1.00  0.00     0.016 A 
ATOM     41  C   UNL A   1      44.661  25.999  27.754  1.00  0.00     0.010 A 
ATOM     42  C   UNL A   1      44.583  26.137  25.330  1.00  0.00     0.010 A 
ATOM     43  C   UNL A   1      45.039  26.635  26.560  1.00  0.00    -0.014 A 
BRANCH  43  44
ATOM     44  C   UNL A   1      46.055  27.709  26.607  1.00  0.00     0.031 A 
ATOM     45  C   UNL A   1      47.518  27.415  26.521  1.00  0.00     0.074 A 
ATOM     46  C   UNL A   1      45.616  28.977  26.717  1.00  0.00     0.049 A 
ATOM     47  N   UNL A   1      48.519  28.254  26.443  1.00  0.00    -0.248 NA
ATOM     48  C   UNL A   1      47.911  25.999  26.529  1.00  0.00     0.031 C 
ATOM     49  C   UNL A   1      44.210  29.370  26.842  1.00  0.00     0.029 A 
ATOM     50  N   UNL A   1      46.297  30.166  26.726  1.00  0.00    -0.354 N 
ATOM     51  C   UNL A   1      49.663  27.472  26.366  1.00  0.00     0.074 A 
ATOM     52  C   UNL A   1      49.233  26.091  26.466  1.00  0.00     0.031 C 
ATOM     53  C   UNL A   1      44.130  30.708  26.873  1.00  0.00     0.029 A 
ATOM     54  C   UNL A   1      45.476  31.264  26.808  1.00  0.00     0.049 A 
ATOM     55  H   UNL A   1      47.278  30.227  26.677  1.00  0.00     0.167 HD
ATOM     56  C   UNL A   1      50.948  27.875  26.211  1.00  0.00     0.037 A 
ATOM     57  C   UNL A   1      45.779  32.575  26.825  1.00  0.00     0.037 A 
ATOM     58  C   UNL A   1      51.363  29.256  26.151  1.00  0.00     0.049 A 
ATOM     59  C   UNL A   1      47.219  32.988  26.719  1.00  0.00     0.074 A 
ATOM     60  C   UNL A   1      52.636  29.769  25.975  1.00  0.00     0.029 A 
ATOM     61  N   UNL A   1      50.513  30.345  26.289  1.00  0.00    -0.354 N 
ATOM     62  N   UNL A   1      48.287  32.241  26.567  1.00  0.00    -0.248 NA
ATOM     63  C   UNL A   1      47.496  34.429  26.781  1.00  0.00     0.031 C 
ATOM     64  C   UNL A   1      52.566  31.164  26.068  1.00  0.00     0.029 A 
ATOM     65  C   UNL A   1      51.238  31.525  26.234  1.00  0.00     0.049 A 
ATOM     66  H   UNL A   1      49.537  30.288  26.407  1.00  0.00     0.167 HD
ATOM     67  C   UNL A   1      49.357  33.122  26.483  1.00  0.00     0.074 A 
ATOM     68  C   UNL A   1      48.805  34.458  26.583  1.00  0.00     0.031 C 
ATOM     69  C   UNL A   1      50.677  32.850  26.336  1.00  0.00     0.037 A 
BRANCH  56  70
ATOM     70  C   UNL A   1      51.998  26.806  26.109  1.00  0.00     0.057 A 
ATOM     71  C   UNL A   1      52.722  26.398  27.236  1.00  0.00     0.134 A 
ATOM     72  C   UNL A   1      52.316  26.198  24.886  1.00  0.00     0.134 A 
ATOM     73  F   UNL A   1      52.479  26.945  28.437  1.00  0.00    -0.206 F 
ATOM     74  C   UNL A   1      53.719  25.424  27.153  1.00  0.00     0.040 A 
ATOM     75  C   UNL A   1      53.291  25.202  24.795  1.00  0.00     0.040 A 
ATOM     76  F   UNL A   1      51.657  26.536  23.767  1.00  0.00    -0.206 F 
ATOM     77  C   UNL A   1      54.000  24.817  25.931  1.00  0.00     0.006 A 
ENDBRANCH  56  70
BRANCH  57  78
ATOM     78  C   UNL A   1      44.702  33.590  26.935  1.00  0.00     0.057 A 
ATOM     79  C   UNL A   1      44.334  34.132  28.172  1.00  0.00     0.134 A 
ATOM     80  C   UNL A   1      44.033  34.062  25.799  1.00  0.00     0.134 A 
ATOM     81  F   UNL A   1      44.928  33.713  29.299  1.00  0.00    -0.206 F 
ATOM     82  C   UNL A   1      43.345  35.110  28.277  1.00  0.00     0.040 A 
ATOM     83  C   UNL A   1      43.063  35.062  25.886  1.00  0.00     0.040 A 
ATOM     84  F   UNL A   1      44.349  33.590  24.584  1.00  0.00    -0.206 F 
ATOM     85  C   UNL A   1      42.715  35.587  27.129  1.00  0.00     0.006 A 
ENDBRANCH  57  78
BRANCH  69  86
ATOM     86  C   UNL A   1      51.607  34.026  26.233  1.00  0.00     0.057 A 
ATOM     87  C   UNL A   1      52.202  34.564  27.380  1.00  0.00     0.134 A 
ATOM     88  C   UNL A   1      51.907  34.633  25.006  1.00  0.00     0.134 A 
ATOM     89  F   UNL A   1      51.954  34.035  28.589  1.00  0.00    -0.206 F 
ATOM     90  C   UNL A   1      53.061  35.660  27.313  1.00  0.00     0.040 A 
ATOM     91  C   UNL A   1      52.791  35.711  24.922  1.00  0.00     0.040 A 
ATOM     92  F   UNL A   1      51.384  34.159  23.865  1.00  0.00    -0.206 F 
ATOM     93  C   UNL A   1      53.365  36.231  26.080  1.00  0.00     0.006 A 
ENDBRANCH  69  86
ENDBRANCH  43  44
ENDBRANCH  36  38
ENDBRANCH  35  36
ENDBRANCH  34  35
ENDBRANCH  33  34
ENDBRANCH  32  33
ENDBRANCH  31  32
ENDBRANCH  30  31
ENDBRANCH  29  30
ENDBRANCH   1  29
TORSDOF 24
ENDMDL
MODEL 3
REMARK VINA RESULT:      -8.7      3.888      7.894
REMARK SMILES CC(C)CSc1cc2c(cc1Cl)C=C(C(=O)OCCOCCOCCOCCOC(=O)c1ccc(-c3c4nc(c(-c5c(F)cccc5F)c5ccc([nH]5)c(-c5c(F)cccc5F)c5nc(c(-c6c(F)cccc6F)c6ccc3[nH]6)C=C5)C=C4)cc1)[C@H](C(F)(F)F)O2
REMARK SMILES IDX 22 1 21 2 20 3 19 4 18 5 17 6 15 7 16 8 14 9 6 10 7 11 11 12
REMARK SMILES IDX 8 13 10 14 12 15 9 16 91 17 13 18 86 19 5 20 4 21 2 22 1 23
REMARK SMILES IDX 3 24 87 25 88 26 89 27 90 28 23 29 24 30 25 31 26 32 27 33
REMARK SMILES IDX 28 34 29 35 30 36 31 37 32 38 33 39 85 40 34 41 84 42 35 43
REMARK SMILES IDX 36 44 37 45 78 46 38 47 83 48 77 49 79 50 39 51 82 52 76 53
REMARK SMILES IDX 75 54 40 56 66 57 49 58 65 59 50 60 53 61 64 62 80 63 51 64
REMARK SMILES IDX 52 65 63 67 81 68 54 69 41 70 42 71 47 72 43 73 44 74 46 75
REMARK SMILES IDX 48 76 45 77 67 78 68 79 73 80 69 81 70 82 72 83 74 84 71 85
REMARK SMILES IDX 55 86 56 87 61 88 57 89 58 90 60 91 62 92 59 93
REMARK H PARENT 79 55 53 66
REMARK Flexibility Score: inf
ROOT
ATOM      1  C   UNL A   1      34.900  34.061  29.438  1.00  0.00     0.188 C 
ENDROOT
BRANCH   1   2
ATOM      2  C   UNL A   1      34.304  34.008  28.028  1.00  0.00     0.188 C 
BRANCH   2   3
ATOM      3  O   UNL A   1      33.632  32.825  27.639  1.00  0.00    -0.376 OA
BRANCH   3   4
ATOM      4  C   UNL A   1      34.100  31.555  28.083  1.00  0.00     0.202 C 
BRANCH   4   5
ATOM      5  C   UNL A   1      33.865  30.258  27.289  1.00  0.00     0.261 C 
BRANCH   5   6
ATOM      6  O   UNL A   1      33.272  30.432  25.989  1.00  0.00    -0.460 OA
BRANCH   6   7
ATOM      7  C   UNL A   1      31.929  30.288  25.946  1.00  0.00     0.338 C 
ATOM      8  O   UNL A   1      31.103  31.119  26.296  1.00  0.00    -0.246 OA
BRANCH   7   9
ATOM      9  C   UNL A   1      31.527  29.029  25.302  1.00  0.00     0.087 C 
ATOM     10  C   UNL A   1      31.757  24.111  24.287  1.00  0.00     0.030 A 
ATOM     11  C   UNL A   1      31.912  25.284  23.530  1.00  0.00     0.063 A 
ATOM     12  C   UNL A   1      31.482  24.231  25.662  1.00  0.00     0.055 A 
ATOM     13  C   UNL A   1      31.756  26.543  24.117  1.00  0.00     0.129 A 
ATOM     14  C   UNL A   1      31.339  25.492  26.252  1.00  0.00     0.033 A 
ATOM     15  Cl  UNL A   1      31.310  22.859  26.707  1.00  0.00    -0.083 Cl
ATOM     16  C   UNL A   1      31.477  26.648  25.480  1.00  0.00     0.019 A 
ATOM     17  O   UNL A   1      31.970  27.631  23.309  1.00  0.00    -0.475 OA
ATOM     18  C   UNL A   1      31.485  27.958  26.107  1.00  0.00     0.027 C 
ATOM     19  C   UNL A   1      31.531  28.935  23.805  1.00  0.00     0.316 C 
BRANCH  10  20
ATOM     20  S   UNL A   1      31.970  22.506  23.514  1.00  0.00    -0.124 SA
BRANCH  20  21
ATOM     21  C   UNL A   1      33.650  22.008  24.041  1.00  0.00     0.078 C 
BRANCH  21  22
ATOM     22  C   UNL A   1      33.720  20.778  24.964  1.00  0.00    -0.007 C 
ATOM     23  C   UNL A   1      32.706  19.687  24.615  1.00  0.00     0.008 C 
ATOM     24  C   UNL A   1      35.131  20.185  24.890  1.00  0.00     0.008 C 
ENDBRANCH  21  22
ENDBRANCH  20  21
ENDBRANCH  10  20
BRANCH  19  25
ATOM     25  C   UNL A   1      30.216  29.327  23.108  1.00  0.00     0.430 C 
ATOM     26  F   UNL A   1      30.365  29.480  21.772  1.00  0.00    -0.167 F 
ATOM     27  F   UNL A   1      29.222  28.438  23.311  1.00  0.00    -0.167 F 
ATOM     28  F   UNL A   1      29.768  30.512  23.597  1.00  0.00    -0.167 F 
ENDBRANCH  19  25
ENDBRANCH   7   9
ENDBRANCH   6   7
ENDBRANCH   5   6
ENDBRANCH   4   5
ENDBRANCH   3   4
ENDBRANCH   2   3
ENDBRANCH   1   2
BRANCH   1  29
ATOM     29  O   UNL A   1      33.991  33.992  30.523  1.00  0.00    -0.377 OA
BRANCH  29  30
ATOM     30  C   UNL A   1      34.272  34.720  31.718  1.00  0.00     0.188 C 
BRANCH  30  31
ATOM     31  C   UNL A   1      35.495  34.338  32.566  1.00  0.00     0.188 C 
BRANCH  31  32
ATOM     32  O   UNL A   1      35.326  33.365  33.599  1.00  0.00    -0.376 OA
BRANCH  32  33
ATOM     33  C   UNL A   1      36.202  32.242  33.641  1.00  0.00     0.202 C 
BRANCH  33  34
ATOM     34  C   UNL A   1      36.495  31.622  32.280  1.00  0.00     0.261 C 
BRANCH  34  35
ATOM     35  O   UNL A   1      36.317  30.200  32.318  1.00  0.00    -0.460 OA
BRANCH  35  36
ATOM     36  C   UNL A   1      37.444  29.474  32.515  1.00  0.00     0.338 C 
ATOM     37  O   UNL A   1      37.537  28.344  32.946  1.00  0.00    -0.246 OA
BRANCH  36  38
ATOM     38  C   UNL A   1      38.583  30.239  31.970  1.00  0.00     0.060 A 
ATOM     39  C   UNL A   1      39.421  30.972  32.814  1.00  0.00     0.016 A 
ATOM     40  C   UNL A   1      38.827  30.185  30.592  1.00  0.00     0.016 A 
ATOM     41  C   UNL A   1      40.531  31.620  32.280  1.00  0.00     0.010 A 
ATOM     42  C   UNL A   1      39.943  30.828  30.060  1.00  0.00     0.010 A 
ATOM     43  C   UNL A   1      40.818  31.523  30.908  1.00  0.00    -0.014 A 
BRANCH  43  44
ATOM     44  C   UNL A   1      42.126  32.003  30.411  1.00  0.00     0.031 A 
ATOM     45  C   UNL A   1      43.323  31.108  30.354  1.00  0.00     0.074 A 
ATOM     46  C   UNL A   1      42.205  33.281  29.995  1.00  0.00     0.049 A 
ATOM     47  N   UNL A   1      44.504  31.353  29.847  1.00  0.00    -0.248 NA
ATOM     48  C   UNL A   1      43.180  29.771  30.944  1.00  0.00     0.031 C 
ATOM     49  C   UNL A   1      41.103  34.246  30.041  1.00  0.00     0.029 A 
ATOM     50  N   UNL A   1      43.242  33.982  29.439  1.00  0.00    -0.354 N 
ATOM     51  C   UNL A   1      45.242  30.193  30.032  1.00  0.00     0.074 A 
ATOM     52  C   UNL A   1      44.391  29.265  30.750  1.00  0.00     0.031 C 
ATOM     53  C   UNL A   1      41.512  35.402  29.496  1.00  0.00     0.029 A 
ATOM     54  C   UNL A   1      42.908  35.270  29.098  1.00  0.00     0.049 A 
ATOM     55  H   UNL A   1      44.137  33.600  29.297  1.00  0.00     0.167 HD
ATOM     56  C   UNL A   1      46.508  29.927  29.624  1.00  0.00     0.037 A 
ATOM     57  C   UNL A   1      43.649  36.236  28.525  1.00  0.00     0.037 A 
ATOM     58  C   UNL A   1      47.355  30.875  28.943  1.00  0.00     0.049 A 
ATOM     59  C   UNL A   1      45.070  35.931  28.145  1.00  0.00     0.074 A 
ATOM     60  C   UNL A   1      48.644  30.698  28.469  1.00  0.00     0.029 A 
ATOM     61  N   UNL A   1      47.006  32.189  28.658  1.00  0.00    -0.354 N 
ATOM     62  N   UNL A   1      45.733  34.805  28.253  1.00  0.00    -0.248 NA
ATOM     63  C   UNL A   1      45.844  37.033  27.558  1.00  0.00     0.031 C 
ATOM     64  C   UNL A   1      49.096  31.919  27.955  1.00  0.00     0.029 A 
ATOM     65  C   UNL A   1      48.065  32.841  28.046  1.00  0.00     0.049 A 
ATOM     66  H   UNL A   1      46.134  32.597  28.862  1.00  0.00     0.167 HD
ATOM     67  C   UNL A   1      46.990  35.052  27.718  1.00  0.00     0.074 A 
ATOM     68  C   UNL A   1      46.989  36.431  27.271  1.00  0.00     0.031 C 
ATOM     69  C   UNL A   1      48.050  34.215  27.606  1.00  0.00     0.037 A 
BRANCH  56  70
ATOM     70  C   UNL A   1      47.054  28.559  29.917  1.00  0.00     0.057 A 
ATOM     71  C   UNL A   1      46.869  27.501  29.019  1.00  0.00     0.134 A 
ATOM     72  C   UNL A   1      47.738  28.278  31.109  1.00  0.00     0.134 A 
ATOM     73  F   UNL A   1      46.214  27.694  27.864  1.00  0.00    -0.206 F 
ATOM     74  C   UNL A   1      47.348  26.218  29.290  1.00  0.00     0.040 A 
ATOM     75  C   UNL A   1      48.246  27.005  31.378  1.00  0.00     0.040 A 
ATOM     76  F   UNL A   1      47.956  29.246  32.012  1.00  0.00    -0.206 F 
ATOM     77  C   UNL A   1      48.047  25.969  30.469  1.00  0.00     0.006 A 
ENDBRANCH  56  70
BRANCH  57  78
ATOM     78  C   UNL A   1      43.062  37.574  28.265  1.00  0.00     0.057 A 
ATOM     79  C   UNL A   1      42.411  37.862  27.059  1.00  0.00     0.134 A 
ATOM     80  C   UNL A   1      43.113  38.588  29.228  1.00  0.00     0.134 A 
ATOM     81  F   UNL A   1      42.339  36.938  26.090  1.00  0.00    -0.206 F 
ATOM     82  C   UNL A   1      41.829  39.108  26.822  1.00  0.00     0.040 A 
ATOM     83  C   UNL A   1      42.508  39.828  29.017  1.00  0.00     0.040 A 
ATOM     84  F   UNL A   1      43.711  38.368  30.409  1.00  0.00    -0.206 F 
ATOM     85  C   UNL A   1      41.866  40.091  27.809  1.00  0.00     0.006 A 
ENDBRANCH  57  78
BRANCH  69  86
ATOM     86  C   UNL A   1      49.281  34.760  26.937  1.00  0.00     0.057 A 
ATOM     87  C   UNL A   1      50.409  35.102  27.693  1.00  0.00     0.134 A 
ATOM     88  C   UNL A   1      49.350  34.957  25.551  1.00  0.00     0.134 A 
ATOM     89  F   UNL A   1      50.409  34.945  29.026  1.00  0.00    -0.206 F 
ATOM     90  C   UNL A   1      51.560  35.618  27.098  1.00  0.00     0.040 A 
ATOM     91  C   UNL A   1      50.508  35.442  24.940  1.00  0.00     0.040 A 
ATOM     92  F   UNL A   1      48.312  34.635  24.765  1.00  0.00    -0.206 F 
ATOM     93  C   UNL A   1      51.615  35.781  25.716  1.00  0.00     0.006 A 
ENDBRANCH  69  86
ENDBRANCH  43  44
ENDBRANCH  36  38
ENDBRANCH  35  36
ENDBRANCH  34  35
ENDBRANCH  33  34
ENDBRANCH  32  33
ENDBRANCH  31  32
ENDBRANCH  30  31
ENDBRANCH  29  30
ENDBRANCH   1  29
TORSDOF 24
ENDMDL
