MODEL 1
REMARK VINA RESULT:      -9.9      0.000      0.000
REMARK SMILES COc1cccc(C(=O)Nc2ccc(NC(=O)[C@@H]3[C@@H](C(=O)OCCOCCOCCOCCOC(=O)c4ccc(-c5c6nc(c(-c7c(F)cccc7F)c7ccc([nH]7)c(-c7c(F)cccc7F)c7nc(c(-c8c(F)cccc8F)c8ccc5[nH]8)C=C7)C=C6)cc4)[C@@H]4C=C[C@H]3C4)cc2)c1
REMARK SMILES IDX 26 1 25 2 24 3 23 4 22 5 20 6 21 7 19 8 18 9 94 10 91 11
REMARK SMILES IDX 93 12 95 13 92 14 16 15 15 16 17 18 14 19 11 20 12 21 97 22
REMARK SMILES IDX 13 23 96 24 10 25 8 26 9 27 7 29 3 30 4 31 98 32 5 33 6 34
REMARK SMILES IDX 2 35 1 36 27 37 28 38 29 39 30 40 31 41 32 42 33 43 34 44
REMARK SMILES IDX 35 45 36 46 37 47 38 48 90 49 39 50 89 51 40 52 41 53 42 54
REMARK SMILES IDX 83 55 43 56 88 57 82 58 84 59 44 60 87 61 81 62 80 63 45 65
REMARK SMILES IDX 71 66 54 67 70 68 55 69 58 70 69 71 85 72 56 73 57 74 68 76
REMARK SMILES IDX 86 77 59 78 46 79 47 80 52 81 48 82 49 83 51 84 53 85 50 86
REMARK SMILES IDX 72 87 73 88 78 89 74 90 75 91 77 92 79 93 76 94 60 95 61 96
REMARK SMILES IDX 66 97 62 98 63 99 65 100 67 101 64 102
REMARK H PARENT 15 17 10 28 84 64 58 75
REMARK Flexibility Score: inf
ROOT
ATOM      1  C   UNL A   1      33.426  28.534  23.284  1.00  0.00     0.188 C 
ENDROOT
BRANCH   1   2
ATOM      2  O   UNL A   1      33.871  27.201  23.175  1.00  0.00    -0.376 OA
BRANCH   2   3
ATOM      3  C   UNL A   1      32.939  26.151  23.028  1.00  0.00     0.202 C 
BRANCH   3   4
ATOM      4  C   UNL A   1      33.102  24.967  22.051  1.00  0.00     0.261 C 
BRANCH   4   5
ATOM      5  O   UNL A   1      33.895  23.825  22.450  1.00  0.00    -0.463 OA
BRANCH   5   6
ATOM      6  C   UNL A   1      33.300  22.819  23.123  1.00  0.00     0.310 C 
ATOM      7  O   UNL A   1      32.665  21.933  22.564  1.00  0.00    -0.252 OA
BRANCH   6   8
ATOM      8  C   UNL A   1      33.523  22.834  24.638  1.00  0.00     0.119 C 
ATOM      9  C   UNL A   1      34.917  22.519  25.245  1.00  0.00     0.100 C 
ATOM     10  C   UNL A   1      34.560  21.902  26.632  1.00  0.00     0.025 C 
ATOM     11  C   UNL A   1      32.610  21.934  25.520  1.00  0.00     0.027 C 
ATOM     12  C   UNL A   1      33.582  22.724  27.441  1.00  0.00    -0.027 C 
ATOM     13  C   UNL A   1      33.560  20.869  26.123  1.00  0.00     0.017 C 
ATOM     14  C   UNL A   1      32.403  22.711  26.798  1.00  0.00    -0.027 C 
BRANCH   9  15
ATOM     15  C   UNL A   1      35.780  23.746  25.291  1.00  0.00     0.228 C 
ATOM     16  N   UNL A   1      37.141  23.629  25.349  1.00  0.00    -0.326 N 
ATOM     17  H   UNL A   1      37.606  24.436  25.030  1.00  0.00     0.169 HD
ATOM     18  O   UNL A   1      35.304  24.879  25.205  1.00  0.00    -0.274 OA
BRANCH  16  19
ATOM     19  C   UNL A   1      38.029  22.615  25.761  1.00  0.00     0.041 A 
ATOM     20  C   UNL A   1      39.957  20.600  26.097  1.00  0.00     0.041 A 
ATOM     21  C   UNL A   1      40.040  21.763  26.840  1.00  0.00     0.028 A 
ATOM     22  C   UNL A   1      38.858  20.374  25.274  1.00  0.00     0.028 A 
ATOM     23  C   UNL A   1      39.117  22.783  26.616  1.00  0.00     0.028 A 
ATOM     24  C   UNL A   1      37.885  21.372  25.127  1.00  0.00     0.028 A 
BRANCH  20  25
ATOM     25  N   UNL A   1      41.096  19.801  26.086  1.00  0.00    -0.322 N 
ATOM     26  C   UNL A   1      42.413  20.208  26.164  1.00  0.00     0.255 C 
ATOM     27  O   UNL A   1      43.284  19.336  26.210  1.00  0.00    -0.269 OA
ATOM     28  H   UNL A   1      40.945  18.831  26.013  1.00  0.00     0.170 HD
BRANCH  26  29
ATOM     29  C   UNL A   1      42.826  21.646  26.248  1.00  0.00     0.043 A 
ATOM     30  C   UNL A   1      43.423  23.687  27.439  1.00  0.00     0.119 A 
ATOM     31  C   UNL A   1      43.455  24.365  26.220  1.00  0.00     0.046 A 
ATOM     32  C   UNL A   1      43.176  22.313  27.438  1.00  0.00     0.060 A 
ATOM     33  C   UNL A   1      43.236  23.691  25.021  1.00  0.00     0.005 A 
ATOM     34  C   UNL A   1      42.908  22.338  25.035  1.00  0.00     0.014 A 
BRANCH  30  35
ATOM     35  O   UNL A   1      43.631  24.493  28.521  1.00  0.00    -0.497 OA
ATOM     36  C   UNL A   1      43.562  23.968  29.838  1.00  0.00     0.278 C 
ENDBRANCH  30  35
ENDBRANCH  26  29
ENDBRANCH  20  25
ENDBRANCH  16  19
ENDBRANCH   9  15
ENDBRANCH   6   8
ENDBRANCH   5   6
ENDBRANCH   4   5
ENDBRANCH   3   4
ENDBRANCH   2   3
ENDBRANCH   1   2
BRANCH   1  37
ATOM     37  C   UNL A   1      33.093  28.945  24.732  1.00  0.00     0.188 C 
BRANCH  37  38
ATOM     38  O   UNL A   1      33.823  28.437  25.828  1.00  0.00    -0.377 OA
BRANCH  38  39
ATOM     39  C   UNL A   1      33.292  28.721  27.091  1.00  0.00     0.188 C 
BRANCH  39  40
ATOM     40  C   UNL A   1      32.959  30.207  27.283  1.00  0.00     0.188 C 
BRANCH  40  41
ATOM     41  O   UNL A   1      31.690  30.771  26.971  1.00  0.00    -0.376 OA
BRANCH  41  42
ATOM     42  C   UNL A   1      31.451  32.147  26.730  1.00  0.00     0.202 C 
BRANCH  42  43
ATOM     43  C   UNL A   1      32.433  33.271  27.092  1.00  0.00     0.261 C 
BRANCH  43  44
ATOM     44  O   UNL A   1      32.476  33.679  28.457  1.00  0.00    -0.460 OA
BRANCH  44  45
ATOM     45  C   UNL A   1      33.369  34.649  28.731  1.00  0.00     0.338 C 
ATOM     46  O   UNL A   1      33.280  35.842  28.482  1.00  0.00    -0.246 OA
BRANCH  45  47
ATOM     47  C   UNL A   1      34.438  34.065  29.553  1.00  0.00     0.060 A 
ATOM     48  C   UNL A   1      35.732  34.591  29.429  1.00  0.00     0.016 A 
ATOM     49  C   UNL A   1      34.170  33.019  30.439  1.00  0.00     0.016 A 
ATOM     50  C   UNL A   1      36.768  34.075  30.193  1.00  0.00     0.010 A 
ATOM     51  C   UNL A   1      35.222  32.458  31.160  1.00  0.00     0.010 A 
ATOM     52  C   UNL A   1      36.525  32.966  31.010  1.00  0.00    -0.014 A 
BRANCH  52  53
ATOM     53  C   UNL A   1      37.681  32.171  31.460  1.00  0.00     0.031 A 
ATOM     54  C   UNL A   1      38.213  32.453  32.836  1.00  0.00     0.074 A 
ATOM     55  C   UNL A   1      38.203  31.200  30.693  1.00  0.00     0.049 A 
ATOM     56  N   UNL A   1      39.246  31.942  33.448  1.00  0.00    -0.248 NA
ATOM     57  C   UNL A   1      37.471  33.450  33.629  1.00  0.00     0.031 C 
ATOM     58  C   UNL A   1      37.709  30.800  29.377  1.00  0.00     0.029 A 
ATOM     59  N   UNL A   1      39.275  30.379  30.920  1.00  0.00    -0.354 N 
ATOM     60  C   UNL A   1      39.281  32.558  34.692  1.00  0.00     0.074 A 
ATOM     61  C   UNL A   1      38.189  33.502  34.739  1.00  0.00     0.031 C 
ATOM     62  C   UNL A   1      38.494  29.816  28.903  1.00  0.00     0.029 A 
ATOM     63  C   UNL A   1      39.560  29.549  29.866  1.00  0.00     0.049 A 
ATOM     64  H   UNL A   1      39.791  30.383  31.759  1.00  0.00     0.167 HD
ATOM     65  C   UNL A   1      40.146  32.347  35.709  1.00  0.00     0.037 A 
ATOM     66  C   UNL A   1      40.588  28.696  29.699  1.00  0.00     0.037 A 
ATOM     67  C   UNL A   1      41.237  31.414  35.641  1.00  0.00     0.049 A 
ATOM     68  C   UNL A   1      41.604  28.557  30.805  1.00  0.00     0.074 A 
ATOM     69  C   UNL A   1      42.189  31.129  36.601  1.00  0.00     0.029 A 
ATOM     70  N   UNL A   1      41.524  30.621  34.539  1.00  0.00    -0.354 N 
ATOM     71  N   UNL A   1      41.636  29.140  31.981  1.00  0.00    -0.248 NA
ATOM     72  C   UNL A   1      42.726  27.640  30.562  1.00  0.00     0.031 C 
ATOM     73  C   UNL A   1      43.085  30.202  36.060  1.00  0.00     0.029 A 
ATOM     74  C   UNL A   1      42.652  29.861  34.788  1.00  0.00     0.049 A 
ATOM     75  H   UNL A   1      41.002  30.603  33.705  1.00  0.00     0.167 HD
ATOM     76  C   UNL A   1      42.754  28.630  32.631  1.00  0.00     0.074 A 
ATOM     77  C   UNL A   1      43.368  27.685  31.721  1.00  0.00     0.031 C 
ATOM     78  C   UNL A   1      43.230  28.912  33.870  1.00  0.00     0.037 A 
BRANCH  65  79
ATOM     79  C   UNL A   1      39.964  33.165  36.952  1.00  0.00     0.057 A 
ATOM     80  C   UNL A   1      40.702  34.333  37.189  1.00  0.00     0.134 A 
ATOM     81  C   UNL A   1      39.029  32.785  37.923  1.00  0.00     0.134 A 
ATOM     82  F   UNL A   1      41.632  34.740  36.312  1.00  0.00    -0.206 F 
ATOM     83  C   UNL A   1      40.533  35.078  38.357  1.00  0.00     0.040 A 
ATOM     84  C   UNL A   1      38.828  33.539  39.079  1.00  0.00     0.040 A 
ATOM     85  F   UNL A   1      38.291  31.675  37.762  1.00  0.00    -0.206 F 
ATOM     86  C   UNL A   1      39.587  34.686  39.302  1.00  0.00     0.006 A 
ENDBRANCH  65  79
BRANCH  66  87
ATOM     87  C   UNL A   1      40.726  27.922  28.438  1.00  0.00     0.057 A 
ATOM     88  C   UNL A   1      41.478  28.413  27.364  1.00  0.00     0.134 A 
ATOM     89  C   UNL A   1      40.081  26.691  28.262  1.00  0.00     0.134 A 
ATOM     90  F   UNL A   1      42.104  29.595  27.463  1.00  0.00    -0.206 F 
ATOM     91  C   UNL A   1      41.562  27.723  26.153  1.00  0.00     0.040 A 
ATOM     92  C   UNL A   1      40.182  25.977  27.067  1.00  0.00     0.040 A 
ATOM     93  F   UNL A   1      39.347  26.163  29.252  1.00  0.00    -0.206 F 
ATOM     94  C   UNL A   1      40.916  26.498  26.004  1.00  0.00     0.006 A 
ENDBRANCH  66  87
BRANCH  78  95
ATOM     95  C   UNL A   1      44.433  28.145  34.338  1.00  0.00     0.057 A 
ATOM     96  C   UNL A   1      45.739  28.596  34.114  1.00  0.00     0.134 A 
ATOM     97  C   UNL A   1      44.273  26.964  35.077  1.00  0.00     0.134 A 
ATOM     98  F   UNL A   1      45.960  29.714  33.407  1.00  0.00    -0.206 F 
ATOM     99  C   UNL A   1      46.845  27.886  34.585  1.00  0.00     0.040 A 
ATOM    100  C   UNL A   1      45.369  26.264  35.580  1.00  0.00     0.040 A 
ATOM    101  F   UNL A   1      43.048  26.483  35.339  1.00  0.00    -0.206 F 
ATOM    102  C   UNL A   1      46.661  26.722  35.329  1.00  0.00     0.006 A 
ENDBRANCH  78  95
ENDBRANCH  52  53
ENDBRANCH  45  47
ENDBRANCH  44  45
ENDBRANCH  43  44
ENDBRANCH  42  43
ENDBRANCH  41  42
ENDBRANCH  40  41
ENDBRANCH  39  40
ENDBRANCH  38  39
ENDBRANCH  37  38
ENDBRANCH   1  37
TORSDOF 25
ENDMDL
MODEL 2
REMARK VINA RESULT:      -9.8      0.745      5.766
REMARK SMILES COc1cccc(C(=O)Nc2ccc(NC(=O)[C@@H]3[C@@H](C(=O)OCCOCCOCCOCCOC(=O)c4ccc(-c5c6nc(c(-c7c(F)cccc7F)c7ccc([nH]7)c(-c7c(F)cccc7F)c7nc(c(-c8c(F)cccc8F)c8ccc5[nH]8)C=C7)C=C6)cc4)[C@@H]4C=C[C@H]3C4)cc2)c1
REMARK SMILES IDX 26 1 25 2 24 3 23 4 22 5 20 6 21 7 19 8 18 9 94 10 91 11
REMARK SMILES IDX 93 12 95 13 92 14 16 15 15 16 17 18 14 19 11 20 12 21 97 22
REMARK SMILES IDX 13 23 96 24 10 25 8 26 9 27 7 29 3 30 4 31 98 32 5 33 6 34
REMARK SMILES IDX 2 35 1 36 27 37 28 38 29 39 30 40 31 41 32 42 33 43 34 44
REMARK SMILES IDX 35 45 36 46 37 47 38 48 90 49 39 50 89 51 40 52 41 53 42 54
REMARK SMILES IDX 83 55 43 56 88 57 82 58 84 59 44 60 87 61 81 62 80 63 45 65
REMARK SMILES IDX 71 66 54 67 70 68 55 69 58 70 69 71 85 72 56 73 57 74 68 76
REMARK SMILES IDX 86 77 59 78 46 79 47 80 52 81 48 82 49 83 51 84 53 85 50 86
REMARK SMILES IDX 72 87 73 88 78 89 74 90 75 91 77 92 79 93 76 94 60 95 61 96
REMARK SMILES IDX 66 97 62 98 63 99 65 100 67 101 64 102
REMARK H PARENT 15 17 10 28 84 64 58 75
REMARK Flexibility Score: inf
ROOT
ATOM      1  C   UNL A   1      32.606  28.133  22.860  1.00  0.00     0.188 C 
ENDROOT
BRANCH   1   2
ATOM      2  O   UNL A   1      32.823  26.742  22.931  1.00  0.00    -0.376 OA
BRANCH   2   3
ATOM      3  C   UNL A   1      32.176  25.874  22.024  1.00  0.00     0.202 C 
BRANCH   3   4
ATOM      4  C   UNL A   1      32.876  24.741  21.245  1.00  0.00     0.261 C 
BRANCH   4   5
ATOM      5  O   UNL A   1      33.645  23.754  21.971  1.00  0.00    -0.463 OA
BRANCH   5   6
ATOM      6  C   UNL A   1      32.993  22.802  22.668  1.00  0.00     0.310 C 
ATOM      7  O   UNL A   1      32.377  21.890  22.129  1.00  0.00    -0.252 OA
BRANCH   6   8
ATOM      8  C   UNL A   1      33.124  22.911  24.190  1.00  0.00     0.119 C 
ATOM      9  C   UNL A   1      34.478  22.634  24.898  1.00  0.00     0.100 C 
ATOM     10  C   UNL A   1      34.036  22.104  26.297  1.00  0.00     0.025 C 
ATOM     11  C   UNL A   1      32.157  22.067  25.070  1.00  0.00     0.027 C 
ATOM     12  C   UNL A   1      33.015  22.975  26.993  1.00  0.00    -0.027 C 
ATOM     13  C   UNL A   1      33.065  21.041  25.794  1.00  0.00     0.017 C 
ATOM     14  C   UNL A   1      31.877  22.922  26.283  1.00  0.00    -0.027 C 
BRANCH   9  15
ATOM     15  C   UNL A   1      35.342  23.861  24.920  1.00  0.00     0.228 C 
ATOM     16  N   UNL A   1      36.701  23.746  25.021  1.00  0.00    -0.326 N 
ATOM     17  H   UNL A   1      37.176  24.540  24.684  1.00  0.00     0.169 HD
ATOM     18  O   UNL A   1      34.870  24.990  24.777  1.00  0.00    -0.274 OA
BRANCH  16  19
ATOM     19  C   UNL A   1      37.575  22.749  25.497  1.00  0.00     0.041 A 
ATOM     20  C   UNL A   1      39.484  20.742  25.965  1.00  0.00     0.041 A 
ATOM     21  C   UNL A   1      39.562  21.940  26.651  1.00  0.00     0.028 A 
ATOM     22  C   UNL A   1      38.398  20.482  25.134  1.00  0.00     0.028 A 
ATOM     23  C   UNL A   1      38.649  22.952  26.362  1.00  0.00     0.028 A 
ATOM     24  C   UNL A   1      37.434  21.477  24.922  1.00  0.00     0.028 A 
BRANCH  20  25
ATOM     25  N   UNL A   1      40.619  19.938  26.012  1.00  0.00    -0.322 N 
ATOM     26  C   UNL A   1      41.920  20.327  26.261  1.00  0.00     0.255 C 
ATOM     27  O   UNL A   1      42.781  19.447  26.331  1.00  0.00    -0.269 OA
ATOM     28  H   UNL A   1      40.476  18.977  25.848  1.00  0.00     0.170 HD
BRANCH  26  29
ATOM     29  C   UNL A   1      42.321  21.751  26.499  1.00  0.00     0.043 A 
ATOM     30  C   UNL A   1      43.067  23.962  25.797  1.00  0.00     0.119 A 
ATOM     31  C   UNL A   1      43.174  24.330  27.138  1.00  0.00     0.046 A 
ATOM     32  C   UNL A   1      42.573  22.695  25.485  1.00  0.00     0.060 A 
ATOM     33  C   UNL A   1      42.806  23.449  28.153  1.00  0.00     0.005 A 
ATOM     34  C   UNL A   1      42.395  22.158  27.835  1.00  0.00     0.014 A 
BRANCH  30  35
ATOM     35  O   UNL A   1      43.490  24.927  24.928  1.00  0.00    -0.497 OA
ATOM     36  C   UNL A   1      44.496  25.853  25.310  1.00  0.00     0.278 C 
ENDBRANCH  30  35
ENDBRANCH  26  29
ENDBRANCH  20  25
ENDBRANCH  16  19
ENDBRANCH   9  15
ENDBRANCH   6   8
ENDBRANCH   5   6
ENDBRANCH   4   5
ENDBRANCH   3   4
ENDBRANCH   2   3
ENDBRANCH   1   2
BRANCH   1  37
ATOM     37  C   UNL A   1      32.996  28.873  24.155  1.00  0.00     0.188 C 
BRANCH  37  38
ATOM     38  O   UNL A   1      34.005  28.380  25.009  1.00  0.00    -0.377 OA
BRANCH  38  39
ATOM     39  C   UNL A   1      33.826  28.646  26.372  1.00  0.00     0.188 C 
BRANCH  39  40
ATOM     40  C   UNL A   1      33.355  30.081  26.647  1.00  0.00     0.188 C 
BRANCH  40  41
ATOM     41  O   UNL A   1      31.984  30.449  26.748  1.00  0.00    -0.376 OA
BRANCH  41  42
ATOM     42  C   UNL A   1      31.490  31.773  26.650  1.00  0.00     0.202 C 
BRANCH  42  43
ATOM     43  C   UNL A   1      32.307  33.028  26.993  1.00  0.00     0.261 C 
BRANCH  43  44
ATOM     44  O   UNL A   1      32.864  33.100  28.302  1.00  0.00    -0.460 OA
BRANCH  44  45
ATOM     45  C   UNL A   1      33.556  34.226  28.564  1.00  0.00     0.338 C 
ATOM     46  O   UNL A   1      33.275  35.370  28.241  1.00  0.00    -0.246 OA
BRANCH  45  47
ATOM     47  C   UNL A   1      34.660  33.881  29.470  1.00  0.00     0.060 A 
ATOM     48  C   UNL A   1      35.957  34.275  29.115  1.00  0.00     0.016 A 
ATOM     49  C   UNL A   1      34.421  33.186  30.659  1.00  0.00     0.016 A 
ATOM     50  C   UNL A   1      37.027  33.978  29.946  1.00  0.00     0.010 A 
ATOM     51  C   UNL A   1      35.502  32.832  31.463  1.00  0.00     0.010 A 
ATOM     52  C   UNL A   1      36.806  33.201  31.087  1.00  0.00    -0.014 A 
BRANCH  52  53
ATOM     53  C   UNL A   1      37.966  32.534  31.706  1.00  0.00     0.031 A 
ATOM     54  C   UNL A   1      38.600  31.410  30.938  1.00  0.00     0.074 A 
ATOM     55  C   UNL A   1      38.465  32.947  32.881  1.00  0.00     0.049 A 
ATOM     56  N   UNL A   1      39.588  30.626  31.275  1.00  0.00    -0.248 NA
ATOM     57  C   UNL A   1      38.041  31.138  29.601  1.00  0.00     0.031 C 
ATOM     58  C   UNL A   1      37.968  34.076  33.665  1.00  0.00     0.029 A 
ATOM     59  N   UNL A   1      39.507  32.452  33.619  1.00  0.00    -0.354 N 
ATOM     60  C   UNL A   1      39.763  29.767  30.198  1.00  0.00     0.074 A 
ATOM     61  C   UNL A   1      38.764  30.100  29.210  1.00  0.00     0.031 C 
ATOM     62  C   UNL A   1      38.696  34.175  34.790  1.00  0.00     0.029 A 
ATOM     63  C   UNL A   1      39.682  33.096  34.817  1.00  0.00     0.049 A 
ATOM     64  H   UNL A   1      40.075  31.706  33.318  1.00  0.00     0.167 HD
ATOM     65  C   UNL A   1      40.684  28.789  30.047  1.00  0.00     0.037 A 
ATOM     66  C   UNL A   1      40.528  32.815  35.827  1.00  0.00     0.037 A 
ATOM     67  C   UNL A   1      41.662  28.459  31.047  1.00  0.00     0.049 A 
ATOM     68  C   UNL A   1      41.474  31.650  35.679  1.00  0.00     0.074 A 
ATOM     69  C   UNL A   1      42.633  27.477  31.012  1.00  0.00     0.029 A 
ATOM     70  N   UNL A   1      41.782  29.103  32.269  1.00  0.00    -0.354 N 
ATOM     71  N   UNL A   1      41.639  30.838  34.662  1.00  0.00    -0.248 NA
ATOM     72  C   UNL A   1      42.352  31.363  36.821  1.00  0.00     0.031 C 
ATOM     73  C   UNL A   1      43.307  27.491  32.237  1.00  0.00     0.029 A 
ATOM     74  C   UNL A   1      42.799  28.526  33.008  1.00  0.00     0.049 A 
ATOM     75  H   UNL A   1      41.226  29.859  32.567  1.00  0.00     0.167 HD
ATOM     76  C   UNL A   1      42.665  29.974  35.023  1.00  0.00     0.074 A 
ATOM     77  C   UNL A   1      43.089  30.366  36.351  1.00  0.00     0.031 C 
ATOM     78  C   UNL A   1      43.213  28.951  34.321  1.00  0.00     0.037 A 
BRANCH  65  79
ATOM     79  C   UNL A   1      40.643  27.993  28.777  1.00  0.00     0.057 A 
ATOM     80  C   UNL A   1      39.854  26.843  28.645  1.00  0.00     0.134 A 
ATOM     81  C   UNL A   1      41.399  28.389  27.666  1.00  0.00     0.134 A 
ATOM     82  F   UNL A   1      39.126  26.395  29.678  1.00  0.00    -0.206 F 
ATOM     83  C   UNL A   1      39.836  26.102  27.461  1.00  0.00     0.040 A 
ATOM     84  C   UNL A   1      41.364  27.675  26.467  1.00  0.00     0.040 A 
ATOM     85  F   UNL A   1      42.180  29.478  27.725  1.00  0.00    -0.206 F 
ATOM     86  C   UNL A   1      40.586  26.524  26.365  1.00  0.00     0.006 A 
ENDBRANCH  65  79
BRANCH  66  87
ATOM     87  C   UNL A   1      40.512  33.630  37.070  1.00  0.00     0.057 A 
ATOM     88  C   UNL A   1      41.361  34.731  37.227  1.00  0.00     0.134 A 
ATOM     89  C   UNL A   1      39.672  33.307  38.144  1.00  0.00     0.134 A 
ATOM     90  F   UNL A   1      42.203  35.080  36.242  1.00  0.00    -0.206 F 
ATOM     91  C   UNL A   1      41.398  35.464  38.415  1.00  0.00     0.040 A 
ATOM     92  C   UNL A   1      39.677  34.050  39.325  1.00  0.00     0.040 A 
ATOM     93  F   UNL A   1      38.831  32.266  38.057  1.00  0.00    -0.206 F 
ATOM     94  C   UNL A   1      40.550  35.126  39.467  1.00  0.00     0.006 A 
ENDBRANCH  66  87
BRANCH  78  95
ATOM     95  C   UNL A   1      44.371  28.226  34.946  1.00  0.00     0.057 A 
ATOM     96  C   UNL A   1      44.200  27.065  35.709  1.00  0.00     0.134 A 
ATOM     97  C   UNL A   1      45.682  28.672  34.729  1.00  0.00     0.134 A 
ATOM     98  F   UNL A   1      42.971  26.591  35.961  1.00  0.00    -0.206 F 
ATOM     99  C   UNL A   1      45.291  26.387  36.255  1.00  0.00     0.040 A 
ATOM    100  C   UNL A   1      46.782  27.984  35.242  1.00  0.00     0.040 A 
ATOM    101  F   UNL A   1      45.917  29.771  33.996  1.00  0.00    -0.206 F 
ATOM    102  C   UNL A   1      46.587  26.841  36.014  1.00  0.00     0.006 A 
ENDBRANCH  78  95
ENDBRANCH  52  53
ENDBRANCH  45  47
ENDBRANCH  44  45
ENDBRANCH  43  44
ENDBRANCH  42  43
ENDBRANCH  41  42
ENDBRANCH  40  41
ENDBRANCH  39  40
ENDBRANCH  38  39
ENDBRANCH  37  38
ENDBRANCH   1  37
TORSDOF 25
ENDMDL
MODEL 3
REMARK VINA RESULT:      -9.7      4.562      9.633
REMARK SMILES COc1cccc(C(=O)Nc2ccc(NC(=O)[C@@H]3[C@@H](C(=O)OCCOCCOCCOCCOC(=O)c4ccc(-c5c6nc(c(-c7c(F)cccc7F)c7ccc([nH]7)c(-c7c(F)cccc7F)c7nc(c(-c8c(F)cccc8F)c8ccc5[nH]8)C=C7)C=C6)cc4)[C@@H]4C=C[C@H]3C4)cc2)c1
REMARK SMILES IDX 26 1 25 2 24 3 23 4 22 5 20 6 21 7 19 8 18 9 94 10 91 11
REMARK SMILES IDX 93 12 95 13 92 14 16 15 15 16 17 18 14 19 11 20 12 21 97 22
REMARK SMILES IDX 13 23 96 24 10 25 8 26 9 27 7 29 3 30 4 31 98 32 5 33 6 34
REMARK SMILES IDX 2 35 1 36 27 37 28 38 29 39 30 40 31 41 32 42 33 43 34 44
REMARK SMILES IDX 35 45 36 46 37 47 38 48 90 49 39 50 89 51 40 52 41 53 42 54
REMARK SMILES IDX 83 55 43 56 88 57 82 58 84 59 44 60 87 61 81 62 80 63 45 65
REMARK SMILES IDX 71 66 54 67 70 68 55 69 58 70 69 71 85 72 56 73 57 74 68 76
REMARK SMILES IDX 86 77 59 78 46 79 47 80 52 81 48 82 49 83 51 84 53 85 50 86
REMARK SMILES IDX 72 87 73 88 78 89 74 90 75 91 77 92 79 93 76 94 60 95 61 96
REMARK SMILES IDX 66 97 62 98 63 99 65 100 67 101 64 102
REMARK H PARENT 15 17 10 28 84 64 58 75
REMARK Flexibility Score: inf
ROOT
ATOM      1  C   UNL A   1      34.475  35.974  32.399  1.00  0.00     0.188 C 
ENDROOT
BRANCH   1   2
ATOM      2  O   UNL A   1      34.258  35.429  33.681  1.00  0.00    -0.376 OA
BRANCH   2   3
ATOM      3  C   UNL A   1      34.772  34.154  34.007  1.00  0.00     0.202 C 
BRANCH   3   4
ATOM      4  C   UNL A   1      35.821  33.392  33.170  1.00  0.00     0.261 C 
BRANCH   4   5
ATOM      5  O   UNL A   1      37.050  32.962  33.799  1.00  0.00    -0.463 OA
BRANCH   5   6
ATOM      6  C   UNL A   1      38.034  33.864  33.995  1.00  0.00     0.310 C 
ATOM      7  O   UNL A   1      38.036  34.968  33.463  1.00  0.00    -0.252 OA
BRANCH   6   8
ATOM      8  C   UNL A   1      39.125  33.427  34.977  1.00  0.00     0.119 C 
ATOM      9  C   UNL A   1      40.122  32.294  34.614  1.00  0.00     0.100 C 
ATOM     10  C   UNL A   1      40.469  31.679  36.005  1.00  0.00     0.025 C 
ATOM     11  C   UNL A   1      38.689  32.987  36.405  1.00  0.00     0.027 C 
ATOM     12  C   UNL A   1      40.871  32.697  37.048  1.00  0.00    -0.027 C 
ATOM     13  C   UNL A   1      39.034  31.479  36.481  1.00  0.00     0.017 C 
ATOM     14  C   UNL A   1      39.797  33.455  37.319  1.00  0.00    -0.027 C 
BRANCH   9  15
ATOM     15  C   UNL A   1      41.291  32.826  33.837  1.00  0.00     0.228 C 
ATOM     16  N   UNL A   1      42.103  31.974  33.143  1.00  0.00    -0.326 N 
ATOM     17  H   UNL A   1      42.595  32.422  32.418  1.00  0.00     0.169 HD
ATOM     18  O   UNL A   1      41.511  34.035  33.741  1.00  0.00    -0.274 OA
BRANCH  16  19
ATOM     19  C   UNL A   1      42.395  30.597  33.230  1.00  0.00     0.041 A 
ATOM     20  C   UNL A   1      42.859  27.909  33.896  1.00  0.00     0.041 A 
ATOM     21  C   UNL A   1      41.904  28.228  32.949  1.00  0.00     0.028 A 
ATOM     22  C   UNL A   1      43.672  28.903  34.432  1.00  0.00     0.028 A 
ATOM     23  C   UNL A   1      41.636  29.567  32.675  1.00  0.00     0.028 A 
ATOM     24  C   UNL A   1      43.453  30.241  34.079  1.00  0.00     0.028 A 
BRANCH  20  25
ATOM     25  N   UNL A   1      42.813  26.610  34.394  1.00  0.00    -0.322 N 
ATOM     26  C   UNL A   1      43.618  25.543  34.046  1.00  0.00     0.255 C 
ATOM     27  O   UNL A   1      43.465  24.482  34.656  1.00  0.00    -0.269 OA
ATOM     28  H   UNL A   1      42.125  26.430  35.076  1.00  0.00     0.170 HD
BRANCH  26  29
ATOM     29  C   UNL A   1      44.693  25.630  33.006  1.00  0.00     0.043 A 
ATOM     30  C   UNL A   1      47.008  25.781  32.257  1.00  0.00     0.119 A 
ATOM     31  C   UNL A   1      46.553  25.930  30.947  1.00  0.00     0.046 A 
ATOM     32  C   UNL A   1      46.075  25.561  33.272  1.00  0.00     0.060 A 
ATOM     33  C   UNL A   1      45.192  25.872  30.651  1.00  0.00     0.005 A 
ATOM     34  C   UNL A   1      44.264  25.737  31.679  1.00  0.00     0.014 A 
BRANCH  30  35
ATOM     35  O   UNL A   1      48.363  25.887  32.383  1.00  0.00    -0.497 OA
ATOM     36  C   UNL A   1      49.057  25.147  33.375  1.00  0.00     0.278 C 
ENDBRANCH  30  35
ENDBRANCH  26  29
ENDBRANCH  20  25
ENDBRANCH  16  19
ENDBRANCH   9  15
ENDBRANCH   6   8
ENDBRANCH   5   6
ENDBRANCH   4   5
ENDBRANCH   3   4
ENDBRANCH   2   3
ENDBRANCH   1   2
BRANCH   1  37
ATOM     37  C   UNL A   1      33.560  37.176  32.090  1.00  0.00     0.188 C 
BRANCH  37  38
ATOM     38  O   UNL A   1      32.922  37.313  30.839  1.00  0.00    -0.377 OA
BRANCH  38  39
ATOM     39  C   UNL A   1      32.784  36.132  30.099  1.00  0.00     0.188 C 
BRANCH  39  40
ATOM     40  C   UNL A   1      33.522  36.177  28.754  1.00  0.00     0.188 C 
BRANCH  40  41
ATOM     41  O   UNL A   1      34.589  35.296  28.418  1.00  0.00    -0.376 OA
BRANCH  41  42
ATOM     42  C   UNL A   1      34.499  33.882  28.406  1.00  0.00     0.202 C 
BRANCH  42  43
ATOM     43  C   UNL A   1      34.977  32.976  29.550  1.00  0.00     0.261 C 
BRANCH  43  44
ATOM     44  O   UNL A   1      35.979  32.012  29.238  1.00  0.00    -0.460 OA
BRANCH  44  45
ATOM     45  C   UNL A   1      36.205  31.096  30.199  1.00  0.00     0.338 C 
ATOM     46  O   UNL A   1      35.527  30.867  31.190  1.00  0.00    -0.246 OA
BRANCH  45  47
ATOM     47  C   UNL A   1      37.344  30.267  29.780  1.00  0.00     0.060 A 
ATOM     48  C   UNL A   1      38.082  29.605  30.771  1.00  0.00     0.016 A 
ATOM     49  C   UNL A   1      37.676  30.138  28.429  1.00  0.00     0.016 A 
ATOM     50  C   UNL A   1      39.159  28.806  30.418  1.00  0.00     0.010 A 
ATOM     51  C   UNL A   1      38.796  29.386  28.079  1.00  0.00     0.010 A 
ATOM     52  C   UNL A   1      39.554  28.749  29.078  1.00  0.00    -0.014 A 
BRANCH  52  53
ATOM     53  C   UNL A   1      40.917  28.275  28.777  1.00  0.00     0.031 A 
ATOM     54  C   UNL A   1      42.030  29.277  28.887  1.00  0.00     0.074 A 
ATOM     55  C   UNL A   1      41.158  26.991  28.469  1.00  0.00     0.049 A 
ATOM     56  N   UNL A   1      43.302  29.138  28.626  1.00  0.00    -0.248 NA
ATOM     57  C   UNL A   1      41.653  30.621  29.362  1.00  0.00     0.031 C 
ATOM     58  C   UNL A   1      40.156  25.929  28.411  1.00  0.00     0.029 A 
ATOM     59  N   UNL A   1      42.334  26.370  28.140  1.00  0.00    -0.354 N 
ATOM     60  C   UNL A   1      43.872  30.375  28.897  1.00  0.00     0.074 A 
ATOM     61  C   UNL A   1      42.810  31.261  29.313  1.00  0.00     0.031 C 
ATOM     62  C   UNL A   1      40.760  24.784  28.047  1.00  0.00     0.029 A 
ATOM     63  C   UNL A   1      42.179  25.047  27.812  1.00  0.00     0.049 A 
ATOM     64  H   UNL A   1      43.205  26.829  28.139  1.00  0.00     0.167 HD
ATOM     65  C   UNL A   1      45.173  30.735  28.814  1.00  0.00     0.037 A 
ATOM     66  C   UNL A   1      43.085  24.167  27.347  1.00  0.00     0.037 A 
ATOM     67  C   UNL A   1      46.216  29.845  28.384  1.00  0.00     0.049 A 
ATOM     68  C   UNL A   1      44.510  24.623  27.158  1.00  0.00     0.074 A 
ATOM     69  C   UNL A   1      47.566  30.104  28.242  1.00  0.00     0.029 A 
ATOM     70  N   UNL A   1      46.017  28.522  28.016  1.00  0.00    -0.354 N 
ATOM     71  N   UNL A   1      45.049  25.791  27.415  1.00  0.00    -0.248 NA
ATOM     72  C   UNL A   1      45.454  23.636  26.616  1.00  0.00     0.031 C 
ATOM     73  C   UNL A   1      48.176  28.951  27.736  1.00  0.00     0.029 A 
ATOM     74  C   UNL A   1      47.217  27.956  27.626  1.00  0.00     0.049 A 
ATOM     75  H   UNL A   1      45.150  28.056  28.030  1.00  0.00     0.167 HD
ATOM     76  C   UNL A   1      46.399  25.668  27.107  1.00  0.00     0.074 A 
ATOM     77  C   UNL A   1      46.596  24.307  26.650  1.00  0.00     0.031 C 
ATOM     78  C   UNL A   1      47.388  26.592  27.196  1.00  0.00     0.037 A 
BRANCH  65  79
ATOM     79  C   UNL A   1      45.520  32.153  29.157  1.00  0.00     0.057 A 
ATOM     80  C   UNL A   1      45.723  32.569  30.479  1.00  0.00     0.134 A 
ATOM     81  C   UNL A   1      45.662  33.113  28.148  1.00  0.00     0.134 A 
ATOM     82  F   UNL A   1      45.578  31.706  31.495  1.00  0.00    -0.206 F 
ATOM     83  C   UNL A   1      46.031  33.896  30.787  1.00  0.00     0.040 A 
ATOM     84  C   UNL A   1      46.001  34.435  28.440  1.00  0.00     0.040 A 
ATOM     85  F   UNL A   1      45.477  32.783  26.860  1.00  0.00    -0.206 F 
ATOM     86  C   UNL A   1      46.180  34.831  29.764  1.00  0.00     0.006 A 
ENDBRANCH  65  79
BRANCH  66  87
ATOM     87  C   UNL A   1      42.679  22.778  27.009  1.00  0.00     0.057 A 
ATOM     88  C   UNL A   1      42.525  22.371  25.678  1.00  0.00     0.134 A 
ATOM     89  C   UNL A   1      42.402  21.835  28.006  1.00  0.00     0.134 A 
ATOM     90  F   UNL A   1      42.756  23.234  24.677  1.00  0.00    -0.206 F 
ATOM     91  C   UNL A   1      42.083  21.087  25.351  1.00  0.00     0.040 A 
ATOM     92  C   UNL A   1      41.989  20.539  27.693  1.00  0.00     0.040 A 
ATOM     93  F   UNL A   1      42.533  22.158  29.301  1.00  0.00    -0.206 F 
ATOM     94  C   UNL A   1      41.818  20.165  26.362  1.00  0.00     0.006 A 
ENDBRANCH  66  87
BRANCH  78  95
ATOM     95  C   UNL A   1      48.781  26.146  26.855  1.00  0.00     0.057 A 
ATOM     96  C   UNL A   1      49.339  26.344  25.586  1.00  0.00     0.134 A 
ATOM     97  C   UNL A   1      49.595  25.562  27.836  1.00  0.00     0.134 A 
ATOM     98  F   UNL A   1      48.610  26.889  24.601  1.00  0.00    -0.206 F 
ATOM     99  C   UNL A   1      50.647  25.952  25.297  1.00  0.00     0.040 A 
ATOM    100  C   UNL A   1      50.914  25.197  27.568  1.00  0.00     0.040 A 
ATOM    101  F   UNL A   1      49.127  25.357  29.076  1.00  0.00    -0.206 F 
ATOM    102  C   UNL A   1      51.441  25.386  26.292  1.00  0.00     0.006 A 
ENDBRANCH  78  95
ENDBRANCH  52  53
ENDBRANCH  45  47
ENDBRANCH  44  45
ENDBRANCH  43  44
ENDBRANCH  42  43
ENDBRANCH  41  42
ENDBRANCH  40  41
ENDBRANCH  39  40
ENDBRANCH  38  39
ENDBRANCH  37  38
ENDBRANCH   1  37
TORSDOF 25
ENDMDL
