MODEL 1
REMARK VINA RESULT:      -7.7      0.000      0.000
REMARK SMILES CC[C@@](C)([NH2+]CC(=O)N[C@@H](C)c1ccc(F)cc1)C(=O)OCCOCCOCCOCCOC(=O)c1ccc(-c2c3nc(c(-c4c(F)cccc4F)c4ccc([nH]4)c(-c4c(F)cccc4F)c4nc(c(-c5c(F)cccc5F)c5ccc2[nH]5)C=C4)C=C3)cc1
REMARK SMILES IDX 25 1 24 2 23 3 22 4 21 5 19 6 20 7 3 8 4 9 2 10 1 11 5 12
REMARK SMILES IDX 6 15 7 16 8 17 9 18 10 20 11 21 12 22 13 23 18 24 14 25
REMARK SMILES IDX 17 26 15 27 16 28 26 29 27 30 28 31 29 32 30 33 31 34 32 35
REMARK SMILES IDX 33 36 34 37 35 38 36 39 37 40 89 41 38 42 88 43 39 44 40 45
REMARK SMILES IDX 41 46 82 47 42 48 87 49 81 50 83 51 43 52 86 53 80 54 79 55
REMARK SMILES IDX 44 57 70 58 53 59 69 60 54 61 57 62 68 63 84 64 55 65 56 66
REMARK SMILES IDX 67 68 85 69 58 70 45 71 46 72 51 73 47 74 48 75 50 76 52 77
REMARK SMILES IDX 49 78 71 79 72 80 77 81 73 82 74 83 76 84 78 85 75 86 59 87
REMARK SMILES IDX 60 88 65 89 61 90 62 91 64 92 66 93 63 94
REMARK H PARENT 5 13 5 14 9 19 83 56 57 67
REMARK Flexibility Score: inf
ROOT
ATOM      1  C   UNL A   1      44.764  18.970  24.213  1.00  0.00     0.188 C 
ENDROOT
BRANCH   1   2
ATOM      2  O   UNL A   1      43.382  18.982  24.541  1.00  0.00    -0.376 OA
BRANCH   2   3
ATOM      3  C   UNL A   1      42.962  19.346  25.846  1.00  0.00     0.202 C 
BRANCH   3   4
ATOM      4  C   UNL A   1      41.663  20.118  26.123  1.00  0.00     0.261 C 
BRANCH   4   5
ATOM      5  O   UNL A   1      41.791  21.512  26.424  1.00  0.00    -0.459 OA
BRANCH   5   6
ATOM      6  C   UNL A   1      40.705  22.316  26.606  1.00  0.00     0.367 C 
ATOM      7  O   UNL A   1      39.567  21.994  26.290  1.00  0.00    -0.245 OA
BRANCH   6   8
ATOM      8  C   UNL A   1      41.113  23.701  27.249  1.00  0.00     0.191 C 
ATOM      9  C   UNL A   1      40.158  24.450  28.199  1.00  0.00     0.092 C 
BRANCH   8  10
ATOM     10  C   UNL A   1      42.344  23.334  28.146  1.00  0.00     0.077 C 
ATOM     11  C   UNL A   1      43.352  24.495  28.295  1.00  0.00     0.011 C 
ENDBRANCH   8  10
BRANCH   8  12
ATOM     12  N   UNL A   1      41.392  24.714  26.182  1.00  0.00    -0.325 N 
ATOM     13  H   UNL A   1      41.351  24.226  25.287  1.00  0.00     0.347 HD
ATOM     14  H   UNL A   1      42.297  25.105  26.441  1.00  0.00     0.347 HD
BRANCH  12  15
ATOM     15  C   UNL A   1      40.495  25.910  26.075  1.00  0.00     0.362 C 
BRANCH  15  16
ATOM     16  C   UNL A   1      41.141  27.308  25.935  1.00  0.00     0.275 C 
ATOM     17  O   UNL A   1      41.928  27.538  25.011  1.00  0.00    -0.268 OA
ATOM     18  N   UNL A   1      40.846  28.356  26.786  1.00  0.00    -0.345 N 
ATOM     19  H   UNL A   1      41.061  29.251  26.438  1.00  0.00     0.164 HD
BRANCH  18  20
ATOM     20  C   UNL A   1      40.265  28.333  28.124  1.00  0.00     0.109 C 
ATOM     21  C   UNL A   1      41.254  27.848  29.199  1.00  0.00     0.036 C 
BRANCH  20  22
ATOM     22  C   UNL A   1      39.542  29.567  28.620  1.00  0.00    -0.026 A 
ATOM     23  C   UNL A   1      40.253  30.417  29.505  1.00  0.00     0.009 A 
ATOM     24  C   UNL A   1      38.237  29.905  28.275  1.00  0.00     0.009 A 
ATOM     25  C   UNL A   1      39.664  31.537  30.075  1.00  0.00     0.039 A 
ATOM     26  C   UNL A   1      37.653  31.052  28.827  1.00  0.00     0.039 A 
ATOM     27  C   UNL A   1      38.363  31.845  29.726  1.00  0.00     0.123 A 
ATOM     28  F   UNL A   1      37.782  32.925  30.263  1.00  0.00    -0.207 F 
ENDBRANCH  20  22
ENDBRANCH  18  20
ENDBRANCH  15  16
ENDBRANCH  12  15
ENDBRANCH   8  12
ENDBRANCH   6   8
ENDBRANCH   5   6
ENDBRANCH   4   5
ENDBRANCH   3   4
ENDBRANCH   2   3
ENDBRANCH   1   2
BRANCH   1  29
ATOM     29  C   UNL A   1      45.801  19.078  25.354  1.00  0.00     0.188 C 
BRANCH  29  30
ATOM     30  O   UNL A   1      46.530  20.291  25.391  1.00  0.00    -0.377 OA
BRANCH  30  31
ATOM     31  C   UNL A   1      46.023  21.403  24.674  1.00  0.00     0.188 C 
BRANCH  31  32
ATOM     32  C   UNL A   1      45.566  22.674  25.420  1.00  0.00     0.188 C 
BRANCH  32  33
ATOM     33  O   UNL A   1      46.437  23.125  26.444  1.00  0.00    -0.376 OA
BRANCH  33  34
ATOM     34  C   UNL A   1      46.976  24.437  26.374  1.00  0.00     0.202 C 
BRANCH  34  35
ATOM     35  C   UNL A   1      47.120  25.094  24.992  1.00  0.00     0.261 C 
BRANCH  35  36
ATOM     36  O   UNL A   1      47.780  26.369  24.955  1.00  0.00    -0.460 OA
BRANCH  36  37
ATOM     37  C   UNL A   1      47.036  27.467  24.720  1.00  0.00     0.338 C 
ATOM     38  O   UNL A   1      46.777  27.966  23.634  1.00  0.00    -0.246 OA
BRANCH  37  39
ATOM     39  C   UNL A   1      46.411  27.863  25.999  1.00  0.00     0.060 A 
ATOM     40  C   UNL A   1      45.021  27.755  26.144  1.00  0.00     0.016 A 
ATOM     41  C   UNL A   1      47.200  28.308  27.061  1.00  0.00     0.016 A 
ATOM     42  C   UNL A   1      44.415  28.105  27.352  1.00  0.00     0.010 A 
ATOM     43  C   UNL A   1      46.587  28.691  28.257  1.00  0.00     0.010 A 
ATOM     44  C   UNL A   1      45.190  28.611  28.401  1.00  0.00    -0.014 A 
BRANCH  44  45
ATOM     45  C   UNL A   1      44.537  29.214  29.586  1.00  0.00     0.031 A 
ATOM     46  C   UNL A   1      44.133  30.661  29.522  1.00  0.00     0.074 A 
ATOM     47  C   UNL A   1      44.304  28.496  30.699  1.00  0.00     0.049 A 
ATOM     48  N   UNL A   1      43.650  31.429  30.462  1.00  0.00    -0.248 NA
ATOM     49  C   UNL A   1      44.294  31.331  28.219  1.00  0.00     0.031 C 
ATOM     50  C   UNL A   1      44.595  27.073  30.864  1.00  0.00     0.029 A 
ATOM     51  N   UNL A   1      43.782  28.876  31.913  1.00  0.00    -0.354 N 
ATOM     52  C   UNL A   1      43.459  32.671  29.870  1.00  0.00     0.074 A 
ATOM     53  C   UNL A   1      43.892  32.563  28.496  1.00  0.00     0.031 C 
ATOM     54  C   UNL A   1      44.269  26.705  32.116  1.00  0.00     0.029 A 
ATOM     55  C   UNL A   1      43.790  27.874  32.853  1.00  0.00     0.049 A 
ATOM     56  H   UNL A   1      43.437  29.780  32.092  1.00  0.00     0.167 HD
ATOM     57  C   UNL A   1      42.962  33.799  30.428  1.00  0.00     0.037 A 
ATOM     58  C   UNL A   1      43.483  27.907  34.167  1.00  0.00     0.037 A 
ATOM     59  C   UNL A   1      42.523  33.898  31.793  1.00  0.00     0.049 A 
ATOM     60  C   UNL A   1      43.022  29.203  34.787  1.00  0.00     0.074 A 
ATOM     61  C   UNL A   1      41.979  34.994  32.438  1.00  0.00     0.029 A 
ATOM     62  N   UNL A   1      42.585  32.873  32.723  1.00  0.00    -0.354 N 
ATOM     63  N   UNL A   1      42.823  30.367  34.216  1.00  0.00    -0.248 NA
ATOM     64  C   UNL A   1      42.752  29.195  36.233  1.00  0.00     0.031 C 
ATOM     65  C   UNL A   1      41.769  34.653  33.775  1.00  0.00     0.029 A 
ATOM     66  C   UNL A   1      42.124  33.325  33.948  1.00  0.00     0.049 A 
ATOM     67  H   UNL A   1      42.906  31.961  32.540  1.00  0.00     0.167 HD
ATOM     68  C   UNL A   1      42.385  31.218  35.224  1.00  0.00     0.074 A 
ATOM     69  C   UNL A   1      42.331  30.437  36.440  1.00  0.00     0.031 C 
ATOM     70  C   UNL A   1      42.063  32.532  35.149  1.00  0.00     0.037 A 
BRANCH  57  71
ATOM     71  C   UNL A   1      42.870  35.031  29.581  1.00  0.00     0.057 A 
ATOM     72  C   UNL A   1      41.685  35.331  28.895  1.00  0.00     0.134 A 
ATOM     73  C   UNL A   1      43.982  35.846  29.343  1.00  0.00     0.134 A 
ATOM     74  F   UNL A   1      40.585  34.585  29.078  1.00  0.00    -0.206 F 
ATOM     75  C   UNL A   1      41.620  36.380  27.978  1.00  0.00     0.040 A 
ATOM     76  C   UNL A   1      43.922  36.912  28.444  1.00  0.00     0.040 A 
ATOM     77  F   UNL A   1      45.140  35.618  29.978  1.00  0.00    -0.206 F 
ATOM     78  C   UNL A   1      42.743  37.171  27.747  1.00  0.00     0.006 A 
ENDBRANCH  57  71
BRANCH  58  79
ATOM     79  C   UNL A   1      43.636  26.684  34.998  1.00  0.00     0.057 A 
ATOM     80  C   UNL A   1      42.544  25.853  35.281  1.00  0.00     0.134 A 
ATOM     81  C   UNL A   1      44.881  26.303  35.512  1.00  0.00     0.134 A 
ATOM     82  F   UNL A   1      41.324  26.156  34.814  1.00  0.00    -0.206 F 
ATOM     83  C   UNL A   1      42.679  24.702  36.058  1.00  0.00     0.040 A 
ATOM     84  C   UNL A   1      45.037  25.137  36.266  1.00  0.00     0.040 A 
ATOM     85  F   UNL A   1      45.972  27.038  35.253  1.00  0.00    -0.206 F 
ATOM     86  C   UNL A   1      43.931  24.337  36.547  1.00  0.00     0.006 A 
ENDBRANCH  58  79
BRANCH  70  87
ATOM     87  C   UNL A   1      41.603  33.224  36.399  1.00  0.00     0.057 A 
ATOM     88  C   UNL A   1      40.242  33.273  36.729  1.00  0.00     0.134 A 
ATOM     89  C   UNL A   1      42.491  33.940  37.210  1.00  0.00     0.134 A 
ATOM     90  F   UNL A   1      39.336  32.622  35.984  1.00  0.00    -0.206 F 
ATOM     91  C   UNL A   1      39.777  34.033  37.804  1.00  0.00     0.040 A 
ATOM     92  C   UNL A   1      42.042  34.681  38.304  1.00  0.00     0.040 A 
ATOM     93  F   UNL A   1      43.808  33.928  36.954  1.00  0.00    -0.206 F 
ATOM     94  C   UNL A   1      40.680  34.740  38.595  1.00  0.00     0.006 A 
ENDBRANCH  70  87
ENDBRANCH  44  45
ENDBRANCH  37  39
ENDBRANCH  36  37
ENDBRANCH  35  36
ENDBRANCH  34  35
ENDBRANCH  33  34
ENDBRANCH  32  33
ENDBRANCH  31  32
ENDBRANCH  30  31
ENDBRANCH  29  30
ENDBRANCH   1  29
TORSDOF 26
ENDMDL
MODEL 2
REMARK VINA RESULT:      -7.5      4.779      8.486
REMARK SMILES CC[C@@](C)([NH2+]CC(=O)N[C@@H](C)c1ccc(F)cc1)C(=O)OCCOCCOCCOCCOC(=O)c1ccc(-c2c3nc(c(-c4c(F)cccc4F)c4ccc([nH]4)c(-c4c(F)cccc4F)c4nc(c(-c5c(F)cccc5F)c5ccc2[nH]5)C=C4)C=C3)cc1
REMARK SMILES IDX 25 1 24 2 23 3 22 4 21 5 19 6 20 7 3 8 4 9 2 10 1 11 5 12
REMARK SMILES IDX 6 15 7 16 8 17 9 18 10 20 11 21 12 22 13 23 18 24 14 25
REMARK SMILES IDX 17 26 15 27 16 28 26 29 27 30 28 31 29 32 30 33 31 34 32 35
REMARK SMILES IDX 33 36 34 37 35 38 36 39 37 40 89 41 38 42 88 43 39 44 40 45
REMARK SMILES IDX 41 46 82 47 42 48 87 49 81 50 83 51 43 52 86 53 80 54 79 55
REMARK SMILES IDX 44 57 70 58 53 59 69 60 54 61 57 62 68 63 84 64 55 65 56 66
REMARK SMILES IDX 67 68 85 69 58 70 45 71 46 72 51 73 47 74 48 75 50 76 52 77
REMARK SMILES IDX 49 78 71 79 72 80 77 81 73 82 74 83 76 84 78 85 75 86 59 87
REMARK SMILES IDX 60 88 65 89 61 90 62 91 64 92 66 93 63 94
REMARK H PARENT 5 13 5 14 9 19 83 56 57 67
REMARK Flexibility Score: inf
ROOT
ATOM      1  C   UNL A   1      37.197  22.104  25.436  1.00  0.00     0.188 C 
ENDROOT
BRANCH   1   2
ATOM      2  O   UNL A   1      36.018  22.752  24.983  1.00  0.00    -0.376 OA
BRANCH   2   3
ATOM      3  C   UNL A   1      35.524  23.894  25.664  1.00  0.00     0.202 C 
BRANCH   3   4
ATOM      4  C   UNL A   1      34.552  24.897  25.024  1.00  0.00     0.261 C 
BRANCH   4   5
ATOM      5  O   UNL A   1      34.403  26.161  25.680  1.00  0.00    -0.459 OA
BRANCH   5   6
ATOM      6  C   UNL A   1      33.666  27.174  25.141  1.00  0.00     0.367 C 
ATOM      7  O   UNL A   1      33.716  27.489  23.958  1.00  0.00    -0.245 OA
BRANCH   6   8
ATOM      8  C   UNL A   1      32.773  27.884  26.234  1.00  0.00     0.191 C 
ATOM      9  C   UNL A   1      33.409  28.602  27.439  1.00  0.00     0.092 C 
BRANCH   8  10
ATOM     10  C   UNL A   1      32.063  29.028  25.432  1.00  0.00     0.077 C 
ATOM     11  C   UNL A   1      32.056  30.379  26.181  1.00  0.00     0.011 C 
ENDBRANCH   8  10
BRANCH   8  12
ATOM     12  N   UNL A   1      31.847  26.898  26.877  1.00  0.00    -0.325 N 
ATOM     13  H   UNL A   1      30.956  27.372  27.019  1.00  0.00     0.347 HD
ATOM     14  H   UNL A   1      32.342  26.607  27.720  1.00  0.00     0.347 HD
BRANCH  12  15
ATOM     15  C   UNL A   1      31.557  25.614  26.162  1.00  0.00     0.362 C 
BRANCH  15  16
ATOM     16  C   UNL A   1      30.105  25.334  25.709  1.00  0.00     0.275 C 
ATOM     17  O   UNL A   1      29.164  25.518  26.489  1.00  0.00    -0.268 OA
ATOM     18  N   UNL A   1      29.789  24.918  24.430  1.00  0.00    -0.345 N 
ATOM     19  H   UNL A   1      28.852  25.065  24.161  1.00  0.00     0.164 HD
BRANCH  18  20
ATOM     20  C   UNL A   1      30.634  24.294  23.418  1.00  0.00     0.109 C 
ATOM     21  C   UNL A   1      31.525  25.305  22.675  1.00  0.00     0.036 C 
BRANCH  20  22
ATOM     22  C   UNL A   1      31.456  23.084  23.807  1.00  0.00    -0.026 A 
ATOM     23  C   UNL A   1      32.473  22.680  22.906  1.00  0.00     0.009 A 
ATOM     24  C   UNL A   1      31.267  22.348  24.973  1.00  0.00     0.009 A 
ATOM     25  C   UNL A   1      33.241  21.545  23.129  1.00  0.00     0.039 A 
ATOM     26  C   UNL A   1      32.061  21.220  25.213  1.00  0.00     0.039 A 
ATOM     27  C   UNL A   1      33.026  20.824  24.288  1.00  0.00     0.123 A 
ATOM     28  F   UNL A   1      33.760  19.730  24.521  1.00  0.00    -0.207 F 
ENDBRANCH  20  22
ENDBRANCH  18  20
ENDBRANCH  15  16
ENDBRANCH  12  15
ENDBRANCH   8  12
ENDBRANCH   6   8
ENDBRANCH   5   6
ENDBRANCH   4   5
ENDBRANCH   3   4
ENDBRANCH   2   3
ENDBRANCH   1   2
BRANCH   1  29
ATOM     29  C   UNL A   1      38.365  22.967  25.966  1.00  0.00     0.188 C 
BRANCH  29  30
ATOM     30  O   UNL A   1      39.381  22.253  26.644  1.00  0.00    -0.377 OA
BRANCH  30  31
ATOM     31  C   UNL A   1      39.734  20.967  26.164  1.00  0.00     0.188 C 
BRANCH  31  32
ATOM     32  C   UNL A   1      41.041  20.289  26.628  1.00  0.00     0.188 C 
BRANCH  32  33
ATOM     33  O   UNL A   1      42.116  21.169  26.910  1.00  0.00    -0.376 OA
BRANCH  33  34
ATOM     34  C   UNL A   1      43.012  21.531  25.870  1.00  0.00     0.202 C 
BRANCH  34  35
ATOM     35  C   UNL A   1      42.739  22.828  25.090  1.00  0.00     0.261 C 
BRANCH  35  36
ATOM     36  O   UNL A   1      43.763  23.834  25.142  1.00  0.00    -0.460 OA
BRANCH  36  37
ATOM     37  C   UNL A   1      44.497  23.939  26.267  1.00  0.00     0.338 C 
ATOM     38  O   UNL A   1      45.598  23.451  26.480  1.00  0.00    -0.246 OA
BRANCH  37  39
ATOM     39  C   UNL A   1      43.828  24.920  27.145  1.00  0.00     0.060 A 
ATOM     40  C   UNL A   1      44.169  26.276  27.042  1.00  0.00     0.016 A 
ATOM     41  C   UNL A   1      42.842  24.506  28.043  1.00  0.00     0.016 A 
ATOM     42  C   UNL A   1      43.532  27.221  27.848  1.00  0.00     0.010 A 
ATOM     43  C   UNL A   1      42.232  25.449  28.874  1.00  0.00     0.010 A 
ATOM     44  C   UNL A   1      42.589  26.807  28.795  1.00  0.00    -0.014 A 
BRANCH  44  45
ATOM     45  C   UNL A   1      42.094  27.759  29.818  1.00  0.00     0.031 A 
ATOM     46  C   UNL A   1      42.756  27.767  31.167  1.00  0.00     0.074 A 
ATOM     47  C   UNL A   1      41.077  28.600  29.558  1.00  0.00     0.049 A 
ATOM     48  N   UNL A   1      42.430  28.427  32.247  1.00  0.00    -0.248 NA
ATOM     49  C   UNL A   1      43.950  26.917  31.318  1.00  0.00     0.031 C 
ATOM     50  C   UNL A   1      40.393  28.729  28.273  1.00  0.00     0.029 A 
ATOM     51  N   UNL A   1      40.432  29.498  30.375  1.00  0.00    -0.354 N 
ATOM     52  C   UNL A   1      43.368  28.066  33.205  1.00  0.00     0.074 A 
ATOM     53  C   UNL A   1      44.267  27.118  32.589  1.00  0.00     0.031 C 
ATOM     54  C   UNL A   1      39.406  29.635  28.395  1.00  0.00     0.029 A 
ATOM     55  C   UNL A   1      39.361  30.117  29.776  1.00  0.00     0.049 A 
ATOM     56  H   UNL A   1      40.709  29.679  31.302  1.00  0.00     0.167 HD
ATOM     57  C   UNL A   1      43.468  28.495  34.484  1.00  0.00     0.037 A 
ATOM     58  C   UNL A   1      38.430  30.945  30.292  1.00  0.00     0.037 A 
ATOM     59  C   UNL A   1      42.577  29.447  35.089  1.00  0.00     0.049 A 
ATOM     60  C   UNL A   1      38.510  31.332  31.748  1.00  0.00     0.074 A 
ATOM     61  C   UNL A   1      42.618  29.961  36.372  1.00  0.00     0.029 A 
ATOM     62  N   UNL A   1      41.483  30.019  34.461  1.00  0.00    -0.354 N 
ATOM     63  N   UNL A   1      39.412  31.005  32.642  1.00  0.00    -0.248 NA
ATOM     64  C   UNL A   1      37.439  32.195  32.272  1.00  0.00     0.031 C 
ATOM     65  C   UNL A   1      41.513  30.796  36.542  1.00  0.00     0.029 A 
ATOM     66  C   UNL A   1      40.818  30.852  35.345  1.00  0.00     0.049 A 
ATOM     67  H   UNL A   1      41.218  29.858  33.526  1.00  0.00     0.167 HD
ATOM     68  C   UNL A   1      39.031  31.637  33.820  1.00  0.00     0.074 A 
ATOM     69  C   UNL A   1      37.826  32.380  33.528  1.00  0.00     0.031 C 
ATOM     70  C   UNL A   1      39.626  31.598  35.037  1.00  0.00     0.037 A 
BRANCH  57  71
ATOM     71  C   UNL A   1      44.568  27.940  35.337  1.00  0.00     0.057 A 
ATOM     72  C   UNL A   1      45.837  28.534  35.329  1.00  0.00     0.134 A 
ATOM     73  C   UNL A   1      44.410  26.753  36.062  1.00  0.00     0.134 A 
ATOM     74  F   UNL A   1      46.053  29.670  34.651  1.00  0.00    -0.206 F 
ATOM     75  C   UNL A   1      46.919  27.948  35.986  1.00  0.00     0.040 A 
ATOM     76  C   UNL A   1      45.480  26.170  36.742  1.00  0.00     0.040 A 
ATOM     77  F   UNL A   1      43.217  26.144  36.118  1.00  0.00    -0.206 F 
ATOM     78  C   UNL A   1      46.743  26.759  36.692  1.00  0.00     0.006 A 
ENDBRANCH  57  71
BRANCH  58  79
ATOM     79  C   UNL A   1      37.316  31.438  29.439  1.00  0.00     0.057 A 
ATOM     80  C   UNL A   1      36.190  30.646  29.181  1.00  0.00     0.134 A 
ATOM     81  C   UNL A   1      37.339  32.721  28.880  1.00  0.00     0.134 A 
ATOM     82  F   UNL A   1      36.101  29.409  29.691  1.00  0.00    -0.206 F 
ATOM     83  C   UNL A   1      35.139  31.101  28.384  1.00  0.00     0.040 A 
ATOM     84  C   UNL A   1      36.280  33.202  28.106  1.00  0.00     0.040 A 
ATOM     85  F   UNL A   1      38.374  33.541  29.113  1.00  0.00    -0.206 F 
ATOM     86  C   UNL A   1      35.179  32.387  27.850  1.00  0.00     0.006 A 
ENDBRANCH  58  79
BRANCH  70  87
ATOM     87  C   UNL A   1      39.009  32.388  36.154  1.00  0.00     0.057 A 
ATOM     88  C   UNL A   1      39.351  33.733  36.351  1.00  0.00     0.134 A 
ATOM     89  C   UNL A   1      38.173  31.789  37.103  1.00  0.00     0.134 A 
ATOM     90  F   UNL A   1      40.162  34.364  35.488  1.00  0.00    -0.206 F 
ATOM     91  C   UNL A   1      38.905  34.445  37.467  1.00  0.00     0.040 A 
ATOM     92  C   UNL A   1      37.698  32.498  38.208  1.00  0.00     0.040 A 
ATOM     93  F   UNL A   1      37.801  30.506  36.969  1.00  0.00    -0.206 F 
ATOM     94  C   UNL A   1      38.076  33.826  38.399  1.00  0.00     0.006 A 
ENDBRANCH  70  87
ENDBRANCH  44  45
ENDBRANCH  37  39
ENDBRANCH  36  37
ENDBRANCH  35  36
ENDBRANCH  34  35
ENDBRANCH  33  34
ENDBRANCH  32  33
ENDBRANCH  31  32
ENDBRANCH  30  31
ENDBRANCH  29  30
ENDBRANCH   1  29
TORSDOF 26
ENDMDL
MODEL 3
REMARK VINA RESULT:      -7.4      4.361      6.829
REMARK SMILES CC[C@@](C)([NH2+]CC(=O)N[C@@H](C)c1ccc(F)cc1)C(=O)OCCOCCOCCOCCOC(=O)c1ccc(-c2c3nc(c(-c4c(F)cccc4F)c4ccc([nH]4)c(-c4c(F)cccc4F)c4nc(c(-c5c(F)cccc5F)c5ccc2[nH]5)C=C4)C=C3)cc1
REMARK SMILES IDX 25 1 24 2 23 3 22 4 21 5 19 6 20 7 3 8 4 9 2 10 1 11 5 12
REMARK SMILES IDX 6 15 7 16 8 17 9 18 10 20 11 21 12 22 13 23 18 24 14 25
REMARK SMILES IDX 17 26 15 27 16 28 26 29 27 30 28 31 29 32 30 33 31 34 32 35
REMARK SMILES IDX 33 36 34 37 35 38 36 39 37 40 89 41 38 42 88 43 39 44 40 45
REMARK SMILES IDX 41 46 82 47 42 48 87 49 81 50 83 51 43 52 86 53 80 54 79 55
REMARK SMILES IDX 44 57 70 58 53 59 69 60 54 61 57 62 68 63 84 64 55 65 56 66
REMARK SMILES IDX 67 68 85 69 58 70 45 71 46 72 51 73 47 74 48 75 50 76 52 77
REMARK SMILES IDX 49 78 71 79 72 80 77 81 73 82 74 83 76 84 78 85 75 86 59 87
REMARK SMILES IDX 60 88 65 89 61 90 62 91 64 92 66 93 63 94
REMARK H PARENT 5 13 5 14 9 19 83 56 57 67
REMARK Flexibility Score: inf
ROOT
ATOM      1  C   UNL A   1      39.859  20.480  26.207  1.00  0.00     0.188 C 
ENDROOT
BRANCH   1   2
ATOM      2  O   UNL A   1      39.219  21.744  26.283  1.00  0.00    -0.376 OA
BRANCH   2   3
ATOM      3  C   UNL A   1      38.092  22.023  25.468  1.00  0.00     0.202 C 
BRANCH   3   4
ATOM      4  C   UNL A   1      36.958  22.965  25.901  1.00  0.00     0.261 C 
BRANCH   4   5
ATOM      5  O   UNL A   1      35.935  23.230  24.934  1.00  0.00    -0.459 OA
BRANCH   5   6
ATOM      6  C   UNL A   1      34.789  22.494  24.872  1.00  0.00     0.367 C 
ATOM      7  O   UNL A   1      34.760  21.278  25.013  1.00  0.00    -0.245 OA
BRANCH   6   8
ATOM      8  C   UNL A   1      33.532  23.405  24.578  1.00  0.00     0.191 C 
ATOM      9  C   UNL A   1      32.150  22.787  24.292  1.00  0.00     0.092 C 
BRANCH   8  10
ATOM     10  C   UNL A   1      33.335  24.192  25.918  1.00  0.00     0.077 C 
ATOM     11  C   UNL A   1      32.385  23.479  26.906  1.00  0.00     0.011 C 
ENDBRANCH   8  10
BRANCH   8  12
ATOM     12  N   UNL A   1      33.774  24.263  23.374  1.00  0.00    -0.325 N 
ATOM     13  H   UNL A   1      33.195  23.892  22.621  1.00  0.00     0.347 HD
ATOM     14  H   UNL A   1      34.783  24.213  23.233  1.00  0.00     0.347 HD
BRANCH  12  15
ATOM     15  C   UNL A   1      33.490  25.731  23.470  1.00  0.00     0.362 C 
BRANCH  15  16
ATOM     16  C   UNL A   1      32.831  26.436  22.261  1.00  0.00     0.275 C 
ATOM     17  O   UNL A   1      33.488  26.655  21.236  1.00  0.00    -0.268 OA
ATOM     18  N   UNL A   1      31.501  26.806  22.246  1.00  0.00    -0.345 N 
ATOM     19  H   UNL A   1      31.117  26.956  21.351  1.00  0.00     0.164 HD
BRANCH  18  20
ATOM     20  C   UNL A   1      30.579  27.009  23.358  1.00  0.00     0.109 C 
ATOM     21  C   UNL A   1      30.121  25.689  24.005  1.00  0.00     0.036 C 
BRANCH  20  22
ATOM     22  C   UNL A   1      30.954  28.000  24.439  1.00  0.00    -0.026 A 
ATOM     23  C   UNL A   1      30.785  29.375  24.138  1.00  0.00     0.009 A 
ATOM     24  C   UNL A   1      31.461  27.648  25.686  1.00  0.00     0.009 A 
ATOM     25  C   UNL A   1      31.161  30.371  25.028  1.00  0.00     0.039 A 
ATOM     26  C   UNL A   1      31.814  28.651  26.596  1.00  0.00     0.039 A 
ATOM     27  C   UNL A   1      31.674  29.996  26.256  1.00  0.00     0.123 A 
ATOM     28  F   UNL A   1      32.037  30.944  27.128  1.00  0.00    -0.207 F 
ENDBRANCH  20  22
ENDBRANCH  18  20
ENDBRANCH  15  16
ENDBRANCH  12  15
ENDBRANCH   8  12
ENDBRANCH   6   8
ENDBRANCH   5   6
ENDBRANCH   4   5
ENDBRANCH   3   4
ENDBRANCH   2   3
ENDBRANCH   1   2
BRANCH   1  29
ATOM     29  C   UNL A   1      41.285  20.330  26.785  1.00  0.00     0.188 C 
BRANCH  29  30
ATOM     30  O   UNL A   1      41.834  21.508  27.346  1.00  0.00    -0.377 OA
BRANCH  30  31
ATOM     31  C   UNL A   1      43.007  22.048  26.762  1.00  0.00     0.188 C 
BRANCH  31  32
ATOM     32  C   UNL A   1      43.771  21.266  25.674  1.00  0.00     0.188 C 
BRANCH  32  33
ATOM     33  O   UNL A   1      43.712  21.821  24.370  1.00  0.00    -0.376 OA
BRANCH  33  34
ATOM     34  C   UNL A   1      44.377  23.046  24.102  1.00  0.00     0.202 C 
BRANCH  34  35
ATOM     35  C   UNL A   1      45.851  23.183  24.517  1.00  0.00     0.261 C 
BRANCH  35  36
ATOM     36  O   UNL A   1      46.138  24.123  25.563  1.00  0.00    -0.460 OA
BRANCH  36  37
ATOM     37  C   UNL A   1      46.342  25.411  25.225  1.00  0.00     0.338 C 
ATOM     38  O   UNL A   1      46.943  25.832  24.247  1.00  0.00    -0.246 OA
BRANCH  37  39
ATOM     39  C   UNL A   1      45.540  26.244  26.144  1.00  0.00     0.060 A 
ATOM     40  C   UNL A   1      45.416  27.618  25.891  1.00  0.00     0.016 A 
ATOM     41  C   UNL A   1      44.885  25.665  27.232  1.00  0.00     0.016 A 
ATOM     42  C   UNL A   1      44.645  28.418  26.735  1.00  0.00     0.010 A 
ATOM     43  C   UNL A   1      44.143  26.474  28.096  1.00  0.00     0.010 A 
ATOM     44  C   UNL A   1      44.037  27.857  27.864  1.00  0.00    -0.014 A 
BRANCH  44  45
ATOM     45  C   UNL A   1      43.429  28.732  28.894  1.00  0.00     0.031 A 
ATOM     46  C   UNL A   1      44.255  29.103  30.094  1.00  0.00     0.074 A 
ATOM     47  C   UNL A   1      42.171  29.191  28.771  1.00  0.00     0.049 A 
ATOM     48  N   UNL A   1      43.907  29.760  31.169  1.00  0.00    -0.248 NA
ATOM     49  C   UNL A   1      45.666  28.676  30.079  1.00  0.00     0.031 C 
ATOM     50  C   UNL A   1      41.292  28.951  27.629  1.00  0.00     0.029 A 
ATOM     51  N   UNL A   1      41.409  29.945  29.631  1.00  0.00    -0.354 N 
ATOM     52  C   UNL A   1      45.047  29.817  31.960  1.00  0.00     0.074 A 
ATOM     53  C   UNL A   1      46.095  29.116  31.253  1.00  0.00     0.031 C 
ATOM     54  C   UNL A   1      40.099  29.526  27.869  1.00  0.00     0.029 A 
ATOM     55  C   UNL A   1      40.118  30.136  29.200  1.00  0.00     0.049 A 
ATOM     56  H   UNL A   1      41.754  30.312  30.477  1.00  0.00     0.167 HD
ATOM     57  C   UNL A   1      45.203  30.408  33.167  1.00  0.00     0.037 A 
ATOM     58  C   UNL A   1      39.064  30.702  29.823  1.00  0.00     0.037 A 
ATOM     59  C   UNL A   1      44.160  31.113  33.861  1.00  0.00     0.049 A 
ATOM     60  C   UNL A   1      39.240  31.268  31.210  1.00  0.00     0.074 A 
ATOM     61  C   UNL A   1      44.234  31.767  35.077  1.00  0.00     0.029 A 
ATOM     62  N   UNL A   1      42.858  31.249  33.409  1.00  0.00    -0.354 N 
ATOM     63  N   UNL A   1      40.326  31.338  31.941  1.00  0.00    -0.248 NA
ATOM     64  C   UNL A   1      38.045  31.825  31.863  1.00  0.00     0.031 C 
ATOM     65  C   UNL A   1      42.961  32.245  35.392  1.00  0.00     0.029 A 
ATOM     66  C   UNL A   1      42.108  31.944  34.343  1.00  0.00     0.049 A 
ATOM     67  H   UNL A   1      42.517  30.904  32.552  1.00  0.00     0.167 HD
ATOM     68  C   UNL A   1      39.952  31.964  33.125  1.00  0.00     0.074 A 
ATOM     69  C   UNL A   1      38.542  32.269  33.011  1.00  0.00     0.031 C 
ATOM     70  C   UNL A   1      40.708  32.253  34.211  1.00  0.00     0.037 A 
BRANCH  57  71
ATOM     71  C   UNL A   1      46.540  30.317  33.838  1.00  0.00     0.057 A 
ATOM     72  C   UNL A   1      46.810  29.278  34.739  1.00  0.00     0.134 A 
ATOM     73  C   UNL A   1      47.506  31.317  33.691  1.00  0.00     0.134 A 
ATOM     74  F   UNL A   1      45.921  28.290  34.925  1.00  0.00    -0.206 F 
ATOM     75  C   UNL A   1      47.981  29.256  35.496  1.00  0.00     0.040 A 
ATOM     76  C   UNL A   1      48.692  31.295  34.427  1.00  0.00     0.040 A 
ATOM     77  F   UNL A   1      47.312  32.331  32.835  1.00  0.00    -0.206 F 
ATOM     78  C   UNL A   1      48.925  30.270  35.343  1.00  0.00     0.006 A 
ENDBRANCH  57  71
BRANCH  58  79
ATOM     79  C   UNL A   1      37.733  30.730  29.159  1.00  0.00     0.057 A 
ATOM     80  C   UNL A   1      36.927  29.585  29.094  1.00  0.00     0.134 A 
ATOM     81  C   UNL A   1      37.225  31.905  28.593  1.00  0.00     0.134 A 
ATOM     82  F   UNL A   1      37.350  28.428  29.622  1.00  0.00    -0.206 F 
ATOM     83  C   UNL A   1      35.676  29.603  28.475  1.00  0.00     0.040 A 
ATOM     84  C   UNL A   1      35.961  31.944  27.998  1.00  0.00     0.040 A 
ATOM     85  F   UNL A   1      37.934  33.041  28.648  1.00  0.00    -0.206 F 
ATOM     86  C   UNL A   1      35.187  30.788  27.932  1.00  0.00     0.006 A 
ENDBRANCH  58  79
BRANCH  70  87
ATOM     87  C   UNL A   1      40.052  32.951  35.367  1.00  0.00     0.057 A 
ATOM     88  C   UNL A   1      39.372  32.220  36.351  1.00  0.00     0.134 A 
ATOM     89  C   UNL A   1      39.991  34.347  35.442  1.00  0.00     0.134 A 
ATOM     90  F   UNL A   1      39.376  30.878  36.328  1.00  0.00    -0.206 F 
ATOM     91  C   UNL A   1      38.632  32.853  37.351  1.00  0.00     0.040 A 
ATOM     92  C   UNL A   1      39.278  34.992  36.454  1.00  0.00     0.040 A 
ATOM     93  F   UNL A   1      40.628  35.105  34.537  1.00  0.00    -0.206 F 
ATOM     94  C   UNL A   1      38.584  34.244  37.404  1.00  0.00     0.006 A 
ENDBRANCH  70  87
ENDBRANCH  44  45
ENDBRANCH  37  39
ENDBRANCH  36  37
ENDBRANCH  35  36
ENDBRANCH  34  35
ENDBRANCH  33  34
ENDBRANCH  32  33
ENDBRANCH  31  32
ENDBRANCH  30  31
ENDBRANCH  29  30
ENDBRANCH   1  29
TORSDOF 26
ENDMDL
