MODEL 1
REMARK VINA RESULT:      -7.6      0.000      0.000
REMARK SMILES CC[N@H+](CC(C)(C)C(=O)OCCOCCOCCOCCOC(=O)c1ccc(-c2c3nc(c(-c4c(F)cccc4F)c4ccc([nH]4)c(-c4c(F)cccc4F)c4nc(c(-c5c(F)cccc5F)c5ccc2[nH]5)C=C4)C=C3)cc1)[C@H]1CC[NH2+]C1
REMARK SMILES IDX 15 1 14 2 13 3 12 4 11 5 10 6 8 7 9 8 5 9 6 10 7 11 4 12
REMARK SMILES IDX 3 13 2 15 1 16 79 17 80 18 83 19 81 20 82 21 16 24 17 25
REMARK SMILES IDX 18 26 19 27 20 28 21 29 22 30 23 31 24 32 25 33 26 34 78 35
REMARK SMILES IDX 27 36 77 37 28 38 29 39 30 40 71 41 31 42 76 43 70 44 72 45
REMARK SMILES IDX 32 46 75 47 69 48 68 49 33 51 59 52 42 53 58 54 43 55 46 56
REMARK SMILES IDX 57 57 73 58 44 59 45 60 56 62 74 63 47 64 34 65 35 66 40 67
REMARK SMILES IDX 36 68 37 69 39 70 41 71 38 72 60 73 61 74 66 75 62 76 63 77
REMARK SMILES IDX 65 78 67 79 64 80 48 81 49 82 54 83 50 84 51 85 53 86 55 87
REMARK SMILES IDX 52 88
REMARK H PARENT 3 14 82 22 82 23 72 50 46 61
REMARK Flexibility Score: inf
ROOT
ATOM      1  C   UNL A   1      38.541  24.058  26.561  1.00  0.00     0.188 C 
ENDROOT
BRANCH   1   2
ATOM      2  C   UNL A   1      37.624  23.609  25.410  1.00  0.00     0.188 C 
BRANCH   2   3
ATOM      3  O   UNL A   1      36.829  22.468  25.691  1.00  0.00    -0.376 OA
BRANCH   3   4
ATOM      4  C   UNL A   1      35.756  22.198  24.796  1.00  0.00     0.202 C 
BRANCH   4   5
ATOM      5  C   UNL A   1      35.685  23.032  23.507  1.00  0.00     0.261 C 
BRANCH   5   6
ATOM      6  O   UNL A   1      34.682  24.063  23.576  1.00  0.00    -0.463 OA
BRANCH   6   7
ATOM      7  C   UNL A   1      33.504  23.881  22.937  1.00  0.00     0.317 C 
ATOM      8  O   UNL A   1      33.422  23.469  21.786  1.00  0.00    -0.251 OA
BRANCH   7   9
ATOM      9  C   UNL A   1      32.301  24.225  23.838  1.00  0.00     0.111 C 
ATOM     10  C   UNL A   1      31.889  22.922  24.542  1.00  0.00     0.029 C 
ATOM     11  C   UNL A   1      31.080  24.674  22.971  1.00  0.00     0.029 C 
BRANCH   9  12
ATOM     12  C   UNL A   1      32.589  25.350  24.900  1.00  0.00     0.280 C 
BRANCH  12  13
ATOM     13  N   UNL A   1      31.700  26.534  25.057  1.00  0.00    -0.327 N 
ATOM     14  H   UNL A   1      30.827  26.296  24.585  1.00  0.00     0.348 HD
BRANCH  13  15
ATOM     15  C   UNL A   1      31.406  26.813  26.479  1.00  0.00     0.259 C 
ATOM     16  C   UNL A   1      31.888  28.166  27.001  1.00  0.00     0.071 C 
ENDBRANCH  13  15
BRANCH  13  17
ATOM     17  C   UNL A   1      32.259  27.751  24.406  1.00  0.00     0.245 C 
ATOM     18  C   UNL A   1      33.615  27.659  23.703  1.00  0.00     0.132 C 
ATOM     19  C   UNL A   1      31.369  28.421  23.340  1.00  0.00     0.326 C 
ATOM     20  C   UNL A   1      33.634  28.955  22.911  1.00  0.00     0.267 C 
ATOM     21  N   UNL A   1      32.273  29.085  22.374  1.00  0.00    -0.341 N 
ATOM     22  H   UNL A   1      32.210  28.629  21.464  1.00  0.00     0.346 HD
ATOM     23  H   UNL A   1      32.020  30.065  22.250  1.00  0.00     0.346 HD
ENDBRANCH  13  17
ENDBRANCH  12  13
ENDBRANCH   9  12
ENDBRANCH   7   9
ENDBRANCH   6   7
ENDBRANCH   5   6
ENDBRANCH   4   5
ENDBRANCH   3   4
ENDBRANCH   2   3
ENDBRANCH   1   2
BRANCH   1  24
ATOM     24  O   UNL A   1      39.878  23.593  26.571  1.00  0.00    -0.377 OA
BRANCH  24  25
ATOM     25  C   UNL A   1      40.279  22.681  27.588  1.00  0.00     0.188 C 
BRANCH  25  26
ATOM     26  C   UNL A   1      41.771  22.373  27.851  1.00  0.00     0.188 C 
BRANCH  26  27
ATOM     27  O   UNL A   1      42.154  21.020  27.674  1.00  0.00    -0.376 OA
BRANCH  27  28
ATOM     28  C   UNL A   1      42.506  20.607  26.363  1.00  0.00     0.202 C 
BRANCH  28  29
ATOM     29  C   UNL A   1      42.941  21.704  25.376  1.00  0.00     0.261 C 
BRANCH  29  30
ATOM     30  O   UNL A   1      44.157  21.458  24.648  1.00  0.00    -0.460 OA
BRANCH  30  31
ATOM     31  C   UNL A   1      45.321  21.529  25.327  1.00  0.00     0.338 C 
ATOM     32  O   UNL A   1      46.206  20.690  25.365  1.00  0.00    -0.246 OA
BRANCH  31  33
ATOM     33  C   UNL A   1      45.449  22.900  25.863  1.00  0.00     0.060 A 
ATOM     34  C   UNL A   1      45.554  23.081  27.250  1.00  0.00     0.016 A 
ATOM     35  C   UNL A   1      45.485  24.000  25.003  1.00  0.00     0.016 A 
ATOM     36  C   UNL A   1      45.649  24.364  27.783  1.00  0.00     0.010 A 
ATOM     37  C   UNL A   1      45.551  25.289  25.540  1.00  0.00     0.010 A 
ATOM     38  C   UNL A   1      45.588  25.476  26.934  1.00  0.00    -0.014 A 
BRANCH  38  39
ATOM     39  C   UNL A   1      45.309  26.813  27.512  1.00  0.00     0.031 A 
ATOM     40  C   UNL A   1      46.478  27.724  27.774  1.00  0.00     0.074 A 
ATOM     41  C   UNL A   1      44.056  27.233  27.757  1.00  0.00     0.049 A 
ATOM     42  N   UNL A   1      46.502  28.923  28.293  1.00  0.00    -0.248 NA
ATOM     43  C   UNL A   1      47.804  27.204  27.396  1.00  0.00     0.031 C 
ATOM     44  C   UNL A   1      42.838  26.468  27.499  1.00  0.00     0.029 A 
ATOM     45  N   UNL A   1      43.606  28.418  28.285  1.00  0.00    -0.354 N 
ATOM     46  C   UNL A   1      47.840  29.297  28.310  1.00  0.00     0.074 A 
ATOM     47  C   UNL A   1      48.601  28.187  27.784  1.00  0.00     0.031 C 
ATOM     48  C   UNL A   1      41.776  27.200  27.880  1.00  0.00     0.029 A 
ATOM     49  C   UNL A   1      42.242  28.470  28.437  1.00  0.00     0.049 A 
ATOM     50  H   UNL A   1      44.204  29.159  28.532  1.00  0.00     0.167 HD
ATOM     51  C   UNL A   1      48.387  30.467  28.716  1.00  0.00     0.037 A 
ATOM     52  C   UNL A   1      41.465  29.427  28.982  1.00  0.00     0.037 A 
ATOM     53  C   UNL A   1      47.629  31.570  29.245  1.00  0.00     0.049 A 
ATOM     54  C   UNL A   1      42.106  30.687  29.509  1.00  0.00     0.074 A 
ATOM     55  C   UNL A   1      48.086  32.801  29.678  1.00  0.00     0.029 A 
ATOM     56  N   UNL A   1      46.253  31.568  29.421  1.00  0.00    -0.354 N 
ATOM     57  N   UNL A   1      43.369  31.043  29.503  1.00  0.00    -0.248 NA
ATOM     58  C   UNL A   1      41.209  31.683  30.115  1.00  0.00     0.031 C 
ATOM     59  C   UNL A   1      46.995  33.522  30.173  1.00  0.00     0.029 A 
ATOM     60  C   UNL A   1      45.848  32.767  29.984  1.00  0.00     0.049 A 
ATOM     61  H   UNL A   1      45.653  30.825  29.182  1.00  0.00     0.167 HD
ATOM     62  C   UNL A   1      43.413  32.312  30.069  1.00  0.00     0.074 A 
ATOM     63  C   UNL A   1      42.048  32.669  30.395  1.00  0.00     0.031 C 
ATOM     64  C   UNL A   1      44.484  33.113  30.295  1.00  0.00     0.037 A 
BRANCH  51  65
ATOM     65  C   UNL A   1      49.880  30.595  28.636  1.00  0.00     0.057 A 
ATOM     66  C   UNL A   1      50.723  30.133  29.655  1.00  0.00     0.134 A 
ATOM     67  C   UNL A   1      50.486  31.175  27.513  1.00  0.00     0.134 A 
ATOM     68  F   UNL A   1      50.209  29.584  30.767  1.00  0.00    -0.206 F 
ATOM     69  C   UNL A   1      52.110  30.267  29.573  1.00  0.00     0.040 A 
ATOM     70  C   UNL A   1      51.873  31.287  27.406  1.00  0.00     0.040 A 
ATOM     71  F   UNL A   1      49.738  31.638  26.499  1.00  0.00    -0.206 F 
ATOM     72  C   UNL A   1      52.688  30.840  28.442  1.00  0.00     0.006 A 
ENDBRANCH  51  65
BRANCH  52  73
ATOM     73  C   UNL A   1      39.995  29.234  29.075  1.00  0.00     0.057 A 
ATOM     74  C   UNL A   1      39.168  29.385  27.956  1.00  0.00     0.134 A 
ATOM     75  C   UNL A   1      39.376  28.932  30.294  1.00  0.00     0.134 A 
ATOM     76  F   UNL A   1      39.696  29.702  26.764  1.00  0.00    -0.206 F 
ATOM     77  C   UNL A   1      37.780  29.262  28.047  1.00  0.00     0.040 A 
ATOM     78  C   UNL A   1      37.992  28.777  30.395  1.00  0.00     0.040 A 
ATOM     79  F   UNL A   1      40.109  28.777  31.406  1.00  0.00    -0.206 F 
ATOM     80  C   UNL A   1      37.189  28.951  29.270  1.00  0.00     0.006 A 
ENDBRANCH  52  73
BRANCH  64  81
ATOM     81  C   UNL A   1      44.223  34.473  30.879  1.00  0.00     0.057 A 
ATOM     82  C   UNL A   1      44.240  34.708  32.259  1.00  0.00     0.134 A 
ATOM     83  C   UNL A   1      43.990  35.572  30.041  1.00  0.00     0.134 A 
ATOM     84  F   UNL A   1      44.448  33.700  33.120  1.00  0.00    -0.206 F 
ATOM     85  C   UNL A   1      44.004  35.979  32.786  1.00  0.00     0.040 A 
ATOM     86  C   UNL A   1      43.786  36.854  30.554  1.00  0.00     0.040 A 
ATOM     87  F   UNL A   1      43.973  35.421  28.708  1.00  0.00    -0.206 F 
ATOM     88  C   UNL A   1      43.784  37.059  31.931  1.00  0.00     0.006 A 
ENDBRANCH  64  81
ENDBRANCH  38  39
ENDBRANCH  31  33
ENDBRANCH  30  31
ENDBRANCH  29  30
ENDBRANCH  28  29
ENDBRANCH  27  28
ENDBRANCH  26  27
ENDBRANCH  25  26
ENDBRANCH  24  25
ENDBRANCH   1  24
TORSDOF 24
ENDMDL
MODEL 2
REMARK VINA RESULT:      -7.5      4.797      9.004
REMARK SMILES CC[N@H+](CC(C)(C)C(=O)OCCOCCOCCOCCOC(=O)c1ccc(-c2c3nc(c(-c4c(F)cccc4F)c4ccc([nH]4)c(-c4c(F)cccc4F)c4nc(c(-c5c(F)cccc5F)c5ccc2[nH]5)C=C4)C=C3)cc1)[C@H]1CC[NH2+]C1
REMARK SMILES IDX 15 1 14 2 13 3 12 4 11 5 10 6 8 7 9 8 5 9 6 10 7 11 4 12
REMARK SMILES IDX 3 13 2 15 1 16 79 17 80 18 83 19 81 20 82 21 16 24 17 25
REMARK SMILES IDX 18 26 19 27 20 28 21 29 22 30 23 31 24 32 25 33 26 34 78 35
REMARK SMILES IDX 27 36 77 37 28 38 29 39 30 40 71 41 31 42 76 43 70 44 72 45
REMARK SMILES IDX 32 46 75 47 69 48 68 49 33 51 59 52 42 53 58 54 43 55 46 56
REMARK SMILES IDX 57 57 73 58 44 59 45 60 56 62 74 63 47 64 34 65 35 66 40 67
REMARK SMILES IDX 36 68 37 69 39 70 41 71 38 72 60 73 61 74 66 75 62 76 63 77
REMARK SMILES IDX 65 78 67 79 64 80 48 81 49 82 54 83 50 84 51 85 53 86 55 87
REMARK SMILES IDX 52 88
REMARK H PARENT 3 14 82 22 82 23 72 50 46 61
REMARK Flexibility Score: inf
ROOT
ATOM      1  C   UNL A   1      48.821  27.431  29.336  1.00  0.00     0.188 C 
ENDROOT
BRANCH   1   2
ATOM      2  C   UNL A   1      47.821  27.911  30.403  1.00  0.00     0.188 C 
BRANCH   2   3
ATOM      3  O   UNL A   1      48.114  29.179  30.967  1.00  0.00    -0.376 OA
BRANCH   3   4
ATOM      4  C   UNL A   1      47.105  30.178  30.855  1.00  0.00     0.202 C 
BRANCH   4   5
ATOM      5  C   UNL A   1      45.662  29.702  30.625  1.00  0.00     0.261 C 
BRANCH   5   6
ATOM      6  O   UNL A   1      45.277  29.772  29.239  1.00  0.00    -0.463 OA
BRANCH   6   7
ATOM      7  C   UNL A   1      44.405  30.728  28.845  1.00  0.00     0.317 C 
ATOM      8  O   UNL A   1      43.711  31.366  29.627  1.00  0.00    -0.251 OA
BRANCH   7   9
ATOM      9  C   UNL A   1      44.422  30.927  27.315  1.00  0.00     0.111 C 
ATOM     10  C   UNL A   1      43.205  30.171  26.757  1.00  0.00     0.029 C 
ATOM     11  C   UNL A   1      45.691  30.261  26.692  1.00  0.00     0.029 C 
BRANCH   9  12
ATOM     12  C   UNL A   1      44.383  32.432  26.859  1.00  0.00     0.280 C 
BRANCH  12  13
ATOM     13  N   UNL A   1      44.903  33.531  27.719  1.00  0.00    -0.327 N 
ATOM     14  H   UNL A   1      44.870  33.181  28.677  1.00  0.00     0.348 HD
BRANCH  13  15
ATOM     15  C   UNL A   1      46.305  33.870  27.389  1.00  0.00     0.259 C 
ATOM     16  C   UNL A   1      46.525  34.511  26.019  1.00  0.00     0.071 C 
ENDBRANCH  13  15
BRANCH  13  17
ATOM     17  C   UNL A   1      44.055  34.754  27.648  1.00  0.00     0.245 C 
ATOM     18  C   UNL A   1      43.210  34.997  26.395  1.00  0.00     0.132 C 
ATOM     19  C   UNL A   1      43.035  34.941  28.788  1.00  0.00     0.326 C 
ATOM     20  C   UNL A   1      42.280  36.101  26.868  1.00  0.00     0.267 C 
ATOM     21  N   UNL A   1      41.899  35.710  28.232  1.00  0.00    -0.341 N 
ATOM     22  H   UNL A   1      41.060  35.130  28.209  1.00  0.00     0.346 HD
ATOM     23  H   UNL A   1      41.695  36.528  28.804  1.00  0.00     0.346 HD
ENDBRANCH  13  17
ENDBRANCH  12  13
ENDBRANCH   9  12
ENDBRANCH   7   9
ENDBRANCH   6   7
ENDBRANCH   5   6
ENDBRANCH   4   5
ENDBRANCH   3   4
ENDBRANCH   2   3
ENDBRANCH   1   2
BRANCH   1  24
ATOM     24  O   UNL A   1      48.439  26.356  28.497  1.00  0.00    -0.377 OA
BRANCH  24  25
ATOM     25  C   UNL A   1      48.308  26.590  27.100  1.00  0.00     0.188 C 
BRANCH  25  26
ATOM     26  C   UNL A   1      49.279  25.949  26.081  1.00  0.00     0.188 C 
BRANCH  26  27
ATOM     27  O   UNL A   1      48.703  25.581  24.839  1.00  0.00    -0.376 OA
BRANCH  27  28
ATOM     28  C   UNL A   1      47.295  25.696  24.713  1.00  0.00     0.202 C 
BRANCH  28  29
ATOM     29  C   UNL A   1      46.485  24.389  24.667  1.00  0.00     0.261 C 
BRANCH  29  30
ATOM     30  O   UNL A   1      45.057  24.523  24.752  1.00  0.00    -0.460 OA
BRANCH  30  31
ATOM     31  C   UNL A   1      44.417  23.838  25.723  1.00  0.00     0.338 C 
ATOM     32  O   UNL A   1      44.566  22.665  26.021  1.00  0.00    -0.246 OA
BRANCH  31  33
ATOM     33  C   UNL A   1      43.640  24.809  26.523  1.00  0.00     0.060 A 
ATOM     34  C   UNL A   1      44.092  26.134  26.612  1.00  0.00     0.016 A 
ATOM     35  C   UNL A   1      42.463  24.419  27.166  1.00  0.00     0.016 A 
ATOM     36  C   UNL A   1      43.392  27.061  27.381  1.00  0.00     0.010 A 
ATOM     37  C   UNL A   1      41.778  25.342  27.961  1.00  0.00     0.010 A 
ATOM     38  C   UNL A   1      42.265  26.654  28.106  1.00  0.00    -0.014 A 
BRANCH  38  39
ATOM     39  C   UNL A   1      41.758  27.519  29.198  1.00  0.00     0.031 A 
ATOM     40  C   UNL A   1      42.468  27.466  30.524  1.00  0.00     0.074 A 
ATOM     41  C   UNL A   1      40.730  28.366  29.014  1.00  0.00     0.049 A 
ATOM     42  N   UNL A   1      42.207  28.101  31.637  1.00  0.00    -0.248 NA
ATOM     43  C   UNL A   1      43.634  26.569  30.602  1.00  0.00     0.031 C 
ATOM     44  C   UNL A   1      39.994  28.549  27.766  1.00  0.00     0.029 A 
ATOM     45  N   UNL A   1      40.126  29.230  29.894  1.00  0.00    -0.354 N 
ATOM     46  C   UNL A   1      43.170  27.676  32.545  1.00  0.00     0.074 A 
ATOM     47  C   UNL A   1      43.997  26.704  31.867  1.00  0.00     0.031 C 
ATOM     48  C   UNL A   1      39.028  29.464  27.962  1.00  0.00     0.029 A 
ATOM     49  C   UNL A   1      39.058  29.906  29.356  1.00  0.00     0.049 A 
ATOM     50  H   UNL A   1      40.430  29.355  30.822  1.00  0.00     0.167 HD
ATOM     51  C   UNL A   1      43.356  28.070  33.826  1.00  0.00     0.037 A 
ATOM     52  C   UNL A   1      38.195  30.765  29.933  1.00  0.00     0.037 A 
ATOM     53  C   UNL A   1      42.528  29.033  34.502  1.00  0.00     0.049 A 
ATOM     54  C   UNL A   1      38.370  31.123  31.388  1.00  0.00     0.074 A 
ATOM     55  C   UNL A   1      42.637  29.505  35.797  1.00  0.00     0.029 A 
ATOM     56  N   UNL A   1      41.431  29.664  33.936  1.00  0.00    -0.354 N 
ATOM     57  N   UNL A   1      39.293  30.733  32.234  1.00  0.00    -0.248 NA
ATOM     58  C   UNL A   1      37.382  32.045  31.967  1.00  0.00     0.031 C 
ATOM     59  C   UNL A   1      41.569  30.377  36.035  1.00  0.00     0.029 A 
ATOM     60  C   UNL A   1      40.836  30.501  34.865  1.00  0.00     0.049 A 
ATOM     61  H   UNL A   1      41.121  29.536  33.009  1.00  0.00     0.167 HD
ATOM     62  C   UNL A   1      39.019  31.388  33.430  1.00  0.00     0.074 A 
ATOM     63  C   UNL A   1      37.850  32.209  33.195  1.00  0.00     0.031 C 
ATOM     64  C   UNL A   1      39.677  31.320  34.615  1.00  0.00     0.037 A 
BRANCH  51  65
ATOM     65  C   UNL A   1      44.479  27.428  34.588  1.00  0.00     0.057 A 
ATOM     66  C   UNL A   1      45.764  27.985  34.631  1.00  0.00     0.134 A 
ATOM     67  C   UNL A   1      44.267  26.241  35.303  1.00  0.00     0.134 A 
ATOM     68  F   UNL A   1      46.041  29.110  33.954  1.00  0.00    -0.206 F 
ATOM     69  C   UNL A   1      46.803  27.372  35.335  1.00  0.00     0.040 A 
ATOM     70  C   UNL A   1      45.290  25.636  36.035  1.00  0.00     0.040 A 
ATOM     71  F   UNL A   1      43.060  25.654  35.306  1.00  0.00    -0.206 F 
ATOM     72  C   UNL A   1      46.564  26.198  36.045  1.00  0.00     0.006 A 
ENDBRANCH  51  65
BRANCH  52  73
ATOM     73  C   UNL A   1      37.075  31.342  29.145  1.00  0.00     0.057 A 
ATOM     74  C   UNL A   1      37.113  32.664  28.686  1.00  0.00     0.134 A 
ATOM     75  C   UNL A   1      35.922  30.598  28.866  1.00  0.00     0.134 A 
ATOM     76  F   UNL A   1      38.177  33.438  28.944  1.00  0.00    -0.206 F 
ATOM     77  C   UNL A   1      36.040  33.230  27.994  1.00  0.00     0.040 A 
ATOM     78  C   UNL A   1      34.854  31.142  28.150  1.00  0.00     0.040 A 
ATOM     79  F   UNL A   1      35.819  29.326  29.280  1.00  0.00    -0.206 F 
ATOM     80  C   UNL A   1      34.908  32.466  27.720  1.00  0.00     0.006 A 
ENDBRANCH  52  73
BRANCH  64  81
ATOM     81  C   UNL A   1      39.180  32.191  35.734  1.00  0.00     0.057 A 
ATOM     82  C   UNL A   1      39.584  33.525  35.877  1.00  0.00     0.134 A 
ATOM     83  C   UNL A   1      38.252  31.696  36.661  1.00  0.00     0.134 A 
ATOM     84  F   UNL A   1      40.476  34.061  35.030  1.00  0.00    -0.206 F 
ATOM     85  C   UNL A   1      39.107  34.324  36.917  1.00  0.00     0.040 A 
ATOM     86  C   UNL A   1      37.743  32.496  37.686  1.00  0.00     0.040 A 
ATOM     87  F   UNL A   1      37.812  30.432  36.576  1.00  0.00    -0.206 F 
ATOM     88  C   UNL A   1      38.177  33.811  37.822  1.00  0.00     0.006 A 
ENDBRANCH  64  81
ENDBRANCH  38  39
ENDBRANCH  31  33
ENDBRANCH  30  31
ENDBRANCH  29  30
ENDBRANCH  28  29
ENDBRANCH  27  28
ENDBRANCH  26  27
ENDBRANCH  25  26
ENDBRANCH  24  25
ENDBRANCH   1  24
TORSDOF 24
ENDMDL
MODEL 3
REMARK VINA RESULT:      -7.4      6.363     10.987
REMARK SMILES CC[N@H+](CC(C)(C)C(=O)OCCOCCOCCOCCOC(=O)c1ccc(-c2c3nc(c(-c4c(F)cccc4F)c4ccc([nH]4)c(-c4c(F)cccc4F)c4nc(c(-c5c(F)cccc5F)c5ccc2[nH]5)C=C4)C=C3)cc1)[C@H]1CC[NH2+]C1
REMARK SMILES IDX 15 1 14 2 13 3 12 4 11 5 10 6 8 7 9 8 5 9 6 10 7 11 4 12
REMARK SMILES IDX 3 13 2 15 1 16 79 17 80 18 83 19 81 20 82 21 16 24 17 25
REMARK SMILES IDX 18 26 19 27 20 28 21 29 22 30 23 31 24 32 25 33 26 34 78 35
REMARK SMILES IDX 27 36 77 37 28 38 29 39 30 40 71 41 31 42 76 43 70 44 72 45
REMARK SMILES IDX 32 46 75 47 69 48 68 49 33 51 59 52 42 53 58 54 43 55 46 56
REMARK SMILES IDX 57 57 73 58 44 59 45 60 56 62 74 63 47 64 34 65 35 66 40 67
REMARK SMILES IDX 36 68 37 69 39 70 41 71 38 72 60 73 61 74 66 75 62 76 63 77
REMARK SMILES IDX 65 78 67 79 64 80 48 81 49 82 54 83 50 84 51 85 53 86 55 87
REMARK SMILES IDX 52 88
REMARK H PARENT 3 14 82 22 82 23 72 50 46 61
REMARK Flexibility Score: inf
ROOT
ATOM      1  C   UNL A   1      39.027  33.005  34.189  1.00  0.00     0.188 C 
ENDROOT
BRANCH   1   2
ATOM      2  C   UNL A   1      38.402  34.083  33.286  1.00  0.00     0.188 C 
BRANCH   2   3
ATOM      3  O   UNL A   1      37.262  34.729  33.831  1.00  0.00    -0.376 OA
BRANCH   3   4
ATOM      4  C   UNL A   1      35.996  34.143  33.546  1.00  0.00     0.202 C 
BRANCH   4   5
ATOM      5  C   UNL A   1      35.133  34.813  32.466  1.00  0.00     0.261 C 
BRANCH   5   6
ATOM      6  O   UNL A   1      35.569  34.482  31.134  1.00  0.00    -0.463 OA
BRANCH   6   7
ATOM      7  C   UNL A   1      35.509  33.195  30.722  1.00  0.00     0.317 C 
ATOM      8  O   UNL A   1      34.575  32.449  30.986  1.00  0.00    -0.251 OA
BRANCH   7   9
ATOM      9  C   UNL A   1      36.732  32.808  29.866  1.00  0.00     0.111 C 
ATOM     10  C   UNL A   1      37.485  34.111  29.554  1.00  0.00     0.029 C 
ATOM     11  C   UNL A   1      36.272  32.214  28.495  1.00  0.00     0.029 C 
BRANCH   9  12
ATOM     12  C   UNL A   1      37.698  31.771  30.550  1.00  0.00     0.280 C 
BRANCH  12  13
ATOM     13  N   UNL A   1      37.990  30.444  29.942  1.00  0.00    -0.327 N 
ATOM     14  H   UNL A   1      37.379  30.364  29.129  1.00  0.00     0.348 HD
BRANCH  13  15
ATOM     15  C   UNL A   1      39.395  30.348  29.487  1.00  0.00     0.259 C 
ATOM     16  C   UNL A   1      40.363  31.348  30.116  1.00  0.00     0.071 C 
ENDBRANCH  13  15
BRANCH  13  17
ATOM     17  C   UNL A   1      37.678  29.318  30.865  1.00  0.00     0.245 C 
ATOM     18  C   UNL A   1      38.744  28.250  31.119  1.00  0.00     0.132 C 
ATOM     19  C   UNL A   1      37.242  29.709  32.291  1.00  0.00     0.326 C 
ATOM     20  C   UNL A   1      38.172  27.533  32.329  1.00  0.00     0.267 C 
ATOM     21  N   UNL A   1      37.653  28.605  33.188  1.00  0.00    -0.341 N 
ATOM     22  H   UNL A   1      38.380  28.924  33.828  1.00  0.00     0.346 HD
ATOM     23  H   UNL A   1      36.867  28.277  33.749  1.00  0.00     0.346 HD
ENDBRANCH  13  17
ENDBRANCH  12  13
ENDBRANCH   9  12
ENDBRANCH   7   9
ENDBRANCH   6   7
ENDBRANCH   5   6
ENDBRANCH   4   5
ENDBRANCH   3   4
ENDBRANCH   2   3
ENDBRANCH   1   2
BRANCH   1  24
ATOM     24  O   UNL A   1      38.946  33.179  35.592  1.00  0.00    -0.377 OA
BRANCH  24  25
ATOM     25  C   UNL A   1      38.699  32.042  36.411  1.00  0.00     0.188 C 
BRANCH  25  26
ATOM     26  C   UNL A   1      38.025  32.177  37.795  1.00  0.00     0.188 C 
BRANCH  26  27
ATOM     27  O   UNL A   1      38.861  32.651  38.837  1.00  0.00    -0.376 OA
BRANCH  27  28
ATOM     28  C   UNL A   1      38.910  34.053  39.048  1.00  0.00     0.202 C 
BRANCH  28  29
ATOM     29  C   UNL A   1      40.301  34.693  39.191  1.00  0.00     0.261 C 
BRANCH  29  30
ATOM     30  O   UNL A   1      40.359  36.123  39.063  1.00  0.00    -0.460 OA
BRANCH  30  31
ATOM     31  C   UNL A   1      41.538  36.676  38.710  1.00  0.00     0.338 C 
ATOM     32  O   UNL A   1      42.232  37.426  39.377  1.00  0.00    -0.246 OA
BRANCH  31  33
ATOM     33  C   UNL A   1      41.968  36.052  37.440  1.00  0.00     0.060 A 
ATOM     34  C   UNL A   1      41.092  36.069  36.344  1.00  0.00     0.016 A 
ATOM     35  C   UNL A   1      43.233  35.472  37.326  1.00  0.00     0.016 A 
ATOM     36  C   UNL A   1      41.463  35.466  35.145  1.00  0.00     0.010 A 
ATOM     37  C   UNL A   1      43.591  34.841  36.131  1.00  0.00     0.010 A 
ATOM     38  C   UNL A   1      42.690  34.798  35.052  1.00  0.00    -0.014 A 
BRANCH  38  39
ATOM     39  C   UNL A   1      42.914  33.851  33.933  1.00  0.00     0.031 A 
ATOM     40  C   UNL A   1      43.128  34.426  32.558  1.00  0.00     0.074 A 
ATOM     41  C   UNL A   1      42.976  32.522  34.128  1.00  0.00     0.049 A 
ATOM     42  N   UNL A   1      43.318  33.815  31.419  1.00  0.00    -0.248 NA
ATOM     43  C   UNL A   1      43.123  35.896  32.461  1.00  0.00     0.031 C 
ATOM     44  C   UNL A   1      42.838  31.846  35.415  1.00  0.00     0.029 A 
ATOM     45  N   UNL A   1      43.169  31.503  33.228  1.00  0.00    -0.354 N 
ATOM     46  C   UNL A   1      43.450  34.823  30.471  1.00  0.00     0.074 A 
ATOM     47  C   UNL A   1      43.282  36.082  31.161  1.00  0.00     0.031 C 
ATOM     48  C   UNL A   1      42.941  30.519  35.222  1.00  0.00     0.029 A 
ATOM     49  C   UNL A   1      43.121  30.253  33.795  1.00  0.00     0.049 A 
ATOM     50  H   UNL A   1      43.328  31.654  32.269  1.00  0.00     0.167 HD
ATOM     51  C   UNL A   1      43.702  34.711  29.146  1.00  0.00     0.037 A 
ATOM     52  C   UNL A   1      43.192  29.036  33.219  1.00  0.00     0.037 A 
ATOM     53  C   UNL A   1      43.863  33.457  28.459  1.00  0.00     0.049 A 
ATOM     54  C   UNL A   1      43.385  28.935  31.727  1.00  0.00     0.074 A 
ATOM     55  C   UNL A   1      44.127  33.235  27.120  1.00  0.00     0.029 A 
ATOM     56  N   UNL A   1      43.765  32.211  29.061  1.00  0.00    -0.354 N 
ATOM     57  N   UNL A   1      43.529  29.891  30.840  1.00  0.00    -0.248 NA
ATOM     58  C   UNL A   1      43.430  27.580  31.155  1.00  0.00     0.031 C 
ATOM     59  C   UNL A   1      44.129  31.854  26.899  1.00  0.00     0.029 A 
ATOM     60  C   UNL A   1      43.936  31.215  28.113  1.00  0.00     0.049 A 
ATOM     61  H   UNL A   1      43.600  32.057  30.020  1.00  0.00     0.167 HD
ATOM     62  C   UNL A   1      43.717  29.256  29.618  1.00  0.00     0.074 A 
ATOM     63  C   UNL A   1      43.681  27.833  29.879  1.00  0.00     0.031 C 
ATOM     64  C   UNL A   1      43.905  29.801  28.389  1.00  0.00     0.037 A 
BRANCH  51  65
ATOM     65  C   UNL A   1      43.780  35.981  28.349  1.00  0.00     0.057 A 
ATOM     66  C   UNL A   1      44.990  36.657  28.142  1.00  0.00     0.134 A 
ATOM     67  C   UNL A   1      42.629  36.529  27.767  1.00  0.00     0.134 A 
ATOM     68  F   UNL A   1      46.128  36.198  28.686  1.00  0.00    -0.206 F 
ATOM     69  C   UNL A   1      45.048  37.843  27.408  1.00  0.00     0.040 A 
ATOM     70  C   UNL A   1      42.680  37.697  27.006  1.00  0.00     0.040 A 
ATOM     71  F   UNL A   1      41.437  35.933  27.925  1.00  0.00    -0.206 F 
ATOM     72  C   UNL A   1      43.891  38.362  26.832  1.00  0.00     0.006 A 
ENDBRANCH  51  65
BRANCH  52  73
ATOM     73  C   UNL A   1      43.068  27.808  34.048  1.00  0.00     0.057 A 
ATOM     74  C   UNL A   1      44.197  27.089  34.456  1.00  0.00     0.134 A 
ATOM     75  C   UNL A   1      41.815  27.304  34.418  1.00  0.00     0.134 A 
ATOM     76  F   UNL A   1      45.424  27.504  34.111  1.00  0.00    -0.206 F 
ATOM     77  C   UNL A   1      44.085  25.903  35.186  1.00  0.00     0.040 A 
ATOM     78  C   UNL A   1      41.689  26.135  35.172  1.00  0.00     0.040 A 
ATOM     79  F   UNL A   1      40.693  27.943  34.056  1.00  0.00    -0.206 F 
ATOM     80  C   UNL A   1      42.827  25.427  35.551  1.00  0.00     0.006 A 
ENDBRANCH  52  73
BRANCH  64  81
ATOM     81  C   UNL A   1      44.137  28.859  27.241  1.00  0.00     0.057 A 
ATOM     82  C   UNL A   1      45.411  28.375  26.920  1.00  0.00     0.134 A 
ATOM     83  C   UNL A   1      43.059  28.400  26.471  1.00  0.00     0.134 A 
ATOM     84  F   UNL A   1      46.488  28.779  27.610  1.00  0.00    -0.206 F 
ATOM     85  C   UNL A   1      45.609  27.493  25.855  1.00  0.00     0.040 A 
ATOM     86  C   UNL A   1      43.241  27.493  25.426  1.00  0.00     0.040 A 
ATOM     87  F   UNL A   1      41.811  28.812  26.733  1.00  0.00    -0.206 F 
ATOM     88  C   UNL A   1      44.520  27.044  25.110  1.00  0.00     0.006 A 
ENDBRANCH  64  81
ENDBRANCH  38  39
ENDBRANCH  31  33
ENDBRANCH  30  31
ENDBRANCH  29  30
ENDBRANCH  28  29
ENDBRANCH  27  28
ENDBRANCH  26  27
ENDBRANCH  25  26
ENDBRANCH  24  25
ENDBRANCH   1  24
TORSDOF 24
ENDMDL
