MODEL 1
REMARK VINA RESULT:      -7.5      0.000      0.000
REMARK SMILES COc1ccc([C@@H]2C(C#N)=C(N)N3C(=O)[C@H](CC(=O)OCCOCCOCCOCCOC(=O)c4ccc(-c5c6nc(c(-c7c(F)cccc7F)c7ccc([nH]7)c(-c7c(F)cccc7F)c7nc(c(-c8c(F)cccc8F)c8ccc5[nH]8)C=C7)C=C6)cc4)SC3=C2C#N)cc1
REMARK SMILES IDX 25 1 24 2 23 3 22 4 21 5 20 6 18 7 19 8 17 9 16 10 7 11 8 12
REMARK SMILES IDX 91 13 11 14 90 15 13 16 89 17 14 18 15 19 6 20 3 21 4 22
REMARK SMILES IDX 95 23 5 24 94 25 2 26 1 27 9 28 10 29 92 30 93 31 12 32
REMARK SMILES IDX 26 35 27 36 28 37 29 38 30 39 31 40 32 41 33 42 34 43 35 44
REMARK SMILES IDX 36 45 88 46 37 47 87 48 38 49 39 50 40 51 81 52 41 53 86 54
REMARK SMILES IDX 80 55 82 56 42 57 85 58 79 59 78 60 43 62 69 63 52 64 68 65
REMARK SMILES IDX 53 66 56 67 67 68 83 69 54 70 55 71 66 73 84 74 57 75 44 76
REMARK SMILES IDX 45 77 50 78 46 79 47 80 49 81 51 82 48 83 70 84 71 85 76 86
REMARK SMILES IDX 72 87 73 88 75 89 77 90 74 91 58 92 59 93 64 94 60 95 61 96
REMARK SMILES IDX 63 97 65 98 62 99
REMARK H PARENT 12 33 12 34 82 61 56 72
REMARK Flexibility Score: inf
ROOT
ATOM      1  C   UNL A   1      48.454  42.809  28.915  1.00  0.00     0.188 C 
ENDROOT
BRANCH   1   2
ATOM      2  C   UNL A   1      48.540  41.307  28.624  1.00  0.00     0.188 C 
BRANCH   2   3
ATOM      3  O   UNL A   1      47.371  40.522  28.715  1.00  0.00    -0.376 OA
BRANCH   3   4
ATOM      4  C   UNL A   1      46.965  39.670  27.654  1.00  0.00     0.202 C 
BRANCH   4   5
ATOM      5  C   UNL A   1      46.651  40.138  26.222  1.00  0.00     0.261 C 
BRANCH   5   6
ATOM      6  O   UNL A   1      46.114  41.460  26.072  1.00  0.00    -0.463 OA
BRANCH   6   7
ATOM      7  C   UNL A   1      44.945  41.551  25.395  1.00  0.00     0.307 C 
ATOM      8  O   UNL A   1      44.093  40.669  25.362  1.00  0.00    -0.252 OA
BRANCH   7   9
ATOM      9  C   UNL A   1      44.715  42.876  24.704  1.00  0.00     0.147 C 
BRANCH   9  10
ATOM     10  C   UNL A   1      44.928  42.922  23.207  1.00  0.00     0.154 C 
ATOM     11  C   UNL A   1      44.979  45.400  18.909  1.00  0.00     0.107 C 
ATOM     12  C   UNL A   1      43.595  44.798  19.058  1.00  0.00     0.083 C 
ATOM     13  C   UNL A   1      45.792  45.199  20.160  1.00  0.00     0.073 C 
ATOM     14  C   UNL A   1      43.196  44.042  20.108  1.00  0.00     0.126 C 
ATOM     15  C   UNL A   1      45.307  44.454  21.174  1.00  0.00     0.099 C 
ATOM     16  N   UNL A   1      44.066  43.836  21.174  1.00  0.00    -0.258 N 
ATOM     17  S   UNL A   1      46.088  44.246  22.711  1.00  0.00    -0.093 SA
ATOM     18  C   UNL A   1      43.702  43.151  22.353  1.00  0.00     0.247 C 
ATOM     19  O   UNL A   1      42.586  42.724  22.635  1.00  0.00    -0.273 OA
BRANCH  11  20
ATOM     20  C   UNL A   1      44.947  46.867  18.479  1.00  0.00    -0.034 A 
ATOM     21  C   UNL A   1      44.790  49.563  17.694  1.00  0.00     0.118 A 
ATOM     22  C   UNL A   1      44.433  49.187  18.986  1.00  0.00     0.047 A 
ATOM     23  C   UNL A   1      45.264  48.603  16.801  1.00  0.00     0.047 A 
ATOM     24  C   UNL A   1      44.499  47.849  19.377  1.00  0.00     0.008 A 
ATOM     25  C   UNL A   1      45.338  47.263  17.188  1.00  0.00     0.008 A 
BRANCH  21  26
ATOM     26  O   UNL A   1      44.699  50.897  17.408  1.00  0.00    -0.497 OA
ATOM     27  C   UNL A   1      45.469  51.302  16.280  1.00  0.00     0.278 C 
ENDBRANCH  21  26
ENDBRANCH  11  20
BRANCH  12  28
ATOM     28  C   UNL A   1      42.521  45.261  18.088  1.00  0.00     0.100 C 
ATOM     29  N   UNL A   1      41.629  45.645  17.283  1.00  0.00    -0.193 NA
ENDBRANCH  12  28
BRANCH  13  30
ATOM     30  C   UNL A   1      47.009  46.076  20.407  1.00  0.00     0.098 C 
ATOM     31  N   UNL A   1      48.018  46.803  20.612  1.00  0.00    -0.193 NA
ENDBRANCH  13  30
BRANCH  14  32
ATOM     32  N   UNL A   1      41.937  43.500  20.161  1.00  0.00    -0.384 N 
ATOM     33  H   UNL A   1      41.517  43.149  19.343  1.00  0.00     0.158 HD
ATOM     34  H   UNL A   1      41.453  43.463  21.018  1.00  0.00     0.158 HD
ENDBRANCH  14  32
ENDBRANCH   9  10
ENDBRANCH   7   9
ENDBRANCH   6   7
ENDBRANCH   5   6
ENDBRANCH   4   5
ENDBRANCH   3   4
ENDBRANCH   2   3
ENDBRANCH   1   2
BRANCH   1  35
ATOM     35  O   UNL A   1      47.281  43.255  29.569  1.00  0.00    -0.377 OA
BRANCH  35  36
ATOM     36  C   UNL A   1      46.192  43.751  28.791  1.00  0.00     0.188 C 
BRANCH  36  37
ATOM     37  C   UNL A   1      44.735  43.329  29.082  1.00  0.00     0.188 C 
BRANCH  37  38
ATOM     38  O   UNL A   1      44.582  42.209  29.937  1.00  0.00    -0.376 OA
BRANCH  38  39
ATOM     39  C   UNL A   1      43.302  41.928  30.485  1.00  0.00     0.202 C 
BRANCH  39  40
ATOM     40  C   UNL A   1      43.210  41.735  32.008  1.00  0.00     0.261 C 
BRANCH  40  41
ATOM     41  O   UNL A   1      42.836  40.415  32.443  1.00  0.00    -0.460 OA
BRANCH  41  42
ATOM     42  C   UNL A   1      43.737  39.729  33.171  1.00  0.00     0.338 C 
ATOM     43  O   UNL A   1      44.277  40.084  34.210  1.00  0.00    -0.246 OA
BRANCH  42  44
ATOM     44  C   UNL A   1      43.840  38.368  32.619  1.00  0.00     0.060 A 
ATOM     45  C   UNL A   1      43.922  38.218  31.230  1.00  0.00     0.016 A 
ATOM     46  C   UNL A   1      43.810  37.249  33.455  1.00  0.00     0.016 A 
ATOM     47  C   UNL A   1      43.918  36.946  30.668  1.00  0.00     0.010 A 
ATOM     48  C   UNL A   1      43.789  35.971  32.887  1.00  0.00     0.010 A 
ATOM     49  C   UNL A   1      43.799  35.817  31.490  1.00  0.00    -0.014 A 
BRANCH  49  50
ATOM     50  C   UNL A   1      43.495  34.507  30.863  1.00  0.00     0.031 A 
ATOM     51  C   UNL A   1      44.628  33.703  30.286  1.00  0.00     0.074 A 
ATOM     52  C   UNL A   1      42.248  34.006  30.877  1.00  0.00     0.049 A 
ATOM     53  N   UNL A   1      44.609  32.515  29.737  1.00  0.00    -0.248 NA
ATOM     54  C   UNL A   1      45.964  34.319  30.338  1.00  0.00     0.031 C 
ATOM     55  C   UNL A   1      41.076  34.673  31.440  1.00  0.00     0.029 A 
ATOM     56  N   UNL A   1      41.766  32.811  30.407  1.00  0.00    -0.354 N 
ATOM     57  C   UNL A   1      45.924  32.243  29.379  1.00  0.00     0.074 A 
ATOM     58  C   UNL A   1      46.710  33.404  29.739  1.00  0.00     0.031 C 
ATOM     59  C   UNL A   1      40.006  33.874  31.284  1.00  0.00     0.029 A 
ATOM     60  C   UNL A   1      40.413  32.655  30.587  1.00  0.00     0.049 A 
ATOM     61  H   UNL A   1      42.334  32.130  29.981  1.00  0.00     0.167 HD
ATOM     62  C   UNL A   1      46.435  31.123  28.815  1.00  0.00     0.037 A 
ATOM     63  C   UNL A   1      39.598  31.648  30.219  1.00  0.00     0.037 A 
ATOM     64  C   UNL A   1      45.651  29.969  28.457  1.00  0.00     0.049 A 
ATOM     65  C   UNL A   1      40.180  30.441  29.529  1.00  0.00     0.074 A 
ATOM     66  C   UNL A   1      46.078  28.778  27.898  1.00  0.00     0.029 A 
ATOM     67  N   UNL A   1      44.276  29.869  28.610  1.00  0.00    -0.354 N 
ATOM     68  N   UNL A   1      41.429  30.178  29.230  1.00  0.00    -0.248 NA
ATOM     69  C   UNL A   1      39.235  29.386  29.135  1.00  0.00     0.031 C 
ATOM     70  C   UNL A   1      44.955  27.980  27.658  1.00  0.00     0.029 A 
ATOM     71  C   UNL A   1      43.835  28.647  28.127  1.00  0.00     0.049 A 
ATOM     72  H   UNL A   1      43.699  30.563  29.005  1.00  0.00     0.167 HD
ATOM     73  C   UNL A   1      41.425  28.920  28.638  1.00  0.00     0.074 A 
ATOM     74  C   UNL A   1      40.050  28.465  28.641  1.00  0.00     0.031 C 
ATOM     75  C   UNL A   1      42.462  28.207  28.135  1.00  0.00     0.037 A 
BRANCH  62  76
ATOM     76  C   UNL A   1      47.908  31.103  28.524  1.00  0.00     0.057 A 
ATOM     77  C   UNL A   1      48.836  30.540  29.411  1.00  0.00     0.134 A 
ATOM     78  C   UNL A   1      48.402  31.626  27.323  1.00  0.00     0.134 A 
ATOM     79  F   UNL A   1      48.432  30.035  30.587  1.00  0.00    -0.206 F 
ATOM     80  C   UNL A   1      50.202  30.519  29.124  1.00  0.00     0.040 A 
ATOM     81  C   UNL A   1      49.762  31.587  27.011  1.00  0.00     0.040 A 
ATOM     82  F   UNL A   1      47.570  32.178  26.427  1.00  0.00    -0.206 F 
ATOM     83  C   UNL A   1      50.667  31.037  27.916  1.00  0.00     0.006 A 
ENDBRANCH  62  76
BRANCH  63  84
ATOM     84  C   UNL A   1      38.138  31.737  30.482  1.00  0.00     0.057 A 
ATOM     85  C   UNL A   1      37.285  32.454  29.635  1.00  0.00     0.134 A 
ATOM     86  C   UNL A   1      37.566  31.128  31.606  1.00  0.00     0.134 A 
ATOM     87  F   UNL A   1      37.776  33.080  28.555  1.00  0.00    -0.206 F 
ATOM     88  C   UNL A   1      35.922  32.582  29.907  1.00  0.00     0.040 A 
ATOM     89  C   UNL A   1      36.200  31.224  31.875  1.00  0.00     0.040 A 
ATOM     90  F   UNL A   1      38.327  30.425  32.456  1.00  0.00    -0.206 F 
ATOM     91  C   UNL A   1      35.375  31.961  31.028  1.00  0.00     0.006 A 
ENDBRANCH  63  84
BRANCH  75  92
ATOM     92  C   UNL A   1      42.155  26.844  27.577  1.00  0.00     0.057 A 
ATOM     93  C   UNL A   1      41.756  26.660  26.246  1.00  0.00     0.134 A 
ATOM     94  C   UNL A   1      42.279  25.701  28.377  1.00  0.00     0.134 A 
ATOM     95  F   UNL A   1      41.607  27.712  25.428  1.00  0.00    -0.206 F 
ATOM     96  C   UNL A   1      41.456  25.393  25.743  1.00  0.00     0.040 A 
ATOM     97  C   UNL A   1      42.013  24.426  27.876  1.00  0.00     0.040 A 
ATOM     98  F   UNL A   1      42.669  25.802  29.656  1.00  0.00    -0.206 F 
ATOM     99  C   UNL A   1      41.589  24.270  26.558  1.00  0.00     0.006 A 
ENDBRANCH  75  92
ENDBRANCH  49  50
ENDBRANCH  42  44
ENDBRANCH  41  42
ENDBRANCH  40  41
ENDBRANCH  39  40
ENDBRANCH  38  39
ENDBRANCH  37  38
ENDBRANCH  36  37
ENDBRANCH  35  36
ENDBRANCH   1  35
TORSDOF 26
ENDMDL
MODEL 2
REMARK VINA RESULT:      -7.4      5.613     11.899
REMARK SMILES COc1ccc([C@@H]2C(C#N)=C(N)N3C(=O)[C@H](CC(=O)OCCOCCOCCOCCOC(=O)c4ccc(-c5c6nc(c(-c7c(F)cccc7F)c7ccc([nH]7)c(-c7c(F)cccc7F)c7nc(c(-c8c(F)cccc8F)c8ccc5[nH]8)C=C7)C=C6)cc4)SC3=C2C#N)cc1
REMARK SMILES IDX 25 1 24 2 23 3 22 4 21 5 20 6 18 7 19 8 17 9 16 10 7 11 8 12
REMARK SMILES IDX 91 13 11 14 90 15 13 16 89 17 14 18 15 19 6 20 3 21 4 22
REMARK SMILES IDX 95 23 5 24 94 25 2 26 1 27 9 28 10 29 92 30 93 31 12 32
REMARK SMILES IDX 26 35 27 36 28 37 29 38 30 39 31 40 32 41 33 42 34 43 35 44
REMARK SMILES IDX 36 45 88 46 37 47 87 48 38 49 39 50 40 51 81 52 41 53 86 54
REMARK SMILES IDX 80 55 82 56 42 57 85 58 79 59 78 60 43 62 69 63 52 64 68 65
REMARK SMILES IDX 53 66 56 67 67 68 83 69 54 70 55 71 66 73 84 74 57 75 44 76
REMARK SMILES IDX 45 77 50 78 46 79 47 80 49 81 51 82 48 83 70 84 71 85 76 86
REMARK SMILES IDX 72 87 73 88 75 89 77 90 74 91 58 92 59 93 64 94 60 95 61 96
REMARK SMILES IDX 63 97 65 98 62 99
REMARK H PARENT 12 33 12 34 82 61 56 72
REMARK Flexibility Score: inf
ROOT
ATOM      1  C   UNL A   1      40.686  26.988  27.733  1.00  0.00     0.188 C 
ENDROOT
BRANCH   1   2
ATOM      2  C   UNL A   1      41.446  28.277  28.062  1.00  0.00     0.188 C 
BRANCH   2   3
ATOM      3  O   UNL A   1      42.048  28.414  29.331  1.00  0.00    -0.376 OA
BRANCH   3   4
ATOM      4  C   UNL A   1      41.269  28.541  30.512  1.00  0.00     0.202 C 
BRANCH   4   5
ATOM      5  C   UNL A   1      41.082  29.846  31.306  1.00  0.00     0.261 C 
BRANCH   5   6
ATOM      6  O   UNL A   1      41.497  31.062  30.667  1.00  0.00    -0.463 OA
BRANCH   6   7
ATOM      7  C   UNL A   1      42.803  31.388  30.808  1.00  0.00     0.307 C 
ATOM      8  O   UNL A   1      43.723  30.841  30.208  1.00  0.00    -0.252 OA
BRANCH   7   9
ATOM      9  C   UNL A   1      43.069  32.552  31.737  1.00  0.00     0.147 C 
BRANCH   9  10
ATOM     10  C   UNL A   1      42.644  33.925  31.264  1.00  0.00     0.154 C 
ATOM     11  C   UNL A   1      43.504  38.085  28.702  1.00  0.00     0.107 C 
ATOM     12  C   UNL A   1      43.992  38.326  30.117  1.00  0.00     0.083 C 
ATOM     13  C   UNL A   1      43.098  36.648  28.509  1.00  0.00     0.073 C 
ATOM     14  C   UNL A   1      43.922  37.418  31.119  1.00  0.00     0.126 C 
ATOM     15  C   UNL A   1      43.084  35.799  29.557  1.00  0.00     0.099 C 
ATOM     16  N   UNL A   1      43.436  36.142  30.853  1.00  0.00    -0.258 N 
ATOM     17  S   UNL A   1      42.754  34.098  29.446  1.00  0.00    -0.093 SA
ATOM     18  C   UNL A   1      43.423  35.100  31.806  1.00  0.00     0.247 C 
ATOM     19  O   UNL A   1      43.894  35.142  32.940  1.00  0.00    -0.273 OA
BRANCH  11  20
ATOM     20  C   UNL A   1      44.505  38.542  27.641  1.00  0.00    -0.034 A 
ATOM     21  C   UNL A   1      46.279  39.361  25.618  1.00  0.00     0.118 A 
ATOM     22  C   UNL A   1      45.121  40.091  25.872  1.00  0.00     0.047 A 
ATOM     23  C   UNL A   1      46.577  38.243  26.395  1.00  0.00     0.047 A 
ATOM     24  C   UNL A   1      44.232  39.682  26.868  1.00  0.00     0.008 A 
ATOM     25  C   UNL A   1      45.695  37.832  27.398  1.00  0.00     0.008 A 
BRANCH  21  26
ATOM     26  O   UNL A   1      47.090  39.845  24.628  1.00  0.00    -0.497 OA
ATOM     27  C   UNL A   1      46.763  41.167  24.208  1.00  0.00     0.278 C 
ENDBRANCH  21  26
ENDBRANCH  11  20
BRANCH  12  28
ATOM     28  C   UNL A   1      44.819  39.576  30.371  1.00  0.00     0.100 C 
ATOM     29  N   UNL A   1      45.505  40.614  30.582  1.00  0.00    -0.193 NA
ENDBRANCH  12  28
BRANCH  13  30
ATOM     30  C   UNL A   1      43.003  36.083  27.101  1.00  0.00     0.098 C 
ATOM     31  N   UNL A   1      42.925  35.615  25.933  1.00  0.00    -0.193 NA
ENDBRANCH  13  30
BRANCH  14  32
ATOM     32  N   UNL A   1      44.353  37.716  32.387  1.00  0.00    -0.384 N 
ATOM     33  H   UNL A   1      44.792  37.024  32.933  1.00  0.00     0.158 HD
ATOM     34  H   UNL A   1      44.224  38.622  32.750  1.00  0.00     0.158 HD
ENDBRANCH  14  32
ENDBRANCH   9  10
ENDBRANCH   7   9
ENDBRANCH   6   7
ENDBRANCH   5   6
ENDBRANCH   4   5
ENDBRANCH   3   4
ENDBRANCH   2   3
ENDBRANCH   1   2
BRANCH   1  35
ATOM     35  O   UNL A   1      41.274  25.781  28.182  1.00  0.00    -0.377 OA
BRANCH  35  36
ATOM     36  C   UNL A   1      40.471  24.605  28.278  1.00  0.00     0.188 C 
BRANCH  36  37
ATOM     37  C   UNL A   1      40.166  23.733  27.040  1.00  0.00     0.188 C 
BRANCH  37  38
ATOM     38  O   UNL A   1      40.849  22.493  26.982  1.00  0.00    -0.376 OA
BRANCH  38  39
ATOM     39  C   UNL A   1      42.260  22.488  26.814  1.00  0.00     0.202 C 
BRANCH  39  40
ATOM     40  C   UNL A   1      42.817  21.888  25.512  1.00  0.00     0.261 C 
BRANCH  40  41
ATOM     41  O   UNL A   1      43.060  22.829  24.452  1.00  0.00    -0.460 OA
BRANCH  41  42
ATOM     42  C   UNL A   1      44.341  23.175  24.217  1.00  0.00     0.338 C 
ATOM     43  O   UNL A   1      45.071  22.756  23.330  1.00  0.00    -0.246 OA
BRANCH  42  44
ATOM     44  C   UNL A   1      44.686  24.304  25.097  1.00  0.00     0.060 A 
ATOM     45  C   UNL A   1      45.923  24.284  25.750  1.00  0.00     0.016 A 
ATOM     46  C   UNL A   1      43.784  25.349  25.312  1.00  0.00     0.016 A 
ATOM     47  C   UNL A   1      46.240  25.282  26.667  1.00  0.00     0.010 A 
ATOM     48  C   UNL A   1      44.097  26.342  26.245  1.00  0.00     0.010 A 
ATOM     49  C   UNL A   1      45.307  26.287  26.958  1.00  0.00    -0.014 A 
BRANCH  49  50
ATOM     50  C   UNL A   1      45.539  27.154  28.139  1.00  0.00     0.031 A 
ATOM     51  C   UNL A   1      45.984  28.574  27.918  1.00  0.00     0.074 A 
ATOM     52  C   UNL A   1      45.282  26.712  29.383  1.00  0.00     0.049 A 
ATOM     53  N   UNL A   1      46.199  29.524  28.792  1.00  0.00    -0.248 NA
ATOM     54  C   UNL A   1      46.216  28.979  26.522  1.00  0.00     0.031 C 
ATOM     55  C   UNL A   1      44.810  25.370  29.721  1.00  0.00     0.029 A 
ATOM     56  N   UNL A   1      45.375  27.354  30.591  1.00  0.00    -0.354 N 
ATOM     57  C   UNL A   1      46.589  30.635  28.055  1.00  0.00     0.074 A 
ATOM     58  C   UNL A   1      46.619  30.232  26.665  1.00  0.00     0.031 C 
ATOM     59  C   UNL A   1      44.654  25.290  31.054  1.00  0.00     0.029 A 
ATOM     60  C   UNL A   1      45.040  26.562  31.662  1.00  0.00     0.049 A 
ATOM     61  H   UNL A   1      45.658  28.292  30.682  1.00  0.00     0.167 HD
ATOM     62  C   UNL A   1      46.884  31.882  28.492  1.00  0.00     0.037 A 
ATOM     63  C   UNL A   1      45.056  26.832  32.981  1.00  0.00     0.037 A 
ATOM     64  C   UNL A   1      46.854  32.280  29.876  1.00  0.00     0.049 A 
ATOM     65  C   UNL A   1      45.454  28.209  33.448  1.00  0.00     0.074 A 
ATOM     66  C   UNL A   1      47.117  33.526  30.418  1.00  0.00     0.029 A 
ATOM     67  N   UNL A   1      46.557  31.437  30.935  1.00  0.00    -0.354 N 
ATOM     68  N   UNL A   1      45.785  29.262  32.741  1.00  0.00    -0.248 NA
ATOM     69  C   UNL A   1      45.472  28.434  34.901  1.00  0.00     0.031 C 
ATOM     70  C   UNL A   1      47.037  33.421  31.811  1.00  0.00     0.029 A 
ATOM     71  C   UNL A   1      46.660  32.128  32.133  1.00  0.00     0.049 A 
ATOM     72  H   UNL A   1      46.308  30.488  30.850  1.00  0.00     0.167 HD
ATOM     73  C   UNL A   1      46.024  30.280  33.657  1.00  0.00     0.074 A 
ATOM     74  C   UNL A   1      45.778  29.722  34.970  1.00  0.00     0.031 C 
ATOM     75  C   UNL A   1      46.414  31.559  33.434  1.00  0.00     0.037 A 
BRANCH  62  76
ATOM     76  C   UNL A   1      47.291  32.899  27.465  1.00  0.00     0.057 A 
ATOM     77  C   UNL A   1      48.632  33.105  27.111  1.00  0.00     0.134 A 
ATOM     78  C   UNL A   1      46.324  33.660  26.796  1.00  0.00     0.134 A 
ATOM     79  F   UNL A   1      49.610  32.421  27.724  1.00  0.00    -0.206 F 
ATOM     80  C   UNL A   1      48.996  34.047  26.147  1.00  0.00     0.040 A 
ATOM     81  C   UNL A   1      46.673  34.585  25.811  1.00  0.00     0.040 A 
ATOM     82  F   UNL A   1      45.022  33.512  27.083  1.00  0.00    -0.206 F 
ATOM     83  C   UNL A   1      48.013  34.785  25.488  1.00  0.00     0.006 A 
ENDBRANCH  62  76
BRANCH  63  84
ATOM     84  C   UNL A   1      44.695  25.777  33.963  1.00  0.00     0.057 A 
ATOM     85  C   UNL A   1      45.639  24.850  34.419  1.00  0.00     0.134 A 
ATOM     86  C   UNL A   1      43.387  25.653  34.446  1.00  0.00     0.134 A 
ATOM     87  F   UNL A   1      46.904  24.900  33.975  1.00  0.00    -0.206 F 
ATOM     88  C   UNL A   1      45.291  23.825  35.302  1.00  0.00     0.040 A 
ATOM     89  C   UNL A   1      43.031  24.653  35.351  1.00  0.00     0.040 A 
ATOM     90  F   UNL A   1      42.435  26.511  34.050  1.00  0.00    -0.206 F 
ATOM     91  C   UNL A   1      43.984  23.728  35.774  1.00  0.00     0.006 A 
ENDBRANCH  63  84
BRANCH  75  92
ATOM     92  C   UNL A   1      46.565  32.452  34.635  1.00  0.00     0.057 A 
ATOM     93  C   UNL A   1      45.465  33.071  35.243  1.00  0.00     0.134 A 
ATOM     94  C   UNL A   1      47.827  32.679  35.201  1.00  0.00     0.134 A 
ATOM     95  F   UNL A   1      44.230  32.904  34.747  1.00  0.00    -0.206 F 
ATOM     96  C   UNL A   1      45.619  33.912  36.347  1.00  0.00     0.040 A 
ATOM     97  C   UNL A   1      47.989  33.492  36.324  1.00  0.00     0.040 A 
ATOM     98  F   UNL A   1      48.922  32.109  34.678  1.00  0.00    -0.206 F 
ATOM     99  C   UNL A   1      46.884  34.120  36.894  1.00  0.00     0.006 A 
ENDBRANCH  75  92
ENDBRANCH  49  50
ENDBRANCH  42  44
ENDBRANCH  41  42
ENDBRANCH  40  41
ENDBRANCH  39  40
ENDBRANCH  38  39
ENDBRANCH  37  38
ENDBRANCH  36  37
ENDBRANCH  35  36
ENDBRANCH   1  35
TORSDOF 26
ENDMDL
MODEL 3
REMARK VINA RESULT:      -7.4      8.207     15.168
REMARK SMILES COc1ccc([C@@H]2C(C#N)=C(N)N3C(=O)[C@H](CC(=O)OCCOCCOCCOCCOC(=O)c4ccc(-c5c6nc(c(-c7c(F)cccc7F)c7ccc([nH]7)c(-c7c(F)cccc7F)c7nc(c(-c8c(F)cccc8F)c8ccc5[nH]8)C=C7)C=C6)cc4)SC3=C2C#N)cc1
REMARK SMILES IDX 25 1 24 2 23 3 22 4 21 5 20 6 18 7 19 8 17 9 16 10 7 11 8 12
REMARK SMILES IDX 91 13 11 14 90 15 13 16 89 17 14 18 15 19 6 20 3 21 4 22
REMARK SMILES IDX 95 23 5 24 94 25 2 26 1 27 9 28 10 29 92 30 93 31 12 32
REMARK SMILES IDX 26 35 27 36 28 37 29 38 30 39 31 40 32 41 33 42 34 43 35 44
REMARK SMILES IDX 36 45 88 46 37 47 87 48 38 49 39 50 40 51 81 52 41 53 86 54
REMARK SMILES IDX 80 55 82 56 42 57 85 58 79 59 78 60 43 62 69 63 52 64 68 65
REMARK SMILES IDX 53 66 56 67 67 68 83 69 54 70 55 71 66 73 84 74 57 75 44 76
REMARK SMILES IDX 45 77 50 78 46 79 47 80 49 81 51 82 48 83 70 84 71 85 76 86
REMARK SMILES IDX 72 87 73 88 75 89 77 90 74 91 58 92 59 93 64 94 60 95 61 96
REMARK SMILES IDX 63 97 65 98 62 99
REMARK H PARENT 12 33 12 34 82 61 56 72
REMARK Flexibility Score: inf
ROOT
ATOM      1  C   UNL A   1      50.546  23.646  34.028  1.00  0.00     0.188 C 
ENDROOT
BRANCH   1   2
ATOM      2  C   UNL A   1      50.719  25.157  34.217  1.00  0.00     0.188 C 
BRANCH   2   3
ATOM      3  O   UNL A   1      51.952  25.754  33.875  1.00  0.00    -0.376 OA
BRANCH   3   4
ATOM      4  C   UNL A   1      52.474  25.675  32.557  1.00  0.00     0.202 C 
BRANCH   4   5
ATOM      5  C   UNL A   1      51.637  25.794  31.271  1.00  0.00     0.261 C 
BRANCH   5   6
ATOM      6  O   UNL A   1      52.324  26.215  30.084  1.00  0.00    -0.463 OA
BRANCH   6   7
ATOM      7  C   UNL A   1      51.570  26.304  28.963  1.00  0.00     0.307 C 
ATOM      8  O   UNL A   1      52.017  26.265  27.822  1.00  0.00    -0.252 OA
BRANCH   7   9
ATOM      9  C   UNL A   1      50.080  26.396  29.209  1.00  0.00     0.147 C 
BRANCH   9  10
ATOM     10  C   UNL A   1      49.199  26.692  28.015  1.00  0.00     0.154 C 
ATOM     11  C   UNL A   1      44.715  27.272  25.974  1.00  0.00     0.107 C 
ATOM     12  C   UNL A   1      45.105  25.820  25.783  1.00  0.00     0.083 C 
ATOM     13  C   UNL A   1      45.711  27.988  26.848  1.00  0.00     0.073 C 
ATOM     14  C   UNL A   1      46.272  25.276  26.204  1.00  0.00     0.126 C 
ATOM     15  C   UNL A   1      46.835  27.362  27.249  1.00  0.00     0.099 C 
ATOM     16  N   UNL A   1      47.170  26.058  26.924  1.00  0.00    -0.258 N 
ATOM     17  S   UNL A   1      47.998  28.030  28.352  1.00  0.00    -0.093 SA
ATOM     18  C   UNL A   1      48.360  25.551  27.491  1.00  0.00     0.247 C 
ATOM     19  O   UNL A   1      48.721  24.377  27.502  1.00  0.00    -0.273 OA
BRANCH  11  20
ATOM     20  C   UNL A   1      43.283  27.443  26.482  1.00  0.00    -0.034 A 
ATOM     21  C   UNL A   1      40.665  27.855  27.421  1.00  0.00     0.118 A 
ATOM     22  C   UNL A   1      41.033  28.300  26.154  1.00  0.00     0.047 A 
ATOM     23  C   UNL A   1      41.588  27.170  28.209  1.00  0.00     0.047 A 
ATOM     24  C   UNL A   1      42.335  28.107  25.689  1.00  0.00     0.008 A 
ATOM     25  C   UNL A   1      42.891  26.968  27.746  1.00  0.00     0.008 A 
BRANCH  21  26
ATOM     26  O   UNL A   1      39.366  28.084  27.785  1.00  0.00    -0.497 OA
ATOM     27  C   UNL A   1      39.015  27.533  29.052  1.00  0.00     0.278 C 
ENDBRANCH  21  26
ENDBRANCH  11  20
BRANCH  12  28
ATOM     28  C   UNL A   1      44.029  24.863  25.296  1.00  0.00     0.100 C 
ATOM     29  N   UNL A   1      43.137  24.069  24.892  1.00  0.00    -0.193 NA
ENDBRANCH  12  28
BRANCH  13  30
ATOM     30  C   UNL A   1      45.308  29.288  27.525  1.00  0.00     0.098 C 
ATOM     31  N   UNL A   1      44.974  30.366  28.087  1.00  0.00    -0.193 NA
ENDBRANCH  13  30
BRANCH  14  32
ATOM     32  N   UNL A   1      46.574  23.959  25.967  1.00  0.00    -0.384 N 
ATOM     33  H   UNL A   1      45.879  23.348  25.631  1.00  0.00     0.158 HD
ATOM     34  H   UNL A   1      47.486  23.626  26.132  1.00  0.00     0.158 HD
ENDBRANCH  14  32
ENDBRANCH   9  10
ENDBRANCH   7   9
ENDBRANCH   6   7
ENDBRANCH   5   6
ENDBRANCH   4   5
ENDBRANCH   3   4
ENDBRANCH   2   3
ENDBRANCH   1   2
BRANCH   1  35
ATOM     35  O   UNL A   1      49.281  23.111  34.372  1.00  0.00    -0.377 OA
BRANCH  35  36
ATOM     36  C   UNL A   1      49.208  21.813  34.960  1.00  0.00     0.188 C 
BRANCH  36  37
ATOM     37  C   UNL A   1      48.006  21.391  35.834  1.00  0.00     0.188 C 
BRANCH  37  38
ATOM     38  O   UNL A   1      47.771  22.192  36.979  1.00  0.00    -0.376 OA
BRANCH  38  39
ATOM     39  C   UNL A   1      46.477  22.739  37.186  1.00  0.00     0.202 C 
BRANCH  39  40
ATOM     40  C   UNL A   1      45.508  22.739  35.991  1.00  0.00     0.261 C 
BRANCH  40  41
ATOM     41  O   UNL A   1      44.626  23.873  35.910  1.00  0.00    -0.460 OA
BRANCH  41  42
ATOM     42  C   UNL A   1      43.797  23.933  34.850  1.00  0.00     0.338 C 
ATOM     43  O   UNL A   1      42.871  23.179  34.590  1.00  0.00    -0.246 OA
BRANCH  42  44
ATOM     44  C   UNL A   1      44.060  25.189  34.127  1.00  0.00     0.060 A 
ATOM     45  C   UNL A   1      44.092  26.382  34.858  1.00  0.00     0.016 A 
ATOM     46  C   UNL A   1      44.227  25.199  32.740  1.00  0.00     0.016 A 
ATOM     47  C   UNL A   1      44.235  27.598  34.196  1.00  0.00     0.010 A 
ATOM     48  C   UNL A   1      44.355  26.422  32.075  1.00  0.00     0.010 A 
ATOM     49  C   UNL A   1      44.315  27.628  32.796  1.00  0.00    -0.014 A 
BRANCH  49  50
ATOM     50  C   UNL A   1      44.164  28.930  32.102  1.00  0.00     0.031 A 
ATOM     51  C   UNL A   1      42.781  29.487  31.902  1.00  0.00     0.074 A 
ATOM     52  C   UNL A   1      45.241  29.642  31.727  1.00  0.00     0.049 A 
ATOM     53  N   UNL A   1      42.412  30.624  31.371  1.00  0.00    -0.248 NA
ATOM     54  C   UNL A   1      41.663  28.651  32.369  1.00  0.00     0.031 C 
ATOM     55  C   UNL A   1      46.631  29.226  31.900  1.00  0.00     0.029 A 
ATOM     56  N   UNL A   1      45.328  30.873  31.127  1.00  0.00    -0.354 N 
ATOM     57  C   UNL A   1      41.024  30.640  31.438  1.00  0.00     0.074 A 
ATOM     58  C   UNL A   1      40.614  29.383  32.027  1.00  0.00     0.031 C 
ATOM     59  C   UNL A   1      47.436  30.189  31.417  1.00  0.00     0.029 A 
ATOM     60  C   UNL A   1      46.617  31.273  30.877  1.00  0.00     0.049 A 
ATOM     61  H   UNL A   1      44.541  31.416  30.896  1.00  0.00     0.167 HD
ATOM     62  C   UNL A   1      40.168  31.618  31.057  1.00  0.00     0.037 A 
ATOM     63  C   UNL A   1      47.081  32.383  30.271  1.00  0.00     0.037 A 
ATOM     64  C   UNL A   1      40.578  32.867  30.470  1.00  0.00     0.049 A 
ATOM     65  C   UNL A   1      46.103  33.426  29.793  1.00  0.00     0.074 A 
ATOM     66  C   UNL A   1      39.787  33.929  30.067  1.00  0.00     0.029 A 
ATOM     67  N   UNL A   1      41.890  33.215  30.189  1.00  0.00    -0.354 N 
ATOM     68  N   UNL A   1      44.796  33.447  29.895  1.00  0.00    -0.248 NA
ATOM     69  C   UNL A   1      46.670  34.604  29.121  1.00  0.00     0.031 C 
ATOM     70  C   UNL A   1      40.616  34.895  29.488  1.00  0.00     0.029 A 
ATOM     71  C   UNL A   1      41.929  34.465  29.588  1.00  0.00     0.049 A 
ATOM     72  H   UNL A   1      42.677  32.658  30.387  1.00  0.00     0.167 HD
ATOM     73  C   UNL A   1      44.387  34.649  29.327  1.00  0.00     0.074 A 
ATOM     74  C   UNL A   1      45.588  35.337  28.902  1.00  0.00     0.031 C 
ATOM     75  C   UNL A   1      43.132  35.138  29.168  1.00  0.00     0.037 A 
BRANCH  62  76
ATOM     76  C   UNL A   1      38.699  31.361  31.237  1.00  0.00     0.057 A 
ATOM     77  C   UNL A   1      38.056  31.544  32.469  1.00  0.00     0.134 A 
ATOM     78  C   UNL A   1      37.910  30.957  30.153  1.00  0.00     0.134 A 
ATOM     79  F   UNL A   1      38.756  31.916  33.553  1.00  0.00    -0.206 F 
ATOM     80  C   UNL A   1      36.688  31.312  32.621  1.00  0.00     0.040 A 
ATOM     81  C   UNL A   1      36.536  30.748  30.285  1.00  0.00     0.040 A 
ATOM     82  F   UNL A   1      38.459  30.765  28.944  1.00  0.00    -0.206 F 
ATOM     83  C   UNL A   1      35.923  30.920  31.524  1.00  0.00     0.006 A 
ENDBRANCH  62  76
BRANCH  63  84
ATOM     84  C   UNL A   1      48.541  32.568  30.069  1.00  0.00     0.057 A 
ATOM     85  C   UNL A   1      49.182  32.109  28.912  1.00  0.00     0.134 A 
ATOM     86  C   UNL A   1      49.336  33.183  31.044  1.00  0.00     0.134 A 
ATOM     87  F   UNL A   1      48.480  31.489  27.952  1.00  0.00    -0.206 F 
ATOM     88  C   UNL A   1      50.562  32.234  28.742  1.00  0.00     0.040 A 
ATOM     89  C   UNL A   1      50.712  33.342  30.874  1.00  0.00     0.040 A 
ATOM     90  F   UNL A   1      48.784  33.647  32.174  1.00  0.00    -0.206 F 
ATOM     91  C   UNL A   1      51.330  32.858  29.723  1.00  0.00     0.006 A 
ENDBRANCH  63  84
BRANCH  75  92
ATOM     92  C   UNL A   1      42.998  36.497  28.538  1.00  0.00     0.057 A 
ATOM     93  C   UNL A   1      42.630  36.659  27.196  1.00  0.00     0.134 A 
ATOM     94  C   UNL A   1      43.220  37.657  29.291  1.00  0.00     0.134 A 
ATOM     95  F   UNL A   1      42.411  35.590  26.415  1.00  0.00    -0.206 F 
ATOM     96  C   UNL A   1      42.525  37.925  26.616  1.00  0.00     0.040 A 
ATOM     97  C   UNL A   1      43.086  38.929  28.731  1.00  0.00     0.040 A 
ATOM     98  F   UNL A   1      43.563  37.577  30.584  1.00  0.00    -0.206 F 
ATOM     99  C   UNL A   1      42.748  39.065  27.386  1.00  0.00     0.006 A 
ENDBRANCH  75  92
ENDBRANCH  49  50
ENDBRANCH  42  44
ENDBRANCH  41  42
ENDBRANCH  40  41
ENDBRANCH  39  40
ENDBRANCH  38  39
ENDBRANCH  37  38
ENDBRANCH  36  37
ENDBRANCH  35  36
ENDBRANCH   1  35
TORSDOF 26
ENDMDL
