MODEL 1
REMARK VINA RESULT:     -11.3      0.000      0.000
REMARK SMILES Cc1cccc(S(=O)(=O)Nc2cc(C(=O)OCCOCCOCCOCCOC(=O)c3ccc(-c4c5nc(c(-c6c(F)cccc6F)c6ccc([nH]6)c(-c6c(F)cccc6F)c6nc(c(-c7c(F)cccc7F)c7ccc4[nH]7)C=C6)C=C5)cc3)ccc2N2CCC[C@H](C[NH+]3CCCC3)C2)c1
REMARK SMILES IDX 21 1 20 2 19 3 18 4 17 5 16 6 14 7 15 8 13 9 11 10 12 11
REMARK SMILES IDX 87 12 86 13 85 14 10 15 7 17 8 18 9 19 6 20 1 21 2 22 3 23
REMARK SMILES IDX 100 24 4 25 5 26 88 27 89 28 99 29 90 30 92 31 91 32 93 33
REMARK SMILES IDX 94 34 95 35 98 36 96 38 97 39 22 40 23 41 24 42 25 43 26 44
REMARK SMILES IDX 27 45 28 46 29 47 30 48 31 49 32 50 84 51 33 52 83 53 34 54
REMARK SMILES IDX 35 55 36 56 77 57 37 58 82 59 76 60 78 61 38 62 81 63 75 64
REMARK SMILES IDX 74 65 39 67 65 68 48 69 64 70 49 71 52 72 63 73 79 74 50 75
REMARK SMILES IDX 51 76 62 78 80 79 53 80 40 81 41 82 46 83 42 84 43 85 45 86
REMARK SMILES IDX 47 87 44 88 66 89 67 90 72 91 68 92 69 93 71 94 73 95 70 96
REMARK SMILES IDX 54 97 55 98 60 99 56 100 57 101 59 102 61 103 58 104
REMARK H PARENT 10 16 94 37 78 66 52 77
REMARK Flexibility Score: inf
ROOT
ATOM      1  C   UNL A   1      36.149  22.415  23.987  1.00  0.00     0.188 C 
ENDROOT
BRANCH   1   2
ATOM      2  C   UNL A   1      35.839  24.001  24.443  1.00  0.00     0.188 C 
BRANCH   2   3
ATOM      3  O   UNL A   1      34.692  24.743  25.541  1.00  0.00    -0.376 OA
BRANCH   3   4
ATOM      4  C   UNL A   1      32.954  24.692  25.819  1.00  0.00     0.202 C 
BRANCH   4   5
ATOM      5  C   UNL A   1      31.724  26.105  26.109  1.00  0.00     0.261 C 
BRANCH   5   6
ATOM      6  O   UNL A   1      32.072  27.894  25.961  1.00  0.00    -0.460 OA
BRANCH   6   7
ATOM      7  C   UNL A   1      33.091  28.987  25.790  1.00  0.00     0.338 C 
ATOM      8  O   UNL A   1      33.404  29.500  24.707  1.00  0.00    -0.246 OA
BRANCH   7   9
ATOM      9  C   UNL A   1      33.915  29.789  26.933  1.00  0.00     0.062 A 
ATOM     10  C   UNL A   1      34.367  31.478  28.748  1.00  0.00     0.073 A 
ATOM     11  C   UNL A   1      33.625  30.960  27.679  1.00  0.00     0.044 A 
ATOM     12  C   UNL A   1      35.688  31.080  28.874  1.00  0.00     0.061 A 
ATOM     13  C   UNL A   1      36.138  30.118  27.962  1.00  0.00     0.029 A 
ATOM     14  C   UNL A   1      35.261  29.428  27.089  1.00  0.00     0.018 A 
BRANCH  10  15
ATOM     15  N   UNL A   1      33.821  32.553  29.569  1.00  0.00    -0.277 N 
ATOM     16  H   UNL A   1      33.404  32.311  30.428  1.00  0.00     0.180 HD
BRANCH  15  17
ATOM     17  S   UNL A   1      33.857  34.222  29.130  1.00  0.00     0.261 S 
ATOM     18  O   UNL A   1      32.584  34.481  28.483  1.00  0.00    -0.201 OA
ATOM     19  O   UNL A   1      35.077  34.446  28.381  1.00  0.00    -0.201 OA
BRANCH  17  20
ATOM     20  C   UNL A   1      33.944  35.295  30.532  1.00  0.00     0.088 A 
ATOM     21  C   UNL A   1      34.985  34.953  34.084  1.00  0.00     0.044 C 
ATOM     22  C   UNL A   1      34.528  35.622  32.837  1.00  0.00    -0.050 A 
ATOM     23  C   UNL A   1      33.823  36.826  32.861  1.00  0.00     0.003 A 
ATOM     24  C   UNL A   1      34.643  34.901  31.655  1.00  0.00     0.025 A 
ATOM     25  C   UNL A   1      33.244  37.310  31.690  1.00  0.00     0.002 A 
ATOM     26  C   UNL A   1      33.286  36.535  30.526  1.00  0.00     0.022 A 
ENDBRANCH  17  20
ENDBRANCH  15  17
ENDBRANCH  10  15
BRANCH  12  27
ATOM     27  N   UNL A   1      36.496  31.684  29.816  1.00  0.00    -0.369 N 
ATOM     28  C   UNL A   1      37.622  32.517  29.415  1.00  0.00     0.116 C 
ATOM     29  C   UNL A   1      36.496  31.144  31.174  1.00  0.00     0.126 C 
ATOM     30  C   UNL A   1      38.940  31.813  29.719  1.00  0.00     0.022 C 
ATOM     31  C   UNL A   1      37.771  30.336  31.449  1.00  0.00     0.064 C 
ATOM     32  C   UNL A   1      38.965  31.259  31.147  1.00  0.00     0.013 C 
BRANCH  31  33
ATOM     33  C   UNL A   1      37.721  28.995  30.673  1.00  0.00     0.267 C 
BRANCH  33  34
ATOM     34  N   UNL A   1      38.751  27.973  30.842  1.00  0.00    -0.335 N 
ATOM     35  C   UNL A   1      40.105  28.487  30.993  1.00  0.00     0.262 C 
ATOM     36  C   UNL A   1      38.777  26.931  29.821  1.00  0.00     0.262 C 
ATOM     37  H   UNL A   1      38.449  27.554  31.721  1.00  0.00     0.348 HD
ATOM     38  C   UNL A   1      40.721  28.366  29.616  1.00  0.00     0.067 C 
ATOM     39  C   UNL A   1      40.056  27.136  29.021  1.00  0.00     0.067 C 
ENDBRANCH  33  34
ENDBRANCH  31  33
ENDBRANCH  12  27
ENDBRANCH   7   9
ENDBRANCH   6   7
ENDBRANCH   5   6
ENDBRANCH   4   5
ENDBRANCH   3   4
ENDBRANCH   2   3
ENDBRANCH   1   2
BRANCH   1  40
ATOM     40  O   UNL A   1      37.022  21.572  24.753  1.00  0.00    -0.377 OA
BRANCH  40  41
ATOM     41  C   UNL A   1      37.805  22.059  25.824  1.00  0.00     0.188 C 
BRANCH  41  42
ATOM     42  C   UNL A   1      39.273  21.750  25.752  1.00  0.00     0.188 C 
BRANCH  42  43
ATOM     43  O   UNL A   1      39.720  21.177  26.961  1.00  0.00    -0.376 OA
BRANCH  43  44
ATOM     44  C   UNL A   1      41.131  21.179  27.177  1.00  0.00     0.202 C 
BRANCH  44  45
ATOM     45  C   UNL A   1      41.958  22.432  26.801  1.00  0.00     0.261 C 
BRANCH  45  46
ATOM     46  O   UNL A   1      41.462  23.594  27.505  1.00  0.00    -0.460 OA
BRANCH  46  47
ATOM     47  C   UNL A   1      42.356  24.598  27.754  1.00  0.00     0.338 C 
ATOM     48  O   UNL A   1      42.538  25.153  28.831  1.00  0.00    -0.246 OA
BRANCH  47  49
ATOM     49  C   UNL A   1      42.732  25.188  26.441  1.00  0.00     0.060 A 
ATOM     50  C   UNL A   1      43.784  24.653  25.718  1.00  0.00     0.016 A 
ATOM     51  C   UNL A   1      42.349  26.449  26.077  1.00  0.00     0.016 A 
ATOM     52  C   UNL A   1      44.682  25.516  25.021  1.00  0.00     0.010 A 
ATOM     53  C   UNL A   1      43.257  27.235  25.324  1.00  0.00     0.010 A 
ATOM     54  C   UNL A   1      44.659  26.924  25.082  1.00  0.00    -0.014 A 
BRANCH  54  55
ATOM     55  C   UNL A   1      46.173  27.998  24.971  1.00  0.00     0.031 A 
ATOM     56  C   UNL A   1      47.337  28.226  23.358  1.00  0.00     0.074 A 
ATOM     57  C   UNL A   1      46.443  28.433  26.321  1.00  0.00     0.049 A 
ATOM     58  N   UNL A   1      48.608  27.723  23.271  1.00  0.00    -0.248 NA
ATOM     59  C   UNL A   1      47.167  28.330  21.735  1.00  0.00     0.031 C 
ATOM     60  C   UNL A   1      47.517  29.183  27.005  1.00  0.00     0.029 A 
ATOM     61  N   UNL A   1      45.752  28.134  27.518  1.00  0.00    -0.354 N 
ATOM     62  C   UNL A   1      49.294  27.699  22.103  1.00  0.00     0.074 A 
ATOM     63  C   UNL A   1      48.287  27.882  21.140  1.00  0.00     0.031 C 
ATOM     64  C   UNL A   1      47.427  29.341  28.320  1.00  0.00     0.029 A 
ATOM     65  C   UNL A   1      46.550  28.324  28.664  1.00  0.00     0.049 A 
ATOM     66  H   UNL A   1      44.817  27.825  27.547  1.00  0.00     0.167 HD
ATOM     67  C   UNL A   1      50.652  27.568  22.049  1.00  0.00     0.037 A 
ATOM     68  C   UNL A   1      47.110  27.310  29.368  1.00  0.00     0.037 A 
ATOM     69  C   UNL A   1      51.310  27.801  23.344  1.00  0.00     0.049 A 
ATOM     70  C   UNL A   1      48.587  26.919  28.976  1.00  0.00     0.074 A 
ATOM     71  C   UNL A   1      51.985  28.900  23.839  1.00  0.00     0.029 A 
ATOM     72  N   UNL A   1      51.163  26.951  24.446  1.00  0.00    -0.354 N 
ATOM     73  N   UNL A   1      49.249  27.201  27.855  1.00  0.00    -0.248 NA
ATOM     74  C   UNL A   1      49.452  26.221  29.918  1.00  0.00     0.031 C 
ATOM     75  C   UNL A   1      52.253  28.670  25.207  1.00  0.00     0.029 A 
ATOM     76  C   UNL A   1      51.539  27.561  25.657  1.00  0.00     0.049 A 
ATOM     77  H   UNL A   1      50.832  26.027  24.381  1.00  0.00     0.167 HD
ATOM     78  C   UNL A   1      50.565  26.741  27.901  1.00  0.00     0.074 A 
ATOM     79  C   UNL A   1      50.604  26.116  29.229  1.00  0.00     0.031 C 
ATOM     80  C   UNL A   1      51.594  26.849  26.963  1.00  0.00     0.037 A 
BRANCH  67  81
ATOM     81  C   UNL A   1      51.323  27.638  20.688  1.00  0.00     0.057 A 
ATOM     82  C   UNL A   1      51.692  26.497  19.958  1.00  0.00     0.134 A 
ATOM     83  C   UNL A   1      51.717  28.859  20.102  1.00  0.00     0.134 A 
ATOM     84  F   UNL A   1      51.268  25.274  20.291  1.00  0.00    -0.206 F 
ATOM     85  C   UNL A   1      52.535  26.554  18.838  1.00  0.00     0.040 A 
ATOM     86  C   UNL A   1      52.586  28.930  19.001  1.00  0.00     0.040 A 
ATOM     87  F   UNL A   1      51.287  30.029  20.603  1.00  0.00    -0.206 F 
ATOM     88  C   UNL A   1      53.027  27.768  18.384  1.00  0.00     0.006 A 
ENDBRANCH  67  81
BRANCH  68  89
ATOM     89  C   UNL A   1      45.966  26.682  30.089  1.00  0.00     0.057 A 
ATOM     90  C   UNL A   1      45.632  25.349  29.689  1.00  0.00     0.134 A 
ATOM     91  C   UNL A   1      45.722  27.008  31.417  1.00  0.00     0.134 A 
ATOM     92  F   UNL A   1      45.835  24.956  28.417  1.00  0.00    -0.206 F 
ATOM     93  C   UNL A   1      45.364  24.340  30.619  1.00  0.00     0.040 A 
ATOM     94  C   UNL A   1      45.374  26.013  32.345  1.00  0.00     0.040 A 
ATOM     95  F   UNL A   1      45.999  28.238  31.868  1.00  0.00    -0.206 F 
ATOM     96  C   UNL A   1      45.267  24.671  31.961  1.00  0.00     0.006 A 
ENDBRANCH  68  89
BRANCH  80  97
ATOM     97  C   UNL A   1      52.994  26.314  27.243  1.00  0.00     0.057 A 
ATOM     98  C   UNL A   1      53.940  26.957  28.050  1.00  0.00     0.134 A 
ATOM     99  C   UNL A   1      53.474  25.195  26.523  1.00  0.00     0.134 A 
ATOM    100  F   UNL A   1      53.659  28.112  28.668  1.00  0.00    -0.206 F 
ATOM    101  C   UNL A   1      55.236  26.450  28.223  1.00  0.00     0.040 A 
ATOM    102  C   UNL A   1      54.789  24.738  26.615  1.00  0.00     0.040 A 
ATOM    103  F   UNL A   1      52.685  24.502  25.690  1.00  0.00    -0.206 F 
ATOM    104  C   UNL A   1      55.666  25.342  27.498  1.00  0.00     0.006 A 
ENDBRANCH  80  97
ENDBRANCH  54  55
ENDBRANCH  47  49
ENDBRANCH  46  47
ENDBRANCH  45  46
ENDBRANCH  44  45
ENDBRANCH  43  44
ENDBRANCH  42  43
ENDBRANCH  41  42
ENDBRANCH  40  41
ENDBRANCH   1  40
TORSDOF 26
ENDMDL
MODEL 2
REMARK VINA RESULT:     -10.9      9.893     15.519
REMARK SMILES Cc1cccc(S(=O)(=O)Nc2cc(C(=O)OCCOCCOCCOCCOC(=O)c3ccc(-c4c5nc(c(-c6c(F)cccc6F)c6ccc([nH]6)c(-c6c(F)cccc6F)c6nc(c(-c7c(F)cccc7F)c7ccc4[nH]7)C=C6)C=C5)cc3)ccc2N2CCC[C@H](C[NH+]3CCCC3)C2)c1
REMARK SMILES IDX 21 1 20 2 19 3 18 4 17 5 16 6 14 7 15 8 13 9 11 10 12 11
REMARK SMILES IDX 87 12 86 13 85 14 10 15 7 17 8 18 9 19 6 20 1 21 2 22 3 23
REMARK SMILES IDX 100 24 4 25 5 26 88 27 89 28 99 29 90 30 92 31 91 32 93 33
REMARK SMILES IDX 94 34 95 35 98 36 96 38 97 39 22 40 23 41 24 42 25 43 26 44
REMARK SMILES IDX 27 45 28 46 29 47 30 48 31 49 32 50 84 51 33 52 83 53 34 54
REMARK SMILES IDX 35 55 36 56 77 57 37 58 82 59 76 60 78 61 38 62 81 63 75 64
REMARK SMILES IDX 74 65 39 67 65 68 48 69 64 70 49 71 52 72 63 73 79 74 50 75
REMARK SMILES IDX 51 76 62 78 80 79 53 80 40 81 41 82 46 83 42 84 43 85 45 86
REMARK SMILES IDX 47 87 44 88 66 89 67 90 72 91 68 92 69 93 71 94 73 95 70 96
REMARK SMILES IDX 54 97 55 98 60 99 56 100 57 101 59 102 61 103 58 104
REMARK H PARENT 10 16 94 37 78 66 52 77
REMARK Flexibility Score: inf
ROOT
ATOM      1  C   UNL A   1      43.588  34.571  27.922  1.00  0.00     0.188 C 
ENDROOT
BRANCH   1   2
ATOM      2  C   UNL A   1      43.406  35.847  26.845  1.00  0.00     0.188 C 
BRANCH   2   3
ATOM      3  O   UNL A   1      42.373  37.262  26.807  1.00  0.00    -0.376 OA
BRANCH   3   4
ATOM      4  C   UNL A   1      42.580  39.011  26.761  1.00  0.00     0.202 C 
BRANCH   4   5
ATOM      5  C   UNL A   1      41.290  40.386  26.577  1.00  0.00     0.261 C 
BRANCH   5   6
ATOM      6  O   UNL A   1      40.985  41.397  25.083  1.00  0.00    -0.460 OA
BRANCH   6   7
ATOM      7  C   UNL A   1      41.555  42.214  23.957  1.00  0.00     0.338 C 
ATOM      8  O   UNL A   1      40.886  42.759  23.068  1.00  0.00    -0.246 OA
BRANCH   7   9
ATOM      9  C   UNL A   1      43.098  42.643  23.699  1.00  0.00     0.062 A 
ATOM     10  C   UNL A   1      45.594  42.733  24.033  1.00  0.00     0.073 A 
ATOM     11  C   UNL A   1      44.288  42.427  24.438  1.00  0.00     0.044 A 
ATOM     12  C   UNL A   1      45.758  43.665  23.021  1.00  0.00     0.061 A 
ATOM     13  C   UNL A   1      44.586  44.154  22.430  1.00  0.00     0.029 A 
ATOM     14  C   UNL A   1      43.311  43.594  22.690  1.00  0.00     0.018 A 
BRANCH  10  15
ATOM     15  N   UNL A   1      46.735  42.238  24.795  1.00  0.00    -0.277 N 
ATOM     16  H   UNL A   1      47.539  41.964  24.296  1.00  0.00     0.180 HD
BRANCH  15  17
ATOM     17  S   UNL A   1      46.765  42.102  26.515  1.00  0.00     0.261 S 
ATOM     18  O   UNL A   1      48.156  41.873  26.862  1.00  0.00    -0.201 OA
ATOM     19  O   UNL A   1      45.782  41.106  26.889  1.00  0.00    -0.201 OA
BRANCH  17  20
ATOM     20  C   UNL A   1      46.276  43.595  27.327  1.00  0.00     0.088 A 
ATOM     21  C   UNL A   1      44.123  44.462  30.231  1.00  0.00     0.044 C 
ATOM     22  C   UNL A   1      45.072  44.668  29.105  1.00  0.00    -0.050 A 
ATOM     23  C   UNL A   1      45.210  45.904  28.472  1.00  0.00     0.003 A 
ATOM     24  C   UNL A   1      45.667  43.534  28.564  1.00  0.00     0.025 A 
ATOM     25  C   UNL A   1      45.957  46.000  27.301  1.00  0.00     0.002 A 
ATOM     26  C   UNL A   1      46.476  44.841  26.713  1.00  0.00     0.022 A 
ENDBRANCH  17  20
ENDBRANCH  15  17
ENDBRANCH  10  15
BRANCH  12  27
ATOM     27  N   UNL A   1      47.024  44.110  22.701  1.00  0.00    -0.369 N 
ATOM     28  C   UNL A   1      47.554  45.340  23.273  1.00  0.00     0.116 C 
ATOM     29  C   UNL A   1      47.646  43.602  21.479  1.00  0.00     0.126 C 
ATOM     30  C   UNL A   1      47.634  46.431  22.210  1.00  0.00     0.022 C 
ATOM     31  C   UNL A   1      47.626  44.658  20.367  1.00  0.00     0.064 C 
ATOM     32  C   UNL A   1      48.302  45.921  20.929  1.00  0.00     0.013 C 
BRANCH  31  33
ATOM     33  C   UNL A   1      46.182  44.829  19.830  1.00  0.00     0.267 C 
BRANCH  33  34
ATOM     34  N   UNL A   1      45.919  45.361  18.496  1.00  0.00    -0.335 N 
ATOM     35  C   UNL A   1      45.966  46.813  18.396  1.00  0.00     0.262 C 
ATOM     36  C   UNL A   1      44.682  44.907  17.870  1.00  0.00     0.262 C 
ATOM     37  H   UNL A   1      46.704  44.962  17.982  1.00  0.00     0.348 HD
ATOM     38  C   UNL A   1      44.519  47.253  18.463  1.00  0.00     0.067 C 
ATOM     39  C   UNL A   1      43.756  46.115  17.804  1.00  0.00     0.067 C 
ENDBRANCH  33  34
ENDBRANCH  31  33
ENDBRANCH  12  27
ENDBRANCH   7   9
ENDBRANCH   6   7
ENDBRANCH   5   6
ENDBRANCH   4   5
ENDBRANCH   3   4
ENDBRANCH   2   3
ENDBRANCH   1   2
BRANCH   1  40
ATOM     40  O   UNL A   1      42.865  34.530  29.161  1.00  0.00    -0.377 OA
BRANCH  40  41
ATOM     41  C   UNL A   1      43.509  34.444  30.417  1.00  0.00     0.188 C 
BRANCH  41  42
ATOM     42  C   UNL A   1      42.644  34.010  31.565  1.00  0.00     0.188 C 
BRANCH  42  43
ATOM     43  O   UNL A   1      42.374  35.096  32.423  1.00  0.00    -0.376 OA
BRANCH  43  44
ATOM     44  C   UNL A   1      43.467  35.974  32.693  1.00  0.00     0.202 C 
BRANCH  44  45
ATOM     45  C   UNL A   1      43.987  36.123  34.143  1.00  0.00     0.261 C 
BRANCH  45  46
ATOM     46  O   UNL A   1      44.932  35.071  34.450  1.00  0.00    -0.460 OA
BRANCH  46  47
ATOM     47  C   UNL A   1      44.892  34.551  35.714  1.00  0.00     0.338 C 
ATOM     48  O   UNL A   1      45.151  35.150  36.750  1.00  0.00    -0.246 OA
BRANCH  47  49
ATOM     49  C   UNL A   1      44.920  33.069  35.582  1.00  0.00     0.060 A 
ATOM     50  C   UNL A   1      45.051  32.489  34.332  1.00  0.00     0.016 A 
ATOM     51  C   UNL A   1      44.454  32.245  36.568  1.00  0.00     0.016 A 
ATOM     52  C   UNL A   1      44.305  31.315  34.010  1.00  0.00     0.010 A 
ATOM     53  C   UNL A   1      43.783  31.056  36.186  1.00  0.00     0.010 A 
ATOM     54  C   UNL A   1      43.335  30.722  34.842  1.00  0.00    -0.014 A 
BRANCH  54  55
ATOM     55  C   UNL A   1      41.823  29.839  34.216  1.00  0.00     0.031 A 
ATOM     56  C   UNL A   1      41.714  28.726  32.555  1.00  0.00     0.074 A 
ATOM     57  C   UNL A   1      40.731  30.305  35.036  1.00  0.00     0.049 A 
ATOM     58  N   UNL A   1      41.031  29.114  31.433  1.00  0.00    -0.248 NA
ATOM     59  C   UNL A   1      42.650  27.667  31.732  1.00  0.00     0.031 C 
ATOM     60  C   UNL A   1      39.261  30.146  35.048  1.00  0.00     0.029 A 
ATOM     61  N   UNL A   1      40.737  31.241  36.097  1.00  0.00    -0.354 N 
ATOM     62  C   UNL A   1      41.148  28.455  30.255  1.00  0.00     0.074 A 
ATOM     63  C   UNL A   1      42.323  27.703  30.428  1.00  0.00     0.031 C 
ATOM     64  C   UNL A   1      38.570  30.803  35.971  1.00  0.00     0.029 A 
ATOM     65  C   UNL A   1      39.464  31.797  36.335  1.00  0.00     0.049 A 
ATOM     66  H   UNL A   1      41.543  31.479  36.611  1.00  0.00     0.167 HD
ATOM     67  C   UNL A   1      40.227  28.568  29.254  1.00  0.00     0.037 A 
ATOM     68  C   UNL A   1      39.105  33.047  35.951  1.00  0.00     0.037 A 
ATOM     69  C   UNL A   1      38.961  29.174  29.694  1.00  0.00     0.049 A 
ATOM     70  C   UNL A   1      38.383  33.169  34.554  1.00  0.00     0.074 A 
ATOM     71  C   UNL A   1      37.741  28.609  30.009  1.00  0.00     0.029 A 
ATOM     72  N   UNL A   1      38.847  30.510  30.097  1.00  0.00    -0.354 N 
ATOM     73  N   UNL A   1      38.365  32.292  33.551  1.00  0.00    -0.248 NA
ATOM     74  C   UNL A   1      37.541  34.316  34.244  1.00  0.00     0.031 C 
ATOM     75  C   UNL A   1      36.919  29.620  30.559  1.00  0.00     0.029 A 
ATOM     76  C   UNL A   1      37.676  30.756  30.837  1.00  0.00     0.049 A 
ATOM     77  H   UNL A   1      39.514  31.202  29.885  1.00  0.00     0.167 HD
ATOM     78  C   UNL A   1      37.560  32.726  32.499  1.00  0.00     0.074 A 
ATOM     79  C   UNL A   1      37.095  34.022  33.009  1.00  0.00     0.031 C 
ATOM     80  C   UNL A   1      37.247  32.109  31.286  1.00  0.00     0.037 A 
BRANCH  67  81
ATOM     81  C   UNL A   1      40.417  27.717  28.010  1.00  0.00     0.057 A 
ATOM     82  C   UNL A   1      40.018  26.373  27.933  1.00  0.00     0.134 A 
ATOM     83  C   UNL A   1      41.104  28.188  26.871  1.00  0.00     0.134 A 
ATOM     84  F   UNL A   1      39.228  25.815  28.856  1.00  0.00    -0.206 F 
ATOM     85  C   UNL A   1      40.421  25.520  26.895  1.00  0.00     0.040 A 
ATOM     86  C   UNL A   1      41.542  27.339  25.840  1.00  0.00     0.040 A 
ATOM     87  F   UNL A   1      41.395  29.493  26.737  1.00  0.00    -0.206 F 
ATOM     88  C   UNL A   1      41.227  25.988  25.868  1.00  0.00     0.006 A 
ENDBRANCH  67  81
BRANCH  68  89
ATOM     89  C   UNL A   1      39.836  33.947  36.889  1.00  0.00     0.057 A 
ATOM     90  C   UNL A   1      40.937  34.670  36.328  1.00  0.00     0.134 A 
ATOM     91  C   UNL A   1      39.153  34.569  37.925  1.00  0.00     0.134 A 
ATOM     92  F   UNL A   1      41.654  34.134  35.322  1.00  0.00    -0.206 F 
ATOM     93  C   UNL A   1      41.140  36.029  36.583  1.00  0.00     0.040 A 
ATOM     94  C   UNL A   1      39.403  35.914  38.242  1.00  0.00     0.040 A 
ATOM     95  F   UNL A   1      38.115  33.955  38.508  1.00  0.00    -0.206 F 
ATOM     96  C   UNL A   1      40.343  36.663  37.524  1.00  0.00     0.006 A 
ENDBRANCH  68  89
BRANCH  80  97
ATOM     97  C   UNL A   1      36.289  32.747  30.285  1.00  0.00     0.057 A 
ATOM     98  C   UNL A   1      34.897  32.780  30.433  1.00  0.00     0.134 A 
ATOM     99  C   UNL A   1      36.774  33.184  29.030  1.00  0.00     0.134 A 
ATOM    100  F   UNL A   1      34.299  32.256  31.512  1.00  0.00    -0.206 F 
ATOM    101  C   UNL A   1      34.058  33.324  29.451  1.00  0.00     0.040 A 
ATOM    102  C   UNL A   1      35.940  33.640  28.009  1.00  0.00     0.040 A 
ATOM    103  F   UNL A   1      38.083  33.178  28.740  1.00  0.00    -0.206 F 
ATOM    104  C   UNL A   1      34.578  33.748  28.231  1.00  0.00     0.006 A 
ENDBRANCH  80  97
ENDBRANCH  54  55
ENDBRANCH  47  49
ENDBRANCH  46  47
ENDBRANCH  45  46
ENDBRANCH  44  45
ENDBRANCH  43  44
ENDBRANCH  42  43
ENDBRANCH  41  42
ENDBRANCH  40  41
ENDBRANCH   1  40
TORSDOF 26
ENDMDL
MODEL 3
REMARK VINA RESULT:     -10.5      9.724     15.624
REMARK SMILES Cc1cccc(S(=O)(=O)Nc2cc(C(=O)OCCOCCOCCOCCOC(=O)c3ccc(-c4c5nc(c(-c6c(F)cccc6F)c6ccc([nH]6)c(-c6c(F)cccc6F)c6nc(c(-c7c(F)cccc7F)c7ccc4[nH]7)C=C6)C=C5)cc3)ccc2N2CCC[C@H](C[NH+]3CCCC3)C2)c1
REMARK SMILES IDX 21 1 20 2 19 3 18 4 17 5 16 6 14 7 15 8 13 9 11 10 12 11
REMARK SMILES IDX 87 12 86 13 85 14 10 15 7 17 8 18 9 19 6 20 1 21 2 22 3 23
REMARK SMILES IDX 100 24 4 25 5 26 88 27 89 28 99 29 90 30 92 31 91 32 93 33
REMARK SMILES IDX 94 34 95 35 98 36 96 38 97 39 22 40 23 41 24 42 25 43 26 44
REMARK SMILES IDX 27 45 28 46 29 47 30 48 31 49 32 50 84 51 33 52 83 53 34 54
REMARK SMILES IDX 35 55 36 56 77 57 37 58 82 59 76 60 78 61 38 62 81 63 75 64
REMARK SMILES IDX 74 65 39 67 65 68 48 69 64 70 49 71 52 72 63 73 79 74 50 75
REMARK SMILES IDX 51 76 62 78 80 79 53 80 40 81 41 82 46 83 42 84 43 85 45 86
REMARK SMILES IDX 47 87 44 88 66 89 67 90 72 91 68 92 69 93 71 94 73 95 70 96
REMARK SMILES IDX 54 97 55 98 60 99 56 100 57 101 59 102 61 103 58 104
REMARK H PARENT 10 16 94 37 78 66 52 77
REMARK Flexibility Score: inf
ROOT
ATOM      1  C   UNL A   1      43.715  34.627  27.854  1.00  0.00     0.188 C 
ENDROOT
BRANCH   1   2
ATOM      2  C   UNL A   1      43.647  35.917  26.781  1.00  0.00     0.188 C 
BRANCH   2   3
ATOM      3  O   UNL A   1      42.674  37.373  26.697  1.00  0.00    -0.376 OA
BRANCH   3   4
ATOM      4  C   UNL A   1      42.952  39.112  26.689  1.00  0.00     0.202 C 
BRANCH   4   5
ATOM      5  C   UNL A   1      41.712  40.544  26.644  1.00  0.00     0.261 C 
BRANCH   5   6
ATOM      6  O   UNL A   1      41.069  41.378  25.148  1.00  0.00    -0.460 OA
BRANCH   6   7
ATOM      7  C   UNL A   1      41.363  42.143  23.887  1.00  0.00     0.338 C 
ATOM      8  O   UNL A   1      40.511  42.508  23.066  1.00  0.00    -0.246 OA
BRANCH   7   9
ATOM      9  C   UNL A   1      42.782  42.733  23.370  1.00  0.00     0.062 A 
ATOM     10  C   UNL A   1      45.269  43.135  23.300  1.00  0.00     0.073 A 
ATOM     11  C   UNL A   1      44.089  42.703  23.920  1.00  0.00     0.044 A 
ATOM     12  C   UNL A   1      45.159  44.016  22.238  1.00  0.00     0.061 A 
ATOM     13  C   UNL A   1      43.859  44.328  21.820  1.00  0.00     0.029 A 
ATOM     14  C   UNL A   1      42.719  43.639  22.302  1.00  0.00     0.018 A 
BRANCH  10  15
ATOM     15  N   UNL A   1      46.566  42.824  23.892  1.00  0.00    -0.277 N 
ATOM     16  H   UNL A   1      47.316  42.632  23.284  1.00  0.00     0.180 HD
BRANCH  15  17
ATOM     17  S   UNL A   1      46.868  42.771  25.591  1.00  0.00     0.261 S 
ATOM     18  O   UNL A   1      45.632  43.198  26.218  1.00  0.00    -0.201 OA
ATOM     19  O   UNL A   1      48.076  43.532  25.840  1.00  0.00    -0.201 OA
BRANCH  17  20
ATOM     20  C   UNL A   1      47.197  41.134  26.174  1.00  0.00     0.088 A 
ATOM     21  C   UNL A   1      49.681  39.572  28.457  1.00  0.00     0.044 C 
ATOM     22  C   UNL A   1      48.496  39.670  27.563  1.00  0.00    -0.050 A 
ATOM     23  C   UNL A   1      47.978  38.556  26.899  1.00  0.00     0.003 A 
ATOM     24  C   UNL A   1      48.049  40.946  27.244  1.00  0.00     0.025 A 
ATOM     25  C   UNL A   1      47.000  38.728  25.923  1.00  0.00     0.002 A 
ATOM     26  C   UNL A   1      46.621  40.020  25.543  1.00  0.00     0.022 A 
ENDBRANCH  17  20
ENDBRANCH  15  17
ENDBRANCH  10  15
BRANCH  12  27
ATOM     27  N   UNL A   1      46.297  44.586  21.702  1.00  0.00    -0.369 N 
ATOM     28  C   UNL A   1      46.699  45.938  22.063  1.00  0.00     0.116 C 
ATOM     29  C   UNL A   1      46.837  44.019  20.468  1.00  0.00     0.126 C 
ATOM     30  C   UNL A   1      46.485  46.889  20.891  1.00  0.00     0.022 C 
ATOM     31  C   UNL A   1      46.525  44.916  19.264  1.00  0.00     0.064 C 
ATOM     32  C   UNL A   1      47.065  46.320  19.592  1.00  0.00     0.013 C 
BRANCH  31  33
ATOM     33  C   UNL A   1      45.018  44.821  18.913  1.00  0.00     0.267 C 
BRANCH  33  34
ATOM     34  N   UNL A   1      44.514  45.183  17.591  1.00  0.00    -0.335 N 
ATOM     35  C   UNL A   1      43.927  46.513  17.503  1.00  0.00     0.262 C 
ATOM     36  C   UNL A   1      43.577  44.238  16.994  1.00  0.00     0.262 C 
ATOM     37  H   UNL A   1      45.380  45.160  17.053  1.00  0.00     0.348 HD
ATOM     38  C   UNL A   1      42.435  46.285  17.612  1.00  0.00     0.067 C 
ATOM     39  C   UNL A   1      42.220  44.928  16.964  1.00  0.00     0.067 C 
ENDBRANCH  33  34
ENDBRANCH  31  33
ENDBRANCH  12  27
ENDBRANCH   7   9
ENDBRANCH   6   7
ENDBRANCH   5   6
ENDBRANCH   4   5
ENDBRANCH   3   4
ENDBRANCH   2   3
ENDBRANCH   1   2
BRANCH   1  40
ATOM     40  O   UNL A   1      42.940  34.618  29.062  1.00  0.00    -0.377 OA
BRANCH  40  41
ATOM     41  C   UNL A   1      43.528  34.522  30.344  1.00  0.00     0.188 C 
BRANCH  41  42
ATOM     42  C   UNL A   1      42.603  34.124  31.457  1.00  0.00     0.188 C 
BRANCH  42  43
ATOM     43  O   UNL A   1      42.332  35.225  32.297  1.00  0.00    -0.376 OA
BRANCH  43  44
ATOM     44  C   UNL A   1      43.443  36.060  32.619  1.00  0.00     0.202 C 
BRANCH  44  45
ATOM     45  C   UNL A   1      43.875  36.220  34.097  1.00  0.00     0.261 C 
BRANCH  45  46
ATOM     46  O   UNL A   1      44.837  35.200  34.454  1.00  0.00    -0.460 OA
BRANCH  46  47
ATOM     47  C   UNL A   1      44.800  34.735  35.740  1.00  0.00     0.338 C 
ATOM     48  O   UNL A   1      45.075  35.376  36.747  1.00  0.00    -0.246 OA
BRANCH  47  49
ATOM     49  C   UNL A   1      44.810  33.249  35.671  1.00  0.00     0.060 A 
ATOM     50  C   UNL A   1      44.969  32.614  34.452  1.00  0.00     0.016 A 
ATOM     51  C   UNL A   1      44.301  32.475  36.676  1.00  0.00     0.016 A 
ATOM     52  C   UNL A   1      44.216  31.438  34.157  1.00  0.00     0.010 A 
ATOM     53  C   UNL A   1      43.624  31.280  36.325  1.00  0.00     0.010 A 
ATOM     54  C   UNL A   1      43.212  30.895  34.982  1.00  0.00    -0.014 A 
BRANCH  54  55
ATOM     55  C   UNL A   1      41.706  30.007  34.347  1.00  0.00     0.031 A 
ATOM     56  C   UNL A   1      41.621  28.862  32.707  1.00  0.00     0.074 A 
ATOM     57  C   UNL A   1      40.603  30.495  35.140  1.00  0.00     0.049 A 
ATOM     58  N   UNL A   1      40.959  29.231  31.566  1.00  0.00    -0.248 NA
ATOM     59  C   UNL A   1      42.565  27.782  31.922  1.00  0.00     0.031 C 
ATOM     60  C   UNL A   1      39.133  30.343  35.129  1.00  0.00     0.029 A 
ATOM     61  N   UNL A   1      40.596  31.451  36.181  1.00  0.00    -0.354 N 
ATOM     62  C   UNL A   1      41.093  28.548  30.404  1.00  0.00     0.074 A 
ATOM     63  C   UNL A   1      42.261  27.794  30.612  1.00  0.00     0.031 C 
ATOM     64  C   UNL A   1      38.429  31.021  36.026  1.00  0.00     0.029 A 
ATOM     65  C   UNL A   1      39.322  32.018  36.386  1.00  0.00     0.049 A 
ATOM     66  H   UNL A   1      41.394  31.695  36.705  1.00  0.00     0.167 HD
ATOM     67  C   UNL A   1      40.190  28.646  29.385  1.00  0.00     0.037 A 
ATOM     68  C   UNL A   1      38.976  33.262  35.972  1.00  0.00     0.037 A 
ATOM     69  C   UNL A   1      38.919  29.267  29.791  1.00  0.00     0.049 A 
ATOM     70  C   UNL A   1      38.279  33.360  34.560  1.00  0.00     0.074 A 
ATOM     71  C   UNL A   1      37.691  28.715  30.095  1.00  0.00     0.029 A 
ATOM     72  N   UNL A   1      38.806  30.611  30.165  1.00  0.00    -0.354 N 
ATOM     73  N   UNL A   1      38.273  32.463  33.575  1.00  0.00    -0.248 NA
ATOM     74  C   UNL A   1      37.449  34.505  34.213  1.00  0.00     0.031 C 
ATOM     75  C   UNL A   1      36.866  29.740  30.611  1.00  0.00     0.029 A 
ATOM     76  C   UNL A   1      37.623  30.877  30.879  1.00  0.00     0.049 A 
ATOM     77  H   UNL A   1      39.480  31.295  29.951  1.00  0.00     0.167 HD
ATOM     78  C   UNL A   1      37.489  32.881  32.500  1.00  0.00     0.074 A 
ATOM     79  C   UNL A   1      37.023  34.189  32.976  1.00  0.00     0.031 C 
ATOM     80  C   UNL A   1      37.194  32.241  31.294  1.00  0.00     0.037 A 
BRANCH  67  81
ATOM     81  C   UNL A   1      40.397  27.770  28.161  1.00  0.00     0.057 A 
ATOM     82  C   UNL A   1      39.995  26.426  28.105  1.00  0.00     0.134 A 
ATOM     83  C   UNL A   1      41.103  28.215  27.024  1.00  0.00     0.134 A 
ATOM     84  F   UNL A   1      39.190  25.888  29.027  1.00  0.00    -0.206 F 
ATOM     85  C   UNL A   1      40.412  25.550  27.091  1.00  0.00     0.040 A 
ATOM     86  C   UNL A   1      41.554  27.344  26.018  1.00  0.00     0.040 A 
ATOM     87  F   UNL A   1      41.400  29.516  26.868  1.00  0.00    -0.206 F 
ATOM     88  C   UNL A   1      41.236  25.995  26.068  1.00  0.00     0.006 A 
ENDBRANCH  67  81
BRANCH  68  89
ATOM     89  C   UNL A   1      39.695  34.177  36.904  1.00  0.00     0.057 A 
ATOM     90  C   UNL A   1      39.223  34.189  38.255  1.00  0.00     0.134 A 
ATOM     91  C   UNL A   1      41.048  34.429  36.720  1.00  0.00     0.134 A 
ATOM     92  F   UNL A   1      37.923  33.958  38.517  1.00  0.00    -0.206 F 
ATOM     93  C   UNL A   1      40.096  34.152  39.346  1.00  0.00     0.040 A 
ATOM     94  C   UNL A   1      41.924  34.472  37.817  1.00  0.00     0.040 A 
ATOM     95  F   UNL A   1      41.566  34.444  35.485  1.00  0.00    -0.206 F 
ATOM     96  C   UNL A   1      41.459  34.261  39.121  1.00  0.00     0.006 A 
ENDBRANCH  68  89
BRANCH  80  97
ATOM     97  C   UNL A   1      36.257  32.864  30.265  1.00  0.00     0.057 A 
ATOM     98  C   UNL A   1      34.861  32.867  30.366  1.00  0.00     0.134 A 
ATOM     99  C   UNL A   1      36.774  33.317  29.029  1.00  0.00     0.134 A 
ATOM    100  F   UNL A   1      34.237  32.326  31.422  1.00  0.00    -0.206 F 
ATOM    101  C   UNL A   1      34.044  33.399  29.358  1.00  0.00     0.040 A 
ATOM    102  C   UNL A   1      35.965  33.760  27.982  1.00  0.00     0.040 A 
ATOM    103  F   UNL A   1      38.092  33.340  28.782  1.00  0.00    -0.206 F 
ATOM    104  C   UNL A   1      34.595  33.840  28.159  1.00  0.00     0.006 A 
ENDBRANCH  80  97
ENDBRANCH  54  55
ENDBRANCH  47  49
ENDBRANCH  46  47
ENDBRANCH  45  46
ENDBRANCH  44  45
ENDBRANCH  43  44
ENDBRANCH  42  43
ENDBRANCH  41  42
ENDBRANCH  40  41
ENDBRANCH   1  40
TORSDOF 26
ENDMDL
