MODEL 1
REMARK VINA RESULT:     -10.6      0.000      0.000
REMARK SMILES C[C@@H](C(=O)OCCOCCOCCOCCOC(=O)c1ccc(-c2c3nc(c(-c4c(F)cccc4F)c4ccc([nH]4)c(-c4c(F)cccc4F)c4nc(c(-c5c(F)cccc5F)c5ccc2[nH]5)C=C4)C=C3)cc1)c1ccccc1-c1ccn(C(F)F)c(=O)c1
REMARK SMILES IDX 10 1 9 2 8 3 7 4 6 5 5 6 3 7 4 8 2 9 1 10 74 11 75 12 79 13
REMARK SMILES IDX 76 14 78 15 77 16 80 17 81 18 89 19 82 20 87 21 83 22 88 23
REMARK SMILES IDX 84 24 85 25 86 26 11 27 12 28 13 29 14 30 15 31 16 32 17 33
REMARK SMILES IDX 18 34 19 35 20 36 21 37 73 38 22 39 72 40 23 41 24 42 25 43
REMARK SMILES IDX 66 44 26 45 71 46 65 47 67 48 27 49 70 50 64 51 63 52 28 54
REMARK SMILES IDX 54 55 37 56 53 57 38 58 41 59 52 60 68 61 39 62 40 63 51 65
REMARK SMILES IDX 69 66 42 67 29 68 30 69 35 70 31 71 32 72 34 73 36 74 33 75
REMARK SMILES IDX 55 76 56 77 61 78 57 79 58 80 60 81 62 82 59 83 43 84 44 85
REMARK SMILES IDX 49 86 45 87 46 88 48 89 50 90 47 91
REMARK H PARENT 67 53 41 64
REMARK Flexibility Score: inf
ROOT
ATOM      1  C   UNL A   1      33.278  34.559  29.072  1.00  0.00     0.188 C 
ENDROOT
BRANCH   1   2
ATOM      2  C   UNL A   1      34.534  33.701  28.836  1.00  0.00     0.188 C 
BRANCH   2   3
ATOM      3  O   UNL A   1      34.537  32.989  27.610  1.00  0.00    -0.376 OA
BRANCH   3   4
ATOM      4  C   UNL A   1      34.639  31.576  27.651  1.00  0.00     0.202 C 
BRANCH   4   5
ATOM      5  C   UNL A   1      33.372  30.739  27.347  1.00  0.00     0.261 C 
BRANCH   5   6
ATOM      6  O   UNL A   1      33.355  30.065  26.069  1.00  0.00    -0.463 OA
BRANCH   6   7
ATOM      7  C   UNL A   1      32.268  29.277  25.911  1.00  0.00     0.313 C 
ATOM      8  O   UNL A   1      31.453  29.202  26.815  1.00  0.00    -0.252 OA
BRANCH   7   9
ATOM      9  C   UNL A   1      32.148  28.513  24.587  1.00  0.00     0.127 C 
ATOM     10  C   UNL A   1      33.264  28.904  23.594  1.00  0.00     0.025 C 
BRANCH   9  11
ATOM     11  C   UNL A   1      30.703  28.468  24.009  1.00  0.00    -0.026 A 
ATOM     12  C   UNL A   1      30.142  29.624  23.420  1.00  0.00     0.005 A 
ATOM     13  C   UNL A   1      29.884  27.294  24.024  1.00  0.00    -0.014 A 
ATOM     14  C   UNL A   1      28.830  29.649  22.932  1.00  0.00     0.000 A 
ATOM     15  C   UNL A   1      28.558  27.346  23.552  1.00  0.00     0.009 A 
ATOM     16  C   UNL A   1      28.031  28.517  23.017  1.00  0.00     0.001 A 
BRANCH  13  17
ATOM     17  C   UNL A   1      30.325  25.971  24.529  1.00  0.00    -0.011 A 
ATOM     18  C   UNL A   1      30.508  25.696  25.947  1.00  0.00     0.027 A 
ATOM     19  C   UNL A   1      30.677  25.031  23.635  1.00  0.00     0.080 A 
ATOM     20  C   UNL A   1      31.359  24.730  26.321  1.00  0.00     0.095 A 
ATOM     21  C   UNL A   1      31.460  23.841  24.075  1.00  0.00     0.255 A 
ATOM     22  N   UNL A   1      31.923  23.888  25.379  1.00  0.00    -0.258 N 
ATOM     23  O   UNL A   1      31.717  22.968  23.252  1.00  0.00    -0.269 OA
BRANCH  22  24
ATOM     24  C   UNL A   1      33.000  23.009  25.747  1.00  0.00     0.451 C 
ATOM     25  F   UNL A   1      33.885  23.635  26.559  1.00  0.00    -0.185 F 
ATOM     26  F   UNL A   1      32.554  21.900  26.391  1.00  0.00    -0.185 F 
ENDBRANCH  22  24
ENDBRANCH  13  17
ENDBRANCH   9  11
ENDBRANCH   7   9
ENDBRANCH   6   7
ENDBRANCH   5   6
ENDBRANCH   4   5
ENDBRANCH   3   4
ENDBRANCH   2   3
ENDBRANCH   1   2
BRANCH   1  27
ATOM     27  O   UNL A   1      33.428  35.910  29.486  1.00  0.00    -0.377 OA
BRANCH  27  28
ATOM     28  C   UNL A   1      32.899  36.320  30.743  1.00  0.00     0.188 C 
BRANCH  28  29
ATOM     29  C   UNL A   1      33.833  36.704  31.912  1.00  0.00     0.188 C 
BRANCH  29  30
ATOM     30  O   UNL A   1      34.376  35.606  32.624  1.00  0.00    -0.376 OA
BRANCH  30  31
ATOM     31  C   UNL A   1      33.515  34.510  32.880  1.00  0.00     0.202 C 
BRANCH  31  32
ATOM     32  C   UNL A   1      34.094  33.099  32.691  1.00  0.00     0.261 C 
BRANCH  32  33
ATOM     33  O   UNL A   1      35.439  33.023  32.188  1.00  0.00    -0.460 OA
BRANCH  33  34
ATOM     34  C   UNL A   1      36.400  32.568  33.018  1.00  0.00     0.338 C 
ATOM     35  O   UNL A   1      36.415  32.633  34.237  1.00  0.00    -0.246 OA
BRANCH  34  36
ATOM     36  C   UNL A   1      37.346  31.770  32.210  1.00  0.00     0.060 A 
ATOM     37  C   UNL A   1      38.189  30.853  32.856  1.00  0.00     0.016 A 
ATOM     38  C   UNL A   1      37.373  31.896  30.820  1.00  0.00     0.016 A 
ATOM     39  C   UNL A   1      39.089  30.088  32.116  1.00  0.00     0.010 A 
ATOM     40  C   UNL A   1      38.298  31.155  30.082  1.00  0.00     0.010 A 
ATOM     41  C   UNL A   1      39.185  30.278  30.731  1.00  0.00    -0.014 A 
BRANCH  41  42
ATOM     42  C   UNL A   1      40.371  29.761  30.011  1.00  0.00     0.031 A 
ATOM     43  C   UNL A   1      41.517  30.710  29.783  1.00  0.00     0.074 A 
ATOM     44  C   UNL A   1      40.451  28.486  29.595  1.00  0.00     0.049 A 
ATOM     45  N   UNL A   1      42.636  30.526  29.133  1.00  0.00    -0.248 NA
ATOM     46  C   UNL A   1      41.374  32.053  30.371  1.00  0.00     0.031 C 
ATOM     47  C   UNL A   1      39.432  27.461  29.803  1.00  0.00     0.029 A 
ATOM     48  N   UNL A   1      41.443  27.843  28.897  1.00  0.00    -0.354 N 
ATOM     49  C   UNL A   1      43.326  31.728  29.230  1.00  0.00     0.074 A 
ATOM     50  C   UNL A   1      42.487  32.645  29.968  1.00  0.00     0.031 C 
ATOM     51  C   UNL A   1      39.843  26.318  29.226  1.00  0.00     0.029 A 
ATOM     52  C   UNL A   1      41.136  26.543  28.580  1.00  0.00     0.049 A 
ATOM     53  H   UNL A   1      42.293  28.272  28.648  1.00  0.00     0.167 HD
ATOM     54  C   UNL A   1      44.553  32.038  28.752  1.00  0.00     0.037 A 
ATOM     55  C   UNL A   1      41.812  25.652  27.829  1.00  0.00     0.037 A 
ATOM     56  C   UNL A   1      45.379  31.127  28.008  1.00  0.00     0.049 A 
ATOM     57  C   UNL A   1      43.138  26.046  27.229  1.00  0.00     0.074 A 
ATOM     58  C   UNL A   1      46.639  31.340  27.478  1.00  0.00     0.029 A 
ATOM     59  N   UNL A   1      45.019  29.829  27.677  1.00  0.00    -0.354 N 
ATOM     60  N   UNL A   1      43.792  27.180  27.335  1.00  0.00    -0.248 NA
ATOM     61  C   UNL A   1      43.822  25.038  26.407  1.00  0.00     0.031 C 
ATOM     62  C   UNL A   1      47.017  30.190  26.778  1.00  0.00     0.029 A 
ATOM     63  C   UNL A   1      46.022  29.237  26.927  1.00  0.00     0.049 A 
ATOM     64  H   UNL A   1      44.175  29.393  27.936  1.00  0.00     0.167 HD
ATOM     65  C   UNL A   1      44.974  27.009  26.623  1.00  0.00     0.074 A 
ATOM     66  C   UNL A   1      44.953  25.659  26.100  1.00  0.00     0.031 C 
ATOM     67  C   UNL A   1      45.987  27.888  26.422  1.00  0.00     0.037 A 
BRANCH  54  68
ATOM     68  C   UNL A   1      45.054  33.433  28.993  1.00  0.00     0.057 A 
ATOM     69  C   UNL A   1      45.738  33.785  30.165  1.00  0.00     0.134 A 
ATOM     70  C   UNL A   1      44.860  34.434  28.034  1.00  0.00     0.134 A 
ATOM     71  F   UNL A   1      45.941  32.879  31.133  1.00  0.00    -0.206 F 
ATOM     72  C   UNL A   1      46.186  35.089  30.385  1.00  0.00     0.040 A 
ATOM     73  C   UNL A   1      45.330  35.735  28.229  1.00  0.00     0.040 A 
ATOM     74  F   UNL A   1      44.213  34.166  26.891  1.00  0.00    -0.206 F 
ATOM     75  C   UNL A   1      45.988  36.066  29.411  1.00  0.00     0.006 A 
ENDBRANCH  54  68
BRANCH  55  76
ATOM     76  C   UNL A   1      41.240  24.303  27.576  1.00  0.00     0.057 A 
ATOM     77  C   UNL A   1      40.171  24.118  26.690  1.00  0.00     0.134 A 
ATOM     78  C   UNL A   1      41.730  23.170  28.236  1.00  0.00     0.134 A 
ATOM     79  F   UNL A   1      39.640  25.168  26.046  1.00  0.00    -0.206 F 
ATOM     80  C   UNL A   1      39.599  22.861  26.486  1.00  0.00     0.040 A 
ATOM     81  C   UNL A   1      41.187  21.902  28.019  1.00  0.00     0.040 A 
ATOM     82  F   UNL A   1      42.751  23.277  29.099  1.00  0.00    -0.206 F 
ATOM     83  C   UNL A   1      40.112  21.747  27.147  1.00  0.00     0.006 A 
ENDBRANCH  55  76
BRANCH  67  84
ATOM     84  C   UNL A   1      47.178  27.407  25.641  1.00  0.00     0.057 A 
ATOM     85  C   UNL A   1      47.303  27.623  24.263  1.00  0.00     0.134 A 
ATOM     86  C   UNL A   1      48.237  26.759  26.291  1.00  0.00     0.134 A 
ATOM     87  F   UNL A   1      46.321  28.228  23.577  1.00  0.00    -0.206 F 
ATOM     88  C   UNL A   1      48.425  27.188  23.556  1.00  0.00     0.040 A 
ATOM     89  C   UNL A   1      49.379  26.349  25.601  1.00  0.00     0.040 A 
ATOM     90  F   UNL A   1      48.190  26.531  27.612  1.00  0.00    -0.206 F 
ATOM     91  C   UNL A   1      49.471  26.557  24.227  1.00  0.00     0.006 A 
ENDBRANCH  67  84
ENDBRANCH  41  42
ENDBRANCH  34  36
ENDBRANCH  33  34
ENDBRANCH  32  33
ENDBRANCH  31  32
ENDBRANCH  30  31
ENDBRANCH  29  30
ENDBRANCH  28  29
ENDBRANCH  27  28
ENDBRANCH   1  27
TORSDOF 23
ENDMDL
MODEL 2
REMARK VINA RESULT:     -10.4      1.983      2.944
REMARK SMILES C[C@@H](C(=O)OCCOCCOCCOCCOC(=O)c1ccc(-c2c3nc(c(-c4c(F)cccc4F)c4ccc([nH]4)c(-c4c(F)cccc4F)c4nc(c(-c5c(F)cccc5F)c5ccc2[nH]5)C=C4)C=C3)cc1)c1ccccc1-c1ccn(C(F)F)c(=O)c1
REMARK SMILES IDX 10 1 9 2 8 3 7 4 6 5 5 6 3 7 4 8 2 9 1 10 74 11 75 12 79 13
REMARK SMILES IDX 76 14 78 15 77 16 80 17 81 18 89 19 82 20 87 21 83 22 88 23
REMARK SMILES IDX 84 24 85 25 86 26 11 27 12 28 13 29 14 30 15 31 16 32 17 33
REMARK SMILES IDX 18 34 19 35 20 36 21 37 73 38 22 39 72 40 23 41 24 42 25 43
REMARK SMILES IDX 66 44 26 45 71 46 65 47 67 48 27 49 70 50 64 51 63 52 28 54
REMARK SMILES IDX 54 55 37 56 53 57 38 58 41 59 52 60 68 61 39 62 40 63 51 65
REMARK SMILES IDX 69 66 42 67 29 68 30 69 35 70 31 71 32 72 34 73 36 74 33 75
REMARK SMILES IDX 55 76 56 77 61 78 57 79 58 80 60 81 62 82 59 83 43 84 44 85
REMARK SMILES IDX 49 86 45 87 46 88 48 89 50 90 47 91
REMARK H PARENT 67 53 41 64
REMARK Flexibility Score: inf
ROOT
ATOM      1  C   UNL A   1      33.044  35.147  29.185  1.00  0.00     0.188 C 
ENDROOT
BRANCH   1   2
ATOM      2  C   UNL A   1      34.515  34.905  28.804  1.00  0.00     0.188 C 
BRANCH   2   3
ATOM      3  O   UNL A   1      34.728  33.773  27.976  1.00  0.00    -0.376 OA
BRANCH   3   4
ATOM      4  C   UNL A   1      34.049  32.570  28.291  1.00  0.00     0.202 C 
BRANCH   4   5
ATOM      5  C   UNL A   1      34.107  31.406  27.272  1.00  0.00     0.261 C 
BRANCH   5   6
ATOM      6  O   UNL A   1      33.260  30.272  27.562  1.00  0.00    -0.463 OA
BRANCH   6   7
ATOM      7  C   UNL A   1      33.629  29.160  26.889  1.00  0.00     0.313 C 
ATOM      8  O   UNL A   1      34.816  28.930  26.727  1.00  0.00    -0.252 OA
BRANCH   7   9
ATOM      9  C   UNL A   1      32.505  28.262  26.357  1.00  0.00     0.127 C 
ATOM     10  C   UNL A   1      31.461  27.941  27.447  1.00  0.00     0.025 C 
BRANCH   9  11
ATOM     11  C   UNL A   1      33.005  27.054  25.511  1.00  0.00    -0.026 A 
ATOM     12  C   UNL A   1      33.989  26.185  26.034  1.00  0.00     0.005 A 
ATOM     13  C   UNL A   1      32.509  26.749  24.202  1.00  0.00    -0.014 A 
ATOM     14  C   UNL A   1      34.507  25.115  25.293  1.00  0.00     0.000 A 
ATOM     15  C   UNL A   1      33.062  25.685  23.463  1.00  0.00     0.009 A 
ATOM     16  C   UNL A   1      34.059  24.878  24.001  1.00  0.00     0.001 A 
BRANCH  13  17
ATOM     17  C   UNL A   1      31.427  27.499  23.520  1.00  0.00    -0.011 A 
ATOM     18  C   UNL A   1      31.669  28.740  22.797  1.00  0.00     0.027 A 
ATOM     19  C   UNL A   1      30.161  27.075  23.675  1.00  0.00     0.080 A 
ATOM     20  C   UNL A   1      30.668  29.620  22.653  1.00  0.00     0.095 A 
ATOM     21  C   UNL A   1      29.026  27.977  23.328  1.00  0.00     0.255 A 
ATOM     22  N   UNL A   1      29.379  29.282  23.029  1.00  0.00    -0.258 N 
ATOM     23  O   UNL A   1      27.882  27.546  23.421  1.00  0.00    -0.269 OA
BRANCH  22  24
ATOM     24  C   UNL A   1      28.357  30.292  23.088  1.00  0.00     0.451 C 
ATOM     25  F   UNL A   1      28.892  31.533  23.025  1.00  0.00    -0.185 F 
ATOM     26  F   UNL A   1      27.462  30.170  22.073  1.00  0.00    -0.185 F 
ENDBRANCH  22  24
ENDBRANCH  13  17
ENDBRANCH   9  11
ENDBRANCH   7   9
ENDBRANCH   6   7
ENDBRANCH   5   6
ENDBRANCH   4   5
ENDBRANCH   3   4
ENDBRANCH   2   3
ENDBRANCH   1   2
BRANCH   1  27
ATOM     27  O   UNL A   1      32.679  36.378  29.792  1.00  0.00    -0.377 OA
BRANCH  27  28
ATOM     28  C   UNL A   1      32.520  36.442  31.207  1.00  0.00     0.188 C 
BRANCH  28  29
ATOM     29  C   UNL A   1      33.701  36.828  32.123  1.00  0.00     0.188 C 
BRANCH  29  30
ATOM     30  O   UNL A   1      34.328  35.739  32.777  1.00  0.00    -0.376 OA
BRANCH  30  31
ATOM     31  C   UNL A   1      33.588  34.534  32.882  1.00  0.00     0.202 C 
BRANCH  31  32
ATOM     32  C   UNL A   1      34.378  33.216  32.850  1.00  0.00     0.261 C 
BRANCH  32  33
ATOM     33  O   UNL A   1      35.574  33.208  32.053  1.00  0.00    -0.460 OA
BRANCH  33  34
ATOM     34  C   UNL A   1      36.762  33.252  32.691  1.00  0.00     0.338 C 
ATOM     35  O   UNL A   1      37.001  33.766  33.773  1.00  0.00    -0.246 OA
BRANCH  34  36
ATOM     36  C   UNL A   1      37.696  32.372  31.958  1.00  0.00     0.060 A 
ATOM     37  C   UNL A   1      38.590  31.571  32.684  1.00  0.00     0.016 A 
ATOM     38  C   UNL A   1      37.662  32.307  30.564  1.00  0.00     0.016 A 
ATOM     39  C   UNL A   1      39.480  30.733  32.015  1.00  0.00     0.010 A 
ATOM     40  C   UNL A   1      38.576  31.493  29.893  1.00  0.00     0.010 A 
ATOM     41  C   UNL A   1      39.514  30.733  30.615  1.00  0.00    -0.014 A 
BRANCH  41  42
ATOM     42  C   UNL A   1      40.683  30.149  29.920  1.00  0.00     0.031 A 
ATOM     43  C   UNL A   1      41.860  31.049  29.657  1.00  0.00     0.074 A 
ATOM     44  C   UNL A   1      40.722  28.856  29.555  1.00  0.00     0.049 A 
ATOM     45  N   UNL A   1      42.973  30.803  29.019  1.00  0.00    -0.248 NA
ATOM     46  C   UNL A   1      41.761  32.419  30.190  1.00  0.00     0.031 C 
ATOM     47  C   UNL A   1      39.668  27.875  29.801  1.00  0.00     0.029 A 
ATOM     48  N   UNL A   1      41.692  28.153  28.886  1.00  0.00    -0.354 N 
ATOM     49  C   UNL A   1      43.703  31.984  29.069  1.00  0.00     0.074 A 
ATOM     50  C   UNL A   1      42.893  32.957  29.767  1.00  0.00     0.031 C 
ATOM     51  C   UNL A   1      40.043  26.697  29.271  1.00  0.00     0.029 A 
ATOM     52  C   UNL A   1      41.343  26.853  28.621  1.00  0.00     0.049 A 
ATOM     53  H   UNL A   1      42.557  28.544  28.623  1.00  0.00     0.167 HD
ATOM     54  C   UNL A   1      44.940  32.234  28.583  1.00  0.00     0.037 A 
ATOM     55  C   UNL A   1      41.991  25.910  27.908  1.00  0.00     0.037 A 
ATOM     56  C   UNL A   1      45.736  31.267  27.878  1.00  0.00     0.049 A 
ATOM     57  C   UNL A   1      43.330  26.236  27.297  1.00  0.00     0.074 A 
ATOM     58  C   UNL A   1      47.004  31.417  27.344  1.00  0.00     0.029 A 
ATOM     59  N   UNL A   1      45.334  29.969  27.598  1.00  0.00    -0.354 N 
ATOM     60  N   UNL A   1      44.020  27.350  27.359  1.00  0.00    -0.248 NA
ATOM     61  C   UNL A   1      43.981  25.174  26.518  1.00  0.00     0.031 C 
ATOM     62  C   UNL A   1      47.345  30.228  26.692  1.00  0.00     0.029 A 
ATOM     63  C   UNL A   1      46.318  29.315  26.876  1.00  0.00     0.049 A 
ATOM     64  H   UNL A   1      44.476  29.572  27.873  1.00  0.00     0.167 HD
ATOM     65  C   UNL A   1      45.198  27.113  26.658  1.00  0.00     0.074 A 
ATOM     66  C   UNL A   1      45.133  25.744  26.189  1.00  0.00     0.031 C 
ATOM     67  C   UNL A   1      46.240  27.949  26.425  1.00  0.00     0.037 A 
BRANCH  54  68
ATOM     68  C   UNL A   1      45.487  33.620  28.769  1.00  0.00     0.057 A 
ATOM     69  C   UNL A   1      46.224  33.982  29.905  1.00  0.00     0.134 A 
ATOM     70  C   UNL A   1      45.282  34.603  27.793  1.00  0.00     0.134 A 
ATOM     71  F   UNL A   1      46.440  33.094  30.888  1.00  0.00    -0.206 F 
ATOM     72  C   UNL A   1      46.715  35.278  30.075  1.00  0.00     0.040 A 
ATOM     73  C   UNL A   1      45.794  35.894  27.937  1.00  0.00     0.040 A 
ATOM     74  F   UNL A   1      44.584  34.325  26.683  1.00  0.00    -0.206 F 
ATOM     75  C   UNL A   1      46.505  36.236  29.085  1.00  0.00     0.006 A 
ENDBRANCH  54  68
BRANCH  55  76
ATOM     76  C   UNL A   1      41.374  24.571  27.707  1.00  0.00     0.057 A 
ATOM     77  C   UNL A   1      41.839  23.444  28.395  1.00  0.00     0.134 A 
ATOM     78  C   UNL A   1      40.323  24.384  26.802  1.00  0.00     0.134 A 
ATOM     79  F   UNL A   1      42.861  23.553  29.257  1.00  0.00    -0.206 F 
ATOM     80  C   UNL A   1      41.295  22.177  28.175  1.00  0.00     0.040 A 
ATOM     81  C   UNL A   1      39.750  23.128  26.593  1.00  0.00     0.040 A 
ATOM     82  F   UNL A   1      39.832  25.422  26.109  1.00  0.00    -0.206 F 
ATOM     83  C   UNL A   1      40.242  22.018  27.276  1.00  0.00     0.006 A 
ENDBRANCH  55  76
BRANCH  67  84
ATOM     84  C   UNL A   1      47.415  27.397  25.667  1.00  0.00     0.057 A 
ATOM     85  C   UNL A   1      47.515  27.493  24.274  1.00  0.00     0.134 A 
ATOM     86  C   UNL A   1      48.485  26.805  26.352  1.00  0.00     0.134 A 
ATOM     87  F   UNL A   1      46.522  28.039  23.556  1.00  0.00    -0.206 F 
ATOM     88  C   UNL A   1      48.624  26.994  23.587  1.00  0.00     0.040 A 
ATOM     89  C   UNL A   1      49.613  26.334  25.679  1.00  0.00     0.040 A 
ATOM     90  F   UNL A   1      48.461  26.694  27.688  1.00  0.00    -0.206 F 
ATOM     91  C   UNL A   1      49.681  26.421  24.291  1.00  0.00     0.006 A 
ENDBRANCH  67  84
ENDBRANCH  41  42
ENDBRANCH  34  36
ENDBRANCH  33  34
ENDBRANCH  32  33
ENDBRANCH  31  32
ENDBRANCH  30  31
ENDBRANCH  29  30
ENDBRANCH  28  29
ENDBRANCH  27  28
ENDBRANCH   1  27
TORSDOF 23
ENDMDL
MODEL 3
REMARK VINA RESULT:     -10.3      2.104      3.258
REMARK SMILES C[C@@H](C(=O)OCCOCCOCCOCCOC(=O)c1ccc(-c2c3nc(c(-c4c(F)cccc4F)c4ccc([nH]4)c(-c4c(F)cccc4F)c4nc(c(-c5c(F)cccc5F)c5ccc2[nH]5)C=C4)C=C3)cc1)c1ccccc1-c1ccn(C(F)F)c(=O)c1
REMARK SMILES IDX 10 1 9 2 8 3 7 4 6 5 5 6 3 7 4 8 2 9 1 10 74 11 75 12 79 13
REMARK SMILES IDX 76 14 78 15 77 16 80 17 81 18 89 19 82 20 87 21 83 22 88 23
REMARK SMILES IDX 84 24 85 25 86 26 11 27 12 28 13 29 14 30 15 31 16 32 17 33
REMARK SMILES IDX 18 34 19 35 20 36 21 37 73 38 22 39 72 40 23 41 24 42 25 43
REMARK SMILES IDX 66 44 26 45 71 46 65 47 67 48 27 49 70 50 64 51 63 52 28 54
REMARK SMILES IDX 54 55 37 56 53 57 38 58 41 59 52 60 68 61 39 62 40 63 51 65
REMARK SMILES IDX 69 66 42 67 29 68 30 69 35 70 31 71 32 72 34 73 36 74 33 75
REMARK SMILES IDX 55 76 56 77 61 78 57 79 58 80 60 81 62 82 59 83 43 84 44 85
REMARK SMILES IDX 49 86 45 87 46 88 48 89 50 90 47 91
REMARK H PARENT 67 53 41 64
REMARK Flexibility Score: inf
ROOT
ATOM      1  C   UNL A   1      34.751  33.860  29.830  1.00  0.00     0.188 C 
ENDROOT
BRANCH   1   2
ATOM      2  C   UNL A   1      34.474  33.685  28.327  1.00  0.00     0.188 C 
BRANCH   2   3
ATOM      3  O   UNL A   1      33.542  32.662  28.016  1.00  0.00    -0.376 OA
BRANCH   3   4
ATOM      4  C   UNL A   1      34.036  31.371  27.707  1.00  0.00     0.202 C 
BRANCH   4   5
ATOM      5  C   UNL A   1      33.341  30.569  26.580  1.00  0.00     0.261 C 
BRANCH   5   6
ATOM      6  O   UNL A   1      33.661  29.162  26.518  1.00  0.00    -0.463 OA
BRANCH   6   7
ATOM      7  C   UNL A   1      32.988  28.517  25.539  1.00  0.00     0.313 C 
ATOM      8  O   UNL A   1      33.467  28.473  24.418  1.00  0.00    -0.252 OA
BRANCH   7   9
ATOM      9  C   UNL A   1      31.641  27.889  25.917  1.00  0.00     0.127 C 
ATOM     10  C   UNL A   1      31.367  27.985  27.434  1.00  0.00     0.025 C 
BRANCH   9  11
ATOM     11  C   UNL A   1      31.381  26.501  25.262  1.00  0.00    -0.026 A 
ATOM     12  C   UNL A   1      31.943  25.336  25.831  1.00  0.00     0.005 A 
ATOM     13  C   UNL A   1      30.576  26.320  24.092  1.00  0.00    -0.014 A 
ATOM     14  C   UNL A   1      31.780  24.071  25.250  1.00  0.00     0.000 A 
ATOM     15  C   UNL A   1      30.446  25.045  23.509  1.00  0.00     0.009 A 
ATOM     16  C   UNL A   1      31.050  23.929  24.079  1.00  0.00     0.001 A 
BRANCH  13  17
ATOM     17  C   UNL A   1      29.845  27.410  23.400  1.00  0.00    -0.011 A 
ATOM     18  C   UNL A   1      30.528  28.498  22.715  1.00  0.00     0.027 A 
ATOM     19  C   UNL A   1      28.506  27.451  23.511  1.00  0.00     0.080 A 
ATOM     20  C   UNL A   1      29.901  29.674  22.567  1.00  0.00     0.095 A 
ATOM     21  C   UNL A   1      27.769  28.697  23.157  1.00  0.00     0.255 A 
ATOM     22  N   UNL A   1      28.564  29.802  22.899  1.00  0.00    -0.258 N 
ATOM     23  O   UNL A   1      26.543  28.691  23.208  1.00  0.00    -0.269 OA
BRANCH  22  24
ATOM     24  C   UNL A   1      27.955  31.103  22.957  1.00  0.00     0.451 C 
ATOM     25  F   UNL A   1      27.401  31.330  24.171  1.00  0.00    -0.185 F 
ATOM     26  F   UNL A   1      28.851  32.095  22.713  1.00  0.00    -0.185 F 
ENDBRANCH  22  24
ENDBRANCH  13  17
ENDBRANCH   9  11
ENDBRANCH   7   9
ENDBRANCH   6   7
ENDBRANCH   5   6
ENDBRANCH   4   5
ENDBRANCH   3   4
ENDBRANCH   2   3
ENDBRANCH   1   2
BRANCH   1  27
ATOM     27  O   UNL A   1      33.687  34.237  30.692  1.00  0.00    -0.377 OA
BRANCH  27  28
ATOM     28  C   UNL A   1      33.439  35.618  30.937  1.00  0.00     0.188 C 
BRANCH  28  29
ATOM     29  C   UNL A   1      33.831  36.270  32.282  1.00  0.00     0.188 C 
BRANCH  29  30
ATOM     30  O   UNL A   1      34.994  35.735  32.886  1.00  0.00    -0.376 OA
BRANCH  30  31
ATOM     31  C   UNL A   1      34.816  34.953  34.055  1.00  0.00     0.202 C 
BRANCH  31  32
ATOM     32  C   UNL A   1      35.448  33.552  34.069  1.00  0.00     0.261 C 
BRANCH  32  33
ATOM     33  O   UNL A   1      36.335  33.240  32.982  1.00  0.00    -0.460 OA
BRANCH  33  34
ATOM     34  C   UNL A   1      36.261  32.010  32.436  1.00  0.00     0.338 C 
ATOM     35  O   UNL A   1      35.268  31.308  32.329  1.00  0.00    -0.246 OA
BRANCH  34  36
ATOM     36  C   UNL A   1      37.555  31.733  31.779  1.00  0.00     0.060 A 
ATOM     37  C   UNL A   1      37.644  31.820  30.382  1.00  0.00     0.016 A 
ATOM     38  C   UNL A   1      38.686  31.428  32.541  1.00  0.00     0.016 A 
ATOM     39  C   UNL A   1      38.855  31.564  29.740  1.00  0.00     0.010 A 
ATOM     40  C   UNL A   1      39.890  31.139  31.895  1.00  0.00     0.010 A 
ATOM     41  C   UNL A   1      39.968  31.168  30.492  1.00  0.00    -0.014 A 
BRANCH  41  42
ATOM     42  C   UNL A   1      41.119  30.540  29.804  1.00  0.00     0.031 A 
ATOM     43  C   UNL A   1      42.311  31.408  29.503  1.00  0.00     0.074 A 
ATOM     44  C   UNL A   1      41.129  29.237  29.479  1.00  0.00     0.049 A 
ATOM     45  N   UNL A   1      43.413  31.121  28.862  1.00  0.00    -0.248 NA
ATOM     46  C   UNL A   1      42.244  32.796  29.995  1.00  0.00     0.031 C 
ATOM     47  C   UNL A   1      40.059  28.284  29.764  1.00  0.00     0.029 A 
ATOM     48  N   UNL A   1      42.079  28.494  28.823  1.00  0.00    -0.354 N 
ATOM     49  C   UNL A   1      44.166  32.288  28.870  1.00  0.00     0.074 A 
ATOM     50  C   UNL A   1      43.382  33.298  29.545  1.00  0.00     0.031 C 
ATOM     51  C   UNL A   1      40.405  27.083  29.268  1.00  0.00     0.029 A 
ATOM     52  C   UNL A   1      41.702  27.193  28.601  1.00  0.00     0.049 A 
ATOM     53  H   UNL A   1      42.948  28.860  28.540  1.00  0.00     0.167 HD
ATOM     54  C   UNL A   1      45.403  32.499  28.365  1.00  0.00     0.037 A 
ATOM     55  C   UNL A   1      42.324  26.216  27.911  1.00  0.00     0.037 A 
ATOM     56  C   UNL A   1      46.173  31.495  27.683  1.00  0.00     0.049 A 
ATOM     57  C   UNL A   1      43.663  26.497  27.278  1.00  0.00     0.074 A 
ATOM     58  C   UNL A   1      47.438  31.603  27.134  1.00  0.00     0.029 A 
ATOM     59  N   UNL A   1      45.743  30.198  27.447  1.00  0.00    -0.354 N 
ATOM     60  N   UNL A   1      44.376  27.599  27.300  1.00  0.00    -0.248 NA
ATOM     61  C   UNL A   1      44.286  25.399  26.527  1.00  0.00     0.031 C 
ATOM     62  C   UNL A   1      47.749  30.389  26.515  1.00  0.00     0.029 A 
ATOM     63  C   UNL A   1      46.707  29.502  26.736  1.00  0.00     0.049 A 
ATOM     64  H   UNL A   1      44.880  29.826  27.741  1.00  0.00     0.167 HD
ATOM     65  C   UNL A   1      45.541  27.317  26.596  1.00  0.00     0.074 A 
ATOM     66  C   UNL A   1      45.445  25.936  26.170  1.00  0.00     0.031 C 
ATOM     67  C   UNL A   1      46.597  28.125  26.328  1.00  0.00     0.037 A 
BRANCH  54  68
ATOM     68  C   UNL A   1      45.978  33.879  28.504  1.00  0.00     0.057 A 
ATOM     69  C   UNL A   1      45.765  34.874  27.539  1.00  0.00     0.134 A 
ATOM     70  C   UNL A   1      46.747  34.220  29.623  1.00  0.00     0.134 A 
ATOM     71  F   UNL A   1      45.054  34.607  26.433  1.00  0.00    -0.206 F 
ATOM     72  C   UNL A   1      46.318  36.149  27.670  1.00  0.00     0.040 A 
ATOM     73  C   UNL A   1      47.280  35.501  29.781  1.00  0.00     0.040 A 
ATOM     74  F   UNL A   1      46.992  33.316  30.583  1.00  0.00    -0.206 F 
ATOM     75  C   UNL A   1      47.072  36.467  28.798  1.00  0.00     0.006 A 
ENDBRANCH  54  68
BRANCH  55  76
ATOM     76  C   UNL A   1      41.679  24.885  27.758  1.00  0.00     0.057 A 
ATOM     77  C   UNL A   1      40.629  24.683  26.854  1.00  0.00     0.134 A 
ATOM     78  C   UNL A   1      42.080  23.790  28.532  1.00  0.00     0.134 A 
ATOM     79  F   UNL A   1      40.182  25.700  26.102  1.00  0.00    -0.206 F 
ATOM     80  C   UNL A   1      39.989  23.448  26.741  1.00  0.00     0.040 A 
ATOM     81  C   UNL A   1      41.469  22.541  28.408  1.00  0.00     0.040 A 
ATOM     82  F   UNL A   1      43.079  23.916  29.418  1.00  0.00    -0.206 F 
ATOM     83  C   UNL A   1      40.414  22.369  27.515  1.00  0.00     0.006 A 
ENDBRANCH  55  76
BRANCH  67  84
ATOM     84  C   UNL A   1      47.754  27.527  25.577  1.00  0.00     0.057 A 
ATOM     85  C   UNL A   1      48.841  26.934  26.230  1.00  0.00     0.134 A 
ATOM     86  C   UNL A   1      47.753  27.504  24.175  1.00  0.00     0.134 A 
ATOM     87  F   UNL A   1      48.909  26.930  27.570  1.00  0.00    -0.206 F 
ATOM     88  C   UNL A   1      49.897  26.363  25.517  1.00  0.00     0.040 A 
ATOM     89  C   UNL A   1      48.787  26.907  23.452  1.00  0.00     0.040 A 
ATOM     90  F   UNL A   1      46.737  28.042  23.485  1.00  0.00    -0.206 F 
ATOM     91  C   UNL A   1      49.868  26.342  24.125  1.00  0.00     0.006 A 
ENDBRANCH  67  84
ENDBRANCH  41  42
ENDBRANCH  34  36
ENDBRANCH  33  34
ENDBRANCH  32  33
ENDBRANCH  31  32
ENDBRANCH  30  31
ENDBRANCH  29  30
ENDBRANCH  28  29
ENDBRANCH  27  28
ENDBRANCH   1  27
TORSDOF 23
ENDMDL
