MODEL 1
REMARK VINA RESULT:      -9.6      0.000      0.000
REMARK SMILES C[NH2+][C@]1(C(=O)OCCOCCOCCOCCOC(=O)c2ccc(-c3c4nc(c(-c5c(F)cccc5F)c5ccc([nH]5)c(-c5c(F)cccc5F)c5nc(c(-c6c(F)cccc6F)c6ccc3[nH]6)C=C5)C=C4)cc2)CC[C@@H](Sc2cc(F)ccc2F)C1
REMARK SMILES IDX 12 1 11 2 10 3 9 4 8 5 7 6 6 7 4 8 5 9 3 10 75 11 87 12
REMARK SMILES IDX 76 13 77 14 2 15 1 16 78 19 79 20 80 21 85 22 81 23 84 24
REMARK SMILES IDX 86 25 82 26 83 27 13 28 14 29 15 30 16 31 17 32 18 33 19 34
REMARK SMILES IDX 20 35 21 36 22 37 74 38 23 39 73 40 24 41 25 42 26 43 67 44
REMARK SMILES IDX 27 45 72 46 66 47 68 48 28 49 71 50 65 51 64 52 29 54 55 55
REMARK SMILES IDX 38 56 54 57 39 58 42 59 53 60 69 61 40 62 41 63 52 65 70 66
REMARK SMILES IDX 43 67 30 68 31 69 36 70 32 71 33 72 35 73 37 74 34 75 56 76
REMARK SMILES IDX 57 77 62 78 58 79 59 80 61 81 63 82 60 83 44 84 45 85 50 86
REMARK SMILES IDX 46 87 47 88 49 89 51 90 48 91
REMARK H PARENT 2 17 2 18 68 53 42 64
REMARK Flexibility Score: inf
ROOT
ATOM      1  O   UNL A   1      33.023  23.507  26.397  1.00  0.00    -0.377 OA
ENDROOT
BRANCH   1   2
ATOM      2  C   UNL A   1      31.802  22.833  26.151  1.00  0.00     0.188 C 
BRANCH   2   3
ATOM      3  C   UNL A   1      31.930  21.444  25.484  1.00  0.00     0.188 C 
BRANCH   3   4
ATOM      4  O   UNL A   1      32.602  21.265  24.244  1.00  0.00    -0.376 OA
BRANCH   4   5
ATOM      5  C   UNL A   1      32.324  22.113  23.145  1.00  0.00     0.202 C 
BRANCH   5   6
ATOM      6  C   UNL A   1      33.411  23.083  22.648  1.00  0.00     0.261 C 
BRANCH   6   7
ATOM      7  O   UNL A   1      33.002  24.428  22.343  1.00  0.00    -0.459 OA
BRANCH   7   8
ATOM      8  C   UNL A   1      33.305  25.377  23.271  1.00  0.00     0.368 C 
ATOM      9  O   UNL A   1      34.132  25.222  24.167  1.00  0.00    -0.245 OA
BRANCH   8  10
ATOM     10  C   UNL A   1      32.535  26.723  23.066  1.00  0.00     0.195 C 
ATOM     11  C   UNL A   1      31.024  26.702  23.380  1.00  0.00     0.082 C 
ATOM     12  C   UNL A   1      33.095  27.679  24.148  1.00  0.00     0.096 C 
ATOM     13  C   UNL A   1      30.694  28.107  23.854  1.00  0.00     0.022 C 
ATOM     14  C   UNL A   1      31.934  28.557  24.614  1.00  0.00     0.059 C 
BRANCH  10  15
ATOM     15  N   UNL A   1      32.931  27.353  21.773  1.00  0.00    -0.335 N 
ATOM     16  C   UNL A   1      34.024  28.301  21.728  1.00  0.00     0.331 C 
ATOM     17  H   UNL A   1      33.177  26.592  21.139  1.00  0.00     0.347 HD
ATOM     18  H   UNL A   1      32.120  27.923  21.535  1.00  0.00     0.347 HD
ENDBRANCH  10  15
BRANCH  14  19
ATOM     19  S   UNL A   1      31.779  28.606  26.447  1.00  0.00    -0.119 SA
BRANCH  19  20
ATOM     20  C   UNL A   1      33.093  29.698  26.971  1.00  0.00     0.046 A 
ATOM     21  C   UNL A   1      34.348  29.131  27.223  1.00  0.00     0.057 A 
ATOM     22  C   UNL A   1      32.911  31.059  27.253  1.00  0.00     0.136 A 
ATOM     23  C   UNL A   1      35.381  29.919  27.724  1.00  0.00     0.124 A 
ATOM     24  C   UNL A   1      33.954  31.848  27.739  1.00  0.00     0.043 A 
ATOM     25  F   UNL A   1      31.722  31.649  27.074  1.00  0.00    -0.206 F 
ATOM     26  F   UNL A   1      36.570  29.358  27.979  1.00  0.00    -0.207 F 
ATOM     27  C   UNL A   1      35.198  31.273  27.981  1.00  0.00     0.042 A 
ENDBRANCH  19  20
ENDBRANCH  14  19
ENDBRANCH   8  10
ENDBRANCH   7   8
ENDBRANCH   6   7
ENDBRANCH   5   6
ENDBRANCH   4   5
ENDBRANCH   3   4
ENDBRANCH   2   3
ENDBRANCH   1   2
BRANCH   1  28
ATOM     28  C   UNL A   1      34.022  22.715  27.018  1.00  0.00     0.188 C 
BRANCH  28  29
ATOM     29  C   UNL A   1      35.439  22.871  26.438  1.00  0.00     0.188 C 
BRANCH  29  30
ATOM     30  O   UNL A   1      35.600  22.172  25.209  1.00  0.00    -0.376 OA
BRANCH  30  31
ATOM     31  C   UNL A   1      35.874  20.783  25.218  1.00  0.00     0.202 C 
BRANCH  31  32
ATOM     32  C   UNL A   1      37.339  20.340  25.080  1.00  0.00     0.261 C 
BRANCH  32  33
ATOM     33  O   UNL A   1      38.339  21.352  25.262  1.00  0.00    -0.460 OA
BRANCH  33  34
ATOM     34  C   UNL A   1      39.351  21.101  26.119  1.00  0.00     0.338 C 
ATOM     35  O   UNL A   1      39.924  20.039  26.287  1.00  0.00    -0.246 OA
BRANCH  34  36
ATOM     36  C   UNL A   1      39.801  22.401  26.661  1.00  0.00     0.060 A 
ATOM     37  C   UNL A   1      39.147  23.569  26.246  1.00  0.00     0.016 A 
ATOM     38  C   UNL A   1      40.825  22.466  27.610  1.00  0.00     0.016 A 
ATOM     39  C   UNL A   1      39.533  24.808  26.758  1.00  0.00     0.010 A 
ATOM     40  C   UNL A   1      41.233  23.709  28.099  1.00  0.00     0.010 A 
ATOM     41  C   UNL A   1      40.610  24.887  27.649  1.00  0.00    -0.014 A 
BRANCH  41  42
ATOM     42  C   UNL A   1      41.234  26.204  27.918  1.00  0.00     0.031 A 
ATOM     43  C   UNL A   1      42.629  26.436  27.407  1.00  0.00     0.074 A 
ATOM     44  C   UNL A   1      40.577  27.179  28.569  1.00  0.00     0.049 A 
ATOM     45  N   UNL A   1      43.407  27.476  27.550  1.00  0.00    -0.248 NA
ATOM     46  C   UNL A   1      43.226  25.337  26.629  1.00  0.00     0.031 C 
ATOM     47  C   UNL A   1      39.206  27.095  29.067  1.00  0.00     0.029 A 
ATOM     48  N   UNL A   1      40.990  28.438  28.928  1.00  0.00    -0.354 N 
ATOM     49  C   UNL A   1      44.585  27.156  26.886  1.00  0.00     0.074 A 
ATOM     50  C   UNL A   1      44.433  25.814  26.369  1.00  0.00     0.031 C 
ATOM     51  C   UNL A   1      38.896  28.250  29.682  1.00  0.00     0.029 A 
ATOM     52  C   UNL A   1      40.056  29.140  29.648  1.00  0.00     0.049 A 
ATOM     53  H   UNL A   1      41.873  28.804  28.691  1.00  0.00     0.167 HD
ATOM     54  C   UNL A   1      45.692  27.914  26.714  1.00  0.00     0.037 A 
ATOM     55  C   UNL A   1      40.142  30.351  30.233  1.00  0.00     0.037 A 
ATOM     56  C   UNL A   1      45.842  29.246  27.236  1.00  0.00     0.049 A 
ATOM     57  C   UNL A   1      41.419  31.144  30.104  1.00  0.00     0.074 A 
ATOM     58  C   UNL A   1      46.919  30.104  27.112  1.00  0.00     0.029 A 
ATOM     59  N   UNL A   1      44.887  29.908  27.994  1.00  0.00    -0.354 N 
ATOM     60  N   UNL A   1      42.520  30.844  29.457  1.00  0.00    -0.248 NA
ATOM     61  C   UNL A   1      41.462  32.447  30.785  1.00  0.00     0.031 C 
ATOM     62  C   UNL A   1      46.641  31.263  27.843  1.00  0.00     0.029 A 
ATOM     63  C   UNL A   1      45.362  31.153  28.368  1.00  0.00     0.049 A 
ATOM     64  H   UNL A   1      44.002  29.546  28.230  1.00  0.00     0.167 HD
ATOM     65  C   UNL A   1      43.371  31.931  29.624  1.00  0.00     0.074 A 
ATOM     66  C   UNL A   1      42.653  32.902  30.424  1.00  0.00     0.031 C 
ATOM     67  C   UNL A   1      44.631  32.112  29.157  1.00  0.00     0.037 A 
BRANCH  54  68
ATOM     68  C   UNL A   1      46.837  27.305  25.961  1.00  0.00     0.057 A 
ATOM     69  C   UNL A   1      47.005  27.492  24.582  1.00  0.00     0.134 A 
ATOM     70  C   UNL A   1      47.796  26.531  26.628  1.00  0.00     0.134 A 
ATOM     71  F   UNL A   1      46.111  28.205  23.879  1.00  0.00    -0.206 F 
ATOM     72  C   UNL A   1      48.071  26.912  23.891  1.00  0.00     0.040 A 
ATOM     73  C   UNL A   1      48.881  25.971  25.954  1.00  0.00     0.040 A 
ATOM     74  F   UNL A   1      47.695  26.312  27.948  1.00  0.00    -0.206 F 
ATOM     75  C   UNL A   1      49.017  26.156  24.579  1.00  0.00     0.006 A 
ENDBRANCH  54  68
BRANCH  55  76
ATOM     76  C   UNL A   1      38.997  30.889  31.014  1.00  0.00     0.057 A 
ATOM     77  C   UNL A   1      38.811  30.553  32.360  1.00  0.00     0.134 A 
ATOM     78  C   UNL A   1      38.040  31.723  30.423  1.00  0.00     0.134 A 
ATOM     79  F   UNL A   1      39.678  29.737  32.978  1.00  0.00    -0.206 F 
ATOM     80  C   UNL A   1      37.707  31.009  33.084  1.00  0.00     0.040 A 
ATOM     81  C   UNL A   1      36.947  32.209  31.141  1.00  0.00     0.040 A 
ATOM     82  F   UNL A   1      38.157  32.083  29.136  1.00  0.00    -0.206 F 
ATOM     83  C   UNL A   1      36.773  31.845  32.474  1.00  0.00     0.006 A 
ENDBRANCH  55  76
BRANCH  67  84
ATOM     84  C   UNL A   1      45.301  33.424  29.455  1.00  0.00     0.057 A 
ATOM     85  C   UNL A   1      46.121  33.604  30.576  1.00  0.00     0.134 A 
ATOM     86  C   UNL A   1      45.161  34.508  28.578  1.00  0.00     0.134 A 
ATOM     87  F   UNL A   1      46.290  32.610  31.462  1.00  0.00    -0.206 F 
ATOM     88  C   UNL A   1      46.756  34.822  30.828  1.00  0.00     0.040 A 
ATOM     89  C   UNL A   1      45.815  35.719  28.802  1.00  0.00     0.040 A 
ATOM     90  F   UNL A   1      44.401  34.401  27.478  1.00  0.00    -0.206 F 
ATOM     91  C   UNL A   1      46.610  35.881  29.934  1.00  0.00     0.006 A 
ENDBRANCH  67  84
ENDBRANCH  41  42
ENDBRANCH  34  36
ENDBRANCH  33  34
ENDBRANCH  32  33
ENDBRANCH  31  32
ENDBRANCH  30  31
ENDBRANCH  29  30
ENDBRANCH  28  29
ENDBRANCH   1  28
TORSDOF 23
ENDMDL
MODEL 2
REMARK VINA RESULT:      -8.9      1.249      6.269
REMARK SMILES C[NH2+][C@]1(C(=O)OCCOCCOCCOCCOC(=O)c2ccc(-c3c4nc(c(-c5c(F)cccc5F)c5ccc([nH]5)c(-c5c(F)cccc5F)c5nc(c(-c6c(F)cccc6F)c6ccc3[nH]6)C=C5)C=C4)cc2)CC[C@@H](Sc2cc(F)ccc2F)C1
REMARK SMILES IDX 12 1 11 2 10 3 9 4 8 5 7 6 6 7 4 8 5 9 3 10 75 11 87 12
REMARK SMILES IDX 76 13 77 14 2 15 1 16 78 19 79 20 80 21 85 22 81 23 84 24
REMARK SMILES IDX 86 25 82 26 83 27 13 28 14 29 15 30 16 31 17 32 18 33 19 34
REMARK SMILES IDX 20 35 21 36 22 37 74 38 23 39 73 40 24 41 25 42 26 43 67 44
REMARK SMILES IDX 27 45 72 46 66 47 68 48 28 49 71 50 65 51 64 52 29 54 55 55
REMARK SMILES IDX 38 56 54 57 39 58 42 59 53 60 69 61 40 62 41 63 52 65 70 66
REMARK SMILES IDX 43 67 30 68 31 69 36 70 32 71 33 72 35 73 37 74 34 75 56 76
REMARK SMILES IDX 57 77 62 78 58 79 59 80 61 81 63 82 60 83 44 84 45 85 50 86
REMARK SMILES IDX 46 87 47 88 49 89 51 90 48 91
REMARK H PARENT 2 17 2 18 68 53 42 64
REMARK Flexibility Score: inf
ROOT
ATOM      1  O   UNL A   1      32.615  21.819  25.927  1.00  0.00    -0.377 OA
ENDROOT
BRANCH   1   2
ATOM      2  C   UNL A   1      31.958  20.843  25.140  1.00  0.00     0.188 C 
BRANCH   2   3
ATOM      3  C   UNL A   1      32.374  20.792  23.653  1.00  0.00     0.188 C 
BRANCH   3   4
ATOM      4  O   UNL A   1      32.504  21.971  22.868  1.00  0.00    -0.376 OA
BRANCH   4   5
ATOM      5  C   UNL A   1      31.578  23.032  23.004  1.00  0.00     0.202 C 
BRANCH   5   6
ATOM      6  C   UNL A   1      32.071  24.485  22.878  1.00  0.00     0.261 C 
BRANCH   6   7
ATOM      7  O   UNL A   1      31.704  25.397  23.929  1.00  0.00    -0.459 OA
BRANCH   7   8
ATOM      8  C   UNL A   1      32.484  26.504  24.068  1.00  0.00     0.368 C 
ATOM      9  O   UNL A   1      33.564  26.658  23.501  1.00  0.00    -0.245 OA
BRANCH   8  10
ATOM     10  C   UNL A   1      31.854  27.604  24.983  1.00  0.00     0.195 C 
ATOM     11  C   UNL A   1      31.627  27.218  26.460  1.00  0.00     0.082 C 
ATOM     12  C   UNL A   1      32.931  28.714  25.083  1.00  0.00     0.096 C 
ATOM     13  C   UNL A   1      31.773  28.513  27.240  1.00  0.00     0.022 C 
ATOM     14  C   UNL A   1      32.850  29.290  26.496  1.00  0.00     0.059 C 
BRANCH  10  15
ATOM     15  N   UNL A   1      30.708  28.260  24.290  1.00  0.00    -0.335 N 
ATOM     16  C   UNL A   1      30.927  29.019  23.077  1.00  0.00     0.331 C 
ATOM     17  H   UNL A   1      30.044  27.521  24.057  1.00  0.00     0.347 HD
ATOM     18  H   UNL A   1      30.410  28.971  24.957  1.00  0.00     0.347 HD
ENDBRANCH  10  15
BRANCH  14  19
ATOM     19  S   UNL A   1      34.494  29.373  27.319  1.00  0.00    -0.119 SA
BRANCH  19  20
ATOM     20  C   UNL A   1      34.681  31.096  27.757  1.00  0.00     0.046 A 
ATOM     21  C   UNL A   1      33.534  31.898  27.743  1.00  0.00     0.057 A 
ATOM     22  C   UNL A   1      35.918  31.709  28.001  1.00  0.00     0.136 A 
ATOM     23  C   UNL A   1      33.638  33.266  27.984  1.00  0.00     0.124 A 
ATOM     24  C   UNL A   1      36.014  33.077  28.258  1.00  0.00     0.043 A 
ATOM     25  F   UNL A   1      37.055  31.002  27.985  1.00  0.00    -0.206 F 
ATOM     26  F   UNL A   1      32.535  34.024  27.947  1.00  0.00    -0.207 F 
ATOM     27  C   UNL A   1      34.866  33.863  28.245  1.00  0.00     0.042 A 
ENDBRANCH  19  20
ENDBRANCH  14  19
ENDBRANCH   8  10
ENDBRANCH   7   8
ENDBRANCH   6   7
ENDBRANCH   5   6
ENDBRANCH   4   5
ENDBRANCH   3   4
ENDBRANCH   2   3
ENDBRANCH   1   2
BRANCH   1  28
ATOM     28  C   UNL A   1      33.662  21.317  26.742  1.00  0.00     0.188 C 
BRANCH  28  29
ATOM     29  C   UNL A   1      35.081  21.505  26.180  1.00  0.00     0.188 C 
BRANCH  29  30
ATOM     30  O   UNL A   1      35.404  20.536  25.189  1.00  0.00    -0.376 OA
BRANCH  30  31
ATOM     31  C   UNL A   1      36.750  20.139  25.001  1.00  0.00     0.202 C 
BRANCH  31  32
ATOM     32  C   UNL A   1      37.791  21.240  24.740  1.00  0.00     0.261 C 
BRANCH  32  33
ATOM     33  O   UNL A   1      38.221  22.005  25.875  1.00  0.00    -0.460 OA
BRANCH  33  34
ATOM     34  C   UNL A   1      39.391  21.674  26.458  1.00  0.00     0.338 C 
ATOM     35  O   UNL A   1      39.932  20.582  26.455  1.00  0.00    -0.246 OA
BRANCH  34  36
ATOM     36  C   UNL A   1      40.025  22.930  26.915  1.00  0.00     0.060 A 
ATOM     37  C   UNL A   1      39.646  24.137  26.312  1.00  0.00     0.016 A 
ATOM     38  C   UNL A   1      40.949  22.926  27.964  1.00  0.00     0.016 A 
ATOM     39  C   UNL A   1      40.208  25.340  26.737  1.00  0.00     0.010 A 
ATOM     40  C   UNL A   1      41.537  24.128  28.369  1.00  0.00     0.010 A 
ATOM     41  C   UNL A   1      41.192  25.334  27.734  1.00  0.00    -0.014 A 
BRANCH  41  42
ATOM     42  C   UNL A   1      42.025  26.542  27.938  1.00  0.00     0.031 A 
ATOM     43  C   UNL A   1      41.441  27.668  28.748  1.00  0.00     0.074 A 
ATOM     44  C   UNL A   1      43.273  26.633  27.448  1.00  0.00     0.049 A 
ATOM     45  N   UNL A   1      41.945  28.840  29.029  1.00  0.00    -0.248 NA
ATOM     46  C   UNL A   1      40.102  27.433  29.315  1.00  0.00     0.031 C 
ATOM     47  C   UNL A   1      43.967  25.593  26.693  1.00  0.00     0.029 A 
ATOM     48  N   UNL A   1      44.177  27.665  27.512  1.00  0.00    -0.354 N 
ATOM     49  C   UNL A   1      40.984  29.483  29.799  1.00  0.00     0.074 A 
ATOM     50  C   UNL A   1      39.856  28.587  29.914  1.00  0.00     0.031 C 
ATOM     51  C   UNL A   1      45.186  26.046  26.350  1.00  0.00     0.029 A 
ATOM     52  C   UNL A   1      45.343  27.417  26.832  1.00  0.00     0.049 A 
ATOM     53  H   UNL A   1      44.005  28.503  27.999  1.00  0.00     0.167 HD
ATOM     54  C   UNL A   1      41.039  30.710  30.369  1.00  0.00     0.037 A 
ATOM     55  C   UNL A   1      46.403  28.220  26.607  1.00  0.00     0.037 A 
ATOM     56  C   UNL A   1      42.160  31.603  30.247  1.00  0.00     0.049 A 
ATOM     57  C   UNL A   1      46.406  29.616  27.177  1.00  0.00     0.074 A 
ATOM     58  C   UNL A   1      42.321  32.864  30.791  1.00  0.00     0.029 A 
ATOM     59  N   UNL A   1      43.309  31.331  29.518  1.00  0.00    -0.354 N 
ATOM     60  N   UNL A   1      45.504  30.210  27.923  1.00  0.00    -0.248 NA
ATOM     61  C   UNL A   1      47.577  30.453  26.877  1.00  0.00     0.031 C 
ATOM     62  C   UNL A   1      43.541  33.379  30.344  1.00  0.00     0.029 A 
ATOM     63  C   UNL A   1      44.171  32.413  29.575  1.00  0.00     0.049 A 
ATOM     64  H   UNL A   1      43.484  30.492  29.032  1.00  0.00     0.167 HD
ATOM     65  C   UNL A   1      46.013  31.472  28.207  1.00  0.00     0.074 A 
ATOM     66  C   UNL A   1      47.308  31.554  27.563  1.00  0.00     0.031 C 
ATOM     67  C   UNL A   1      45.461  32.474  28.936  1.00  0.00     0.037 A 
BRANCH  54  68
ATOM     68  C   UNL A   1      39.838  31.167  31.143  1.00  0.00     0.057 A 
ATOM     69  C   UNL A   1      38.870  32.013  30.586  1.00  0.00     0.134 A 
ATOM     70  C   UNL A   1      39.639  30.740  32.463  1.00  0.00     0.134 A 
ATOM     71  F   UNL A   1      39.011  32.475  29.333  1.00  0.00    -0.206 F 
ATOM     72  C   UNL A   1      37.761  32.437  31.320  1.00  0.00     0.040 A 
ATOM     73  C   UNL A   1      38.519  31.133  33.197  1.00  0.00     0.040 A 
ATOM     74  F   UNL A   1      40.528  29.930  33.058  1.00  0.00    -0.206 F 
ATOM     75  C   UNL A   1      37.580  31.990  32.627  1.00  0.00     0.006 A 
ENDBRANCH  54  68
BRANCH  55  76
ATOM     76  C   UNL A   1      47.546  27.738  25.788  1.00  0.00     0.057 A 
ATOM     77  C   UNL A   1      47.494  27.742  24.389  1.00  0.00     0.134 A 
ATOM     78  C   UNL A   1      48.706  27.228  26.385  1.00  0.00     0.134 A 
ATOM     79  F   UNL A   1      46.400  28.194  23.757  1.00  0.00    -0.206 F 
ATOM     80  C   UNL A   1      48.541  27.239  23.614  1.00  0.00     0.040 A 
ATOM     81  C   UNL A   1      49.772  26.747  25.624  1.00  0.00     0.040 A 
ATOM     82  F   UNL A   1      48.822  27.194  27.721  1.00  0.00    -0.206 F 
ATOM     83  C   UNL A   1      49.688  26.744  24.233  1.00  0.00     0.006 A 
ENDBRANCH  55  76
BRANCH  67  84
ATOM     84  C   UNL A   1      46.270  33.727  29.120  1.00  0.00     0.057 A 
ATOM     85  C   UNL A   1      46.088  34.857  28.312  1.00  0.00     0.134 A 
ATOM     86  C   UNL A   1      47.211  33.819  30.154  1.00  0.00     0.134 A 
ATOM     87  F   UNL A   1      45.211  34.833  27.297  1.00  0.00    -0.206 F 
ATOM     88  C   UNL A   1      46.831  36.022  28.509  1.00  0.00     0.040 A 
ATOM     89  C   UNL A   1      47.936  34.989  30.381  1.00  0.00     0.040 A 
ATOM     90  F   UNL A   1      47.426  32.779  30.975  1.00  0.00    -0.206 F 
ATOM     91  C   UNL A   1      47.753  36.092  29.552  1.00  0.00     0.006 A 
ENDBRANCH  67  84
ENDBRANCH  41  42
ENDBRANCH  34  36
ENDBRANCH  33  34
ENDBRANCH  32  33
ENDBRANCH  31  32
ENDBRANCH  30  31
ENDBRANCH  29  30
ENDBRANCH  28  29
ENDBRANCH   1  28
TORSDOF 23
ENDMDL
MODEL 3
REMARK VINA RESULT:      -8.7      1.797      6.524
REMARK SMILES C[NH2+][C@]1(C(=O)OCCOCCOCCOCCOC(=O)c2ccc(-c3c4nc(c(-c5c(F)cccc5F)c5ccc([nH]5)c(-c5c(F)cccc5F)c5nc(c(-c6c(F)cccc6F)c6ccc3[nH]6)C=C5)C=C4)cc2)CC[C@@H](Sc2cc(F)ccc2F)C1
REMARK SMILES IDX 12 1 11 2 10 3 9 4 8 5 7 6 6 7 4 8 5 9 3 10 75 11 87 12
REMARK SMILES IDX 76 13 77 14 2 15 1 16 78 19 79 20 80 21 85 22 81 23 84 24
REMARK SMILES IDX 86 25 82 26 83 27 13 28 14 29 15 30 16 31 17 32 18 33 19 34
REMARK SMILES IDX 20 35 21 36 22 37 74 38 23 39 73 40 24 41 25 42 26 43 67 44
REMARK SMILES IDX 27 45 72 46 66 47 68 48 28 49 71 50 65 51 64 52 29 54 55 55
REMARK SMILES IDX 38 56 54 57 39 58 42 59 53 60 69 61 40 62 41 63 52 65 70 66
REMARK SMILES IDX 43 67 30 68 31 69 36 70 32 71 33 72 35 73 37 74 34 75 56 76
REMARK SMILES IDX 57 77 62 78 58 79 59 80 61 81 63 82 60 83 44 84 45 85 50 86
REMARK SMILES IDX 46 87 47 88 49 89 51 90 48 91
REMARK H PARENT 2 17 2 18 68 53 42 64
REMARK Flexibility Score: inf
ROOT
ATOM      1  O   UNL A   1      33.314  21.779  25.791  1.00  0.00    -0.377 OA
ENDROOT
BRANCH   1   2
ATOM      2  C   UNL A   1      32.262  20.909  25.416  1.00  0.00     0.188 C 
BRANCH   2   3
ATOM      3  C   UNL A   1      32.514  20.067  24.144  1.00  0.00     0.188 C 
BRANCH   3   4
ATOM      4  O   UNL A   1      32.347  20.609  22.840  1.00  0.00    -0.376 OA
BRANCH   4   5
ATOM      5  C   UNL A   1      31.761  21.884  22.659  1.00  0.00     0.202 C 
BRANCH   5   6
ATOM      6  C   UNL A   1      32.659  23.134  22.661  1.00  0.00     0.261 C 
BRANCH   6   7
ATOM      7  O   UNL A   1      32.480  24.070  23.738  1.00  0.00    -0.459 OA
BRANCH   7   8
ATOM      8  C   UNL A   1      31.209  24.503  23.959  1.00  0.00     0.368 C 
ATOM      9  O   UNL A   1      30.252  24.215  23.243  1.00  0.00    -0.245 OA
BRANCH   8  10
ATOM     10  C   UNL A   1      31.056  25.369  25.252  1.00  0.00     0.195 C 
ATOM     11  C   UNL A   1      32.366  25.810  25.939  1.00  0.00     0.082 C 
ATOM     12  C   UNL A   1      30.455  26.713  24.770  1.00  0.00     0.096 C 
ATOM     13  C   UNL A   1      32.047  27.144  26.590  1.00  0.00     0.022 C 
ATOM     14  C   UNL A   1      31.067  27.813  25.636  1.00  0.00     0.059 C 
BRANCH  10  15
ATOM     15  N   UNL A   1      30.007  24.791  26.141  1.00  0.00    -0.335 N 
ATOM     16  C   UNL A   1      30.210  23.502  26.766  1.00  0.00     0.331 C 
ATOM     17  H   UNL A   1      29.860  25.463  26.895  1.00  0.00     0.347 HD
ATOM     18  H   UNL A   1      29.231  24.620  25.502  1.00  0.00     0.347 HD
ENDBRANCH  10  15
BRANCH  14  19
ATOM     19  S   UNL A   1      31.742  29.204  24.637  1.00  0.00    -0.119 SA
BRANCH  19  20
ATOM     20  C   UNL A   1      30.361  29.737  23.636  1.00  0.00     0.046 A 
ATOM     21  C   UNL A   1      29.501  30.701  24.175  1.00  0.00     0.057 A 
ATOM     22  C   UNL A   1      30.028  29.168  22.399  1.00  0.00     0.136 A 
ATOM     23  C   UNL A   1      28.358  31.083  23.477  1.00  0.00     0.124 A 
ATOM     24  C   UNL A   1      28.890  29.566  21.696  1.00  0.00     0.043 A 
ATOM     25  F   UNL A   1      30.788  28.211  21.852  1.00  0.00    -0.206 F 
ATOM     26  F   UNL A   1      27.534  31.992  24.016  1.00  0.00    -0.207 F 
ATOM     27  C   UNL A   1      28.046  30.528  22.242  1.00  0.00     0.042 A 
ENDBRANCH  19  20
ENDBRANCH  14  19
ENDBRANCH   8  10
ENDBRANCH   7   8
ENDBRANCH   6   7
ENDBRANCH   5   6
ENDBRANCH   4   5
ENDBRANCH   3   4
ENDBRANCH   2   3
ENDBRANCH   1   2
BRANCH   1  28
ATOM     28  C   UNL A   1      34.501  21.126  26.212  1.00  0.00     0.188 C 
BRANCH  28  29
ATOM     29  C   UNL A   1      35.600  21.007  25.141  1.00  0.00     0.188 C 
BRANCH  29  30
ATOM     30  O   UNL A   1      35.815  19.661  24.734  1.00  0.00    -0.376 OA
BRANCH  30  31
ATOM     31  C   UNL A   1      37.077  19.053  24.942  1.00  0.00     0.202 C 
BRANCH  31  32
ATOM     32  C   UNL A   1      38.312  19.967  24.994  1.00  0.00     0.261 C 
BRANCH  32  33
ATOM     33  O   UNL A   1      38.962  20.104  26.264  1.00  0.00    -0.460 OA
BRANCH  33  34
ATOM     34  C   UNL A   1      40.310  20.124  26.291  1.00  0.00     0.338 C 
ATOM     35  O   UNL A   1      41.067  19.272  25.859  1.00  0.00    -0.246 OA
BRANCH  34  36
ATOM     36  C   UNL A   1      40.722  21.474  26.736  1.00  0.00     0.060 A 
ATOM     37  C   UNL A   1      40.133  22.593  26.131  1.00  0.00     0.016 A 
ATOM     38  C   UNL A   1      41.642  21.636  27.775  1.00  0.00     0.016 A 
ATOM     39  C   UNL A   1      40.483  23.877  26.545  1.00  0.00     0.010 A 
ATOM     40  C   UNL A   1      42.016  22.924  28.168  1.00  0.00     0.010 A 
ATOM     41  C   UNL A   1      41.462  24.048  27.531  1.00  0.00    -0.014 A 
BRANCH  41  42
ATOM     42  C   UNL A   1      42.075  25.384  27.722  1.00  0.00     0.031 A 
ATOM     43  C   UNL A   1      41.271  26.427  28.447  1.00  0.00     0.074 A 
ATOM     44  C   UNL A   1      43.319  25.660  27.291  1.00  0.00     0.049 A 
ATOM     45  N   UNL A   1      41.561  27.676  28.699  1.00  0.00    -0.248 NA
ATOM     46  C   UNL A   1      39.958  25.997  28.956  1.00  0.00     0.031 C 
ATOM     47  C   UNL A   1      44.214  24.720  26.622  1.00  0.00     0.029 A 
ATOM     48  N   UNL A   1      44.038  26.827  27.353  1.00  0.00    -0.354 N 
ATOM     49  C   UNL A   1      40.467  28.182  29.389  1.00  0.00     0.074 A 
ATOM     50  C   UNL A   1      39.494  27.117  29.487  1.00  0.00     0.031 C 
ATOM     51  C   UNL A   1      45.362  25.354  26.321  1.00  0.00     0.029 A 
ATOM     52  C   UNL A   1      45.267  26.749  26.747  1.00  0.00     0.049 A 
ATOM     53  H   UNL A   1      43.705  27.644  27.792  1.00  0.00     0.167 HD
ATOM     54  C   UNL A   1      40.289  29.421  29.903  1.00  0.00     0.037 A 
ATOM     55  C   UNL A   1      46.194  27.706  26.539  1.00  0.00     0.037 A 
ATOM     56  C   UNL A   1      41.256  30.480  29.797  1.00  0.00     0.049 A 
ATOM     57  C   UNL A   1      45.937  29.104  27.043  1.00  0.00     0.074 A 
ATOM     58  C   UNL A   1      41.179  31.770  30.290  1.00  0.00     0.029 A 
ATOM     59  N   UNL A   1      42.474  30.374  29.141  1.00  0.00    -0.354 N 
ATOM     60  N   UNL A   1      44.910  29.569  27.713  1.00  0.00    -0.248 NA
ATOM     61  C   UNL A   1      46.973  30.110  26.764  1.00  0.00     0.031 C 
ATOM     62  C   UNL A   1      42.324  32.462  29.882  1.00  0.00     0.029 A 
ATOM     63  C   UNL A   1      43.145  31.584  29.192  1.00  0.00     0.049 A 
ATOM     64  H   UNL A   1      42.811  29.558  28.704  1.00  0.00     0.167 HD
ATOM     65  C   UNL A   1      45.191  30.908  27.964  1.00  0.00     0.074 A 
ATOM     66  C   UNL A   1      46.490  31.177  27.384  1.00  0.00     0.031 C 
ATOM     67  C   UNL A   1      44.442  31.832  28.617  1.00  0.00     0.037 A 
BRANCH  54  68
ATOM     68  C   UNL A   1      38.987  29.703  30.594  1.00  0.00     0.057 A 
ATOM     69  C   UNL A   1      37.886  30.242  29.915  1.00  0.00     0.134 A 
ATOM     70  C   UNL A   1      38.828  29.415  31.955  1.00  0.00     0.134 A 
ATOM     71  F   UNL A   1      37.978  30.560  28.615  1.00  0.00    -0.206 F 
ATOM     72  C   UNL A   1      36.683  30.507  30.572  1.00  0.00     0.040 A 
ATOM     73  C   UNL A   1      37.621  29.648  32.615  1.00  0.00     0.040 A 
ATOM     74  F   UNL A   1      39.843  28.897  32.665  1.00  0.00    -0.206 F 
ATOM     75  C   UNL A   1      36.546  30.202  31.924  1.00  0.00     0.006 A 
ENDBRANCH  54  68
BRANCH  55  76
ATOM     76  C   UNL A   1      47.445  27.388  25.802  1.00  0.00     0.057 A 
ATOM     77  C   UNL A   1      48.603  26.978  26.473  1.00  0.00     0.134 A 
ATOM     78  C   UNL A   1      47.524  27.522  24.410  1.00  0.00     0.134 A 
ATOM     79  F   UNL A   1      48.599  26.855  27.809  1.00  0.00    -0.206 F 
ATOM     80  C   UNL A   1      49.797  26.733  25.792  1.00  0.00     0.040 A 
ATOM     81  C   UNL A   1      48.703  27.254  23.713  1.00  0.00     0.040 A 
ATOM     82  F   UNL A   1      46.452  27.912  23.704  1.00  0.00    -0.206 F 
ATOM     83  C   UNL A   1      49.847  26.866  24.406  1.00  0.00     0.006 A 
ENDBRANCH  55  76
BRANCH  67  84
ATOM     84  C   UNL A   1      45.026  33.207  28.784  1.00  0.00     0.057 A 
ATOM     85  C   UNL A   1      45.813  33.553  29.890  1.00  0.00     0.134 A 
ATOM     86  C   UNL A   1      44.836  34.182  27.796  1.00  0.00     0.134 A 
ATOM     87  F   UNL A   1      46.025  32.670  30.877  1.00  0.00    -0.206 F 
ATOM     88  C   UNL A   1      46.368  34.828  30.020  1.00  0.00     0.040 A 
ATOM     89  C   UNL A   1      45.412  35.449  27.899  1.00  0.00     0.040 A 
ATOM     90  F   UNL A   1      44.105  33.914  26.704  1.00  0.00    -0.206 F 
ATOM     91  C   UNL A   1      46.175  35.777  29.018  1.00  0.00     0.006 A 
ENDBRANCH  67  84
ENDBRANCH  41  42
ENDBRANCH  34  36
ENDBRANCH  33  34
ENDBRANCH  32  33
ENDBRANCH  31  32
ENDBRANCH  30  31
ENDBRANCH  29  30
ENDBRANCH  28  29
ENDBRANCH   1  28
TORSDOF 23
ENDMDL
