MODEL 1
REMARK VINA RESULT:     -10.4      0.000      0.000
REMARK SMILES O=C(OCCOCCOCCOCCOC(=O)[C@@H]1[C@H](C(=O)Nc2ccccc2Cc2ccccc2)[C@H]2C=C[C@@H]1O2)c1ccc(-c2c3nc(c(-c4c(F)cccc4F)c4ccc([nH]4)c(-c4c(F)cccc4F)c4nc(c(-c5c(F)cccc5F)c5ccc2[nH]5)C=C4)C=C3)cc1
REMARK SMILES IDX 10 1 9 2 8 3 7 4 6 5 5 6 4 7 3 8 2 9 1 10 41 11 42 12 94 13
REMARK SMILES IDX 43 14 93 15 44 16 45 17 46 18 87 19 47 20 92 21 86 22 88 23
REMARK SMILES IDX 48 24 91 25 85 26 84 27 49 29 75 30 58 31 74 32 59 33 62 34
REMARK SMILES IDX 73 35 89 36 60 37 61 38 72 40 90 41 63 42 50 43 51 44 56 45
REMARK SMILES IDX 52 46 53 47 55 48 57 49 54 50 76 51 77 52 82 53 78 54 79 55
REMARK SMILES IDX 81 56 83 57 80 58 64 59 65 60 70 61 66 62 67 63 69 64 71 65
REMARK SMILES IDX 68 66 11 67 12 68 13 69 14 70 15 71 16 72 17 73 18 74 19 75
REMARK SMILES IDX 39 76 36 77 38 78 40 79 37 80 20 81 21 82 22 83 23 85 24 86
REMARK SMILES IDX 28 87 25 88 27 89 26 90 29 91 30 92 31 93 35 94 32 95 34 96
REMARK SMILES IDX 33 97
REMARK H PARENT 88 28 62 39 22 84
REMARK Flexibility Score: inf
ROOT
ATOM      1  C   UNL A   1      40.536  21.519  27.417  1.00  0.00     0.188 C 
ENDROOT
BRANCH   1   2
ATOM      2  O   UNL A   1      41.467  20.444  27.534  1.00  0.00    -0.377 OA
BRANCH   2   3
ATOM      3  C   UNL A   1      42.264  20.066  26.427  1.00  0.00     0.188 C 
BRANCH   3   4
ATOM      4  C   UNL A   1      43.469  20.943  26.120  1.00  0.00     0.188 C 
BRANCH   4   5
ATOM      5  O   UNL A   1      43.431  21.418  24.787  1.00  0.00    -0.376 OA
BRANCH   5   6
ATOM      6  C   UNL A   1      43.555  22.818  24.625  1.00  0.00     0.202 C 
BRANCH   6   7
ATOM      7  C   UNL A   1      42.996  23.577  25.825  1.00  0.00     0.261 C 
BRANCH   7   8
ATOM      8  O   UNL A   1      42.266  24.745  25.425  1.00  0.00    -0.460 OA
BRANCH   8   9
ATOM      9  C   UNL A   1      42.609  26.043  25.612  1.00  0.00     0.338 C 
ATOM     10  O   UNL A   1      43.433  26.534  24.839  1.00  0.00    -0.246 OA
BRANCH   9  11
ATOM     11  C   UNL A   1      42.026  26.950  26.662  1.00  0.00     0.060 A 
ATOM     12  C   UNL A   1      42.192  28.337  26.758  1.00  0.00     0.016 A 
ATOM     13  C   UNL A   1      41.192  26.329  27.610  1.00  0.00     0.016 A 
ATOM     14  C   UNL A   1      41.584  29.083  27.755  1.00  0.00     0.010 A 
ATOM     15  C   UNL A   1      40.603  27.060  28.644  1.00  0.00     0.010 A 
ATOM     16  C   UNL A   1      40.842  28.435  28.733  1.00  0.00    -0.014 A 
BRANCH  16  17
ATOM     17  C   UNL A   1      40.636  29.162  29.991  1.00  0.00     0.031 A 
ATOM     18  C   UNL A   1      39.464  30.097  30.034  1.00  0.00     0.074 A 
ATOM     19  C   UNL A   1      41.359  28.862  31.081  1.00  0.00     0.049 A 
ATOM     20  N   UNL A   1      39.088  30.923  30.969  1.00  0.00    -0.248 NA
ATOM     21  C   UNL A   1      38.581  30.087  28.851  1.00  0.00     0.031 C 
ATOM     22  C   UNL A   1      42.391  27.826  31.153  1.00  0.00     0.029 A 
ATOM     23  N   UNL A   1      41.314  29.382  32.343  1.00  0.00    -0.354 N 
ATOM     24  C   UNL A   1      37.963  31.565  30.464  1.00  0.00     0.074 A 
ATOM     25  C   UNL A   1      37.706  31.030  29.150  1.00  0.00     0.031 C 
ATOM     26  C   UNL A   1      42.881  27.787  32.404  1.00  0.00     0.029 A 
ATOM     27  C   UNL A   1      42.246  28.839  33.190  1.00  0.00     0.049 A 
ATOM     28  H   UNL A   1      40.674  30.078  32.618  1.00  0.00     0.167 HD
ATOM     29  C   UNL A   1      37.228  32.533  31.054  1.00  0.00     0.037 A 
ATOM     30  C   UNL A   1      42.564  29.203  34.446  1.00  0.00     0.037 A 
ATOM     31  C   UNL A   1      37.523  33.025  32.370  1.00  0.00     0.049 A 
ATOM     32  C   UNL A   1      41.802  30.357  35.045  1.00  0.00     0.074 A 
ATOM     33  C   UNL A   1      36.916  34.045  33.075  1.00  0.00     0.029 A 
ATOM     34  N   UNL A   1      38.532  32.513  33.179  1.00  0.00    -0.354 N 
ATOM     35  N   UNL A   1      40.800  31.039  34.537  1.00  0.00    -0.248 NA
ATOM     36  C   UNL A   1      42.222  30.804  36.375  1.00  0.00     0.031 C 
ATOM     37  C   UNL A   1      37.594  34.182  34.292  1.00  0.00     0.029 A 
ATOM     38  C   UNL A   1      38.579  33.205  34.372  1.00  0.00     0.049 A 
ATOM     39  H   UNL A   1      39.125  31.765  32.936  1.00  0.00     0.167 HD
ATOM     40  C   UNL A   1      40.448  31.978  35.497  1.00  0.00     0.074 A 
ATOM     41  C   UNL A   1      41.341  31.765  36.621  1.00  0.00     0.031 C 
ATOM     42  C   UNL A   1      39.484  32.933  35.463  1.00  0.00     0.037 A 
BRANCH  29  43
ATOM     43  C   UNL A   1      36.143  33.162  30.229  1.00  0.00     0.057 A 
ATOM     44  C   UNL A   1      36.408  34.000  29.137  1.00  0.00     0.134 A 
ATOM     45  C   UNL A   1      34.800  32.986  30.590  1.00  0.00     0.134 A 
ATOM     46  F   UNL A   1      37.673  34.247  28.759  1.00  0.00    -0.206 F 
ATOM     47  C   UNL A   1      35.383  34.666  28.459  1.00  0.00     0.040 A 
ATOM     48  C   UNL A   1      33.766  33.623  29.903  1.00  0.00     0.040 A 
ATOM     49  F   UNL A   1      34.473  32.211  31.634  1.00  0.00    -0.206 F 
ATOM     50  C   UNL A   1      34.057  34.476  28.841  1.00  0.00     0.006 A 
ENDBRANCH  29  43
BRANCH  30  51
ATOM     51  C   UNL A   1      43.662  28.522  35.181  1.00  0.00     0.057 A 
ATOM     52  C   UNL A   1      43.444  27.335  35.887  1.00  0.00     0.134 A 
ATOM     53  C   UNL A   1      44.960  29.053  35.211  1.00  0.00     0.134 A 
ATOM     54  F   UNL A   1      42.222  26.781  35.917  1.00  0.00    -0.206 F 
ATOM     55  C   UNL A   1      44.465  26.711  36.610  1.00  0.00     0.040 A 
ATOM     56  C   UNL A   1      45.997  28.425  35.904  1.00  0.00     0.040 A 
ATOM     57  F   UNL A   1      45.244  30.189  34.558  1.00  0.00    -0.206 F 
ATOM     58  C   UNL A   1      45.748  27.254  36.614  1.00  0.00     0.006 A 
ENDBRANCH  30  51
BRANCH  42  59
ATOM     59  C   UNL A   1      39.316  33.760  36.701  1.00  0.00     0.057 A 
ATOM     60  C   UNL A   1      39.873  35.038  36.823  1.00  0.00     0.134 A 
ATOM     61  C   UNL A   1      38.546  33.277  37.767  1.00  0.00     0.134 A 
ATOM     62  F   UNL A   1      40.630  35.548  35.839  1.00  0.00    -0.206 F 
ATOM     63  C   UNL A   1      39.694  35.798  37.978  1.00  0.00     0.040 A 
ATOM     64  C   UNL A   1      38.331  34.041  38.911  1.00  0.00     0.040 A 
ATOM     65  F   UNL A   1      37.976  32.064  37.702  1.00  0.00    -0.206 F 
ATOM     66  C   UNL A   1      38.914  35.302  39.023  1.00  0.00     0.006 A 
ENDBRANCH  42  59
ENDBRANCH  16  17
ENDBRANCH   9  11
ENDBRANCH   8   9
ENDBRANCH   7   8
ENDBRANCH   6   7
ENDBRANCH   5   6
ENDBRANCH   4   5
ENDBRANCH   3   4
ENDBRANCH   2   3
ENDBRANCH   1   2
BRANCH   1  67
ATOM     67  C   UNL A   1      39.842  21.735  26.074  1.00  0.00     0.188 C 
BRANCH  67  68
ATOM     68  O   UNL A   1      38.429  21.901  26.144  1.00  0.00    -0.376 OA
BRANCH  68  69
ATOM     69  C   UNL A   1      38.015  23.245  26.299  1.00  0.00     0.202 C 
BRANCH  69  70
ATOM     70  C   UNL A   1      37.357  23.886  25.053  1.00  0.00     0.261 C 
BRANCH  70  71
ATOM     71  O   UNL A   1      36.163  23.379  24.378  1.00  0.00    -0.463 OA
BRANCH  71  72
ATOM     72  C   UNL A   1      35.085  23.022  25.122  1.00  0.00     0.312 C 
ATOM     73  O   UNL A   1      34.665  23.715  26.026  1.00  0.00    -0.252 OA
BRANCH  72  74
ATOM     74  C   UNL A   1      34.440  21.702  24.719  1.00  0.00     0.147 C 
ATOM     75  C   UNL A   1      33.725  21.814  23.380  1.00  0.00     0.129 C 
ATOM     76  C   UNL A   1      33.268  21.107  25.557  1.00  0.00     0.157 C 
ATOM     77  C   UNL A   1      32.379  21.136  23.574  1.00  0.00     0.155 C 
ATOM     78  C   UNL A   1      33.013  19.669  25.173  1.00  0.00     0.004 C 
ATOM     79  O   UNL A   1      32.080  21.637  24.895  1.00  0.00    -0.365 OA
ATOM     80  C   UNL A   1      32.510  19.691  23.930  1.00  0.00     0.004 C 
BRANCH  75  81
ATOM     81  C   UNL A   1      33.434  23.179  22.847  1.00  0.00     0.231 C 
ATOM     82  O   UNL A   1      33.694  23.331  21.635  1.00  0.00    -0.274 OA
ATOM     83  N   UNL A   1      32.765  24.212  23.390  1.00  0.00    -0.325 N 
ATOM     84  H   UNL A   1      32.520  24.744  22.599  1.00  0.00     0.169 HD
BRANCH  83  85
ATOM     85  C   UNL A   1      32.205  24.977  24.465  1.00  0.00     0.044 A 
ATOM     86  C   UNL A   1      31.098  24.201  24.949  1.00  0.00     0.026 A 
ATOM     87  C   UNL A   1      32.337  26.300  25.008  1.00  0.00    -0.020 A 
ATOM     88  C   UNL A   1      30.093  24.678  25.780  1.00  0.00     0.002 A 
ATOM     89  C   UNL A   1      31.295  26.728  25.887  1.00  0.00     0.006 A 
ATOM     90  C   UNL A   1      30.175  25.971  26.224  1.00  0.00     0.000 A 
BRANCH  87  91
ATOM     91  C   UNL A   1      33.454  27.359  24.931  1.00  0.00     0.073 C 
BRANCH  91  92
ATOM     92  C   UNL A   1      33.592  28.570  25.895  1.00  0.00    -0.044 A 
ATOM     93  C   UNL A   1      32.726  29.681  25.738  1.00  0.00     0.004 A 
ATOM     94  C   UNL A   1      34.584  28.719  26.871  1.00  0.00     0.004 A 
ATOM     95  C   UNL A   1      32.728  30.779  26.608  1.00  0.00     0.000 A 
ATOM     96  C   UNL A   1      34.625  29.844  27.718  1.00  0.00     0.000 A 
ATOM     97  C   UNL A   1      33.676  30.854  27.613  1.00  0.00     0.000 A 
ENDBRANCH  91  92
ENDBRANCH  87  91
ENDBRANCH  83  85
ENDBRANCH  75  81
ENDBRANCH  72  74
ENDBRANCH  71  72
ENDBRANCH  70  71
ENDBRANCH  69  70
ENDBRANCH  68  69
ENDBRANCH  67  68
ENDBRANCH   1  67
TORSDOF 24
ENDMDL
MODEL 2
REMARK VINA RESULT:     -10.0      5.180      9.619
REMARK SMILES O=C(OCCOCCOCCOCCOC(=O)[C@@H]1[C@H](C(=O)Nc2ccccc2Cc2ccccc2)[C@H]2C=C[C@@H]1O2)c1ccc(-c2c3nc(c(-c4c(F)cccc4F)c4ccc([nH]4)c(-c4c(F)cccc4F)c4nc(c(-c5c(F)cccc5F)c5ccc2[nH]5)C=C4)C=C3)cc1
REMARK SMILES IDX 10 1 9 2 8 3 7 4 6 5 5 6 4 7 3 8 2 9 1 10 41 11 42 12 94 13
REMARK SMILES IDX 43 14 93 15 44 16 45 17 46 18 87 19 47 20 92 21 86 22 88 23
REMARK SMILES IDX 48 24 91 25 85 26 84 27 49 29 75 30 58 31 74 32 59 33 62 34
REMARK SMILES IDX 73 35 89 36 60 37 61 38 72 40 90 41 63 42 50 43 51 44 56 45
REMARK SMILES IDX 52 46 53 47 55 48 57 49 54 50 76 51 77 52 82 53 78 54 79 55
REMARK SMILES IDX 81 56 83 57 80 58 64 59 65 60 70 61 66 62 67 63 69 64 71 65
REMARK SMILES IDX 68 66 11 67 12 68 13 69 14 70 15 71 16 72 17 73 18 74 19 75
REMARK SMILES IDX 39 76 36 77 38 78 40 79 37 80 20 81 21 82 22 83 23 85 24 86
REMARK SMILES IDX 28 87 25 88 27 89 26 90 29 91 30 92 31 93 35 94 32 95 34 96
REMARK SMILES IDX 33 97
REMARK H PARENT 88 28 62 39 22 84
REMARK Flexibility Score: inf
ROOT
ATOM      1  C   UNL A   1      38.433  22.031  25.559  1.00  0.00     0.188 C 
ENDROOT
BRANCH   1   2
ATOM      2  O   UNL A   1      39.490  21.528  26.373  1.00  0.00    -0.377 OA
BRANCH   2   3
ATOM      3  C   UNL A   1      40.710  22.239  26.480  1.00  0.00     0.188 C 
BRANCH   3   4
ATOM      4  C   UNL A   1      41.959  21.414  26.756  1.00  0.00     0.188 C 
BRANCH   4   5
ATOM      5  O   UNL A   1      41.633  20.064  27.026  1.00  0.00    -0.376 OA
BRANCH   5   6
ATOM      6  C   UNL A   1      42.030  19.123  26.047  1.00  0.00     0.202 C 
BRANCH   6   7
ATOM      7  C   UNL A   1      43.470  18.664  26.258  1.00  0.00     0.261 C 
BRANCH   7   8
ATOM      8  O   UNL A   1      44.205  18.626  25.027  1.00  0.00    -0.460 OA
BRANCH   8   9
ATOM      9  C   UNL A   1      44.493  19.661  24.201  1.00  0.00     0.338 C 
ATOM     10  O   UNL A   1      44.305  19.501  22.994  1.00  0.00    -0.246 OA
BRANCH   9  11
ATOM     11  C   UNL A   1      44.980  21.014  24.645  1.00  0.00     0.060 A 
ATOM     12  C   UNL A   1      45.580  21.329  25.871  1.00  0.00     0.016 A 
ATOM     13  C   UNL A   1      44.855  22.049  23.700  1.00  0.00     0.016 A 
ATOM     14  C   UNL A   1      46.018  22.609  26.168  1.00  0.00     0.010 A 
ATOM     15  C   UNL A   1      45.257  23.353  23.998  1.00  0.00     0.010 A 
ATOM     16  C   UNL A   1      45.799  23.632  25.255  1.00  0.00    -0.014 A 
BRANCH  16  17
ATOM     17  C   UNL A   1      45.827  25.001  25.785  1.00  0.00     0.031 A 
ATOM     18  C   UNL A   1      47.127  25.737  25.654  1.00  0.00     0.074 A 
ATOM     19  C   UNL A   1      44.699  25.599  26.196  1.00  0.00     0.049 A 
ATOM     20  N   UNL A   1      47.470  26.914  26.098  1.00  0.00    -0.248 NA
ATOM     21  C   UNL A   1      48.192  25.048  24.899  1.00  0.00     0.031 C 
ATOM     22  C   UNL A   1      43.365  24.996  26.172  1.00  0.00     0.029 A 
ATOM     23  N   UNL A   1      44.492  26.856  26.687  1.00  0.00    -0.354 N 
ATOM     24  C   UNL A   1      48.799  27.077  25.725  1.00  0.00     0.074 A 
ATOM     25  C   UNL A   1      49.202  25.892  25.009  1.00  0.00     0.031 C 
ATOM     26  C   UNL A   1      42.474  25.893  26.629  1.00  0.00     0.029 A 
ATOM     27  C   UNL A   1      43.189  27.097  27.039  1.00  0.00     0.049 A 
ATOM     28  H   UNL A   1      45.210  27.525  26.778  1.00  0.00     0.167 HD
ATOM     29  C   UNL A   1      49.608  28.127  25.983  1.00  0.00     0.037 A 
ATOM     30  C   UNL A   1      42.664  28.165  27.667  1.00  0.00     0.037 A 
ATOM     31  C   UNL A   1      49.154  29.288  26.694  1.00  0.00     0.049 A 
ATOM     32  C   UNL A   1      43.607  29.279  28.041  1.00  0.00     0.074 A 
ATOM     33  C   UNL A   1      49.867  30.401  27.091  1.00  0.00     0.029 A 
ATOM     34  N   UNL A   1      47.841  29.472  27.117  1.00  0.00    -0.354 N 
ATOM     35  N   UNL A   1      44.890  29.400  27.781  1.00  0.00    -0.248 NA
ATOM     36  C   UNL A   1      43.041  30.392  28.809  1.00  0.00     0.031 C 
ATOM     37  C   UNL A   1      48.994  31.235  27.800  1.00  0.00     0.029 A 
ATOM     38  C   UNL A   1      47.723  30.672  27.787  1.00  0.00     0.049 A 
ATOM     39  H   UNL A   1      47.104  28.838  26.960  1.00  0.00     0.167 HD
ATOM     40  C   UNL A   1      45.280  30.615  28.326  1.00  0.00     0.074 A 
ATOM     41  C   UNL A   1      44.089  31.196  28.920  1.00  0.00     0.031 C 
ATOM     42  C   UNL A   1      46.503  31.205  28.343  1.00  0.00     0.037 A 
BRANCH  29  43
ATOM     43  C   UNL A   1      51.050  27.989  25.590  1.00  0.00     0.057 A 
ATOM     44  C   UNL A   1      52.059  27.655  26.505  1.00  0.00     0.134 A 
ATOM     45  C   UNL A   1      51.447  28.276  24.276  1.00  0.00     0.134 A 
ATOM     46  F   UNL A   1      51.757  27.408  27.790  1.00  0.00    -0.206 F 
ATOM     47  C   UNL A   1      53.408  27.648  26.139  1.00  0.00     0.040 A 
ATOM     48  C   UNL A   1      52.788  28.243  23.891  1.00  0.00     0.040 A 
ATOM     49  F   UNL A   1      50.539  28.617  23.351  1.00  0.00    -0.206 F 
ATOM     50  C   UNL A   1      53.774  27.941  24.827  1.00  0.00     0.006 A 
ENDBRANCH  29  43
BRANCH  30  51
ATOM     51  C   UNL A   1      41.221  28.206  28.022  1.00  0.00     0.057 A 
ATOM     52  C   UNL A   1      40.748  27.673  29.226  1.00  0.00     0.134 A 
ATOM     53  C   UNL A   1      40.271  28.766  27.156  1.00  0.00     0.134 A 
ATOM     54  F   UNL A   1      41.599  27.105  30.094  1.00  0.00    -0.206 F 
ATOM     55  C   UNL A   1      39.388  27.678  29.548  1.00  0.00     0.040 A 
ATOM     56  C   UNL A   1      38.913  28.805  27.477  1.00  0.00     0.040 A 
ATOM     57  F   UNL A   1      40.650  29.296  25.984  1.00  0.00    -0.206 F 
ATOM     58  C   UNL A   1      38.466  28.250  28.674  1.00  0.00     0.006 A 
ENDBRANCH  30  51
BRANCH  42  59
ATOM     59  C   UNL A   1      46.582  32.564  28.967  1.00  0.00     0.057 A 
ATOM     60  C   UNL A   1      46.897  32.746  30.318  1.00  0.00     0.134 A 
ATOM     61  C   UNL A   1      46.380  33.708  28.183  1.00  0.00     0.134 A 
ATOM     62  F   UNL A   1      47.089  31.687  31.121  1.00  0.00    -0.206 F 
ATOM     63  C   UNL A   1      46.980  34.020  30.878  1.00  0.00     0.040 A 
ATOM     64  C   UNL A   1      46.495  34.987  28.723  1.00  0.00     0.040 A 
ATOM     65  F   UNL A   1      46.089  33.598  26.878  1.00  0.00    -0.206 F 
ATOM     66  C   UNL A   1      46.787  35.145  30.076  1.00  0.00     0.006 A 
ENDBRANCH  42  59
ENDBRANCH  16  17
ENDBRANCH   9  11
ENDBRANCH   8   9
ENDBRANCH   7   8
ENDBRANCH   6   7
ENDBRANCH   5   6
ENDBRANCH   4   5
ENDBRANCH   3   4
ENDBRANCH   2   3
ENDBRANCH   1   2
BRANCH   1  67
ATOM     67  C   UNL A   1      37.704  23.295  26.012  1.00  0.00     0.188 C 
BRANCH  67  68
ATOM     68  O   UNL A   1      36.684  23.753  25.131  1.00  0.00    -0.376 OA
BRANCH  68  69
ATOM     69  C   UNL A   1      35.408  23.198  25.390  1.00  0.00     0.202 C 
BRANCH  69  70
ATOM     70  C   UNL A   1      34.233  24.205  25.390  1.00  0.00     0.261 C 
BRANCH  70  71
ATOM     71  O   UNL A   1      34.162  25.416  26.205  1.00  0.00    -0.463 OA
BRANCH  71  72
ATOM     72  C   UNL A   1      34.045  26.620  25.591  1.00  0.00     0.312 C 
ATOM     73  O   UNL A   1      33.929  26.723  24.386  1.00  0.00    -0.252 OA
BRANCH  72  74
ATOM     74  C   UNL A   1      34.050  27.821  26.529  1.00  0.00     0.147 C 
ATOM     75  C   UNL A   1      32.660  28.105  27.081  1.00  0.00     0.129 C 
ATOM     76  C   UNL A   1      34.380  29.245  25.989  1.00  0.00     0.157 C 
ATOM     77  C   UNL A   1      32.468  29.608  26.956  1.00  0.00     0.155 C 
ATOM     78  C   UNL A   1      34.643  30.200  27.128  1.00  0.00     0.004 C 
ATOM     79  O   UNL A   1      33.067  29.789  25.655  1.00  0.00    -0.365 OA
ATOM     80  C   UNL A   1      33.469  30.382  27.751  1.00  0.00     0.004 C 
BRANCH  75  81
ATOM     81  C   UNL A   1      31.489  27.475  26.401  1.00  0.00     0.231 C 
ATOM     82  O   UNL A   1      30.898  26.608  27.079  1.00  0.00    -0.274 OA
ATOM     83  N   UNL A   1      30.842  27.809  25.271  1.00  0.00    -0.325 N 
ATOM     84  H   UNL A   1      29.968  27.371  25.389  1.00  0.00     0.169 HD
BRANCH  83  85
ATOM     85  C   UNL A   1      30.701  28.442  23.992  1.00  0.00     0.044 A 
ATOM     86  C   UNL A   1      30.070  29.704  24.258  1.00  0.00     0.026 A 
ATOM     87  C   UNL A   1      30.841  28.083  22.609  1.00  0.00    -0.020 A 
ATOM     88  C   UNL A   1      29.477  30.516  23.301  1.00  0.00     0.002 A 
ATOM     89  C   UNL A   1      30.243  28.972  21.662  1.00  0.00     0.006 A 
ATOM     90  C   UNL A   1      29.533  30.125  21.990  1.00  0.00     0.000 A 
BRANCH  87  91
ATOM     91  C   UNL A   1      31.614  26.961  21.888  1.00  0.00     0.073 C 
BRANCH  91  92
ATOM     92  C   UNL A   1      31.651  25.478  22.347  1.00  0.00    -0.044 A 
ATOM     93  C   UNL A   1      32.658  24.620  21.836  1.00  0.00     0.004 A 
ATOM     94  C   UNL A   1      30.699  24.858  23.165  1.00  0.00     0.004 A 
ATOM     95  C   UNL A   1      32.814  23.292  22.253  1.00  0.00     0.000 A 
ATOM     96  C   UNL A   1      30.818  23.509  23.550  1.00  0.00     0.000 A 
ATOM     97  C   UNL A   1      31.895  22.737  23.127  1.00  0.00     0.000 A 
ENDBRANCH  91  92
ENDBRANCH  87  91
ENDBRANCH  83  85
ENDBRANCH  75  81
ENDBRANCH  72  74
ENDBRANCH  71  72
ENDBRANCH  70  71
ENDBRANCH  69  70
ENDBRANCH  68  69
ENDBRANCH  67  68
ENDBRANCH   1  67
TORSDOF 24
ENDMDL
MODEL 3
REMARK VINA RESULT:      -9.9      4.946     10.580
REMARK SMILES O=C(OCCOCCOCCOCCOC(=O)[C@@H]1[C@H](C(=O)Nc2ccccc2Cc2ccccc2)[C@H]2C=C[C@@H]1O2)c1ccc(-c2c3nc(c(-c4c(F)cccc4F)c4ccc([nH]4)c(-c4c(F)cccc4F)c4nc(c(-c5c(F)cccc5F)c5ccc2[nH]5)C=C4)C=C3)cc1
REMARK SMILES IDX 10 1 9 2 8 3 7 4 6 5 5 6 4 7 3 8 2 9 1 10 41 11 42 12 94 13
REMARK SMILES IDX 43 14 93 15 44 16 45 17 46 18 87 19 47 20 92 21 86 22 88 23
REMARK SMILES IDX 48 24 91 25 85 26 84 27 49 29 75 30 58 31 74 32 59 33 62 34
REMARK SMILES IDX 73 35 89 36 60 37 61 38 72 40 90 41 63 42 50 43 51 44 56 45
REMARK SMILES IDX 52 46 53 47 55 48 57 49 54 50 76 51 77 52 82 53 78 54 79 55
REMARK SMILES IDX 81 56 83 57 80 58 64 59 65 60 70 61 66 62 67 63 69 64 71 65
REMARK SMILES IDX 68 66 11 67 12 68 13 69 14 70 15 71 16 72 17 73 18 74 19 75
REMARK SMILES IDX 39 76 36 77 38 78 40 79 37 80 20 81 21 82 22 83 23 85 24 86
REMARK SMILES IDX 28 87 25 88 27 89 26 90 29 91 30 92 31 93 35 94 32 95 34 96
REMARK SMILES IDX 33 97
REMARK H PARENT 88 28 62 39 22 84
REMARK Flexibility Score: inf
ROOT
ATOM      1  C   UNL A   1      33.603  29.540  26.886  1.00  0.00     0.188 C 
ENDROOT
BRANCH   1   2
ATOM      2  O   UNL A   1      33.533  30.963  26.955  1.00  0.00    -0.377 OA
BRANCH   2   3
ATOM      3  C   UNL A   1      34.097  31.653  28.054  1.00  0.00     0.188 C 
BRANCH   3   4
ATOM      4  C   UNL A   1      35.607  31.843  28.040  1.00  0.00     0.188 C 
BRANCH   4   5
ATOM      5  O   UNL A   1      36.054  32.491  29.216  1.00  0.00    -0.376 OA
BRANCH   5   6
ATOM      6  C   UNL A   1      35.131  32.537  30.287  1.00  0.00     0.202 C 
BRANCH   6   7
ATOM      7  C   UNL A   1      35.642  31.775  31.506  1.00  0.00     0.261 C 
BRANCH   7   8
ATOM      8  O   UNL A   1      35.974  30.417  31.186  1.00  0.00    -0.460 OA
BRANCH   8   9
ATOM      9  C   UNL A   1      37.059  29.711  31.589  1.00  0.00     0.338 C 
ATOM     10  O   UNL A   1      36.912  28.914  32.516  1.00  0.00    -0.246 OA
BRANCH   9  11
ATOM     11  C   UNL A   1      38.424  29.786  30.958  1.00  0.00     0.060 A 
ATOM     12  C   UNL A   1      38.712  29.995  29.604  1.00  0.00     0.016 A 
ATOM     13  C   UNL A   1      39.512  29.681  31.845  1.00  0.00     0.016 A 
ATOM     14  C   UNL A   1      40.013  30.075  29.133  1.00  0.00     0.010 A 
ATOM     15  C   UNL A   1      40.829  29.720  31.381  1.00  0.00     0.010 A 
ATOM     16  C   UNL A   1      41.068  29.875  30.012  1.00  0.00    -0.014 A 
BRANCH  16  17
ATOM     17  C   UNL A   1      42.355  29.492  29.417  1.00  0.00     0.031 A 
ATOM     18  C   UNL A   1      42.434  28.109  28.843  1.00  0.00     0.074 A 
ATOM     19  C   UNL A   1      43.329  30.399  29.250  1.00  0.00     0.049 A 
ATOM     20  N   UNL A   1      43.452  27.473  28.334  1.00  0.00    -0.248 NA
ATOM     21  C   UNL A   1      41.177  27.336  28.831  1.00  0.00     0.031 C 
ATOM     22  C   UNL A   1      43.241  31.813  29.620  1.00  0.00     0.029 A 
ATOM     23  N   UNL A   1      44.572  30.270  28.701  1.00  0.00    -0.354 N 
ATOM     24  C   UNL A   1      42.969  26.214  27.996  1.00  0.00     0.074 A 
ATOM     25  C   UNL A   1      41.569  26.174  28.341  1.00  0.00     0.031 C 
ATOM     26  C   UNL A   1      44.389  32.423  29.281  1.00  0.00     0.029 A 
ATOM     27  C   UNL A   1      45.308  31.427  28.740  1.00  0.00     0.049 A 
ATOM     28  H   UNL A   1      44.907  29.429  28.314  1.00  0.00     0.167 HD
ATOM     29  C   UNL A   1      43.654  25.181  27.459  1.00  0.00     0.037 A 
ATOM     30  C   UNL A   1      46.598  31.623  28.412  1.00  0.00     0.037 A 
ATOM     31  C   UNL A   1      45.047  25.276  27.125  1.00  0.00     0.049 A 
ATOM     32  C   UNL A   1      47.373  30.429  27.915  1.00  0.00     0.074 A 
ATOM     33  C   UNL A   1      45.895  24.303  26.639  1.00  0.00     0.029 A 
ATOM     34  N   UNL A   1      45.795  26.443  27.254  1.00  0.00    -0.354 N 
ATOM     35  N   UNL A   1      46.951  29.206  27.685  1.00  0.00    -0.248 NA
ATOM     36  C   UNL A   1      48.800  30.634  27.652  1.00  0.00     0.031 C 
ATOM     37  C   UNL A   1      47.170  24.869  26.522  1.00  0.00     0.029 A 
ATOM     38  C   UNL A   1      47.101  26.211  26.873  1.00  0.00     0.049 A 
ATOM     39  H   UNL A   1      45.444  27.307  27.570  1.00  0.00     0.167 HD
ATOM     40  C   UNL A   1      48.052  28.500  27.221  1.00  0.00     0.074 A 
ATOM     41  C   UNL A   1      49.157  29.441  27.193  1.00  0.00     0.031 C 
ATOM     42  C   UNL A   1      48.154  27.197  26.852  1.00  0.00     0.037 A 
BRANCH  29  43
ATOM     43  C   UNL A   1      42.925  23.877  27.323  1.00  0.00     0.057 A 
ATOM     44  C   UNL A   1      42.752  22.988  28.393  1.00  0.00     0.134 A 
ATOM     45  C   UNL A   1      42.453  23.467  26.068  1.00  0.00     0.134 A 
ATOM     46  F   UNL A   1      43.214  23.296  29.615  1.00  0.00    -0.206 F 
ATOM     47  C   UNL A   1      42.172  21.728  28.213  1.00  0.00     0.040 A 
ATOM     48  C   UNL A   1      41.847  22.224  25.881  1.00  0.00     0.040 A 
ATOM     49  F   UNL A   1      42.597  24.260  24.995  1.00  0.00    -0.206 F 
ATOM     50  C   UNL A   1      41.716  21.345  26.953  1.00  0.00     0.006 A 
ENDBRANCH  29  43
BRANCH  30  51
ATOM     51  C   UNL A   1      47.236  32.954  28.589  1.00  0.00     0.057 A 
ATOM     52  C   UNL A   1      47.855  33.314  29.791  1.00  0.00     0.134 A 
ATOM     53  C   UNL A   1      47.229  33.910  27.564  1.00  0.00     0.134 A 
ATOM     54  F   UNL A   1      47.881  32.454  30.821  1.00  0.00    -0.206 F 
ATOM     55  C   UNL A   1      48.424  34.577  29.975  1.00  0.00     0.040 A 
ATOM     56  C   UNL A   1      47.820  35.165  27.722  1.00  0.00     0.040 A 
ATOM     57  F   UNL A   1      46.654  33.636  26.383  1.00  0.00    -0.206 F 
ATOM     58  C   UNL A   1      48.413  35.505  28.936  1.00  0.00     0.006 A 
ENDBRANCH  30  51
BRANCH  42  59
ATOM     59  C   UNL A   1      49.487  26.751  26.332  1.00  0.00     0.057 A 
ATOM     60  C   UNL A   1      50.426  26.110  27.147  1.00  0.00     0.134 A 
ATOM     61  C   UNL A   1      49.808  26.932  24.981  1.00  0.00     0.134 A 
ATOM     62  F   UNL A   1      50.179  25.919  28.453  1.00  0.00    -0.206 F 
ATOM     63  C   UNL A   1      51.656  25.689  26.642  1.00  0.00     0.040 A 
ATOM     64  C   UNL A   1      51.018  26.484  24.457  1.00  0.00     0.040 A 
ATOM     65  F   UNL A   1      48.941  27.528  24.147  1.00  0.00    -0.206 F 
ATOM     66  C   UNL A   1      51.950  25.869  25.290  1.00  0.00     0.006 A 
ENDBRANCH  42  59
ENDBRANCH  16  17
ENDBRANCH   9  11
ENDBRANCH   8   9
ENDBRANCH   7   8
ENDBRANCH   6   7
ENDBRANCH   5   6
ENDBRANCH   4   5
ENDBRANCH   3   4
ENDBRANCH   2   3
ENDBRANCH   1   2
BRANCH   1  67
ATOM     67  C   UNL A   1      33.951  28.894  25.546  1.00  0.00     0.188 C 
BRANCH  67  68
ATOM     68  O   UNL A   1      33.002  27.947  25.067  1.00  0.00    -0.376 OA
BRANCH  68  69
ATOM     69  C   UNL A   1      31.975  27.645  25.991  1.00  0.00     0.202 C 
BRANCH  69  70
ATOM     70  C   UNL A   1      32.154  26.324  26.777  1.00  0.00     0.261 C 
BRANCH  70  71
ATOM     71  O   UNL A   1      32.443  25.022  26.180  1.00  0.00    -0.463 OA
BRANCH  71  72
ATOM     72  C   UNL A   1      31.461  24.374  25.502  1.00  0.00     0.312 C 
ATOM     73  O   UNL A   1      30.425  24.032  26.034  1.00  0.00    -0.252 OA
BRANCH  72  74
ATOM     74  C   UNL A   1      31.755  24.133  24.026  1.00  0.00     0.147 C 
ATOM     75  C   UNL A   1      32.084  22.671  23.753  1.00  0.00     0.129 C 
ATOM     76  C   UNL A   1      33.002  24.780  23.352  1.00  0.00     0.157 C 
ATOM     77  C   UNL A   1      33.308  22.687  22.852  1.00  0.00     0.155 C 
ATOM     78  C   UNL A   1      32.912  24.674  21.849  1.00  0.00     0.004 C 
ATOM     79  O   UNL A   1      34.032  23.756  23.499  1.00  0.00    -0.365 OA
ATOM     80  C   UNL A   1      33.052  23.375  21.550  1.00  0.00     0.004 C 
BRANCH  75  81
ATOM     81  C   UNL A   1      32.430  21.797  24.914  1.00  0.00     0.231 C 
ATOM     82  O   UNL A   1      31.455  21.218  25.438  1.00  0.00    -0.274 OA
ATOM     83  N   UNL A   1      33.620  21.373  25.373  1.00  0.00    -0.325 N 
ATOM     84  H   UNL A   1      33.374  20.577  25.897  1.00  0.00     0.169 HD
BRANCH  83  85
ATOM     85  C   UNL A   1      35.044  21.420  25.532  1.00  0.00     0.044 A 
ATOM     86  C   UNL A   1      35.324  22.711  26.092  1.00  0.00     0.026 A 
ATOM     87  C   UNL A   1      36.184  20.645  25.126  1.00  0.00    -0.020 A 
ATOM     88  C   UNL A   1      36.578  23.305  26.141  1.00  0.00     0.002 A 
ATOM     89  C   UNL A   1      37.455  21.290  25.230  1.00  0.00     0.006 A 
ATOM     90  C   UNL A   1      37.652  22.598  25.669  1.00  0.00     0.000 A 
BRANCH  87  91
ATOM     91  C   UNL A   1      36.352  19.178  24.685  1.00  0.00     0.073 C 
BRANCH  91  92
ATOM     92  C   UNL A   1      35.204  18.132  24.637  1.00  0.00    -0.044 A 
ATOM     93  C   UNL A   1      35.419  16.843  25.186  1.00  0.00     0.004 A 
ATOM     94  C   UNL A   1      33.974  18.309  23.995  1.00  0.00     0.004 A 
ATOM     95  C   UNL A   1      34.418  15.866  25.255  1.00  0.00     0.000 A 
ATOM     96  C   UNL A   1      32.977  17.314  24.014  1.00  0.00     0.000 A 
ATOM     97  C   UNL A   1      33.184  16.109  24.677  1.00  0.00     0.000 A 
ENDBRANCH  91  92
ENDBRANCH  87  91
ENDBRANCH  83  85
ENDBRANCH  75  81
ENDBRANCH  72  74
ENDBRANCH  71  72
ENDBRANCH  70  71
ENDBRANCH  69  70
ENDBRANCH  68  69
ENDBRANCH  67  68
ENDBRANCH   1  67
TORSDOF 24
ENDMDL
