MODEL 1
REMARK VINA RESULT:      -9.2      0.000      0.000
REMARK SMILES CC[NH2+][C@]1(C(=O)OCCOCCOCCOCCOC(=O)c2ccc(-c3c4nc(c(-c5c(F)cccc5F)c5ccc([nH]5)c(-c5c(F)cccc5F)c5nc(c(-c6c(F)cccc6F)c6ccc3[nH]6)C=C5)C=C4)cc2)CCC[C@H]1CC[N@H+]1CCC[C@@H](CC)C1
REMARK SMILES IDX 12 1 11 2 10 3 9 4 8 5 7 6 5 7 6 8 4 9 76 10 79 11 77 12
REMARK SMILES IDX 78 13 3 14 2 17 1 18 80 19 81 20 82 21 83 22 89 23 84 25
REMARK SMILES IDX 86 26 85 27 87 28 88 29 13 30 14 31 15 32 16 33 17 34 18 35
REMARK SMILES IDX 19 36 20 37 21 38 22 39 23 40 75 41 24 42 74 43 25 44 26 45
REMARK SMILES IDX 27 46 68 47 28 48 73 49 67 50 69 51 29 52 72 53 66 54 65 55
REMARK SMILES IDX 30 57 56 58 39 59 55 60 40 61 43 62 54 63 70 64 41 65 42 66
REMARK SMILES IDX 53 68 71 69 44 70 31 71 32 72 37 73 33 74 34 75 36 76 38 77
REMARK SMILES IDX 35 78 57 79 58 80 63 81 59 82 60 83 62 84 64 85 61 86 45 87
REMARK SMILES IDX 46 88 51 89 47 90 48 91 50 92 52 93 49 94
REMARK H PARENT 3 15 3 16 82 24 69 56 43 67
REMARK Flexibility Score: inf
ROOT
ATOM      1  C   UNL A   1      39.657  22.140  26.474  1.00  0.00     0.188 C 
ENDROOT
BRANCH   1   2
ATOM      2  C   UNL A   1      38.494  21.389  25.789  1.00  0.00     0.188 C 
BRANCH   2   3
ATOM      3  O   UNL A   1      37.795  22.147  24.823  1.00  0.00    -0.376 OA
BRANCH   3   4
ATOM      4  C   UNL A   1      36.386  22.118  24.753  1.00  0.00     0.202 C 
BRANCH   4   5
ATOM      5  C   UNL A   1      35.643  22.704  23.550  1.00  0.00     0.261 C 
BRANCH   5   6
ATOM      6  O   UNL A   1      34.386  23.341  23.831  1.00  0.00    -0.459 OA
BRANCH   6   7
ATOM      7  C   UNL A   1      33.276  22.595  23.680  1.00  0.00     0.368 C 
ATOM      8  O   UNL A   1      33.057  21.990  22.630  1.00  0.00    -0.245 OA
BRANCH   7   9
ATOM      9  C   UNL A   1      32.297  22.530  24.933  1.00  0.00     0.197 C 
ATOM     10  C   UNL A   1      32.796  23.050  26.299  1.00  0.00     0.081 C 
ATOM     11  C   UNL A   1      30.885  23.232  24.867  1.00  0.00     0.068 C 
ATOM     12  C   UNL A   1      31.585  22.936  27.230  1.00  0.00     0.008 C 
ATOM     13  C   UNL A   1      30.354  22.961  26.315  1.00  0.00     0.011 C 
BRANCH   9  14
ATOM     14  N   UNL A   1      32.029  21.033  25.098  1.00  0.00    -0.332 N 
ATOM     15  H   UNL A   1      31.291  20.911  25.792  1.00  0.00     0.347 HD
ATOM     16  H   UNL A   1      31.758  20.670  24.184  1.00  0.00     0.347 HD
BRANCH  14  17
ATOM     17  C   UNL A   1      33.216  20.275  25.539  1.00  0.00     0.257 C 
ATOM     18  C   UNL A   1      33.449  19.050  24.671  1.00  0.00     0.071 C 
ENDBRANCH  14  17
ENDBRANCH   9  14
BRANCH  11  19
ATOM     19  C   UNL A   1      30.712  24.776  24.679  1.00  0.00     0.072 C 
BRANCH  19  20
ATOM     20  C   UNL A   1      31.226  25.478  23.418  1.00  0.00     0.262 C 
BRANCH  20  21
ATOM     21  N   UNL A   1      32.397  26.341  23.636  1.00  0.00    -0.335 N 
ATOM     22  C   UNL A   1      32.412  27.456  22.671  1.00  0.00     0.262 C 
ATOM     23  C   UNL A   1      32.360  26.868  25.010  1.00  0.00     0.265 C 
ATOM     24  H   UNL A   1      33.243  25.790  23.497  1.00  0.00     0.348 HD
ATOM     25  C   UNL A   1      33.625  28.358  22.894  1.00  0.00     0.062 C 
ATOM     26  C   UNL A   1      33.593  27.721  25.328  1.00  0.00     0.044 C 
ATOM     27  C   UNL A   1      33.683  28.879  24.327  1.00  0.00     0.015 C 
BRANCH  26  28
ATOM     28  C   UNL A   1      33.669  28.205  26.796  1.00  0.00     0.006 C 
ATOM     29  C   UNL A   1      32.348  28.427  27.519  1.00  0.00     0.004 C 
ENDBRANCH  26  28
ENDBRANCH  20  21
ENDBRANCH  19  20
ENDBRANCH  11  19
ENDBRANCH   7   9
ENDBRANCH   6   7
ENDBRANCH   5   6
ENDBRANCH   4   5
ENDBRANCH   3   4
ENDBRANCH   2   3
ENDBRANCH   1   2
BRANCH   1  30
ATOM     30  O   UNL A   1      41.030  21.789  26.400  1.00  0.00    -0.377 OA
BRANCH  30  31
ATOM     31  C   UNL A   1      41.418  20.509  26.851  1.00  0.00     0.188 C 
BRANCH  31  32
ATOM     32  C   UNL A   1      42.218  19.731  25.795  1.00  0.00     0.188 C 
BRANCH  32  33
ATOM     33  O   UNL A   1      43.628  19.877  25.957  1.00  0.00    -0.376 OA
BRANCH  33  34
ATOM     34  C   UNL A   1      44.251  20.904  25.192  1.00  0.00     0.202 C 
BRANCH  34  35
ATOM     35  C   UNL A   1      44.575  22.239  25.889  1.00  0.00     0.261 C 
BRANCH  35  36
ATOM     36  O   UNL A   1      43.628  23.311  25.718  1.00  0.00    -0.460 OA
BRANCH  36  37
ATOM     37  C   UNL A   1      44.091  24.569  25.587  1.00  0.00     0.338 C 
ATOM     38  O   UNL A   1      44.770  25.025  24.685  1.00  0.00    -0.246 OA
BRANCH  37  39
ATOM     39  C   UNL A   1      43.489  25.375  26.669  1.00  0.00     0.060 A 
ATOM     40  C   UNL A   1      43.903  26.701  26.854  1.00  0.00     0.016 A 
ATOM     41  C   UNL A   1      42.501  24.823  27.485  1.00  0.00     0.016 A 
ATOM     42  C   UNL A   1      43.320  27.483  27.853  1.00  0.00     0.010 A 
ATOM     43  C   UNL A   1      41.945  25.595  28.508  1.00  0.00     0.010 A 
ATOM     44  C   UNL A   1      42.360  26.923  28.706  1.00  0.00    -0.014 A 
BRANCH  44  45
ATOM     45  C   UNL A   1      41.874  27.679  29.886  1.00  0.00     0.031 A 
ATOM     46  C   UNL A   1      40.647  28.528  29.750  1.00  0.00     0.074 A 
ATOM     47  C   UNL A   1      42.532  27.642  31.057  1.00  0.00     0.049 A 
ATOM     48  N   UNL A   1      40.099  29.326  30.627  1.00  0.00    -0.248 NA
ATOM     49  C   UNL A   1      39.961  28.486  28.450  1.00  0.00     0.031 C 
ATOM     50  C   UNL A   1      43.738  26.864  31.309  1.00  0.00     0.029 A 
ATOM     51  N   UNL A   1      42.284  28.279  32.249  1.00  0.00    -0.354 N 
ATOM     52  C   UNL A   1      39.023  29.912  29.976  1.00  0.00     0.074 A 
ATOM     53  C   UNL A   1      38.993  29.372  28.632  1.00  0.00     0.031 C 
ATOM     54  C   UNL A   1      44.114  27.062  32.583  1.00  0.00     0.029 A 
ATOM     55  C   UNL A   1      43.203  27.993  33.230  1.00  0.00     0.049 A 
ATOM     56  H   UNL A   1      41.521  28.884  32.389  1.00  0.00     0.167 HD
ATOM     57  C   UNL A   1      38.154  30.831  30.455  1.00  0.00     0.037 A 
ATOM     58  C   UNL A   1      43.317  28.433  34.499  1.00  0.00     0.037 A 
ATOM     59  C   UNL A   1      38.185  31.365  31.790  1.00  0.00     0.049 A 
ATOM     60  C   UNL A   1      42.340  29.459  34.999  1.00  0.00     0.074 A 
ATOM     61  C   UNL A   1      37.316  32.272  32.371  1.00  0.00     0.029 A 
ATOM     62  N   UNL A   1      39.140  31.057  32.747  1.00  0.00    -0.354 N 
ATOM     63  N   UNL A   1      41.301  29.974  34.388  1.00  0.00    -0.248 NA
ATOM     64  C   UNL A   1      42.566  29.990  36.352  1.00  0.00     0.031 C 
ATOM     65  C   UNL A   1      37.777  32.558  33.659  1.00  0.00     0.029 A 
ATOM     66  C   UNL A   1      38.902  31.787  33.901  1.00  0.00     0.049 A 
ATOM     67  H   UNL A   1      39.877  30.416  32.625  1.00  0.00     0.167 HD
ATOM     68  C   UNL A   1      40.756  30.891  35.275  1.00  0.00     0.074 A 
ATOM     69  C   UNL A   1      41.549  30.828  36.485  1.00  0.00     0.031 C 
ATOM     70  C   UNL A   1      39.706  31.726  35.094  1.00  0.00     0.037 A 
BRANCH  57  71
ATOM     71  C   UNL A   1      37.117  31.356  29.510  1.00  0.00     0.057 A 
ATOM     72  C   UNL A   1      37.234  32.609  28.898  1.00  0.00     0.134 A 
ATOM     73  C   UNL A   1      36.011  30.567  29.168  1.00  0.00     0.134 A 
ATOM     74  F   UNL A   1      38.259  33.420  29.199  1.00  0.00    -0.206 F 
ATOM     75  C   UNL A   1      36.282  33.063  27.984  1.00  0.00     0.040 A 
ATOM     76  C   UNL A   1      35.067  30.998  28.238  1.00  0.00     0.040 A 
ATOM     77  F   UNL A   1      35.841  29.356  29.723  1.00  0.00    -0.206 F 
ATOM     78  C   UNL A   1      35.201  32.252  27.643  1.00  0.00     0.006 A 
ENDBRANCH  57  71
BRANCH  58  79
ATOM     79  C   UNL A   1      44.402  27.939  35.391  1.00  0.00     0.057 A 
ATOM     80  C   UNL A   1      45.638  28.598  35.457  1.00  0.00     0.134 A 
ATOM     81  C   UNL A   1      44.257  26.779  36.161  1.00  0.00     0.134 A 
ATOM     82  F   UNL A   1      45.855  29.698  34.721  1.00  0.00    -0.206 F 
ATOM     83  C   UNL A   1      46.692  28.110  36.233  1.00  0.00     0.040 A 
ATOM     84  C   UNL A   1      45.292  26.297  36.967  1.00  0.00     0.040 A 
ATOM     85  F   UNL A   1      43.100  26.100  36.154  1.00  0.00    -0.206 F 
ATOM     86  C   UNL A   1      46.517  26.959  36.996  1.00  0.00     0.006 A 
ENDBRANCH  58  79
BRANCH  70  87
ATOM     87  C   UNL A   1      39.362  32.645  36.228  1.00  0.00     0.057 A 
ATOM     88  C   UNL A   1      38.413  32.292  37.196  1.00  0.00     0.134 A 
ATOM     89  C   UNL A   1      40.007  33.879  36.373  1.00  0.00     0.134 A 
ATOM     90  F   UNL A   1      37.748  31.130  37.104  1.00  0.00    -0.206 F 
ATOM     91  C   UNL A   1      38.103  33.143  38.257  1.00  0.00     0.040 A 
ATOM     92  C   UNL A   1      39.726  34.726  37.445  1.00  0.00     0.040 A 
ATOM     93  F   UNL A   1      40.930  34.275  35.483  1.00  0.00    -0.206 F 
ATOM     94  C   UNL A   1      38.767  34.362  38.388  1.00  0.00     0.006 A 
ENDBRANCH  70  87
ENDBRANCH  44  45
ENDBRANCH  37  39
ENDBRANCH  36  37
ENDBRANCH  35  36
ENDBRANCH  34  35
ENDBRANCH  33  34
ENDBRANCH  32  33
ENDBRANCH  31  32
ENDBRANCH  30  31
ENDBRANCH   1  30
TORSDOF 26
ENDMDL
MODEL 2
REMARK VINA RESULT:      -8.0      2.146      3.140
REMARK SMILES CC[NH2+][C@]1(C(=O)OCCOCCOCCOCCOC(=O)c2ccc(-c3c4nc(c(-c5c(F)cccc5F)c5ccc([nH]5)c(-c5c(F)cccc5F)c5nc(c(-c6c(F)cccc6F)c6ccc3[nH]6)C=C5)C=C4)cc2)CCC[C@H]1CC[N@H+]1CCC[C@@H](CC)C1
REMARK SMILES IDX 12 1 11 2 10 3 9 4 8 5 7 6 5 7 6 8 4 9 76 10 79 11 77 12
REMARK SMILES IDX 78 13 3 14 2 17 1 18 80 19 81 20 82 21 83 22 89 23 84 25
REMARK SMILES IDX 86 26 85 27 87 28 88 29 13 30 14 31 15 32 16 33 17 34 18 35
REMARK SMILES IDX 19 36 20 37 21 38 22 39 23 40 75 41 24 42 74 43 25 44 26 45
REMARK SMILES IDX 27 46 68 47 28 48 73 49 67 50 69 51 29 52 72 53 66 54 65 55
REMARK SMILES IDX 30 57 56 58 39 59 55 60 40 61 43 62 54 63 70 64 41 65 42 66
REMARK SMILES IDX 53 68 71 69 44 70 31 71 32 72 37 73 33 74 34 75 36 76 38 77
REMARK SMILES IDX 35 78 57 79 58 80 63 81 59 82 60 83 62 84 64 85 61 86 45 87
REMARK SMILES IDX 46 88 51 89 47 90 48 91 50 92 52 93 49 94
REMARK H PARENT 3 15 3 16 82 24 69 56 43 67
REMARK Flexibility Score: inf
ROOT
ATOM      1  C   UNL A   1      40.284  21.353  26.742  1.00  0.00     0.188 C 
ENDROOT
BRANCH   1   2
ATOM      2  C   UNL A   1      39.009  20.770  26.093  1.00  0.00     0.188 C 
BRANCH   2   3
ATOM      3  O   UNL A   1      38.441  21.581  25.085  1.00  0.00    -0.376 OA
BRANCH   3   4
ATOM      4  C   UNL A   1      37.085  21.967  25.136  1.00  0.00     0.202 C 
BRANCH   4   5
ATOM      5  C   UNL A   1      36.429  22.705  23.967  1.00  0.00     0.261 C 
BRANCH   5   6
ATOM      6  O   UNL A   1      35.313  23.549  24.297  1.00  0.00    -0.459 OA
BRANCH   6   7
ATOM      7  C   UNL A   1      34.096  23.134  23.900  1.00  0.00     0.368 C 
ATOM      8  O   UNL A   1      33.823  23.022  22.705  1.00  0.00    -0.245 OA
BRANCH   7   9
ATOM      9  C   UNL A   1      33.062  22.781  25.058  1.00  0.00     0.197 C 
ATOM     10  C   UNL A   1      33.231  23.451  26.440  1.00  0.00     0.081 C 
ATOM     11  C   UNL A   1      31.516  23.003  24.827  1.00  0.00     0.068 C 
ATOM     12  C   UNL A   1      32.025  22.976  27.257  1.00  0.00     0.008 C 
ATOM     13  C   UNL A   1      30.949  22.599  26.230  1.00  0.00     0.011 C 
BRANCH   9  14
ATOM     14  N   UNL A   1      33.258  21.278  25.266  1.00  0.00    -0.332 N 
ATOM     15  H   UNL A   1      34.242  21.056  25.113  1.00  0.00     0.347 HD
ATOM     16  H   UNL A   1      32.960  21.062  26.217  1.00  0.00     0.347 HD
BRANCH  14  17
ATOM     17  C   UNL A   1      32.444  20.455  24.351  1.00  0.00     0.257 C 
ATOM     18  C   UNL A   1      33.005  19.049  24.219  1.00  0.00     0.071 C 
ENDBRANCH  14  17
ENDBRANCH   9  14
BRANCH  11  19
ATOM     19  C   UNL A   1      30.891  24.412  24.554  1.00  0.00     0.072 C 
BRANCH  19  20
ATOM     20  C   UNL A   1      30.849  24.992  23.137  1.00  0.00     0.262 C 
BRANCH  20  21
ATOM     21  N   UNL A   1      30.935  26.458  23.076  1.00  0.00    -0.335 N 
ATOM     22  C   UNL A   1      29.691  27.076  23.571  1.00  0.00     0.262 C 
ATOM     23  C   UNL A   1      32.075  26.910  23.890  1.00  0.00     0.265 C 
ATOM     24  H   UNL A   1      31.066  26.741  22.105  1.00  0.00     0.348 HD
ATOM     25  C   UNL A   1      29.775  28.601  23.512  1.00  0.00     0.062 C 
ATOM     26  C   UNL A   1      32.267  28.429  23.812  1.00  0.00     0.044 C 
ATOM     27  C   UNL A   1      30.985  29.127  24.279  1.00  0.00     0.015 C 
BRANCH  26  28
ATOM     28  C   UNL A   1      33.522  28.950  24.552  1.00  0.00     0.006 C 
ATOM     29  C   UNL A   1      33.973  28.171  25.779  1.00  0.00     0.004 C 
ENDBRANCH  26  28
ENDBRANCH  20  21
ENDBRANCH  19  20
ENDBRANCH  11  19
ENDBRANCH   7   9
ENDBRANCH   6   7
ENDBRANCH   5   6
ENDBRANCH   4   5
ENDBRANCH   3   4
ENDBRANCH   2   3
ENDBRANCH   1   2
BRANCH   1  30
ATOM     30  O   UNL A   1      41.600  20.842  26.591  1.00  0.00    -0.377 OA
BRANCH  30  31
ATOM     31  C   UNL A   1      41.911  19.605  27.195  1.00  0.00     0.188 C 
BRANCH  31  32
ATOM     32  C   UNL A   1      42.278  18.524  26.167  1.00  0.00     0.188 C 
BRANCH  32  33
ATOM     33  O   UNL A   1      43.689  18.370  26.014  1.00  0.00    -0.376 OA
BRANCH  33  34
ATOM     34  C   UNL A   1      44.251  18.858  24.800  1.00  0.00     0.202 C 
BRANCH  34  35
ATOM     35  C   UNL A   1      44.908  20.251  24.808  1.00  0.00     0.261 C 
BRANCH  35  36
ATOM     36  O   UNL A   1      44.025  21.388  24.866  1.00  0.00    -0.460 OA
BRANCH  36  37
ATOM     37  C   UNL A   1      44.514  22.605  24.557  1.00  0.00     0.338 C 
ATOM     38  O   UNL A   1      44.964  22.979  23.489  1.00  0.00    -0.246 OA
BRANCH  37  39
ATOM     39  C   UNL A   1      44.262  23.489  25.713  1.00  0.00     0.060 A 
ATOM     40  C   UNL A   1      44.486  24.866  25.590  1.00  0.00     0.016 A 
ATOM     41  C   UNL A   1      43.784  22.954  26.910  1.00  0.00     0.016 A 
ATOM     42  C   UNL A   1      44.221  25.716  26.666  1.00  0.00     0.010 A 
ATOM     43  C   UNL A   1      43.556  23.801  27.997  1.00  0.00     0.010 A 
ATOM     44  C   UNL A   1      43.785  25.183  27.886  1.00  0.00    -0.014 A 
BRANCH  44  45
ATOM     45  C   UNL A   1      43.684  26.046  29.087  1.00  0.00     0.031 A 
ATOM     46  C   UNL A   1      42.418  26.807  29.331  1.00  0.00     0.074 A 
ATOM     47  C   UNL A   1      44.717  26.182  29.936  1.00  0.00     0.049 A 
ATOM     48  N   UNL A   1      42.147  27.673  30.271  1.00  0.00    -0.248 NA
ATOM     49  C   UNL A   1      41.320  26.577  28.380  1.00  0.00     0.031 C 
ATOM     50  C   UNL A   1      46.000  25.504  29.802  1.00  0.00     0.029 A 
ATOM     51  N   UNL A   1      44.854  26.942  31.074  1.00  0.00    -0.354 N 
ATOM     52  C   UNL A   1      40.861  28.121  30.006  1.00  0.00     0.074 A 
ATOM     53  C   UNL A   1      40.404  27.426  28.821  1.00  0.00     0.031 C 
ATOM     54  C   UNL A   1      46.785  25.871  30.828  1.00  0.00     0.029 A 
ATOM     55  C   UNL A   1      46.083  26.822  31.674  1.00  0.00     0.049 A 
ATOM     56  H   UNL A   1      44.137  27.518  31.426  1.00  0.00     0.167 HD
ATOM     57  C   UNL A   1      40.139  29.043  30.683  1.00  0.00     0.037 A 
ATOM     58  C   UNL A   1      46.602  27.414  32.769  1.00  0.00     0.037 A 
ATOM     59  C   UNL A   1      40.595  29.732  31.861  1.00  0.00     0.049 A 
ATOM     60  C   UNL A   1      45.777  28.439  33.495  1.00  0.00     0.074 A 
ATOM     61  C   UNL A   1      39.911  30.654  32.634  1.00  0.00     0.029 A 
ATOM     62  N   UNL A   1      41.852  29.590  32.428  1.00  0.00    -0.354 N 
ATOM     63  N   UNL A   1      44.546  28.823  33.260  1.00  0.00    -0.248 NA
ATOM     64  C   UNL A   1      46.421  29.137  34.618  1.00  0.00     0.031 C 
ATOM     65  C   UNL A   1      40.773  31.114  33.633  1.00  0.00     0.029 A 
ATOM     66  C   UNL A   1      41.976  30.437  33.518  1.00  0.00     0.049 A 
ATOM     67  H   UNL A   1      42.553  28.978  32.105  1.00  0.00     0.167 HD
ATOM     68  C   UNL A   1      44.272  29.808  34.197  1.00  0.00     0.074 A 
ATOM     69  C   UNL A   1      45.446  29.930  35.036  1.00  0.00     0.031 C 
ATOM     70  C   UNL A   1      43.154  30.560  34.336  1.00  0.00     0.037 A 
BRANCH  57  71
ATOM     71  C   UNL A   1      38.790  29.398  30.138  1.00  0.00     0.057 A 
ATOM     72  C   UNL A   1      37.605  28.964  30.744  1.00  0.00     0.134 A 
ATOM     73  C   UNL A   1      38.680  30.233  29.019  1.00  0.00     0.134 A 
ATOM     74  F   UNL A   1      37.644  28.146  31.806  1.00  0.00    -0.206 F 
ATOM     75  C   UNL A   1      36.356  29.343  30.249  1.00  0.00     0.040 A 
ATOM     76  C   UNL A   1      37.439  30.638  28.531  1.00  0.00     0.040 A 
ATOM     77  F   UNL A   1      39.780  30.680  28.392  1.00  0.00    -0.206 F 
ATOM     78  C   UNL A   1      36.271  30.191  29.146  1.00  0.00     0.006 A 
ENDBRANCH  57  71
BRANCH  58  79
ATOM     79  C   UNL A   1      47.974  27.086  33.246  1.00  0.00     0.057 A 
ATOM     80  C   UNL A   1      49.089  27.794  32.776  1.00  0.00     0.134 A 
ATOM     81  C   UNL A   1      48.217  26.036  34.139  1.00  0.00     0.134 A 
ATOM     82  F   UNL A   1      48.930  28.793  31.895  1.00  0.00    -0.206 F 
ATOM     83  C   UNL A   1      50.389  27.456  33.157  1.00  0.00     0.040 A 
ATOM     84  C   UNL A   1      49.509  25.707  34.553  1.00  0.00     0.040 A 
ATOM     85  F   UNL A   1      47.197  25.319  34.636  1.00  0.00    -0.206 F 
ATOM     86  C   UNL A   1      50.601  26.413  34.053  1.00  0.00     0.006 A 
ENDBRANCH  58  79
BRANCH  70  87
ATOM     87  C   UNL A   1      43.154  31.587  35.429  1.00  0.00     0.057 A 
ATOM     88  C   UNL A   1      43.578  32.902  35.199  1.00  0.00     0.134 A 
ATOM     89  C   UNL A   1      42.697  31.269  36.714  1.00  0.00     0.134 A 
ATOM     90  F   UNL A   1      44.044  33.266  33.994  1.00  0.00    -0.206 F 
ATOM     91  C   UNL A   1      43.568  33.859  36.214  1.00  0.00     0.040 A 
ATOM     92  C   UNL A   1      42.654  32.225  37.729  1.00  0.00     0.040 A 
ATOM     93  F   UNL A   1      42.271  30.029  36.998  1.00  0.00    -0.206 F 
ATOM     94  C   UNL A   1      43.096  33.523  37.482  1.00  0.00     0.006 A 
ENDBRANCH  70  87
ENDBRANCH  44  45
ENDBRANCH  37  39
ENDBRANCH  36  37
ENDBRANCH  35  36
ENDBRANCH  34  35
ENDBRANCH  33  34
ENDBRANCH  32  33
ENDBRANCH  31  32
ENDBRANCH  30  31
ENDBRANCH   1  30
TORSDOF 26
ENDMDL
MODEL 3
REMARK VINA RESULT:      -7.7      4.733     10.745
REMARK SMILES CC[NH2+][C@]1(C(=O)OCCOCCOCCOCCOC(=O)c2ccc(-c3c4nc(c(-c5c(F)cccc5F)c5ccc([nH]5)c(-c5c(F)cccc5F)c5nc(c(-c6c(F)cccc6F)c6ccc3[nH]6)C=C5)C=C4)cc2)CCC[C@H]1CC[N@H+]1CCC[C@@H](CC)C1
REMARK SMILES IDX 12 1 11 2 10 3 9 4 8 5 7 6 5 7 6 8 4 9 76 10 79 11 77 12
REMARK SMILES IDX 78 13 3 14 2 17 1 18 80 19 81 20 82 21 83 22 89 23 84 25
REMARK SMILES IDX 86 26 85 27 87 28 88 29 13 30 14 31 15 32 16 33 17 34 18 35
REMARK SMILES IDX 19 36 20 37 21 38 22 39 23 40 75 41 24 42 74 43 25 44 26 45
REMARK SMILES IDX 27 46 68 47 28 48 73 49 67 50 69 51 29 52 72 53 66 54 65 55
REMARK SMILES IDX 30 57 56 58 39 59 55 60 40 61 43 62 54 63 70 64 41 65 42 66
REMARK SMILES IDX 53 68 71 69 44 70 31 71 32 72 37 73 33 74 34 75 36 76 38 77
REMARK SMILES IDX 35 78 57 79 58 80 63 81 59 82 60 83 62 84 64 85 61 86 45 87
REMARK SMILES IDX 46 88 51 89 47 90 48 91 50 92 52 93 49 94
REMARK H PARENT 3 15 3 16 82 24 69 56 43 67
REMARK Flexibility Score: inf
ROOT
ATOM      1  C   UNL A   1      38.912  29.652  29.551  1.00  0.00     0.188 C 
ENDROOT
BRANCH   1   2
ATOM      2  C   UNL A   1      39.995  28.587  29.264  1.00  0.00     0.188 C 
BRANCH   2   3
ATOM      3  O   UNL A   1      40.958  28.975  28.305  1.00  0.00    -0.376 OA
BRANCH   3   4
ATOM      4  C   UNL A   1      42.232  28.372  28.266  1.00  0.00     0.202 C 
BRANCH   4   5
ATOM      5  C   UNL A   1      43.187  28.617  27.094  1.00  0.00     0.261 C 
BRANCH   5   6
ATOM      6  O   UNL A   1      43.882  27.464  26.591  1.00  0.00    -0.459 OA
BRANCH   6   7
ATOM      7  C   UNL A   1      43.198  26.652  25.764  1.00  0.00     0.368 C 
ATOM      8  O   UNL A   1      42.675  27.089  24.738  1.00  0.00    -0.245 OA
BRANCH   7   9
ATOM      9  C   UNL A   1      43.133  25.117  26.179  1.00  0.00     0.197 C 
ATOM     10  C   UNL A   1      43.476  24.722  27.633  1.00  0.00     0.081 C 
ATOM     11  C   UNL A   1      41.797  24.302  25.976  1.00  0.00     0.068 C 
ATOM     12  C   UNL A   1      43.210  23.215  27.703  1.00  0.00     0.008 C 
ATOM     13  C   UNL A   1      42.202  22.917  26.585  1.00  0.00     0.011 C 
BRANCH   9  14
ATOM     14  N   UNL A   1      44.183  24.460  25.280  1.00  0.00    -0.332 N 
ATOM     15  H   UNL A   1      44.258  23.476  25.538  1.00  0.00     0.347 HD
ATOM     16  H   UNL A   1      43.874  24.580  24.316  1.00  0.00     0.347 HD
BRANCH  14  17
ATOM     17  C   UNL A   1      45.517  25.079  25.397  1.00  0.00     0.257 C 
ATOM     18  C   UNL A   1      46.583  24.238  24.716  1.00  0.00     0.071 C 
ENDBRANCH  14  17
ENDBRANCH   9  14
BRANCH  11  19
ATOM     19  C   UNL A   1      40.461  24.665  26.706  1.00  0.00     0.072 C 
BRANCH  19  20
ATOM     20  C   UNL A   1      39.412  23.590  27.008  1.00  0.00     0.262 C 
BRANCH  20  21
ATOM     21  N   UNL A   1      38.517  23.280  25.883  1.00  0.00    -0.335 N 
ATOM     22  C   UNL A   1      38.353  21.823  25.732  1.00  0.00     0.262 C 
ATOM     23  C   UNL A   1      37.207  23.909  26.120  1.00  0.00     0.265 C 
ATOM     24  H   UNL A   1      38.928  23.644  25.024  1.00  0.00     0.348 HD
ATOM     25  C   UNL A   1      37.422  21.494  24.565  1.00  0.00     0.062 C 
ATOM     26  C   UNL A   1      36.245  23.685  24.947  1.00  0.00     0.044 C 
ATOM     27  C   UNL A   1      36.067  22.180  24.717  1.00  0.00     0.015 C 
BRANCH  26  28
ATOM     28  C   UNL A   1      34.893  24.423  25.085  1.00  0.00     0.006 C 
ATOM     29  C   UNL A   1      33.893  23.852  26.082  1.00  0.00     0.004 C 
ENDBRANCH  26  28
ENDBRANCH  20  21
ENDBRANCH  19  20
ENDBRANCH  11  19
ENDBRANCH   7   9
ENDBRANCH   6   7
ENDBRANCH   5   6
ENDBRANCH   4   5
ENDBRANCH   3   4
ENDBRANCH   2   3
ENDBRANCH   1   2
BRANCH   1  30
ATOM     30  O   UNL A   1      37.928  30.102  28.633  1.00  0.00    -0.377 OA
BRANCH  30  31
ATOM     31  C   UNL A   1      36.571  30.023  29.016  1.00  0.00     0.188 C 
BRANCH  31  32
ATOM     32  C   UNL A   1      36.312  30.644  30.396  1.00  0.00     0.188 C 
BRANCH  32  33
ATOM     33  O   UNL A   1      35.774  31.963  30.312  1.00  0.00    -0.376 OA
BRANCH  33  34
ATOM     34  C   UNL A   1      35.056  32.428  31.451  1.00  0.00     0.202 C 
BRANCH  34  35
ATOM     35  C   UNL A   1      35.858  33.003  32.634  1.00  0.00     0.261 C 
BRANCH  35  36
ATOM     36  O   UNL A   1      35.993  32.165  33.798  1.00  0.00    -0.460 OA
BRANCH  36  37
ATOM     37  C   UNL A   1      36.991  32.420  34.667  1.00  0.00     0.338 C 
ATOM     38  O   UNL A   1      36.908  32.916  35.776  1.00  0.00    -0.246 OA
BRANCH  37  39
ATOM     39  C   UNL A   1      38.226  31.835  34.105  1.00  0.00     0.060 A 
ATOM     40  C   UNL A   1      39.449  32.488  34.297  1.00  0.00     0.016 A 
ATOM     41  C   UNL A   1      38.170  30.628  33.406  1.00  0.00     0.016 A 
ATOM     42  C   UNL A   1      40.627  31.929  33.798  1.00  0.00     0.010 A 
ATOM     43  C   UNL A   1      39.345  30.088  32.875  1.00  0.00     0.010 A 
ATOM     44  C   UNL A   1      40.576  30.741  33.056  1.00  0.00    -0.014 A 
BRANCH  44  45
ATOM     45  C   UNL A   1      41.786  30.240  32.361  1.00  0.00     0.031 A 
ATOM     46  C   UNL A   1      42.415  28.963  32.826  1.00  0.00     0.074 A 
ATOM     47  C   UNL A   1      42.343  30.927  31.349  1.00  0.00     0.049 A 
ATOM     48  N   UNL A   1      43.513  28.389  32.413  1.00  0.00    -0.248 NA
ATOM     49  C   UNL A   1      41.725  28.250  33.912  1.00  0.00     0.031 C 
ATOM     50  C   UNL A   1      41.831  32.181  30.814  1.00  0.00     0.029 A 
ATOM     51  N   UNL A   1      43.465  30.670  30.596  1.00  0.00    -0.354 N 
ATOM     52  C   UNL A   1      43.671  27.266  33.212  1.00  0.00     0.074 A 
ATOM     53  C   UNL A   1      42.551  27.236  34.129  1.00  0.00     0.031 C 
ATOM     54  C   UNL A   1      42.633  32.575  29.810  1.00  0.00     0.029 A 
ATOM     55  C   UNL A   1      43.723  31.626  29.645  1.00  0.00     0.049 A 
ATOM     56  H   UNL A   1      44.031  29.875  30.727  1.00  0.00     0.167 HD
ATOM     57  C   UNL A   1      44.671  26.355  33.190  1.00  0.00     0.037 A 
ATOM     58  C   UNL A   1      44.722  31.745  28.749  1.00  0.00     0.037 A 
ATOM     59  C   UNL A   1      45.782  26.386  32.277  1.00  0.00     0.049 A 
ATOM     60  C   UNL A   1      45.823  30.721  28.754  1.00  0.00     0.074 A 
ATOM     61  C   UNL A   1      46.821  25.479  32.159  1.00  0.00     0.029 A 
ATOM     62  N   UNL A   1      46.010  27.380  31.337  1.00  0.00    -0.354 N 
ATOM     63  N   UNL A   1      45.938  29.639  29.486  1.00  0.00    -0.248 NA
ATOM     64  C   UNL A   1      46.947  30.947  27.834  1.00  0.00     0.031 C 
ATOM     65  C   UNL A   1      47.709  25.953  31.190  1.00  0.00     0.029 A 
ATOM     66  C   UNL A   1      47.195  27.127  30.663  1.00  0.00     0.049 A 
ATOM     67  H   UNL A   1      45.420  28.150  31.173  1.00  0.00     0.167 HD
ATOM     68  C   UNL A   1      47.146  29.063  29.121  1.00  0.00     0.074 A 
ATOM     69  C   UNL A   1      47.704  29.886  28.069  1.00  0.00     0.031 C 
ATOM     70  C   UNL A   1      47.748  27.961  29.628  1.00  0.00     0.037 A 
BRANCH  57  71
ATOM     71  C   UNL A   1      44.634  25.267  34.218  1.00  0.00     0.057 A 
ATOM     72  C   UNL A   1      44.142  23.988  33.932  1.00  0.00     0.134 A 
ATOM     73  C   UNL A   1      45.153  25.492  35.500  1.00  0.00     0.134 A 
ATOM     74  F   UNL A   1      43.613  23.716  32.730  1.00  0.00    -0.206 F 
ATOM     75  C   UNL A   1      44.159  22.973  34.889  1.00  0.00     0.040 A 
ATOM     76  C   UNL A   1      45.198  24.478  36.455  1.00  0.00     0.040 A 
ATOM     77  F   UNL A   1      45.638  26.697  35.837  1.00  0.00    -0.206 F 
ATOM     78  C   UNL A   1      44.698  23.214  36.152  1.00  0.00     0.006 A 
ENDBRANCH  57  71
BRANCH  58  79
ATOM     79  C   UNL A   1      44.763  32.878  27.783  1.00  0.00     0.057 A 
ATOM     80  C   UNL A   1      45.359  34.098  28.128  1.00  0.00     0.134 A 
ATOM     81  C   UNL A   1      44.171  32.793  26.517  1.00  0.00     0.134 A 
ATOM     82  F   UNL A   1      45.918  34.257  29.337  1.00  0.00    -0.206 F 
ATOM     83  C   UNL A   1      45.345  35.195  27.263  1.00  0.00     0.040 A 
ATOM     84  C   UNL A   1      44.176  33.871  25.630  1.00  0.00     0.040 A 
ATOM     85  F   UNL A   1      43.587  31.653  26.116  1.00  0.00    -0.206 F 
ATOM     86  C   UNL A   1      44.756  35.080  26.007  1.00  0.00     0.006 A 
ENDBRANCH  58  79
BRANCH  70  87
ATOM     87  C   UNL A   1      49.084  27.590  29.057  1.00  0.00     0.057 A 
ATOM     88  C   UNL A   1      49.196  26.817  27.895  1.00  0.00     0.134 A 
ATOM     89  C   UNL A   1      50.269  28.037  29.654  1.00  0.00     0.134 A 
ATOM     90  F   UNL A   1      48.098  26.344  27.284  1.00  0.00    -0.206 F 
ATOM     91  C   UNL A   1      50.440  26.482  27.359  1.00  0.00     0.040 A 
ATOM     92  C   UNL A   1      51.518  27.734  29.112  1.00  0.00     0.040 A 
ATOM     93  F   UNL A   1      50.232  28.787  30.767  1.00  0.00    -0.206 F 
ATOM     94  C   UNL A   1      51.606  26.949  27.964  1.00  0.00     0.006 A 
ENDBRANCH  70  87
ENDBRANCH  44  45
ENDBRANCH  37  39
ENDBRANCH  36  37
ENDBRANCH  35  36
ENDBRANCH  34  35
ENDBRANCH  33  34
ENDBRANCH  32  33
ENDBRANCH  31  32
ENDBRANCH  30  31
ENDBRANCH   1  30
TORSDOF 26
ENDMDL
