MODEL 1
REMARK VINA RESULT:      -9.8      0.000      0.000
REMARK SMILES COc1ccc(N2C(=O)/C(=C\c3ccc(-c4ccc(Cl)c(C(=O)OCCOCCOCCOCCOC(=O)c5ccc(-c6c7nc(c(-c8c(F)cccc8F)c8ccc([nH]8)c(-c8c(F)cccc8F)c8nc(c(-c9c(F)cccc9F)c9ccc6[nH]9)C=C8)C=C7)cc5)c4)o3)SC2=S)cc1
REMARK SMILES IDX 29 1 28 2 27 3 26 4 25 5 24 6 22 7 23 8 21 9 16 10 17 11
REMARK SMILES IDX 93 12 18 13 19 14 20 15 15 16 12 17 13 18 94 19 14 20 11 21
REMARK SMILES IDX 7 22 8 23 96 24 9 25 10 26 95 27 97 28 6 29 3 30 4 31 99 32
REMARK SMILES IDX 5 33 98 34 2 35 1 36 30 37 31 38 32 39 33 40 34 41 35 42
REMARK SMILES IDX 36 43 37 44 38 45 39 46 40 47 92 48 41 49 91 50 42 51 43 52
REMARK SMILES IDX 44 53 85 54 45 55 90 56 84 57 86 58 46 59 89 60 83 61 82 62
REMARK SMILES IDX 47 64 73 65 56 66 72 67 57 68 60 69 71 70 87 71 58 72 59 73
REMARK SMILES IDX 70 75 88 76 61 77 48 78 49 79 54 80 50 81 51 82 53 83 55 84
REMARK SMILES IDX 52 85 74 86 75 87 80 88 76 89 77 90 79 91 81 92 78 93 62 94
REMARK SMILES IDX 63 95 68 96 64 97 65 98 67 99 69 100 66 101
REMARK H PARENT 86 63 60 74
REMARK Flexibility Score: inf
ROOT
ATOM      1  C   UNL A   1      39.906  30.500  29.905  1.00  0.00     0.188 C 
ENDROOT
BRANCH   1   2
ATOM      2  C   UNL A   1      40.028  31.889  30.552  1.00  0.00     0.188 C 
BRANCH   2   3
ATOM      3  O   UNL A   1      39.309  32.026  31.776  1.00  0.00    -0.376 OA
BRANCH   3   4
ATOM      4  C   UNL A   1      39.302  33.333  32.340  1.00  0.00     0.202 C 
BRANCH   4   5
ATOM      5  C   UNL A   1      38.185  33.549  33.362  1.00  0.00     0.261 C 
BRANCH   5   6
ATOM      6  O   UNL A   1      36.977  34.064  32.784  1.00  0.00    -0.460 OA
BRANCH   6   7
ATOM      7  C   UNL A   1      35.853  33.319  32.897  1.00  0.00     0.339 C 
ATOM      8  O   UNL A   1      35.546  32.603  33.830  1.00  0.00    -0.246 OA
BRANCH   7   9
ATOM      9  C   UNL A   1      35.027  33.629  31.708  1.00  0.00     0.079 A 
ATOM     10  C   UNL A   1      34.312  32.939  29.475  1.00  0.00     0.018 A 
ATOM     11  C   UNL A   1      33.711  34.190  29.301  1.00  0.00     0.013 A 
ATOM     12  C   UNL A   1      34.972  32.673  30.680  1.00  0.00     0.029 A 
ATOM     13  C   UNL A   1      33.745  35.142  30.328  1.00  0.00     0.022 A 
ATOM     14  C   UNL A   1      34.392  34.863  31.537  1.00  0.00     0.055 A 
ATOM     15  Cl  UNL A   1      34.423  36.114  32.726  1.00  0.00    -0.083 Cl
BRANCH  10  16
ATOM     16  C   UNL A   1      34.229  31.896  28.464  1.00  0.00     0.134 A 
ATOM     17  C   UNL A   1      33.206  30.763  26.855  1.00  0.00     0.128 A 
ATOM     18  C   UNL A   1      34.449  30.177  27.066  1.00  0.00     0.051 A 
ATOM     19  O   UNL A   1      33.098  31.842  27.704  1.00  0.00    -0.457 OA
ATOM     20  C   UNL A   1      35.095  30.893  28.092  1.00  0.00     0.051 A 
BRANCH  17  21
ATOM     21  C   UNL A   1      32.204  30.377  25.926  1.00  0.00     0.068 C 
ATOM     22  N   UNL A   1      32.484  26.794  25.271  1.00  0.00    -0.261 N 
ATOM     23  C   UNL A   1      32.704  27.892  26.099  1.00  0.00     0.270 C 
ATOM     24  C   UNL A   1      31.627  26.990  24.199  1.00  0.00     0.152 C 
ATOM     25  O   UNL A   1      33.354  27.903  27.136  1.00  0.00    -0.268 OA
ATOM     26  C   UNL A   1      32.037  29.104  25.539  1.00  0.00     0.084 C 
ATOM     27  S   UNL A   1      31.034  28.656  24.212  1.00  0.00    -0.054 SA
ATOM     28  S   UNL A   1      31.070  25.902  23.058  1.00  0.00    -0.051 S 
BRANCH  22  29
ATOM     29  C   UNL A   1      33.124  25.560  25.586  1.00  0.00     0.051 A 
ATOM     30  C   UNL A   1      34.409  23.169  26.343  1.00  0.00     0.119 A 
ATOM     31  C   UNL A   1      33.087  23.408  26.713  1.00  0.00     0.048 A 
ATOM     32  C   UNL A   1      35.085  24.117  25.576  1.00  0.00     0.048 A 
ATOM     33  C   UNL A   1      32.455  24.601  26.358  1.00  0.00     0.030 A 
ATOM     34  C   UNL A   1      34.444  25.304  25.194  1.00  0.00     0.030 A 
BRANCH  30  35
ATOM     35  O   UNL A   1      34.919  21.970  26.756  1.00  0.00    -0.497 OA
ATOM     36  C   UNL A   1      35.697  21.265  25.796  1.00  0.00     0.278 C 
ENDBRANCH  30  35
ENDBRANCH  22  29
ENDBRANCH  17  21
ENDBRANCH  10  16
ENDBRANCH   7   9
ENDBRANCH   6   7
ENDBRANCH   5   6
ENDBRANCH   4   5
ENDBRANCH   3   4
ENDBRANCH   2   3
ENDBRANCH   1   2
BRANCH   1  37
ATOM     37  O   UNL A   1      41.032  29.644  29.994  1.00  0.00    -0.377 OA
BRANCH  37  38
ATOM     38  C   UNL A   1      41.126  28.520  29.124  1.00  0.00     0.188 C 
BRANCH  38  39
ATOM     39  C   UNL A   1      40.889  28.633  27.603  1.00  0.00     0.188 C 
BRANCH  39  40
ATOM     40  O   UNL A   1      40.306  27.486  26.998  1.00  0.00    -0.376 OA
BRANCH  40  41
ATOM     41  C   UNL A   1      39.548  26.639  27.850  1.00  0.00     0.202 C 
BRANCH  41  42
ATOM     42  C   UNL A   1      40.033  25.187  27.844  1.00  0.00     0.261 C 
BRANCH  42  43
ATOM     43  O   UNL A   1      40.694  24.787  26.632  1.00  0.00    -0.460 OA
BRANCH  43  44
ATOM     44  C   UNL A   1      41.822  24.057  26.766  1.00  0.00     0.338 C 
ATOM     45  O   UNL A   1      41.919  22.846  26.838  1.00  0.00    -0.246 OA
BRANCH  44  46
ATOM     46  C   UNL A   1      42.968  24.975  26.641  1.00  0.00     0.060 A 
ATOM     47  C   UNL A   1      43.653  25.361  27.798  1.00  0.00     0.016 A 
ATOM     48  C   UNL A   1      43.354  25.452  25.386  1.00  0.00     0.016 A 
ATOM     49  C   UNL A   1      44.711  26.265  27.706  1.00  0.00     0.010 A 
ATOM     50  C   UNL A   1      44.402  26.368  25.298  1.00  0.00     0.010 A 
ATOM     51  C   UNL A   1      45.061  26.804  26.460  1.00  0.00    -0.014 A 
BRANCH  51  52
ATOM     52  C   UNL A   1      45.980  27.963  26.391  1.00  0.00     0.031 A 
ATOM     53  C   UNL A   1      47.451  27.695  26.242  1.00  0.00     0.074 A 
ATOM     54  C   UNL A   1      45.521  29.225  26.462  1.00  0.00     0.049 A 
ATOM     55  N   UNL A   1      48.448  28.540  26.198  1.00  0.00    -0.248 NA
ATOM     56  C   UNL A   1      47.852  26.282  26.132  1.00  0.00     0.031 C 
ATOM     57  C   UNL A   1      44.117  29.611  26.591  1.00  0.00     0.029 A 
ATOM     58  N   UNL A   1      46.200  30.416  26.450  1.00  0.00    -0.354 N 
ATOM     59  C   UNL A   1      49.592  27.763  26.059  1.00  0.00     0.074 A 
ATOM     60  C   UNL A   1      49.171  26.380  26.053  1.00  0.00     0.031 C 
ATOM     61  C   UNL A   1      44.041  30.951  26.664  1.00  0.00     0.029 A 
ATOM     62  C   UNL A   1      45.391  31.513  26.610  1.00  0.00     0.049 A 
ATOM     63  H   UNL A   1      47.176  30.479  26.336  1.00  0.00     0.167 HD
ATOM     64  C   UNL A   1      50.878  28.167  25.940  1.00  0.00     0.037 A 
ATOM     65  C   UNL A   1      45.709  32.817  26.720  1.00  0.00     0.037 A 
ATOM     66  C   UNL A   1      51.297  29.543  25.946  1.00  0.00     0.049 A 
ATOM     67  C   UNL A   1      47.154  33.237  26.634  1.00  0.00     0.074 A 
ATOM     68  C   UNL A   1      52.575  30.054  25.798  1.00  0.00     0.029 A 
ATOM     69  N   UNL A   1      50.449  30.624  26.118  1.00  0.00    -0.354 N 
ATOM     70  N   UNL A   1      48.222  32.499  26.452  1.00  0.00    -0.248 NA
ATOM     71  C   UNL A   1      47.436  34.675  26.762  1.00  0.00     0.031 C 
ATOM     72  C   UNL A   1      52.505  31.444  25.926  1.00  0.00     0.029 A 
ATOM     73  C   UNL A   1      51.178  31.800  26.106  1.00  0.00     0.049 A 
ATOM     74  H   UNL A   1      49.472  30.565  26.231  1.00  0.00     0.167 HD
ATOM     75  C   UNL A   1      49.295  33.382  26.417  1.00  0.00     0.074 A 
ATOM     76  C   UNL A   1      48.749  34.711  26.583  1.00  0.00     0.031 C 
ATOM     77  C   UNL A   1      50.616  33.117  26.262  1.00  0.00     0.037 A 
BRANCH  64  78
ATOM     78  C   UNL A   1      51.926  27.106  25.813  1.00  0.00     0.057 A 
ATOM     79  C   UNL A   1      52.564  26.559  26.932  1.00  0.00     0.134 A 
ATOM     80  C   UNL A   1      52.270  26.595  24.555  1.00  0.00     0.134 A 
ATOM     81  F   UNL A   1      52.291  27.019  28.163  1.00  0.00    -0.206 F 
ATOM     82  C   UNL A   1      53.519  25.549  26.805  1.00  0.00     0.040 A 
ATOM     83  C   UNL A   1      53.207  25.570  24.417  1.00  0.00     0.040 A 
ATOM     84  F   UNL A   1      51.695  27.077  23.442  1.00  0.00    -0.206 F 
ATOM     85  C   UNL A   1      53.836  25.045  25.545  1.00  0.00     0.006 A 
ENDBRANCH  64  78
BRANCH  65  86
ATOM     86  C   UNL A   1      44.647  33.831  26.944  1.00  0.00     0.057 A 
ATOM     87  C   UNL A   1      44.259  34.205  28.236  1.00  0.00     0.134 A 
ATOM     88  C   UNL A   1      43.961  34.412  25.871  1.00  0.00     0.134 A 
ATOM     89  F   UNL A   1      44.860  33.663  29.305  1.00  0.00    -0.206 F 
ATOM     90  C   UNL A   1      43.212  35.103  28.454  1.00  0.00     0.040 A 
ATOM     91  C   UNL A   1      42.929  35.329  26.073  1.00  0.00     0.040 A 
ATOM     92  F   UNL A   1      44.283  34.094  24.609  1.00  0.00    -0.206 F 
ATOM     93  C   UNL A   1      42.545  35.669  27.369  1.00  0.00     0.006 A 
ENDBRANCH  65  86
BRANCH  77  94
ATOM     94  C   UNL A   1      51.556  34.286  26.230  1.00  0.00     0.057 A 
ATOM     95  C   UNL A   1      51.901  34.926  25.034  1.00  0.00     0.134 A 
ATOM     96  C   UNL A   1      52.088  34.804  27.418  1.00  0.00     0.134 A 
ATOM     97  F   UNL A   1      51.433  34.471  23.861  1.00  0.00    -0.206 F 
ATOM     98  C   UNL A   1      52.758  36.027  25.017  1.00  0.00     0.040 A 
ATOM     99  C   UNL A   1      52.926  35.919  27.418  1.00  0.00     0.040 A 
ATOM    100  F   UNL A   1      51.789  34.244  28.601  1.00  0.00    -0.206 F 
ATOM    101  C   UNL A   1      53.268  36.530  26.213  1.00  0.00     0.006 A 
ENDBRANCH  77  94
ENDBRANCH  51  52
ENDBRANCH  44  46
ENDBRANCH  43  44
ENDBRANCH  42  43
ENDBRANCH  41  42
ENDBRANCH  40  41
ENDBRANCH  39  40
ENDBRANCH  38  39
ENDBRANCH  37  38
ENDBRANCH   1  37
TORSDOF 24
ENDMDL
MODEL 2
REMARK VINA RESULT:      -9.7      2.854      8.677
REMARK SMILES COc1ccc(N2C(=O)/C(=C\c3ccc(-c4ccc(Cl)c(C(=O)OCCOCCOCCOCCOC(=O)c5ccc(-c6c7nc(c(-c8c(F)cccc8F)c8ccc([nH]8)c(-c8c(F)cccc8F)c8nc(c(-c9c(F)cccc9F)c9ccc6[nH]9)C=C8)C=C7)cc5)c4)o3)SC2=S)cc1
REMARK SMILES IDX 29 1 28 2 27 3 26 4 25 5 24 6 22 7 23 8 21 9 16 10 17 11
REMARK SMILES IDX 93 12 18 13 19 14 20 15 15 16 12 17 13 18 94 19 14 20 11 21
REMARK SMILES IDX 7 22 8 23 96 24 9 25 10 26 95 27 97 28 6 29 3 30 4 31 99 32
REMARK SMILES IDX 5 33 98 34 2 35 1 36 30 37 31 38 32 39 33 40 34 41 35 42
REMARK SMILES IDX 36 43 37 44 38 45 39 46 40 47 92 48 41 49 91 50 42 51 43 52
REMARK SMILES IDX 44 53 85 54 45 55 90 56 84 57 86 58 46 59 89 60 83 61 82 62
REMARK SMILES IDX 47 64 73 65 56 66 72 67 57 68 60 69 71 70 87 71 58 72 59 73
REMARK SMILES IDX 70 75 88 76 61 77 48 78 49 79 54 80 50 81 51 82 53 83 55 84
REMARK SMILES IDX 52 85 74 86 75 87 80 88 76 89 77 90 79 91 81 92 78 93 62 94
REMARK SMILES IDX 63 95 68 96 64 97 65 98 67 99 69 100 66 101
REMARK H PARENT 86 63 60 74
REMARK Flexibility Score: inf
ROOT
ATOM      1  C   UNL A   1      34.543  23.106  24.905  1.00  0.00     0.188 C 
ENDROOT
BRANCH   1   2
ATOM      2  C   UNL A   1      34.952  23.170  23.424  1.00  0.00     0.188 C 
BRANCH   2   3
ATOM      3  O   UNL A   1      34.702  24.431  22.806  1.00  0.00    -0.376 OA
BRANCH   3   4
ATOM      4  C   UNL A   1      33.391  24.954  22.990  1.00  0.00     0.202 C 
BRANCH   4   5
ATOM      5  C   UNL A   1      33.239  26.398  22.509  1.00  0.00     0.261 C 
BRANCH   5   6
ATOM      6  O   UNL A   1      31.932  26.941  22.744  1.00  0.00    -0.460 OA
BRANCH   6   7
ATOM      7  C   UNL A   1      31.845  28.235  23.131  1.00  0.00     0.339 C 
ATOM      8  O   UNL A   1      31.604  29.192  22.420  1.00  0.00    -0.246 OA
BRANCH   7   9
ATOM      9  C   UNL A   1      31.996  28.241  24.604  1.00  0.00     0.079 A 
ATOM     10  C   UNL A   1      33.348  28.928  26.521  1.00  0.00     0.018 A 
ATOM     11  C   UNL A   1      32.548  28.131  27.346  1.00  0.00     0.013 A 
ATOM     12  C   UNL A   1      33.065  28.968  25.150  1.00  0.00     0.029 A 
ATOM     13  C   UNL A   1      31.468  27.417  26.813  1.00  0.00     0.022 A 
ATOM     14  C   UNL A   1      31.181  27.476  25.444  1.00  0.00     0.055 A 
ATOM     15  Cl  UNL A   1      29.860  26.526  24.870  1.00  0.00    -0.083 Cl
BRANCH  10  16
ATOM     16  C   UNL A   1      34.428  29.746  27.049  1.00  0.00     0.134 A 
ATOM     17  C   UNL A   1      36.506  30.090  27.742  1.00  0.00     0.128 A 
ATOM     18  C   UNL A   1      35.801  31.277  27.903  1.00  0.00     0.051 A 
ATOM     19  O   UNL A   1      35.654  29.164  27.185  1.00  0.00    -0.457 OA
ATOM     20  C   UNL A   1      34.481  31.056  27.469  1.00  0.00     0.051 A 
BRANCH  17  21
ATOM     21  C   UNL A   1      37.868  29.833  28.053  1.00  0.00     0.068 C 
ATOM     22  N   UNL A   1      38.579  31.024  31.432  1.00  0.00    -0.261 N 
ATOM     23  C   UNL A   1      37.673  30.571  30.476  1.00  0.00     0.270 C 
ATOM     24  C   UNL A   1      39.923  30.866  31.134  1.00  0.00     0.152 C 
ATOM     25  O   UNL A   1      36.454  30.542  30.584  1.00  0.00    -0.268 OA
ATOM     26  C   UNL A   1      38.397  30.120  29.251  1.00  0.00     0.084 C 
ATOM     27  S   UNL A   1      40.092  30.089  29.555  1.00  0.00    -0.054 SA
ATOM     28  S   UNL A   1      41.274  31.209  32.058  1.00  0.00    -0.051 S 
BRANCH  22  29
ATOM     29  C   UNL A   1      38.074  31.589  32.640  1.00  0.00     0.051 A 
ATOM     30  C   UNL A   1      37.189  32.795  35.028  1.00  0.00     0.119 A 
ATOM     31  C   UNL A   1      36.999  33.432  33.803  1.00  0.00     0.048 A 
ATOM     32  C   UNL A   1      37.805  31.544  35.060  1.00  0.00     0.048 A 
ATOM     33  C   UNL A   1      37.457  32.846  32.621  1.00  0.00     0.030 A 
ATOM     34  C   UNL A   1      38.239  30.940  33.871  1.00  0.00     0.030 A 
BRANCH  30  35
ATOM     35  O   UNL A   1      36.706  33.470  36.113  1.00  0.00    -0.497 OA
ATOM     36  C   UNL A   1      37.309  33.149  37.361  1.00  0.00     0.278 C 
ENDBRANCH  30  35
ENDBRANCH  22  29
ENDBRANCH  17  21
ENDBRANCH  10  16
ENDBRANCH   7   9
ENDBRANCH   6   7
ENDBRANCH   5   6
ENDBRANCH   4   5
ENDBRANCH   3   4
ENDBRANCH   2   3
ENDBRANCH   1   2
BRANCH   1  37
ATOM     37  O   UNL A   1      35.312  22.270  25.752  1.00  0.00    -0.377 OA
BRANCH  37  38
ATOM     38  C   UNL A   1      36.195  21.312  25.176  1.00  0.00     0.188 C 
BRANCH  38  39
ATOM     39  C   UNL A   1      37.730  21.436  25.284  1.00  0.00     0.188 C 
BRANCH  39  40
ATOM     40  O   UNL A   1      38.205  22.727  25.643  1.00  0.00    -0.376 OA
BRANCH  40  41
ATOM     41  C   UNL A   1      39.121  22.784  26.728  1.00  0.00     0.202 C 
BRANCH  41  42
ATOM     42  C   UNL A   1      40.531  22.321  26.350  1.00  0.00     0.261 C 
BRANCH  42  43
ATOM     43  O   UNL A   1      41.517  23.366  26.346  1.00  0.00    -0.460 OA
BRANCH  43  44
ATOM     44  C   UNL A   1      42.191  23.570  27.499  1.00  0.00     0.338 C 
ATOM     45  O   UNL A   1      42.228  22.848  28.477  1.00  0.00    -0.246 OA
BRANCH  44  46
ATOM     46  C   UNL A   1      43.036  24.764  27.318  1.00  0.00     0.060 A 
ATOM     47  C   UNL A   1      43.648  24.976  26.077  1.00  0.00     0.016 A 
ATOM     48  C   UNL A   1      43.223  25.661  28.372  1.00  0.00     0.016 A 
ATOM     49  C   UNL A   1      44.488  26.075  25.900  1.00  0.00     0.010 A 
ATOM     50  C   UNL A   1      44.076  26.751  28.197  1.00  0.00     0.010 A 
ATOM     51  C   UNL A   1      44.738  26.942  26.973  1.00  0.00    -0.014 A 
BRANCH  51  52
ATOM     52  C   UNL A   1      45.836  27.931  26.879  1.00  0.00     0.031 A 
ATOM     53  C   UNL A   1      45.478  29.391  26.878  1.00  0.00     0.074 A 
ATOM     54  C   UNL A   1      47.121  27.545  26.794  1.00  0.00     0.049 A 
ATOM     55  N   UNL A   1      46.257  30.436  26.767  1.00  0.00    -0.248 NA
ATOM     56  C   UNL A   1      44.048  29.715  27.016  1.00  0.00     0.031 C 
ATOM     57  C   UNL A   1      47.593  26.161  26.801  1.00  0.00     0.029 A 
ATOM     58  N   UNL A   1      48.264  28.292  26.669  1.00  0.00    -0.354 N 
ATOM     59  C   UNL A   1      45.413  31.539  26.819  1.00  0.00     0.074 A 
ATOM     60  C   UNL A   1      44.062  31.038  26.943  1.00  0.00     0.031 C 
ATOM     61  C   UNL A   1      48.931  26.159  26.667  1.00  0.00     0.029 A 
ATOM     62  C   UNL A   1      49.404  27.538  26.542  1.00  0.00     0.049 A 
ATOM     63  H   UNL A   1      48.267  29.276  26.670  1.00  0.00     0.167 HD
ATOM     64  C   UNL A   1      45.736  32.852  26.773  1.00  0.00     0.037 A 
ATOM     65  C   UNL A   1      50.678  27.920  26.330  1.00  0.00     0.037 A 
ATOM     66  C   UNL A   1      47.079  33.351  26.650  1.00  0.00     0.049 A 
ATOM     67  C   UNL A   1      51.005  29.388  26.234  1.00  0.00     0.074 A 
ATOM     68  C   UNL A   1      47.510  34.666  26.628  1.00  0.00     0.029 A 
ATOM     69  N   UNL A   1      48.205  32.556  26.517  1.00  0.00    -0.354 N 
ATOM     70  N   UNL A   1      50.207  30.423  26.334  1.00  0.00    -0.248 NA
ATOM     71  C   UNL A   1      52.414  29.741  26.000  1.00  0.00     0.031 C 
ATOM     72  C   UNL A   1      48.895  34.666  26.437  1.00  0.00     0.029 A 
ATOM     73  C   UNL A   1      49.330  33.351  26.386  1.00  0.00     0.049 A 
ATOM     74  H   UNL A   1      48.206  31.571  26.516  1.00  0.00     0.167 HD
ATOM     75  C   UNL A   1      51.017  31.545  26.204  1.00  0.00     0.074 A 
ATOM     76  C   UNL A   1      52.371  31.065  26.031  1.00  0.00     0.031 C 
ATOM     77  C   UNL A   1      50.672  32.856  26.225  1.00  0.00     0.037 A 
BRANCH  64  78
ATOM     78  C   UNL A   1      44.614  33.842  26.839  1.00  0.00     0.057 A 
ATOM     79  C   UNL A   1      43.909  34.237  25.696  1.00  0.00     0.134 A 
ATOM     80  C   UNL A   1      44.206  34.373  28.069  1.00  0.00     0.134 A 
ATOM     81  F   UNL A   1      44.263  33.777  24.486  1.00  0.00    -0.206 F 
ATOM     82  C   UNL A   1      42.846  35.138  25.771  1.00  0.00     0.040 A 
ATOM     83  C   UNL A   1      43.131  35.257  28.160  1.00  0.00     0.040 A 
ATOM     84  F   UNL A   1      44.841  34.034  29.202  1.00  0.00    -0.206 F 
ATOM     85  C   UNL A   1      42.448  35.643  27.007  1.00  0.00     0.006 A 
ENDBRANCH  64  78
BRANCH  65  86
ATOM     86  C   UNL A   1      51.749  26.903  26.172  1.00  0.00     0.057 A 
ATOM     87  C   UNL A   1      52.534  26.499  27.258  1.00  0.00     0.134 A 
ATOM     88  C   UNL A   1      52.044  26.350  24.920  1.00  0.00     0.134 A 
ATOM     89  F   UNL A   1      52.318  27.013  28.477  1.00  0.00    -0.206 F 
ATOM     90  C   UNL A   1      53.590  25.598  27.100  1.00  0.00     0.040 A 
ATOM     91  C   UNL A   1      53.080  25.430  24.753  1.00  0.00     0.040 A 
ATOM     92  F   UNL A   1      51.330  26.697  23.840  1.00  0.00    -0.206 F 
ATOM     93  C   UNL A   1      53.864  25.059  25.845  1.00  0.00     0.006 A 
ENDBRANCH  65  86
BRANCH  77  94
ATOM     94  C   UNL A   1      51.777  33.863  26.092  1.00  0.00     0.057 A 
ATOM     95  C   UNL A   1      52.441  34.385  27.208  1.00  0.00     0.134 A 
ATOM     96  C   UNL A   1      52.209  34.282  24.827  1.00  0.00     0.134 A 
ATOM     97  F   UNL A   1      52.067  34.032  28.448  1.00  0.00    -0.206 F 
ATOM     98  C   UNL A   1      53.483  35.304  27.073  1.00  0.00     0.040 A 
ATOM     99  C   UNL A   1      53.266  35.181  24.677  1.00  0.00     0.040 A 
ATOM    100  F   UNL A   1      51.622  33.812  23.715  1.00  0.00    -0.206 F 
ATOM    101  C   UNL A   1      53.902  35.699  25.803  1.00  0.00     0.006 A 
ENDBRANCH  77  94
ENDBRANCH  51  52
ENDBRANCH  44  46
ENDBRANCH  43  44
ENDBRANCH  42  43
ENDBRANCH  41  42
ENDBRANCH  40  41
ENDBRANCH  39  40
ENDBRANCH  38  39
ENDBRANCH  37  38
ENDBRANCH   1  37
TORSDOF 24
ENDMDL
MODEL 3
REMARK VINA RESULT:      -9.6      1.073      5.731
REMARK SMILES COc1ccc(N2C(=O)/C(=C\c3ccc(-c4ccc(Cl)c(C(=O)OCCOCCOCCOCCOC(=O)c5ccc(-c6c7nc(c(-c8c(F)cccc8F)c8ccc([nH]8)c(-c8c(F)cccc8F)c8nc(c(-c9c(F)cccc9F)c9ccc6[nH]9)C=C8)C=C7)cc5)c4)o3)SC2=S)cc1
REMARK SMILES IDX 29 1 28 2 27 3 26 4 25 5 24 6 22 7 23 8 21 9 16 10 17 11
REMARK SMILES IDX 93 12 18 13 19 14 20 15 15 16 12 17 13 18 94 19 14 20 11 21
REMARK SMILES IDX 7 22 8 23 96 24 9 25 10 26 95 27 97 28 6 29 3 30 4 31 99 32
REMARK SMILES IDX 5 33 98 34 2 35 1 36 30 37 31 38 32 39 33 40 34 41 35 42
REMARK SMILES IDX 36 43 37 44 38 45 39 46 40 47 92 48 41 49 91 50 42 51 43 52
REMARK SMILES IDX 44 53 85 54 45 55 90 56 84 57 86 58 46 59 89 60 83 61 82 62
REMARK SMILES IDX 47 64 73 65 56 66 72 67 57 68 60 69 71 70 87 71 58 72 59 73
REMARK SMILES IDX 70 75 88 76 61 77 48 78 49 79 54 80 50 81 51 82 53 83 55 84
REMARK SMILES IDX 52 85 74 86 75 87 80 88 76 89 77 90 79 91 81 92 78 93 62 94
REMARK SMILES IDX 63 95 68 96 64 97 65 98 67 99 69 100 66 101
REMARK H PARENT 86 63 60 74
REMARK Flexibility Score: inf
ROOT
ATOM      1  C   UNL A   1      40.715  30.068  29.228  1.00  0.00     0.188 C 
ENDROOT
BRANCH   1   2
ATOM      2  C   UNL A   1      41.194  31.163  30.194  1.00  0.00     0.188 C 
BRANCH   2   3
ATOM      3  O   UNL A   1      40.706  31.017  31.527  1.00  0.00    -0.376 OA
BRANCH   3   4
ATOM      4  C   UNL A   1      40.643  32.216  32.291  1.00  0.00     0.202 C 
BRANCH   4   5
ATOM      5  C   UNL A   1      40.194  31.993  33.736  1.00  0.00     0.261 C 
BRANCH   5   6
ATOM      6  O   UNL A   1      38.793  32.230  33.939  1.00  0.00    -0.460 OA
BRANCH   6   7
ATOM      7  C   UNL A   1      37.937  31.212  33.691  1.00  0.00     0.339 C 
ATOM      8  O   UNL A   1      38.041  30.063  34.076  1.00  0.00    -0.246 OA
BRANCH   7   9
ATOM      9  C   UNL A   1      36.798  31.797  32.947  1.00  0.00     0.079 A 
ATOM     10  C   UNL A   1      35.601  31.947  30.821  1.00  0.00     0.018 A 
ATOM     11  C   UNL A   1      34.844  33.000  31.344  1.00  0.00     0.013 A 
ATOM     12  C   UNL A   1      36.580  31.359  31.631  1.00  0.00     0.029 A 
ATOM     13  C   UNL A   1      35.042  33.432  32.662  1.00  0.00     0.022 A 
ATOM     14  C   UNL A   1      36.011  32.827  33.471  1.00  0.00     0.055 A 
ATOM     15  Cl  UNL A   1      36.216  33.457  35.064  1.00  0.00    -0.083 Cl
BRANCH  10  16
ATOM     16  C   UNL A   1      35.369  31.417  29.486  1.00  0.00     0.134 A 
ATOM     17  C   UNL A   1      34.125  31.016  27.695  1.00  0.00     0.128 A 
ATOM     18  C   UNL A   1      35.376  30.449  27.482  1.00  0.00     0.051 A 
ATOM     19  O   UNL A   1      34.147  31.636  28.923  1.00  0.00    -0.457 OA
ATOM     20  C   UNL A   1      36.163  30.700  28.622  1.00  0.00     0.051 A 
BRANCH  17  21
ATOM     21  C   UNL A   1      33.003  31.009  26.826  1.00  0.00     0.068 C 
ATOM     22  N   UNL A   1      32.505  27.632  25.526  1.00  0.00    -0.261 N 
ATOM     23  C   UNL A   1      33.000  28.488  26.505  1.00  0.00     0.270 C 
ATOM     24  C   UNL A   1      31.632  28.186  24.603  1.00  0.00     0.152 C 
ATOM     25  O   UNL A   1      33.710  28.178  27.453  1.00  0.00    -0.268 OA
ATOM     26  C   UNL A   1      32.555  29.888  26.241  1.00  0.00     0.084 C 
ATOM     27  S   UNL A   1      31.391  29.898  24.971  1.00  0.00    -0.054 SA
ATOM     28  S   UNL A   1      30.787  27.461  23.355  1.00  0.00    -0.051 S 
BRANCH  22  29
ATOM     29  C   UNL A   1      32.903  26.262  25.549  1.00  0.00     0.051 A 
ATOM     30  C   UNL A   1      33.742  23.578  25.728  1.00  0.00     0.119 A 
ATOM     31  C   UNL A   1      32.592  24.004  26.390  1.00  0.00     0.048 A 
ATOM     32  C   UNL A   1      34.464  24.490  24.958  1.00  0.00     0.048 A 
ATOM     33  C   UNL A   1      32.187  25.338  26.321  1.00  0.00     0.030 A 
ATOM     34  C   UNL A   1      34.043  25.825  24.864  1.00  0.00     0.030 A 
BRANCH  30  35
ATOM     35  O   UNL A   1      34.040  22.253  25.877  1.00  0.00    -0.497 OA
ATOM     36  C   UNL A   1      34.908  21.699  24.896  1.00  0.00     0.278 C 
ENDBRANCH  30  35
ENDBRANCH  22  29
ENDBRANCH  17  21
ENDBRANCH  10  16
ENDBRANCH   7   9
ENDBRANCH   6   7
ENDBRANCH   5   6
ENDBRANCH   4   5
ENDBRANCH   3   4
ENDBRANCH   2   3
ENDBRANCH   1   2
BRANCH   1  37
ATOM     37  O   UNL A   1      41.477  28.875  29.173  1.00  0.00    -0.377 OA
BRANCH  37  38
ATOM     38  C   UNL A   1      40.900  27.701  28.610  1.00  0.00     0.188 C 
BRANCH  38  39
ATOM     39  C   UNL A   1      40.426  27.639  27.141  1.00  0.00     0.188 C 
BRANCH  39  40
ATOM     40  O   UNL A   1      40.385  26.334  26.578  1.00  0.00    -0.376 OA
BRANCH  40  41
ATOM     41  C   UNL A   1      39.579  25.379  27.254  1.00  0.00     0.202 C 
BRANCH  41  42
ATOM     42  C   UNL A   1      40.236  24.000  27.355  1.00  0.00     0.261 C 
BRANCH  42  43
ATOM     43  O   UNL A   1      41.095  23.670  26.252  1.00  0.00    -0.460 OA
BRANCH  43  44
ATOM     44  C   UNL A   1      42.360  23.305  26.555  1.00  0.00     0.338 C 
ATOM     45  O   UNL A   1      42.806  22.177  26.651  1.00  0.00    -0.246 OA
BRANCH  44  46
ATOM     46  C   UNL A   1      43.183  24.527  26.586  1.00  0.00     0.060 A 
ATOM     47  C   UNL A   1      43.537  25.134  25.375  1.00  0.00     0.016 A 
ATOM     48  C   UNL A   1      43.606  25.061  27.805  1.00  0.00     0.016 A 
ATOM     49  C   UNL A   1      44.354  26.264  25.381  1.00  0.00     0.010 A 
ATOM     50  C   UNL A   1      44.436  26.182  27.809  1.00  0.00     0.010 A 
ATOM     51  C   UNL A   1      44.840  26.766  26.597  1.00  0.00    -0.014 A 
BRANCH  51  52
ATOM     52  C   UNL A   1      45.923  27.776  26.594  1.00  0.00     0.031 A 
ATOM     53  C   UNL A   1      45.541  29.227  26.693  1.00  0.00     0.074 A 
ATOM     54  C   UNL A   1      47.215  27.417  26.505  1.00  0.00     0.049 A 
ATOM     55  N   UNL A   1      46.304  30.289  26.673  1.00  0.00    -0.248 NA
ATOM     56  C   UNL A   1      44.104  29.518  26.829  1.00  0.00     0.031 C 
ATOM     57  C   UNL A   1      47.710  26.044  26.420  1.00  0.00     0.029 A 
ATOM     58  N   UNL A   1      48.348  28.189  26.455  1.00  0.00    -0.354 N 
ATOM     59  C   UNL A   1      45.441  31.372  26.789  1.00  0.00     0.074 A 
ATOM     60  C   UNL A   1      44.097  30.843  26.852  1.00  0.00     0.031 C 
ATOM     61  C   UNL A   1      49.050  26.072  26.310  1.00  0.00     0.029 A 
ATOM     62  C   UNL A   1      49.502  27.463  26.295  1.00  0.00     0.049 A 
ATOM     63  H   UNL A   1      48.335  29.170  26.528  1.00  0.00     0.167 HD
ATOM     64  C   UNL A   1      45.743  32.689  26.845  1.00  0.00     0.037 A 
ATOM     65  C   UNL A   1      50.773  27.879  26.134  1.00  0.00     0.037 A 
ATOM     66  C   UNL A   1      47.079  33.217  26.782  1.00  0.00     0.049 A 
ATOM     67  C   UNL A   1      51.077  29.355  26.150  1.00  0.00     0.074 A 
ATOM     68  C   UNL A   1      47.489  34.536  26.864  1.00  0.00     0.029 A 
ATOM     69  N   UNL A   1      48.221  32.450  26.612  1.00  0.00    -0.354 N 
ATOM     70  N   UNL A   1      50.260  30.368  26.311  1.00  0.00    -0.248 NA
ATOM     71  C   UNL A   1      52.484  29.746  25.968  1.00  0.00     0.031 C 
ATOM     72  C   UNL A   1      48.877  34.572  26.698  1.00  0.00     0.029 A 
ATOM     73  C   UNL A   1      49.334  33.271  26.560  1.00  0.00     0.049 A 
ATOM     74  H   UNL A   1      48.238  31.469  26.540  1.00  0.00     0.167 HD
ATOM     75  C   UNL A   1      51.054  31.508  26.278  1.00  0.00     0.074 A 
ATOM     76  C   UNL A   1      52.418  31.064  26.094  1.00  0.00     0.031 C 
ATOM     77  C   UNL A   1      50.687  32.809  26.388  1.00  0.00     0.037 A 
BRANCH  64  78
ATOM     78  C   UNL A   1      44.604  33.655  26.962  1.00  0.00     0.057 A 
ATOM     79  C   UNL A   1      44.215  34.192  28.195  1.00  0.00     0.134 A 
ATOM     80  C   UNL A   1      43.916  34.084  25.820  1.00  0.00     0.134 A 
ATOM     81  F   UNL A   1      44.824  33.807  29.327  1.00  0.00    -0.206 F 
ATOM     82  C   UNL A   1      43.171  35.114  28.290  1.00  0.00     0.040 A 
ATOM     83  C   UNL A   1      42.885  35.022  25.900  1.00  0.00     0.040 A 
ATOM     84  F   UNL A   1      44.240  33.606  24.609  1.00  0.00    -0.206 F 
ATOM     85  C   UNL A   1      42.510  35.538  27.139  1.00  0.00     0.006 A 
ENDBRANCH  64  78
BRANCH  65  86
ATOM     86  C   UNL A   1      51.863  26.893  25.922  1.00  0.00     0.057 A 
ATOM     87  C   UNL A   1      52.195  26.440  24.640  1.00  0.00     0.134 A 
ATOM     88  C   UNL A   1      52.563  26.343  27.002  1.00  0.00     0.134 A 
ATOM     89  F   UNL A   1      51.542  26.909  23.567  1.00  0.00    -0.206 F 
ATOM     90  C   UNL A   1      53.169  25.459  24.441  1.00  0.00     0.040 A 
ATOM     91  C   UNL A   1      53.555  25.380  26.816  1.00  0.00     0.040 A 
ATOM     92  F   UNL A   1      52.290  26.732  28.256  1.00  0.00    -0.206 F 
ATOM     93  C   UNL A   1      53.854  24.928  25.532  1.00  0.00     0.006 A 
ENDBRANCH  65  86
BRANCH  77  94
ATOM     94  C   UNL A   1      51.777  33.840  26.348  1.00  0.00     0.057 A 
ATOM     95  C   UNL A   1      52.149  34.478  25.159  1.00  0.00     0.134 A 
ATOM     96  C   UNL A   1      52.432  34.229  27.524  1.00  0.00     0.134 A 
ATOM     97  F   UNL A   1      51.568  34.141  23.997  1.00  0.00    -0.206 F 
ATOM     98  C   UNL A   1      53.149  35.452  25.136  1.00  0.00     0.040 A 
ATOM     99  C   UNL A   1      53.415  35.219  27.518  1.00  0.00     0.040 A 
ATOM    100  F   UNL A   1      52.116  33.665  28.699  1.00  0.00    -0.206 F 
ATOM    101  C   UNL A   1      53.780  35.830  26.320  1.00  0.00     0.006 A 
ENDBRANCH  77  94
ENDBRANCH  51  52
ENDBRANCH  44  46
ENDBRANCH  43  44
ENDBRANCH  42  43
ENDBRANCH  41  42
ENDBRANCH  40  41
ENDBRANCH  39  40
ENDBRANCH  38  39
ENDBRANCH  37  38
ENDBRANCH   1  37
TORSDOF 24
ENDMDL
