MODEL 1
REMARK VINA RESULT:      -8.2      0.000      0.000
REMARK SMILES CC(C)OCCS(=O)(=O)N1CCC[C@H](C(=O)OCCOCCOCCOCCOC(=O)c2ccc(-c3c4nc(c(-c5c(F)cccc5F)c5ccc([nH]5)c(-c5c(F)cccc5F)c5nc(c(-c6c(F)cccc6F)c6ccc3[nH]6)C=C5)C=C4)cc2)C1
REMARK SMILES IDX 21 1 20 2 19 3 18 4 17 5 15 6 16 7 14 8 10 9 11 10 86 11
REMARK SMILES IDX 12 12 13 13 7 14 8 15 9 16 6 17 5 18 4 19 2 20 1 21 3 22
REMARK SMILES IDX 22 23 23 24 24 25 25 26 26 27 27 28 28 29 29 30 30 31 31 32
REMARK SMILES IDX 32 33 33 34 85 35 34 36 84 37 35 38 36 39 37 40 78 41 38 42
REMARK SMILES IDX 83 43 77 44 79 45 39 46 82 47 76 48 75 49 40 51 66 52 49 53
REMARK SMILES IDX 65 54 50 55 53 56 64 57 80 58 51 59 52 60 63 62 81 63 54 64
REMARK SMILES IDX 41 65 42 66 47 67 43 68 44 69 46 70 48 71 45 72 67 73 68 74
REMARK SMILES IDX 73 75 69 76 70 77 72 78 74 79 71 80 55 81 56 82 61 83 57 84
REMARK SMILES IDX 58 85 60 86 62 87 59 88
REMARK H PARENT 79 50 53 61
REMARK Flexibility Score: inf
ROOT
ATOM      1  C   UNL A   1      35.558  29.727  27.626  1.00  0.00     0.188 C 
ENDROOT
BRANCH   1   2
ATOM      2  O   UNL A   1      34.366  30.470  27.694  1.00  0.00    -0.376 OA
BRANCH   2   3
ATOM      3  C   UNL A   1      33.364  30.390  26.698  1.00  0.00     0.202 C 
BRANCH   3   4
ATOM      4  C   UNL A   1      32.148  29.454  26.730  1.00  0.00     0.261 C 
BRANCH   4   5
ATOM      5  O   UNL A   1      32.063  28.418  25.749  1.00  0.00    -0.463 OA
BRANCH   5   6
ATOM      6  C   UNL A   1      31.257  27.385  26.101  1.00  0.00     0.310 C 
ATOM      7  O   UNL A   1      31.065  27.013  27.257  1.00  0.00    -0.252 OA
BRANCH   6   8
ATOM      8  C   UNL A   1      30.765  26.568  24.938  1.00  0.00     0.114 C 
ATOM      9  N   UNL A   1      31.904  25.336  23.102  1.00  0.00    -0.201 NA
ATOM     10  C   UNL A   1      31.486  26.290  22.050  1.00  0.00     0.102 C 
ATOM     11  C   UNL A   1      32.021  25.832  24.480  1.00  0.00     0.117 C 
ATOM     12  C   UNL A   1      30.844  27.554  22.616  1.00  0.00     0.018 C 
ATOM     13  C   UNL A   1      29.975  27.235  23.814  1.00  0.00     0.018 C 
BRANCH   9  14
ATOM     14  S   UNL A   1      32.852  24.011  22.658  1.00  0.00     0.216 S 
ATOM     15  O   UNL A   1      33.454  24.285  21.371  1.00  0.00    -0.212 OA
ATOM     16  O   UNL A   1      32.049  22.822  22.851  1.00  0.00    -0.212 OA
BRANCH  14  17
ATOM     17  C   UNL A   1      34.128  24.028  23.920  1.00  0.00     0.182 C 
BRANCH  17  18
ATOM     18  C   UNL A   1      35.108  22.867  23.815  1.00  0.00     0.178 C 
BRANCH  18  19
ATOM     19  O   UNL A   1      35.754  22.524  25.044  1.00  0.00    -0.378 OA
BRANCH  19  20
ATOM     20  C   UNL A   1      35.203  21.488  25.862  1.00  0.00     0.112 C 
ATOM     21  C   UNL A   1      34.392  21.969  27.068  1.00  0.00     0.038 C 
ATOM     22  C   UNL A   1      34.450  20.490  25.008  1.00  0.00     0.038 C 
ENDBRANCH  19  20
ENDBRANCH  18  19
ENDBRANCH  17  18
ENDBRANCH  14  17
ENDBRANCH   9  14
ENDBRANCH   6   8
ENDBRANCH   5   6
ENDBRANCH   4   5
ENDBRANCH   3   4
ENDBRANCH   2   3
ENDBRANCH   1   2
BRANCH   1  23
ATOM     23  C   UNL A   1      36.821  30.448  28.126  1.00  0.00     0.188 C 
BRANCH  23  24
ATOM     24  O   UNL A   1      38.090  29.842  27.941  1.00  0.00    -0.377 OA
BRANCH  24  25
ATOM     25  C   UNL A   1      38.692  29.056  28.961  1.00  0.00     0.188 C 
BRANCH  25  26
ATOM     26  C   UNL A   1      39.783  28.029  28.610  1.00  0.00     0.188 C 
BRANCH  26  27
ATOM     27  O   UNL A   1      39.343  26.972  27.780  1.00  0.00    -0.376 OA
BRANCH  27  28
ATOM     28  C   UNL A   1      39.273  25.677  28.354  1.00  0.00     0.202 C 
BRANCH  28  29
ATOM     29  C   UNL A   1      39.473  24.473  27.420  1.00  0.00     0.261 C 
BRANCH  29  30
ATOM     30  O   UNL A   1      40.629  24.506  26.561  1.00  0.00    -0.460 OA
BRANCH  30  31
ATOM     31  C   UNL A   1      41.734  23.829  26.950  1.00  0.00     0.338 C 
ATOM     32  O   UNL A   1      41.823  22.652  27.222  1.00  0.00    -0.246 OA
BRANCH  31  33
ATOM     33  C   UNL A   1      42.887  24.746  26.807  1.00  0.00     0.060 A 
ATOM     34  C   UNL A   1      43.558  25.189  27.954  1.00  0.00     0.016 A 
ATOM     35  C   UNL A   1      43.289  25.174  25.542  1.00  0.00     0.016 A 
ATOM     36  C   UNL A   1      44.623  26.083  27.840  1.00  0.00     0.010 A 
ATOM     37  C   UNL A   1      44.337  26.092  25.431  1.00  0.00     0.010 A 
ATOM     38  C   UNL A   1      44.989  26.574  26.582  1.00  0.00    -0.014 A 
BRANCH  38  39
ATOM     39  C   UNL A   1      45.922  27.722  26.482  1.00  0.00     0.031 A 
ATOM     40  C   UNL A   1      47.386  27.439  26.280  1.00  0.00     0.074 A 
ATOM     41  C   UNL A   1      45.479  28.990  26.546  1.00  0.00     0.049 A 
ATOM     42  N   UNL A   1      48.395  28.269  26.238  1.00  0.00    -0.248 NA
ATOM     43  C   UNL A   1      47.760  26.027  26.104  1.00  0.00     0.031 C 
ATOM     44  C   UNL A   1      44.081  29.393  26.684  1.00  0.00     0.029 A 
ATOM     45  N   UNL A   1      46.172  30.176  26.518  1.00  0.00    -0.354 N 
ATOM     46  C   UNL A   1      49.522  27.482  26.042  1.00  0.00     0.074 A 
ATOM     47  C   UNL A   1      49.078  26.106  25.996  1.00  0.00     0.031 C 
ATOM     48  C   UNL A   1      44.020  30.736  26.748  1.00  0.00     0.029 A 
ATOM     49  C   UNL A   1      45.376  31.282  26.695  1.00  0.00     0.049 A 
ATOM     50  H   UNL A   1      47.145  30.229  26.383  1.00  0.00     0.167 HD
ATOM     51  C   UNL A   1      50.812  27.872  25.908  1.00  0.00     0.037 A 
ATOM     52  C   UNL A   1      45.711  32.580  26.833  1.00  0.00     0.037 A 
ATOM     53  C   UNL A   1      51.250  29.241  25.954  1.00  0.00     0.049 A 
ATOM     54  C   UNL A   1      47.165  32.978  26.769  1.00  0.00     0.074 A 
ATOM     55  C   UNL A   1      52.533  29.740  25.810  1.00  0.00     0.029 A 
ATOM     56  N   UNL A   1      50.419  30.330  26.170  1.00  0.00    -0.354 N 
ATOM     57  N   UNL A   1      48.222  32.229  26.558  1.00  0.00    -0.248 NA
ATOM     58  C   UNL A   1      47.471  34.403  26.962  1.00  0.00     0.031 C 
ATOM     59  C   UNL A   1      52.487  31.123  26.002  1.00  0.00     0.029 A 
ATOM     60  C   UNL A   1      51.167  31.495  26.198  1.00  0.00     0.049 A 
ATOM     61  H   UNL A   1      49.442  30.282  26.287  1.00  0.00     0.167 HD
ATOM     62  C   UNL A   1      49.310  33.096  26.561  1.00  0.00     0.074 A 
ATOM     63  C   UNL A   1      48.784  34.427  26.775  1.00  0.00     0.031 C 
ATOM     64  C   UNL A   1      50.627  32.816  26.400  1.00  0.00     0.037 A 
BRANCH  51  65
ATOM     65  C   UNL A   1      51.850  26.803  25.730  1.00  0.00     0.057 A 
ATOM     66  C   UNL A   1      52.267  26.372  24.465  1.00  0.00     0.134 A 
ATOM     67  C   UNL A   1      52.482  26.236  26.845  1.00  0.00     0.134 A 
ATOM     68  F   UNL A   1      51.692  26.862  23.356  1.00  0.00    -0.206 F 
ATOM     69  C   UNL A   1      53.265  25.407  24.315  1.00  0.00     0.040 A 
ATOM     70  C   UNL A   1      53.500  25.292  26.708  1.00  0.00     0.040 A 
ATOM     71  F   UNL A   1      52.132  26.605  28.087  1.00  0.00    -0.206 F 
ATOM     72  C   UNL A   1      53.891  24.872  25.439  1.00  0.00     0.006 A 
ENDBRANCH  51  65
BRANCH  52  73
ATOM     73  C   UNL A   1      44.663  33.606  27.082  1.00  0.00     0.057 A 
ATOM     74  C   UNL A   1      44.176  33.853  28.370  1.00  0.00     0.134 A 
ATOM     75  C   UNL A   1      44.086  34.327  26.028  1.00  0.00     0.134 A 
ATOM     76  F   UNL A   1      44.667  33.178  29.419  1.00  0.00    -0.206 F 
ATOM     77  C   UNL A   1      43.134  34.755  28.599  1.00  0.00     0.040 A 
ATOM     78  C   UNL A   1      43.067  35.256  26.246  1.00  0.00     0.040 A 
ATOM     79  F   UNL A   1      44.505  34.137  24.768  1.00  0.00    -0.206 F 
ATOM     80  C   UNL A   1      42.581  35.463  27.535  1.00  0.00     0.006 A 
ENDBRANCH  52  73
BRANCH  64  81
ATOM     81  C   UNL A   1      51.587  33.972  26.404  1.00  0.00     0.057 A 
ATOM     82  C   UNL A   1      51.926  34.662  25.233  1.00  0.00     0.134 A 
ATOM     83  C   UNL A   1      52.148  34.426  27.605  1.00  0.00     0.134 A 
ATOM     84  F   UNL A   1      51.432  34.274  24.047  1.00  0.00    -0.206 F 
ATOM     85  C   UNL A   1      52.810  35.742  25.253  1.00  0.00     0.040 A 
ATOM     86  C   UNL A   1      53.007  35.525  27.641  1.00  0.00     0.040 A 
ATOM     87  F   UNL A   1      51.857  33.821  28.766  1.00  0.00    -0.206 F 
ATOM     88  C   UNL A   1      53.348  36.181  26.460  1.00  0.00     0.006 A 
ENDBRANCH  64  81
ENDBRANCH  38  39
ENDBRANCH  31  33
ENDBRANCH  30  31
ENDBRANCH  29  30
ENDBRANCH  28  29
ENDBRANCH  27  28
ENDBRANCH  26  27
ENDBRANCH  25  26
ENDBRANCH  24  25
ENDBRANCH  23  24
ENDBRANCH   1  23
TORSDOF 25
ENDMDL
MODEL 2
REMARK VINA RESULT:      -8.0      1.169      2.019
REMARK SMILES CC(C)OCCS(=O)(=O)N1CCC[C@H](C(=O)OCCOCCOCCOCCOC(=O)c2ccc(-c3c4nc(c(-c5c(F)cccc5F)c5ccc([nH]5)c(-c5c(F)cccc5F)c5nc(c(-c6c(F)cccc6F)c6ccc3[nH]6)C=C5)C=C4)cc2)C1
REMARK SMILES IDX 21 1 20 2 19 3 18 4 17 5 15 6 16 7 14 8 10 9 11 10 86 11
REMARK SMILES IDX 12 12 13 13 7 14 8 15 9 16 6 17 5 18 4 19 2 20 1 21 3 22
REMARK SMILES IDX 22 23 23 24 24 25 25 26 26 27 27 28 28 29 29 30 30 31 31 32
REMARK SMILES IDX 32 33 33 34 85 35 34 36 84 37 35 38 36 39 37 40 78 41 38 42
REMARK SMILES IDX 83 43 77 44 79 45 39 46 82 47 76 48 75 49 40 51 66 52 49 53
REMARK SMILES IDX 65 54 50 55 53 56 64 57 80 58 51 59 52 60 63 62 81 63 54 64
REMARK SMILES IDX 41 65 42 66 47 67 43 68 44 69 46 70 48 71 45 72 67 73 68 74
REMARK SMILES IDX 73 75 69 76 70 77 72 78 74 79 71 80 55 81 56 82 61 83 57 84
REMARK SMILES IDX 58 85 60 86 62 87 59 88
REMARK H PARENT 79 50 53 61
REMARK Flexibility Score: inf
ROOT
ATOM      1  C   UNL A   1      38.191  30.105  28.362  1.00  0.00     0.188 C 
ENDROOT
BRANCH   1   2
ATOM      2  O   UNL A   1      36.862  30.475  28.635  1.00  0.00    -0.376 OA
BRANCH   2   3
ATOM      3  C   UNL A   1      35.784  29.566  28.522  1.00  0.00     0.202 C 
BRANCH   3   4
ATOM      4  C   UNL A   1      34.769  29.526  27.371  1.00  0.00     0.261 C 
BRANCH   4   5
ATOM      5  O   UNL A   1      33.693  28.587  27.447  1.00  0.00    -0.463 OA
BRANCH   5   6
ATOM      6  C   UNL A   1      32.565  28.982  26.807  1.00  0.00     0.310 C 
ATOM      7  O   UNL A   1      31.918  29.988  27.090  1.00  0.00    -0.252 OA
BRANCH   6   8
ATOM      8  C   UNL A   1      32.025  27.968  25.835  1.00  0.00     0.114 C 
ATOM      9  N   UNL A   1      32.341  25.516  25.561  1.00  0.00    -0.201 NA
ATOM     10  C   UNL A   1      33.135  25.644  24.316  1.00  0.00     0.102 C 
ATOM     11  C   UNL A   1      32.355  26.638  26.508  1.00  0.00     0.117 C 
ATOM     12  C   UNL A   1      33.527  27.087  24.008  1.00  0.00     0.018 C 
ATOM     13  C   UNL A   1      32.406  28.044  24.359  1.00  0.00     0.018 C 
BRANCH   9  14
ATOM     14  S   UNL A   1      32.047  23.971  26.173  1.00  0.00     0.216 S 
ATOM     15  O   UNL A   1      31.822  23.070  25.064  1.00  0.00    -0.212 OA
ATOM     16  O   UNL A   1      31.054  24.104  27.219  1.00  0.00    -0.212 OA
BRANCH  14  17
ATOM     17  C   UNL A   1      33.616  23.572  26.947  1.00  0.00     0.182 C 
BRANCH  17  18
ATOM     18  C   UNL A   1      34.312  22.366  26.332  1.00  0.00     0.178 C 
BRANCH  18  19
ATOM     19  O   UNL A   1      34.691  22.535  24.963  1.00  0.00    -0.378 OA
BRANCH  19  20
ATOM     20  C   UNL A   1      35.989  22.112  24.537  1.00  0.00     0.112 C 
ATOM     21  C   UNL A   1      37.135  23.067  24.886  1.00  0.00     0.038 C 
ATOM     22  C   UNL A   1      36.252  20.691  24.987  1.00  0.00     0.038 C 
ENDBRANCH  19  20
ENDBRANCH  18  19
ENDBRANCH  17  18
ENDBRANCH  14  17
ENDBRANCH   9  14
ENDBRANCH   6   8
ENDBRANCH   5   6
ENDBRANCH   4   5
ENDBRANCH   3   4
ENDBRANCH   2   3
ENDBRANCH   1   2
BRANCH   1  23
ATOM     23  C   UNL A   1      39.042  29.730  29.586  1.00  0.00     0.188 C 
BRANCH  23  24
ATOM     24  O   UNL A   1      40.434  30.007  29.581  1.00  0.00    -0.377 OA
BRANCH  24  25
ATOM     25  C   UNL A   1      41.388  29.004  29.259  1.00  0.00     0.188 C 
BRANCH  25  26
ATOM     26  C   UNL A   1      41.058  27.922  28.216  1.00  0.00     0.188 C 
BRANCH  26  27
ATOM     27  O   UNL A   1      40.489  26.746  28.756  1.00  0.00    -0.376 OA
BRANCH  27  28
ATOM     28  C   UNL A   1      39.346  26.215  28.104  1.00  0.00     0.202 C 
BRANCH  28  29
ATOM     29  C   UNL A   1      39.442  24.785  27.550  1.00  0.00     0.261 C 
BRANCH  29  30
ATOM     30  O   UNL A   1      40.448  24.546  26.547  1.00  0.00    -0.460 OA
BRANCH  30  31
ATOM     31  C   UNL A   1      41.565  23.874  26.910  1.00  0.00     0.338 C 
ATOM     32  O   UNL A   1      41.669  22.695  27.163  1.00  0.00    -0.246 OA
BRANCH  31  33
ATOM     33  C   UNL A   1      42.707  24.804  26.761  1.00  0.00     0.060 A 
ATOM     34  C   UNL A   1      43.412  25.212  27.902  1.00  0.00     0.016 A 
ATOM     35  C   UNL A   1      43.066  25.279  25.501  1.00  0.00     0.016 A 
ATOM     36  C   UNL A   1      44.467  26.117  27.785  1.00  0.00     0.010 A 
ATOM     37  C   UNL A   1      44.104  26.208  25.388  1.00  0.00     0.010 A 
ATOM     38  C   UNL A   1      44.790  26.654  26.533  1.00  0.00    -0.014 A 
BRANCH  38  39
ATOM     39  C   UNL A   1      45.712  27.812  26.443  1.00  0.00     0.031 A 
ATOM     40  C   UNL A   1      47.184  27.543  26.286  1.00  0.00     0.074 A 
ATOM     41  C   UNL A   1      45.253  29.075  26.478  1.00  0.00     0.049 A 
ATOM     42  N   UNL A   1      48.184  28.384  26.261  1.00  0.00    -0.248 NA
ATOM     43  C   UNL A   1      47.579  26.133  26.140  1.00  0.00     0.031 C 
ATOM     44  C   UNL A   1      43.847  29.464  26.571  1.00  0.00     0.029 A 
ATOM     45  N   UNL A   1      45.932  30.268  26.454  1.00  0.00    -0.354 N 
ATOM     46  C   UNL A   1      49.326  27.608  26.107  1.00  0.00     0.074 A 
ATOM     47  C   UNL A   1      48.898  26.226  26.068  1.00  0.00     0.031 C 
ATOM     48  C   UNL A   1      43.769  30.806  26.616  1.00  0.00     0.029 A 
ATOM     49  C   UNL A   1      45.120  31.367  26.593  1.00  0.00     0.049 A 
ATOM     50  H   UNL A   1      46.908  30.331  26.345  1.00  0.00     0.167 HD
ATOM     51  C   UNL A   1      50.614  28.011  26.003  1.00  0.00     0.037 A 
ATOM     52  C   UNL A   1      45.435  32.671  26.723  1.00  0.00     0.037 A 
ATOM     53  C   UNL A   1      51.035  29.386  26.043  1.00  0.00     0.049 A 
ATOM     54  C   UNL A   1      46.886  33.085  26.693  1.00  0.00     0.074 A 
ATOM     55  C   UNL A   1      52.315  29.899  25.928  1.00  0.00     0.029 A 
ATOM     56  N   UNL A   1      50.186  30.468  26.221  1.00  0.00    -0.354 N 
ATOM     57  N   UNL A   1      47.957  32.346  26.523  1.00  0.00    -0.248 NA
ATOM     58  C   UNL A   1      47.171  34.516  26.875  1.00  0.00     0.031 C 
ATOM     59  C   UNL A   1      52.248  31.283  26.100  1.00  0.00     0.029 A 
ATOM     60  C   UNL A   1      50.919  31.642  26.254  1.00  0.00     0.049 A 
ATOM     61  H   UNL A   1      49.207  30.410  26.311  1.00  0.00     0.167 HD
ATOM     62  C   UNL A   1      49.035  33.225  26.543  1.00  0.00     0.074 A 
ATOM     63  C   UNL A   1      48.488  34.553  26.725  1.00  0.00     0.031 C 
ATOM     64  C   UNL A   1      50.359  32.959  26.423  1.00  0.00     0.037 A 
BRANCH  51  65
ATOM     65  C   UNL A   1      51.669  26.952  25.869  1.00  0.00     0.057 A 
ATOM     66  C   UNL A   1      52.270  26.355  26.984  1.00  0.00     0.134 A 
ATOM     67  C   UNL A   1      52.048  26.485  24.604  1.00  0.00     0.134 A 
ATOM     68  F   UNL A   1      51.964  26.766  28.224  1.00  0.00    -0.206 F 
ATOM     69  C   UNL A   1      53.219  25.340  26.844  1.00  0.00     0.040 A 
ATOM     70  C   UNL A   1      52.974  25.453  24.452  1.00  0.00     0.040 A 
ATOM     71  F   UNL A   1      51.509  27.014  23.494  1.00  0.00    -0.206 F 
ATOM     72  C   UNL A   1      53.565  24.880  25.575  1.00  0.00     0.006 A 
ENDBRANCH  51  65
BRANCH  52  73
ATOM     73  C   UNL A   1      44.370  33.687  26.928  1.00  0.00     0.057 A 
ATOM     74  C   UNL A   1      43.732  34.304  25.845  1.00  0.00     0.134 A 
ATOM     75  C   UNL A   1      44.001  34.106  28.214  1.00  0.00     0.134 A 
ATOM     76  F   UNL A   1      44.057  33.968  24.589  1.00  0.00    -0.206 F 
ATOM     77  C   UNL A   1      42.790  35.319  26.031  1.00  0.00     0.040 A 
ATOM     78  C   UNL A   1      43.037  35.096  28.415  1.00  0.00     0.040 A 
ATOM     79  F   UNL A   1      44.575  33.558  29.295  1.00  0.00    -0.206 F 
ATOM     80  C   UNL A   1      42.437  35.713  27.319  1.00  0.00     0.006 A 
ENDBRANCH  52  73
BRANCH  64  81
ATOM     81  C   UNL A   1      51.305  34.126  26.438  1.00  0.00     0.057 A 
ATOM     82  C   UNL A   1      51.720  34.763  25.261  1.00  0.00     0.134 A 
ATOM     83  C   UNL A   1      51.775  34.646  27.652  1.00  0.00     0.134 A 
ATOM     84  F   UNL A   1      51.315  34.311  24.064  1.00  0.00    -0.206 F 
ATOM     85  C   UNL A   1      52.590  35.854  25.290  1.00  0.00     0.040 A 
ATOM     86  C   UNL A   1      52.619  35.756  27.694  1.00  0.00     0.040 A 
ATOM     87  F   UNL A   1      51.407  34.093  28.818  1.00  0.00    -0.206 F 
ATOM     88  C   UNL A   1      53.036  36.358  26.510  1.00  0.00     0.006 A 
ENDBRANCH  64  81
ENDBRANCH  38  39
ENDBRANCH  31  33
ENDBRANCH  30  31
ENDBRANCH  29  30
ENDBRANCH  28  29
ENDBRANCH  27  28
ENDBRANCH  26  27
ENDBRANCH  25  26
ENDBRANCH  24  25
ENDBRANCH  23  24
ENDBRANCH   1  23
TORSDOF 25
ENDMDL
MODEL 3
REMARK VINA RESULT:      -7.9      4.922      9.830
REMARK SMILES CC(C)OCCS(=O)(=O)N1CCC[C@H](C(=O)OCCOCCOCCOCCOC(=O)c2ccc(-c3c4nc(c(-c5c(F)cccc5F)c5ccc([nH]5)c(-c5c(F)cccc5F)c5nc(c(-c6c(F)cccc6F)c6ccc3[nH]6)C=C5)C=C4)cc2)C1
REMARK SMILES IDX 21 1 20 2 19 3 18 4 17 5 15 6 16 7 14 8 10 9 11 10 86 11
REMARK SMILES IDX 12 12 13 13 7 14 8 15 9 16 6 17 5 18 4 19 2 20 1 21 3 22
REMARK SMILES IDX 22 23 23 24 24 25 25 26 26 27 27 28 28 29 29 30 30 31 31 32
REMARK SMILES IDX 32 33 33 34 85 35 34 36 84 37 35 38 36 39 37 40 78 41 38 42
REMARK SMILES IDX 83 43 77 44 79 45 39 46 82 47 76 48 75 49 40 51 66 52 49 53
REMARK SMILES IDX 65 54 50 55 53 56 64 57 80 58 51 59 52 60 63 62 81 63 54 64
REMARK SMILES IDX 41 65 42 66 47 67 43 68 44 69 46 70 48 71 45 72 67 73 68 74
REMARK SMILES IDX 73 75 69 76 70 77 72 78 74 79 71 80 55 81 56 82 61 83 57 84
REMARK SMILES IDX 58 85 60 86 62 87 59 88
REMARK H PARENT 79 50 53 61
REMARK Flexibility Score: inf
ROOT
ATOM      1  C   UNL A   1      35.809  33.188  28.931  1.00  0.00     0.188 C 
ENDROOT
BRANCH   1   2
ATOM      2  O   UNL A   1      36.197  31.993  28.300  1.00  0.00    -0.376 OA
BRANCH   2   3
ATOM      3  C   UNL A   1      35.822  30.720  28.791  1.00  0.00     0.202 C 
BRANCH   3   4
ATOM      4  C   UNL A   1      36.771  29.533  29.008  1.00  0.00     0.261 C 
BRANCH   4   5
ATOM      5  O   UNL A   1      38.173  29.795  29.107  1.00  0.00    -0.463 OA
BRANCH   5   6
ATOM      6  C   UNL A   1      38.844  29.678  27.935  1.00  0.00     0.310 C 
ATOM      7  O   UNL A   1      38.317  29.696  26.824  1.00  0.00    -0.252 OA
BRANCH   6   8
ATOM      8  C   UNL A   1      40.292  29.302  28.093  1.00  0.00     0.114 C 
ATOM      9  N   UNL A   1      41.714  27.503  27.129  1.00  0.00    -0.201 NA
ATOM     10  C   UNL A   1      41.830  26.756  28.402  1.00  0.00     0.102 C 
ATOM     11  C   UNL A   1      40.528  28.346  26.926  1.00  0.00     0.117 C 
ATOM     12  C   UNL A   1      40.899  27.289  29.489  1.00  0.00     0.018 C 
ATOM     13  C   UNL A   1      40.810  28.800  29.439  1.00  0.00     0.018 C 
BRANCH   9  14
ATOM     14  S   UNL A   1      42.484  26.885  25.759  1.00  0.00     0.216 S 
ATOM     15  O   UNL A   1      43.245  27.948  25.139  1.00  0.00    -0.212 OA
ATOM     16  O   UNL A   1      41.490  26.157  24.998  1.00  0.00    -0.212 OA
BRANCH  14  17
ATOM     17  C   UNL A   1      43.616  25.692  26.476  1.00  0.00     0.182 C 
BRANCH  17  18
ATOM     18  C   UNL A   1      44.617  25.123  25.479  1.00  0.00     0.178 C 
BRANCH  18  19
ATOM     19  O   UNL A   1      45.844  24.675  26.062  1.00  0.00    -0.378 OA
BRANCH  19  20
ATOM     20  C   UNL A   1      46.991  25.529  26.028  1.00  0.00     0.112 C 
ATOM     21  C   UNL A   1      48.049  25.247  27.099  1.00  0.00     0.038 C 
ATOM     22  C   UNL A   1      47.569  25.575  24.630  1.00  0.00     0.038 C 
ENDBRANCH  19  20
ENDBRANCH  18  19
ENDBRANCH  17  18
ENDBRANCH  14  17
ENDBRANCH   9  14
ENDBRANCH   6   8
ENDBRANCH   5   6
ENDBRANCH   4   5
ENDBRANCH   3   4
ENDBRANCH   2   3
ENDBRANCH   1   2
BRANCH   1  23
ATOM     23  C   UNL A   1      34.519  33.112  29.765  1.00  0.00     0.188 C 
BRANCH  23  24
ATOM     24  O   UNL A   1      33.460  34.016  29.498  1.00  0.00    -0.377 OA
BRANCH  24  25
ATOM     25  C   UNL A   1      33.649  35.423  29.572  1.00  0.00     0.188 C 
BRANCH  25  26
ATOM     26  C   UNL A   1      32.889  36.256  30.621  1.00  0.00     0.188 C 
BRANCH  26  27
ATOM     27  O   UNL A   1      33.631  36.535  31.791  1.00  0.00    -0.376 OA
BRANCH  27  28
ATOM     28  C   UNL A   1      33.906  35.450  32.664  1.00  0.00     0.202 C 
BRANCH  28  29
ATOM     29  C   UNL A   1      35.379  35.079  32.895  1.00  0.00     0.261 C 
BRANCH  29  30
ATOM     30  O   UNL A   1      35.685  33.675  32.987  1.00  0.00    -0.460 OA
BRANCH  30  31
ATOM     31  C   UNL A   1      36.344  33.235  34.084  1.00  0.00     0.338 C 
ATOM     32  O   UNL A   1      35.939  33.194  35.223  1.00  0.00    -0.246 OA
BRANCH  31  33
ATOM     33  C   UNL A   1      37.609  32.621  33.621  1.00  0.00     0.060 A 
ATOM     34  C   UNL A   1      38.774  32.791  34.383  1.00  0.00     0.016 A 
ATOM     35  C   UNL A   1      37.643  31.895  32.431  1.00  0.00     0.016 A 
ATOM     36  C   UNL A   1      39.982  32.251  33.943  1.00  0.00     0.010 A 
ATOM     37  C   UNL A   1      38.860  31.380  31.977  1.00  0.00     0.010 A 
ATOM     38  C   UNL A   1      40.041  31.581  32.716  1.00  0.00    -0.014 A 
BRANCH  38  39
ATOM     39  C   UNL A   1      41.358  31.255  32.116  1.00  0.00     0.031 A 
ATOM     40  C   UNL A   1      42.001  32.269  31.210  1.00  0.00     0.074 A 
ATOM     41  C   UNL A   1      41.980  30.094  32.387  1.00  0.00     0.049 A 
ATOM     42  N   UNL A   1      43.106  32.181  30.516  1.00  0.00    -0.248 NA
ATOM     43  C   UNL A   1      41.301  33.556  31.068  1.00  0.00     0.031 C 
ATOM     44  C   UNL A   1      41.486  29.058  33.290  1.00  0.00     0.029 A 
ATOM     45  N   UNL A   1      43.165  29.590  31.909  1.00  0.00    -0.354 N 
ATOM     46  C   UNL A   1      43.228  33.392  29.848  1.00  0.00     0.074 A 
ATOM     47  C   UNL A   1      42.075  34.191  30.200  1.00  0.00     0.031 C 
ATOM     48  C   UNL A   1      42.352  28.029  33.287  1.00  0.00     0.029 A 
ATOM     49  C   UNL A   1      43.440  28.319  32.353  1.00  0.00     0.049 A 
ATOM     50  H   UNL A   1      43.760  30.090  31.306  1.00  0.00     0.167 HD
ATOM     51  C   UNL A   1      44.216  33.803  29.018  1.00  0.00     0.037 A 
ATOM     52  C   UNL A   1      44.437  27.477  32.015  1.00  0.00     0.037 A 
ATOM     53  C   UNL A   1      45.362  33.005  28.671  1.00  0.00     0.049 A 
ATOM     54  C   UNL A   1      45.477  27.927  31.019  1.00  0.00     0.074 A 
ATOM     55  C   UNL A   1      46.427  33.339  27.853  1.00  0.00     0.029 A 
ATOM     56  N   UNL A   1      45.587  31.711  29.113  1.00  0.00    -0.354 N 
ATOM     57  N   UNL A   1      45.598  29.084  30.411  1.00  0.00    -0.248 NA
ATOM     58  C   UNL A   1      46.519  26.953  30.663  1.00  0.00     0.031 C 
ATOM     59  C   UNL A   1      47.263  32.225  27.749  1.00  0.00     0.029 A 
ATOM     60  C   UNL A   1      46.757  31.220  28.556  1.00  0.00     0.049 A 
ATOM     61  H   UNL A   1      45.002  31.214  29.730  1.00  0.00     0.167 HD
ATOM     62  C   UNL A   1      46.745  28.986  29.629  1.00  0.00     0.074 A 
ATOM     63  C   UNL A   1      47.292  27.665  29.854  1.00  0.00     0.031 C 
ATOM     64  C   UNL A   1      47.296  29.906  28.799  1.00  0.00     0.037 A 
BRANCH  51  65
ATOM     65  C   UNL A   1      44.089  35.165  28.401  1.00  0.00     0.057 A 
ATOM     66  C   UNL A   1      44.587  36.315  29.026  1.00  0.00     0.134 A 
ATOM     67  C   UNL A   1      43.508  35.318  27.135  1.00  0.00     0.134 A 
ATOM     68  F   UNL A   1      45.141  36.241  30.245  1.00  0.00    -0.206 F 
ATOM     69  C   UNL A   1      44.499  37.570  28.419  1.00  0.00     0.040 A 
ATOM     70  C   UNL A   1      43.440  36.562  26.507  1.00  0.00     0.040 A 
ATOM     71  F   UNL A   1      43.012  34.256  26.480  1.00  0.00    -0.206 F 
ATOM     72  C   UNL A   1      43.934  37.693  27.151  1.00  0.00     0.006 A 
ENDBRANCH  51  65
BRANCH  52  73
ATOM     73  C   UNL A   1      44.493  26.107  32.589  1.00  0.00     0.057 A 
ATOM     74  C   UNL A   1      44.932  25.882  33.900  1.00  0.00     0.134 A 
ATOM     75  C   UNL A   1      44.159  24.982  31.823  1.00  0.00     0.134 A 
ATOM     76  F   UNL A   1      45.292  26.914  34.677  1.00  0.00    -0.206 F 
ATOM     77  C   UNL A   1      45.067  24.591  34.417  1.00  0.00     0.040 A 
ATOM     78  C   UNL A   1      44.256  23.688  32.338  1.00  0.00     0.040 A 
ATOM     79  F   UNL A   1      43.733  25.126  30.560  1.00  0.00    -0.206 F 
ATOM     80  C   UNL A   1      44.723  23.491  33.636  1.00  0.00     0.006 A 
ENDBRANCH  52  73
BRANCH  64  81
ATOM     81  C   UNL A   1      48.578  29.536  28.108  1.00  0.00     0.057 A 
ATOM     82  C   UNL A   1      48.597  28.977  26.824  1.00  0.00     0.134 A 
ATOM     83  C   UNL A   1      49.813  29.783  28.722  1.00  0.00     0.134 A 
ATOM     84  F   UNL A   1      47.449  28.706  26.183  1.00  0.00    -0.206 F 
ATOM     85  C   UNL A   1      49.796  28.649  26.189  1.00  0.00     0.040 A 
ATOM     86  C   UNL A   1      51.019  29.489  28.083  1.00  0.00     0.040 A 
ATOM     87  F   UNL A   1      49.870  30.329  29.946  1.00  0.00    -0.206 F 
ATOM     88  C   UNL A   1      51.012  28.912  26.815  1.00  0.00     0.006 A 
ENDBRANCH  64  81
ENDBRANCH  38  39
ENDBRANCH  31  33
ENDBRANCH  30  31
ENDBRANCH  29  30
ENDBRANCH  28  29
ENDBRANCH  27  28
ENDBRANCH  26  27
ENDBRANCH  25  26
ENDBRANCH  24  25
ENDBRANCH  23  24
ENDBRANCH   1  23
TORSDOF 25
ENDMDL
