MODEL 1
REMARK VINA RESULT:     -10.6      0.000      0.000
REMARK SMILES Cc1nn(-c2ccccc2)c(C)c1CNC(=O)CCCC(=O)OCCOCCOCCOCCOC(=O)c1ccc(-c2c3nc(c(-c4c(F)cccc4F)c4ccc([nH]4)c(-c4c(F)cccc4F)c4nc(c(-c5c(F)cccc5F)c5ccc2[nH]5)C=C4)C=C3)cc1
REMARK SMILES IDX 27 1 26 2 25 3 24 4 23 5 21 6 22 7 20 8 19 9 18 10 16 11
REMARK SMILES IDX 15 12 17 14 14 15 13 16 1 17 2 18 3 19 4 20 11 21 12 22 5 23
REMARK SMILES IDX 6 24 10 25 7 26 9 27 8 28 28 29 29 30 30 31 31 32 32 33
REMARK SMILES IDX 33 34 34 35 35 36 36 37 37 38 38 39 39 40 91 41 40 42 90 43
REMARK SMILES IDX 41 44 42 45 43 46 84 47 44 48 89 49 83 50 85 51 45 52 88 53
REMARK SMILES IDX 82 54 81 55 46 57 72 58 55 59 71 60 56 61 59 62 70 63 86 64
REMARK SMILES IDX 57 65 58 66 69 68 87 69 60 70 47 71 48 72 53 73 49 74 50 75
REMARK SMILES IDX 52 76 54 77 51 78 73 79 74 80 79 81 75 82 76 83 78 84 80 85
REMARK SMILES IDX 77 86 61 87 62 88 67 89 63 90 64 91 66 92 68 93 65 94
REMARK H PARENT 15 13 85 56 59 67
REMARK Flexibility Score: inf
ROOT
ATOM      1  C   UNL A   1      36.937  22.849  25.701  1.00  0.00     0.188 C 
ENDROOT
BRANCH   1   2
ATOM      2  O   UNL A   1      35.613  23.276  25.436  1.00  0.00    -0.376 OA
BRANCH   2   3
ATOM      3  C   UNL A   1      35.324  24.426  24.657  1.00  0.00     0.202 C 
BRANCH   3   4
ATOM      4  C   UNL A   1      34.253  25.459  25.034  1.00  0.00     0.261 C 
BRANCH   4   5
ATOM      5  O   UNL A   1      33.534  26.028  23.936  1.00  0.00    -0.463 OA
BRANCH   5   6
ATOM      6  C   UNL A   1      33.253  27.345  24.018  1.00  0.00     0.305 C 
ATOM      7  O   UNL A   1      34.017  28.227  23.644  1.00  0.00    -0.252 OA
BRANCH   6   8
ATOM      8  C   UNL A   1      31.850  27.650  24.504  1.00  0.00     0.123 C 
BRANCH   8   9
ATOM      9  C   UNL A   1      30.590  27.244  23.724  1.00  0.00     0.022 C 
BRANCH   9  10
ATOM     10  C   UNL A   1      29.743  26.052  24.168  1.00  0.00     0.100 C 
BRANCH  10  11
ATOM     11  C   UNL A   1      30.169  25.370  25.450  1.00  0.00     0.220 C 
ATOM     12  N   UNL A   1      30.892  24.219  25.437  1.00  0.00    -0.352 N 
ATOM     13  H   UNL A   1      31.118  23.865  26.327  1.00  0.00     0.163 HD
ATOM     14  O   UNL A   1      29.876  25.855  26.546  1.00  0.00    -0.275 OA
BRANCH  12  15
ATOM     15  C   UNL A   1      31.380  23.433  24.334  1.00  0.00     0.155 C 
BRANCH  15  16
ATOM     16  C   UNL A   1      32.113  22.202  24.782  1.00  0.00     0.016 A 
ATOM     17  C   UNL A   1      32.367  22.887  27.299  1.00  0.00     0.069 C 
ATOM     18  C   UNL A   1      32.508  21.965  26.136  1.00  0.00     0.065 A 
ATOM     19  N   UNL A   1      32.967  20.726  26.324  1.00  0.00    -0.173 NA
ATOM     20  N   UNL A   1      32.973  20.159  25.099  1.00  0.00    -0.237 N 
ATOM     21  C   UNL A   1      32.417  21.001  24.134  1.00  0.00     0.046 A 
ATOM     22  C   UNL A   1      32.025  20.471  22.791  1.00  0.00     0.067 C 
BRANCH  20  23
ATOM     23  C   UNL A   1      33.349  18.798  24.923  1.00  0.00     0.065 A 
ATOM     24  C   UNL A   1      34.610  18.475  24.412  1.00  0.00     0.028 A 
ATOM     25  C   UNL A   1      32.492  17.778  25.358  1.00  0.00     0.028 A 
ATOM     26  C   UNL A   1      35.042  17.144  24.443  1.00  0.00     0.002 A 
ATOM     27  C   UNL A   1      32.927  16.456  25.388  1.00  0.00     0.002 A 
ATOM     28  C   UNL A   1      34.210  16.142  24.950  1.00  0.00     0.000 A 
ENDBRANCH  20  23
ENDBRANCH  15  16
ENDBRANCH  12  15
ENDBRANCH  10  11
ENDBRANCH   9  10
ENDBRANCH   8   9
ENDBRANCH   6   8
ENDBRANCH   5   6
ENDBRANCH   4   5
ENDBRANCH   3   4
ENDBRANCH   2   3
ENDBRANCH   1   2
BRANCH   1  29
ATOM     29  C   UNL A   1      37.521  21.606  25.005  1.00  0.00     0.188 C 
BRANCH  29  30
ATOM     30  O   UNL A   1      38.532  20.905  25.691  1.00  0.00    -0.377 OA
BRANCH  30  31
ATOM     31  C   UNL A   1      39.674  21.642  26.109  1.00  0.00     0.188 C 
BRANCH  31  32
ATOM     32  C   UNL A   1      40.535  21.169  27.311  1.00  0.00     0.188 C 
BRANCH  32  33
ATOM     33  O   UNL A   1      41.047  19.845  27.257  1.00  0.00    -0.376 OA
BRANCH  33  34
ATOM     34  C   UNL A   1      41.725  19.299  26.133  1.00  0.00     0.202 C 
BRANCH  34  35
ATOM     35  C   UNL A   1      43.211  19.599  25.899  1.00  0.00     0.261 C 
BRANCH  35  36
ATOM     36  O   UNL A   1      43.546  19.853  24.550  1.00  0.00    -0.460 OA
BRANCH  36  37
ATOM     37  C   UNL A   1      44.863  19.933  24.334  1.00  0.00     0.338 C 
ATOM     38  O   UNL A   1      45.655  18.991  24.214  1.00  0.00    -0.246 OA
BRANCH  37  39
ATOM     39  C   UNL A   1      45.277  21.326  24.405  1.00  0.00     0.060 A 
ATOM     40  C   UNL A   1      46.078  21.632  25.500  1.00  0.00     0.016 A 
ATOM     41  C   UNL A   1      44.526  22.292  23.713  1.00  0.00     0.016 A 
ATOM     42  C   UNL A   1      45.845  22.828  26.115  1.00  0.00     0.010 A 
ATOM     43  C   UNL A   1      44.309  23.499  24.324  1.00  0.00     0.010 A 
ATOM     44  C   UNL A   1      44.879  23.693  25.575  1.00  0.00    -0.014 A 
BRANCH  44  45
ATOM     45  C   UNL A   1      44.578  24.874  26.344  1.00  0.00     0.031 A 
ATOM     46  C   UNL A   1      45.693  25.835  26.291  1.00  0.00     0.074 A 
ATOM     47  C   UNL A   1      43.440  25.049  27.037  1.00  0.00     0.049 A 
ATOM     48  N   UNL A   1      46.540  26.082  27.231  1.00  0.00    -0.248 NA
ATOM     49  C   UNL A   1      46.052  26.391  24.979  1.00  0.00     0.031 C 
ATOM     50  C   UNL A   1      42.197  24.280  26.990  1.00  0.00     0.029 A 
ATOM     51  N   UNL A   1      43.152  26.042  27.918  1.00  0.00    -0.354 N 
ATOM     52  C   UNL A   1      47.423  27.003  26.691  1.00  0.00     0.074 A 
ATOM     53  C   UNL A   1      47.197  27.007  25.269  1.00  0.00     0.031 C 
ATOM     54  C   UNL A   1      41.223  24.970  27.632  1.00  0.00     0.029 A 
ATOM     55  C   UNL A   1      41.811  26.143  28.256  1.00  0.00     0.049 A 
ATOM     56  H   UNL A   1      43.840  26.641  28.288  1.00  0.00     0.167 HD
ATOM     57  C   UNL A   1      48.060  27.887  27.499  1.00  0.00     0.037 A 
ATOM     58  C   UNL A   1      41.247  27.165  28.949  1.00  0.00     0.037 A 
ATOM     59  C   UNL A   1      48.100  27.414  28.861  1.00  0.00     0.049 A 
ATOM     60  C   UNL A   1      42.336  27.843  29.700  1.00  0.00     0.074 A 
ATOM     61  C   UNL A   1      48.634  26.303  29.487  1.00  0.00     0.029 A 
ATOM     62  N   UNL A   1      47.181  27.931  29.742  1.00  0.00    -0.354 N 
ATOM     63  N   UNL A   1      42.966  27.301  30.703  1.00  0.00    -0.248 NA
ATOM     64  C   UNL A   1      43.038  28.933  29.038  1.00  0.00     0.031 C 
ATOM     65  C   UNL A   1      47.688  25.948  30.493  1.00  0.00     0.029 A 
ATOM     66  C   UNL A   1      46.662  26.892  30.471  1.00  0.00     0.049 A 
ATOM     67  H   UNL A   1      46.939  28.882  29.833  1.00  0.00     0.167 HD
ATOM     68  C   UNL A   1      44.294  27.662  30.522  1.00  0.00     0.074 A 
ATOM     69  C   UNL A   1      44.264  28.736  29.531  1.00  0.00     0.031 C 
ATOM     70  C   UNL A   1      45.306  26.864  30.973  1.00  0.00     0.037 A 
BRANCH  57  71
ATOM     71  C   UNL A   1      48.232  29.336  27.127  1.00  0.00     0.057 A 
ATOM     72  C   UNL A   1      49.508  29.912  27.218  1.00  0.00     0.134 A 
ATOM     73  C   UNL A   1      47.168  30.252  26.980  1.00  0.00     0.134 A 
ATOM     74  F   UNL A   1      50.599  29.147  27.380  1.00  0.00    -0.206 F 
ATOM     75  C   UNL A   1      49.702  31.298  27.237  1.00  0.00     0.040 A 
ATOM     76  C   UNL A   1      47.355  31.634  26.945  1.00  0.00     0.040 A 
ATOM     77  F   UNL A   1      45.883  29.878  26.969  1.00  0.00    -0.206 F 
ATOM     78  C   UNL A   1      48.622  32.163  27.108  1.00  0.00     0.006 A 
ENDBRANCH  57  71
BRANCH  58  79
ATOM     79  C   UNL A   1      39.932  27.810  28.735  1.00  0.00     0.057 A 
ATOM     80  C   UNL A   1      38.994  27.899  29.775  1.00  0.00     0.134 A 
ATOM     81  C   UNL A   1      39.684  28.618  27.612  1.00  0.00     0.134 A 
ATOM     82  F   UNL A   1      39.164  27.200  30.906  1.00  0.00    -0.206 F 
ATOM     83  C   UNL A   1      37.892  28.763  29.716  1.00  0.00     0.040 A 
ATOM     84  C   UNL A   1      38.586  29.483  27.538  1.00  0.00     0.040 A 
ATOM     85  F   UNL A   1      40.550  28.668  26.589  1.00  0.00    -0.206 F 
ATOM     86  C   UNL A   1      37.694  29.570  28.599  1.00  0.00     0.006 A 
ENDBRANCH  58  79
BRANCH  70  87
ATOM     87  C   UNL A   1      44.943  25.730  31.895  1.00  0.00     0.057 A 
ATOM     88  C   UNL A   1      44.783  25.857  33.284  1.00  0.00     0.134 A 
ATOM     89  C   UNL A   1      44.615  24.492  31.334  1.00  0.00     0.134 A 
ATOM     90  F   UNL A   1      44.979  27.029  33.903  1.00  0.00    -0.206 F 
ATOM     91  C   UNL A   1      44.360  24.785  34.079  1.00  0.00     0.040 A 
ATOM     92  C   UNL A   1      44.160  23.425  32.111  1.00  0.00     0.040 A 
ATOM     93  F   UNL A   1      44.694  24.311  30.006  1.00  0.00    -0.206 F 
ATOM     94  C   UNL A   1      44.041  23.565  33.491  1.00  0.00     0.006 A 
ENDBRANCH  70  87
ENDBRANCH  44  45
ENDBRANCH  37  39
ENDBRANCH  36  37
ENDBRANCH  35  36
ENDBRANCH  34  35
ENDBRANCH  33  34
ENDBRANCH  32  33
ENDBRANCH  31  32
ENDBRANCH  30  31
ENDBRANCH  29  30
ENDBRANCH   1  29
TORSDOF 26
ENDMDL
MODEL 2
REMARK VINA RESULT:     -10.0      3.986      8.033
REMARK SMILES Cc1nn(-c2ccccc2)c(C)c1CNC(=O)CCCC(=O)OCCOCCOCCOCCOC(=O)c1ccc(-c2c3nc(c(-c4c(F)cccc4F)c4ccc([nH]4)c(-c4c(F)cccc4F)c4nc(c(-c5c(F)cccc5F)c5ccc2[nH]5)C=C4)C=C3)cc1
REMARK SMILES IDX 27 1 26 2 25 3 24 4 23 5 21 6 22 7 20 8 19 9 18 10 16 11
REMARK SMILES IDX 15 12 17 14 14 15 13 16 1 17 2 18 3 19 4 20 11 21 12 22 5 23
REMARK SMILES IDX 6 24 10 25 7 26 9 27 8 28 28 29 29 30 30 31 31 32 32 33
REMARK SMILES IDX 33 34 34 35 35 36 36 37 37 38 38 39 39 40 91 41 40 42 90 43
REMARK SMILES IDX 41 44 42 45 43 46 84 47 44 48 89 49 83 50 85 51 45 52 88 53
REMARK SMILES IDX 82 54 81 55 46 57 72 58 55 59 71 60 56 61 59 62 70 63 86 64
REMARK SMILES IDX 57 65 58 66 69 68 87 69 60 70 47 71 48 72 53 73 49 74 50 75
REMARK SMILES IDX 52 76 54 77 51 78 73 79 74 80 79 81 75 82 76 83 78 84 80 85
REMARK SMILES IDX 77 86 61 87 62 88 67 89 63 90 64 91 66 92 68 93 65 94
REMARK H PARENT 15 13 85 56 59 67
REMARK Flexibility Score: inf
ROOT
ATOM      1  C   UNL A   1      35.149  23.782  24.056  1.00  0.00     0.188 C 
ENDROOT
BRANCH   1   2
ATOM      2  O   UNL A   1      34.350  24.918  24.337  1.00  0.00    -0.376 OA
BRANCH   2   3
ATOM      3  C   UNL A   1      33.937  25.253  25.651  1.00  0.00     0.202 C 
BRANCH   3   4
ATOM      4  C   UNL A   1      33.639  26.688  26.106  1.00  0.00     0.261 C 
BRANCH   4   5
ATOM      5  O   UNL A   1      33.676  27.681  25.076  1.00  0.00    -0.463 OA
BRANCH   5   6
ATOM      6  C   UNL A   1      32.819  28.714  25.205  1.00  0.00     0.305 C 
ATOM      7  O   UNL A   1      33.170  29.888  25.237  1.00  0.00    -0.252 OA
BRANCH   6   8
ATOM      8  C   UNL A   1      31.357  28.313  25.186  1.00  0.00     0.123 C 
BRANCH   8   9
ATOM      9  C   UNL A   1      30.549  28.166  23.888  1.00  0.00     0.022 C 
BRANCH   9  10
ATOM     10  C   UNL A   1      30.282  26.790  23.282  1.00  0.00     0.100 C 
BRANCH  10  11
ATOM     11  C   UNL A   1      31.479  26.077  22.690  1.00  0.00     0.220 C 
ATOM     12  N   UNL A   1      31.598  24.724  22.743  1.00  0.00    -0.352 N 
ATOM     13  H   UNL A   1      32.414  24.366  22.324  1.00  0.00     0.163 HD
ATOM     14  O   UNL A   1      32.376  26.714  22.133  1.00  0.00    -0.275 OA
BRANCH  12  15
ATOM     15  C   UNL A   1      30.727  23.729  23.312  1.00  0.00     0.155 C 
BRANCH  15  16
ATOM     16  C   UNL A   1      31.481  22.607  23.965  1.00  0.00     0.016 A 
ATOM     17  C   UNL A   1      30.974  23.289  26.444  1.00  0.00     0.069 C 
ATOM     18  C   UNL A   1      31.538  22.410  25.380  1.00  0.00     0.065 A 
ATOM     19  N   UNL A   1      32.099  21.245  25.711  1.00  0.00    -0.173 NA
ATOM     20  N   UNL A   1      32.502  20.700  24.544  1.00  0.00    -0.237 N 
ATOM     21  C   UNL A   1      32.105  21.468  23.447  1.00  0.00     0.046 A 
ATOM     22  C   UNL A   1      32.153  20.906  22.061  1.00  0.00     0.067 C 
BRANCH  20  23
ATOM     23  C   UNL A   1      33.094  19.407  24.505  1.00  0.00     0.065 A 
ATOM     24  C   UNL A   1      32.310  18.279  24.245  1.00  0.00     0.028 A 
ATOM     25  C   UNL A   1      34.484  19.275  24.624  1.00  0.00     0.028 A 
ATOM     26  C   UNL A   1      32.934  17.050  24.002  1.00  0.00     0.002 A 
ATOM     27  C   UNL A   1      35.100  18.051  24.379  1.00  0.00     0.002 A 
ATOM     28  C   UNL A   1      34.326  16.943  24.047  1.00  0.00     0.000 A 
ENDBRANCH  20  23
ENDBRANCH  15  16
ENDBRANCH  12  15
ENDBRANCH  10  11
ENDBRANCH   9  10
ENDBRANCH   8   9
ENDBRANCH   6   8
ENDBRANCH   5   6
ENDBRANCH   4   5
ENDBRANCH   3   4
ENDBRANCH   2   3
ENDBRANCH   1   2
BRANCH   1  29
ATOM     29  C   UNL A   1      35.444  22.735  25.146  1.00  0.00     0.188 C 
BRANCH  29  30
ATOM     30  O   UNL A   1      36.665  22.038  25.049  1.00  0.00    -0.377 OA
BRANCH  30  31
ATOM     31  C   UNL A   1      37.784  22.575  25.742  1.00  0.00     0.188 C 
BRANCH  31  32
ATOM     32  C   UNL A   1      39.030  21.702  26.047  1.00  0.00     0.188 C 
BRANCH  32  33
ATOM     33  O   UNL A   1      40.118  22.336  26.706  1.00  0.00    -0.376 OA
BRANCH  33  34
ATOM     34  C   UNL A   1      41.407  22.503  26.133  1.00  0.00     0.202 C 
BRANCH  34  35
ATOM     35  C   UNL A   1      42.149  23.841  26.261  1.00  0.00     0.261 C 
BRANCH  35  36
ATOM     36  O   UNL A   1      41.443  24.828  26.984  1.00  0.00    -0.460 OA
BRANCH  36  37
ATOM     37  C   UNL A   1      41.027  25.849  26.227  1.00  0.00     0.338 C 
ATOM     38  O   UNL A   1      41.374  26.104  25.068  1.00  0.00    -0.246 OA
BRANCH  37  39
ATOM     39  C   UNL A   1      40.194  26.732  27.029  1.00  0.00     0.060 A 
ATOM     40  C   UNL A   1      40.402  28.086  26.797  1.00  0.00     0.016 A 
ATOM     41  C   UNL A   1      39.633  26.236  28.219  1.00  0.00     0.016 A 
ATOM     42  C   UNL A   1      40.384  28.906  27.889  1.00  0.00     0.010 A 
ATOM     43  C   UNL A   1      39.598  27.066  29.309  1.00  0.00     0.010 A 
ATOM     44  C   UNL A   1      40.091  28.354  29.147  1.00  0.00    -0.014 A 
BRANCH  44  45
ATOM     45  C   UNL A   1      40.224  29.238  30.277  1.00  0.00     0.031 A 
ATOM     46  C   UNL A   1      39.013  30.058  30.449  1.00  0.00     0.074 A 
ATOM     47  C   UNL A   1      41.324  29.313  31.046  1.00  0.00     0.049 A 
ATOM     48  N   UNL A   1      38.884  31.308  30.161  1.00  0.00    -0.248 NA
ATOM     49  C   UNL A   1      37.751  29.361  30.736  1.00  0.00     0.031 C 
ATOM     50  C   UNL A   1      42.478  28.416  31.106  1.00  0.00     0.029 A 
ATOM     51  N   UNL A   1      41.598  30.229  32.011  1.00  0.00    -0.354 N 
ATOM     52  C   UNL A   1      37.561  31.610  30.440  1.00  0.00     0.074 A 
ATOM     53  C   UNL A   1      36.875  30.355  30.599  1.00  0.00     0.031 C 
ATOM     54  C   UNL A   1      43.209  28.706  32.210  1.00  0.00     0.029 A 
ATOM     55  C   UNL A   1      42.659  29.895  32.840  1.00  0.00     0.049 A 
ATOM     56  H   UNL A   1      41.085  31.063  32.114  1.00  0.00     0.167 HD
ATOM     57  C   UNL A   1      37.215  32.872  30.798  1.00  0.00     0.037 A 
ATOM     58  C   UNL A   1      42.995  30.537  33.987  1.00  0.00     0.037 A 
ATOM     59  C   UNL A   1      38.199  33.829  30.356  1.00  0.00     0.049 A 
ATOM     60  C   UNL A   1      42.401  31.897  33.924  1.00  0.00     0.074 A 
ATOM     61  C   UNL A   1      38.698  34.209  29.124  1.00  0.00     0.029 A 
ATOM     62  N   UNL A   1      39.110  34.280  31.281  1.00  0.00    -0.354 N 
ATOM     63  N   UNL A   1      42.805  32.823  33.100  1.00  0.00    -0.248 NA
ATOM     64  C   UNL A   1      41.053  32.073  34.446  1.00  0.00     0.031 C 
ATOM     65  C   UNL A   1      40.087  34.447  29.340  1.00  0.00     0.029 A 
ATOM     66  C   UNL A   1      40.350  34.263  30.697  1.00  0.00     0.049 A 
ATOM     67  H   UNL A   1      38.906  34.564  32.202  1.00  0.00     0.167 HD
ATOM     68  C   UNL A   1      41.641  33.436  32.660  1.00  0.00     0.074 A 
ATOM     69  C   UNL A   1      40.602  32.990  33.586  1.00  0.00     0.031 C 
ATOM     70  C   UNL A   1      41.575  34.011  31.423  1.00  0.00     0.037 A 
BRANCH  57  71
ATOM     71  C   UNL A   1      36.238  33.152  31.909  1.00  0.00     0.057 A 
ATOM     72  C   UNL A   1      35.123  33.963  31.645  1.00  0.00     0.134 A 
ATOM     73  C   UNL A   1      36.499  32.916  33.277  1.00  0.00     0.134 A 
ATOM     74  F   UNL A   1      34.785  34.276  30.384  1.00  0.00    -0.206 F 
ATOM     75  C   UNL A   1      34.373  34.555  32.665  1.00  0.00     0.040 A 
ATOM     76  C   UNL A   1      35.724  33.460  34.302  1.00  0.00     0.040 A 
ATOM     77  F   UNL A   1      37.570  32.241  33.707  1.00  0.00    -0.206 F 
ATOM     78  C   UNL A   1      34.677  34.311  34.000  1.00  0.00     0.006 A 
ENDBRANCH  57  71
BRANCH  58  79
ATOM     79  C   UNL A   1      43.473  29.956  35.263  1.00  0.00     0.057 A 
ATOM     80  C   UNL A   1      42.730  28.969  35.928  1.00  0.00     0.134 A 
ATOM     81  C   UNL A   1      44.799  30.127  35.696  1.00  0.00     0.134 A 
ATOM     82  F   UNL A   1      41.469  28.701  35.559  1.00  0.00    -0.206 F 
ATOM     83  C   UNL A   1      43.282  28.176  36.944  1.00  0.00     0.040 A 
ATOM     84  C   UNL A   1      45.362  29.344  36.711  1.00  0.00     0.040 A 
ATOM     85  F   UNL A   1      45.622  30.990  35.086  1.00  0.00    -0.206 F 
ATOM     86  C   UNL A   1      44.608  28.354  37.329  1.00  0.00     0.006 A 
ENDBRANCH  58  79
BRANCH  70  87
ATOM     87  C   UNL A   1      42.865  34.193  30.668  1.00  0.00     0.057 A 
ATOM     88  C   UNL A   1      43.393  33.259  29.762  1.00  0.00     0.134 A 
ATOM     89  C   UNL A   1      43.530  35.420  30.767  1.00  0.00     0.134 A 
ATOM     90  F   UNL A   1      42.776  32.094  29.525  1.00  0.00    -0.206 F 
ATOM     91  C   UNL A   1      44.554  33.522  29.024  1.00  0.00     0.040 A 
ATOM     92  C   UNL A   1      44.669  35.708  30.012  1.00  0.00     0.040 A 
ATOM     93  F   UNL A   1      43.055  36.381  31.574  1.00  0.00    -0.206 F 
ATOM     94  C   UNL A   1      45.192  34.753  29.145  1.00  0.00     0.006 A 
ENDBRANCH  70  87
ENDBRANCH  44  45
ENDBRANCH  37  39
ENDBRANCH  36  37
ENDBRANCH  35  36
ENDBRANCH  34  35
ENDBRANCH  33  34
ENDBRANCH  32  33
ENDBRANCH  31  32
ENDBRANCH  30  31
ENDBRANCH  29  30
ENDBRANCH   1  29
TORSDOF 26
ENDMDL
MODEL 3
REMARK VINA RESULT:      -9.6      4.403      9.258
REMARK SMILES Cc1nn(-c2ccccc2)c(C)c1CNC(=O)CCCC(=O)OCCOCCOCCOCCOC(=O)c1ccc(-c2c3nc(c(-c4c(F)cccc4F)c4ccc([nH]4)c(-c4c(F)cccc4F)c4nc(c(-c5c(F)cccc5F)c5ccc2[nH]5)C=C4)C=C3)cc1
REMARK SMILES IDX 27 1 26 2 25 3 24 4 23 5 21 6 22 7 20 8 19 9 18 10 16 11
REMARK SMILES IDX 15 12 17 14 14 15 13 16 1 17 2 18 3 19 4 20 11 21 12 22 5 23
REMARK SMILES IDX 6 24 10 25 7 26 9 27 8 28 28 29 29 30 30 31 31 32 32 33
REMARK SMILES IDX 33 34 34 35 35 36 36 37 37 38 38 39 39 40 91 41 40 42 90 43
REMARK SMILES IDX 41 44 42 45 43 46 84 47 44 48 89 49 83 50 85 51 45 52 88 53
REMARK SMILES IDX 82 54 81 55 46 57 72 58 55 59 71 60 56 61 59 62 70 63 86 64
REMARK SMILES IDX 57 65 58 66 69 68 87 69 60 70 47 71 48 72 53 73 49 74 50 75
REMARK SMILES IDX 52 76 54 77 51 78 73 79 74 80 79 81 75 82 76 83 78 84 80 85
REMARK SMILES IDX 77 86 61 87 62 88 67 89 63 90 64 91 66 92 68 93 65 94
REMARK H PARENT 15 13 85 56 59 67
REMARK Flexibility Score: inf
ROOT
ATOM      1  C   UNL A   1      37.526  22.902  26.036  1.00  0.00     0.188 C 
ENDROOT
BRANCH   1   2
ATOM      2  O   UNL A   1      36.115  23.004  25.981  1.00  0.00    -0.376 OA
BRANCH   2   3
ATOM      3  C   UNL A   1      35.344  22.377  24.969  1.00  0.00     0.202 C 
BRANCH   3   4
ATOM      4  C   UNL A   1      34.896  23.085  23.683  1.00  0.00     0.261 C 
BRANCH   4   5
ATOM      5  O   UNL A   1      33.661  22.624  23.125  1.00  0.00    -0.463 OA
BRANCH   5   6
ATOM      6  C   UNL A   1      33.043  23.456  22.263  1.00  0.00     0.305 C 
ATOM      7  O   UNL A   1      33.369  23.583  21.089  1.00  0.00    -0.252 OA
BRANCH   6   8
ATOM      8  C   UNL A   1      31.818  24.143  22.835  1.00  0.00     0.123 C 
BRANCH   8   9
ATOM      9  C   UNL A   1      30.962  23.528  23.953  1.00  0.00     0.022 C 
BRANCH   9  10
ATOM     10  C   UNL A   1      31.525  23.345  25.361  1.00  0.00     0.100 C 
BRANCH  10  11
ATOM     11  C   UNL A   1      30.928  24.225  26.438  1.00  0.00     0.220 C 
ATOM     12  N   UNL A   1      31.321  25.516  26.601  1.00  0.00    -0.352 N 
ATOM     13  H   UNL A   1      30.864  25.997  27.328  1.00  0.00     0.163 HD
ATOM     14  O   UNL A   1      30.055  23.788  27.193  1.00  0.00    -0.275 OA
BRANCH  12  15
ATOM     15  C   UNL A   1      32.296  26.295  25.883  1.00  0.00     0.155 C 
BRANCH  15  16
ATOM     16  C   UNL A   1      31.742  27.600  25.389  1.00  0.00     0.016 A 
ATOM     17  C   UNL A   1      33.722  29.110  26.207  1.00  0.00     0.069 C 
ATOM     18  C   UNL A   1      32.429  28.848  25.512  1.00  0.00     0.065 A 
ATOM     19  N   UNL A   1      31.833  29.828  24.830  1.00  0.00    -0.173 NA
ATOM     20  N   UNL A   1      30.707  29.277  24.328  1.00  0.00    -0.237 N 
ATOM     21  C   UNL A   1      30.631  27.910  24.600  1.00  0.00     0.046 A 
ATOM     22  C   UNL A   1      29.653  27.039  23.876  1.00  0.00     0.067 C 
BRANCH  20  23
ATOM     23  C   UNL A   1      29.841  30.024  23.481  1.00  0.00     0.065 A 
ATOM     24  C   UNL A   1      29.169  31.147  23.972  1.00  0.00     0.028 A 
ATOM     25  C   UNL A   1      29.741  29.692  22.123  1.00  0.00     0.028 A 
ATOM     26  C   UNL A   1      28.492  31.987  23.080  1.00  0.00     0.002 A 
ATOM     27  C   UNL A   1      29.069  30.532  21.239  1.00  0.00     0.002 A 
ATOM     28  C   UNL A   1      28.462  31.691  21.715  1.00  0.00     0.000 A 
ENDBRANCH  20  23
ENDBRANCH  15  16
ENDBRANCH  12  15
ENDBRANCH  10  11
ENDBRANCH   9  10
ENDBRANCH   8   9
ENDBRANCH   6   8
ENDBRANCH   5   6
ENDBRANCH   4   5
ENDBRANCH   3   4
ENDBRANCH   2   3
ENDBRANCH   1   2
BRANCH   1  29
ATOM     29  C   UNL A   1      38.245  21.624  25.568  1.00  0.00     0.188 C 
BRANCH  29  30
ATOM     30  O   UNL A   1      39.326  21.173  26.352  1.00  0.00    -0.377 OA
BRANCH  30  31
ATOM     31  C   UNL A   1      40.394  22.083  26.581  1.00  0.00     0.188 C 
BRANCH  31  32
ATOM     32  C   UNL A   1      41.834  21.573  26.857  1.00  0.00     0.188 C 
BRANCH  32  33
ATOM     33  O   UNL A   1      42.904  22.437  26.503  1.00  0.00    -0.376 OA
BRANCH  33  34
ATOM     34  C   UNL A   1      43.133  23.707  27.100  1.00  0.00     0.202 C 
BRANCH  34  35
ATOM     35  C   UNL A   1      42.766  24.996  26.353  1.00  0.00     0.261 C 
BRANCH  35  36
ATOM     36  O   UNL A   1      41.921  25.866  27.077  1.00  0.00    -0.460 OA
BRANCH  36  37
ATOM     37  C   UNL A   1      40.638  25.791  26.709  1.00  0.00     0.338 C 
ATOM     38  O   UNL A   1      40.166  25.113  25.789  1.00  0.00    -0.246 OA
BRANCH  37  39
ATOM     39  C   UNL A   1      39.864  26.761  27.469  1.00  0.00     0.060 A 
ATOM     40  C   UNL A   1      40.110  28.086  27.129  1.00  0.00     0.016 A 
ATOM     41  C   UNL A   1      39.330  26.377  28.711  1.00  0.00     0.016 A 
ATOM     42  C   UNL A   1      40.159  28.985  28.156  1.00  0.00     0.010 A 
ATOM     43  C   UNL A   1      39.363  27.286  29.736  1.00  0.00     0.010 A 
ATOM     44  C   UNL A   1      39.893  28.539  29.461  1.00  0.00    -0.014 A 
BRANCH  44  45
ATOM     45  C   UNL A   1      40.097  29.499  30.516  1.00  0.00     0.031 A 
ATOM     46  C   UNL A   1      38.886  30.309  30.732  1.00  0.00     0.074 A 
ATOM     47  C   UNL A   1      41.253  29.644  31.187  1.00  0.00     0.049 A 
ATOM     48  N   UNL A   1      38.708  31.535  30.374  1.00  0.00    -0.248 NA
ATOM     49  C   UNL A   1      37.667  29.612  31.165  1.00  0.00     0.031 C 
ATOM     50  C   UNL A   1      42.427  28.772  31.211  1.00  0.00     0.029 A 
ATOM     51  N   UNL A   1      41.583  30.626  32.064  1.00  0.00    -0.354 N 
ATOM     52  C   UNL A   1      37.405  31.833  30.739  1.00  0.00     0.074 A 
ATOM     53  C   UNL A   1      36.761  30.581  31.035  1.00  0.00     0.031 C 
ATOM     54  C   UNL A   1      43.238  29.147  32.231  1.00  0.00     0.029 A 
ATOM     55  C   UNL A   1      42.715  30.367  32.824  1.00  0.00     0.049 A 
ATOM     56  H   UNL A   1      41.062  31.457  32.153  1.00  0.00     0.167 HD
ATOM     57  C   UNL A   1      37.061  33.111  31.040  1.00  0.00     0.037 A 
ATOM     58  C   UNL A   1      43.128  31.089  33.896  1.00  0.00     0.037 A 
ATOM     59  C   UNL A   1      37.986  34.052  30.458  1.00  0.00     0.049 A 
ATOM     60  C   UNL A   1      42.501  32.432  33.791  1.00  0.00     0.074 A 
ATOM     61  C   UNL A   1      38.376  34.356  29.168  1.00  0.00     0.029 A 
ATOM     62  N   UNL A   1      38.958  34.578  31.275  1.00  0.00    -0.354 N 
ATOM     63  N   UNL A   1      42.818  33.308  32.879  1.00  0.00    -0.248 NA
ATOM     64  C   UNL A   1      41.196  32.621  34.409  1.00  0.00     0.031 C 
ATOM     65  C   UNL A   1      39.773  34.631  29.254  1.00  0.00     0.029 A 
ATOM     66  C   UNL A   1      40.147  34.542  30.594  1.00  0.00     0.049 A 
ATOM     67  H   UNL A   1      38.822  34.920  32.188  1.00  0.00     0.167 HD
ATOM     68  C   UNL A   1      41.609  33.870  32.495  1.00  0.00     0.074 A 
ATOM     69  C   UNL A   1      40.657  33.470  33.530  1.00  0.00     0.031 C 
ATOM     70  C   UNL A   1      41.432  34.360  31.233  1.00  0.00     0.037 A 
BRANCH  57  71
ATOM     71  C   UNL A   1      36.170  33.448  32.207  1.00  0.00     0.057 A 
ATOM     72  C   UNL A   1      35.081  34.309  32.002  1.00  0.00     0.134 A 
ATOM     73  C   UNL A   1      36.505  33.214  33.558  1.00  0.00     0.134 A 
ATOM     74  F   UNL A   1      34.679  34.626  30.761  1.00  0.00    -0.206 F 
ATOM     75  C   UNL A   1      34.425  34.948  33.059  1.00  0.00     0.040 A 
ATOM     76  C   UNL A   1      35.823  33.805  34.622  1.00  0.00     0.040 A 
ATOM     77  F   UNL A   1      37.569  32.492  33.930  1.00  0.00    -0.206 F 
ATOM     78  C   UNL A   1      34.801  34.702  34.375  1.00  0.00     0.006 A 
ENDBRANCH  57  71
BRANCH  58  79
ATOM     79  C   UNL A   1      43.718  30.603  35.163  1.00  0.00     0.057 A 
ATOM     80  C   UNL A   1      43.049  29.657  35.955  1.00  0.00     0.134 A 
ATOM     81  C   UNL A   1      45.073  30.817  35.472  1.00  0.00     0.134 A 
ATOM     82  F   UNL A   1      41.766  29.352  35.712  1.00  0.00    -0.206 F 
ATOM     83  C   UNL A   1      43.695  28.942  36.972  1.00  0.00     0.040 A 
ATOM     84  C   UNL A   1      45.730  30.112  36.487  1.00  0.00     0.040 A 
ATOM     85  F   UNL A   1      45.829  31.644  34.737  1.00  0.00    -0.206 F 
ATOM     86  C   UNL A   1      45.045  29.160  37.232  1.00  0.00     0.006 A 
ENDBRANCH  58  79
BRANCH  70  87
ATOM     87  C   UNL A   1      42.653  34.512  30.365  1.00  0.00     0.057 A 
ATOM     88  C   UNL A   1      43.499  35.633  30.374  1.00  0.00     0.134 A 
ATOM     89  C   UNL A   1      43.060  33.423  29.587  1.00  0.00     0.134 A 
ATOM     90  F   UNL A   1      43.247  36.687  31.161  1.00  0.00    -0.206 F 
ATOM     91  C   UNL A   1      44.670  35.680  29.608  1.00  0.00     0.040 A 
ATOM     92  C   UNL A   1      44.242  33.444  28.844  1.00  0.00     0.040 A 
ATOM     93  F   UNL A   1      42.329  32.296  29.569  1.00  0.00    -0.206 F 
ATOM     94  C   UNL A   1      45.047  34.580  28.844  1.00  0.00     0.006 A 
ENDBRANCH  70  87
ENDBRANCH  44  45
ENDBRANCH  37  39
ENDBRANCH  36  37
ENDBRANCH  35  36
ENDBRANCH  34  35
ENDBRANCH  33  34
ENDBRANCH  32  33
ENDBRANCH  31  32
ENDBRANCH  30  31
ENDBRANCH  29  30
ENDBRANCH   1  29
TORSDOF 26
ENDMDL
