MODEL 1
REMARK VINA RESULT:     -11.2      0.000      0.000
REMARK SMILES O=C(OCCOCCOCCOCCOC(=O)[C@H]1[C@H]2CC[C@H](CC2)[C@@H]1C(=O)Nc1ccc(Cc2ccncc2)cc1)c1ccc(-c2c3nc(c(-c4c(F)cccc4F)c4ccc([nH]4)c(-c4c(F)cccc4F)c4nc(c(-c5c(F)cccc5F)c5ccc2[nH]5)C=C4)C=C3)cc1
REMARK SMILES IDX 10 1 9 2 8 3 7 4 6 5 5 6 4 7 3 8 2 9 1 10 42 11 43 12 95 13
REMARK SMILES IDX 44 14 94 15 45 16 46 17 47 18 88 19 48 20 93 21 87 22 89 23
REMARK SMILES IDX 49 24 92 25 86 26 85 27 50 29 76 30 59 31 75 32 60 33 63 34
REMARK SMILES IDX 74 35 90 36 61 37 62 38 73 40 91 41 64 42 51 43 52 44 57 45
REMARK SMILES IDX 53 46 54 47 56 48 58 49 55 50 77 51 78 52 83 53 79 54 80 55
REMARK SMILES IDX 82 56 84 57 81 58 65 59 66 60 71 61 67 62 68 63 70 64 72 65
REMARK SMILES IDX 69 66 11 67 12 68 13 69 14 70 15 71 16 72 17 73 18 74 19 75
REMARK SMILES IDX 25 76 24 77 20 78 22 79 23 80 21 81 26 82 27 83 28 84 29 86
REMARK SMILES IDX 30 87 41 88 31 89 40 90 32 91 33 92 34 93 35 94 39 95 36 96
REMARK SMILES IDX 38 97 37 98
REMARK H PARENT 89 28 63 39 28 85
REMARK Flexibility Score: inf
ROOT
ATOM      1  C   UNL A   1      34.201  33.115  28.190  1.00  0.00     0.188 C 
ENDROOT
BRANCH   1   2
ATOM      2  O   UNL A   1      33.519  33.880  29.169  1.00  0.00    -0.377 OA
BRANCH   2   3
ATOM      3  C   UNL A   1      34.071  35.047  29.762  1.00  0.00     0.188 C 
BRANCH   3   4
ATOM      4  C   UNL A   1      33.284  35.750  30.853  1.00  0.00     0.188 C 
BRANCH   4   5
ATOM      5  O   UNL A   1      33.423  35.114  32.106  1.00  0.00    -0.376 OA
BRANCH   5   6
ATOM      6  C   UNL A   1      34.703  35.028  32.683  1.00  0.00     0.202 C 
BRANCH   6   7
ATOM      7  C   UNL A   1      34.666  33.803  33.599  1.00  0.00     0.261 C 
BRANCH   7   8
ATOM      8  O   UNL A   1      35.626  32.796  33.210  1.00  0.00    -0.460 OA
BRANCH   8   9
ATOM      9  C   UNL A   1      35.577  32.062  32.067  1.00  0.00     0.338 C 
ATOM     10  O   UNL A   1      34.510  31.954  31.464  1.00  0.00    -0.246 OA
BRANCH   9  11
ATOM     11  C   UNL A   1      36.816  31.558  31.386  1.00  0.00     0.060 A 
ATOM     12  C   UNL A   1      37.093  31.633  30.017  1.00  0.00     0.016 A 
ATOM     13  C   UNL A   1      37.836  31.094  32.231  1.00  0.00     0.016 A 
ATOM     14  C   UNL A   1      38.342  31.277  29.499  1.00  0.00     0.010 A 
ATOM     15  C   UNL A   1      39.082  30.714  31.719  1.00  0.00     0.010 A 
ATOM     16  C   UNL A   1      39.338  30.794  30.343  1.00  0.00    -0.014 A 
BRANCH  16  17
ATOM     17  C   UNL A   1      40.546  30.155  29.771  1.00  0.00     0.031 A 
ATOM     18  C   UNL A   1      41.768  31.014  29.624  1.00  0.00     0.074 A 
ATOM     19  C   UNL A   1      40.586  28.854  29.433  1.00  0.00     0.049 A 
ATOM     20  N   UNL A   1      42.875  30.790  28.969  1.00  0.00    -0.248 NA
ATOM     21  C   UNL A   1      41.717  32.318  30.306  1.00  0.00     0.031 C 
ATOM     22  C   UNL A   1      39.512  27.885  29.644  1.00  0.00     0.029 A 
ATOM     23  N   UNL A   1      41.581  28.126  28.827  1.00  0.00    -0.354 N 
ATOM     24  C   UNL A   1      43.628  31.949  29.112  1.00  0.00     0.074 A 
ATOM     25  C   UNL A   1      42.851  32.871  29.909  1.00  0.00     0.031 C 
ATOM     26  C   UNL A   1      39.903  26.690  29.167  1.00  0.00     0.029 A 
ATOM     27  C   UNL A   1      41.225  26.826  28.558  1.00  0.00     0.049 A 
ATOM     28  H   UNL A   1      42.464  28.499  28.608  1.00  0.00     0.167 HD
ATOM     29  C   UNL A   1      44.857  32.218  28.617  1.00  0.00     0.037 A 
ATOM     30  C   UNL A   1      41.879  25.876  27.858  1.00  0.00     0.037 A 
ATOM     31  C   UNL A   1      45.626  31.275  27.852  1.00  0.00     0.049 A 
ATOM     32  C   UNL A   1      43.215  26.218  27.245  1.00  0.00     0.074 A 
ATOM     33  C   UNL A   1      46.871  31.439  27.275  1.00  0.00     0.029 A 
ATOM     34  N   UNL A   1      45.217  29.980  27.568  1.00  0.00    -0.354 N 
ATOM     35  N   UNL A   1      43.897  27.337  27.314  1.00  0.00    -0.248 NA
ATOM     36  C   UNL A   1      43.866  25.171  26.443  1.00  0.00     0.031 C 
ATOM     37  C   UNL A   1      47.194  30.256  26.602  1.00  0.00     0.029 A 
ATOM     38  C   UNL A   1      46.179  29.336  26.812  1.00  0.00     0.049 A 
ATOM     39  H   UNL A   1      44.367  29.579  27.862  1.00  0.00     0.167 HD
ATOM     40  C   UNL A   1      45.065  27.122  26.593  1.00  0.00     0.074 A 
ATOM     41  C   UNL A   1      45.003  25.760  26.102  1.00  0.00     0.031 C 
ATOM     42  C   UNL A   1      46.097  27.971  26.354  1.00  0.00     0.037 A 
BRANCH  29  43
ATOM     43  C   UNL A   1      45.391  33.605  28.833  1.00  0.00     0.057 A 
ATOM     44  C   UNL A   1      46.238  33.926  29.903  1.00  0.00     0.134 A 
ATOM     45  C   UNL A   1      45.009  34.647  27.979  1.00  0.00     0.134 A 
ATOM     46  F   UNL A   1      46.623  32.980  30.771  1.00  0.00    -0.206 F 
ATOM     47  C   UNL A   1      46.647  35.239  30.140  1.00  0.00     0.040 A 
ATOM     48  C   UNL A   1      45.440  35.958  28.185  1.00  0.00     0.040 A 
ATOM     49  F   UNL A   1      44.201  34.411  26.934  1.00  0.00    -0.206 F 
ATOM     50  C   UNL A   1      46.251  36.259  29.278  1.00  0.00     0.006 A 
ENDBRANCH  29  43
BRANCH  30  51
ATOM     51  C   UNL A   1      41.270  24.534  27.657  1.00  0.00     0.057 A 
ATOM     52  C   UNL A   1      41.714  23.416  28.376  1.00  0.00     0.134 A 
ATOM     53  C   UNL A   1      40.243  24.327  26.726  1.00  0.00     0.134 A 
ATOM     54  F   UNL A   1      42.712  23.536  29.262  1.00  0.00    -0.206 F 
ATOM     55  C   UNL A   1      41.169  22.146  28.168  1.00  0.00     0.040 A 
ATOM     56  C   UNL A   1      39.670  23.069  26.529  1.00  0.00     0.040 A 
ATOM     57  F   UNL A   1      39.774  25.350  25.997  1.00  0.00    -0.206 F 
ATOM     58  C   UNL A   1      40.138  21.972  27.248  1.00  0.00     0.006 A 
ENDBRANCH  30  51
BRANCH  42  59
ATOM     59  C   UNL A   1      47.267  27.437  25.580  1.00  0.00     0.057 A 
ATOM     60  C   UNL A   1      47.375  27.590  24.193  1.00  0.00     0.134 A 
ATOM     61  C   UNL A   1      48.333  26.821  26.251  1.00  0.00     0.134 A 
ATOM     62  F   UNL A   1      46.385  28.163  23.493  1.00  0.00    -0.206 F 
ATOM     63  C   UNL A   1      48.495  27.134  23.497  1.00  0.00     0.040 A 
ATOM     64  C   UNL A   1      49.470  26.388  25.568  1.00  0.00     0.040 A 
ATOM     65  F   UNL A   1      48.297  26.653  27.580  1.00  0.00    -0.206 F 
ATOM     66  C   UNL A   1      49.550  26.539  24.185  1.00  0.00     0.006 A 
ENDBRANCH  42  59
ENDBRANCH  16  17
ENDBRANCH   9  11
ENDBRANCH   8   9
ENDBRANCH   7   8
ENDBRANCH   6   7
ENDBRANCH   5   6
ENDBRANCH   4   5
ENDBRANCH   3   4
ENDBRANCH   2   3
ENDBRANCH   1   2
BRANCH   1  67
ATOM     67  C   UNL A   1      33.982  31.600  28.163  1.00  0.00     0.188 C 
BRANCH  67  68
ATOM     68  O   UNL A   1      34.484  30.917  27.024  1.00  0.00    -0.376 OA
BRANCH  68  69
ATOM     69  C   UNL A   1      33.805  29.724  26.644  1.00  0.00     0.202 C 
BRANCH  69  70
ATOM     70  C   UNL A   1      32.264  29.748  26.687  1.00  0.00     0.261 C 
BRANCH  70  71
ATOM     71  O   UNL A   1      31.664  28.786  25.786  1.00  0.00    -0.463 OA
BRANCH  71  72
ATOM     72  C   UNL A   1      31.409  27.547  26.292  1.00  0.00     0.310 C 
ATOM     73  O   UNL A   1      30.916  27.380  27.396  1.00  0.00    -0.252 OA
BRANCH  72  74
ATOM     74  C   UNL A   1      31.638  26.402  25.259  1.00  0.00     0.115 C 
ATOM     75  C   UNL A   1      30.401  25.505  24.945  1.00  0.00     0.004 C 
ATOM     76  C   UNL A   1      32.154  27.024  23.936  1.00  0.00     0.096 C 
ATOM     77  C   UNL A   1      29.210  26.393  24.589  1.00  0.00     0.005 C 
ATOM     78  C   UNL A   1      30.669  24.608  23.707  1.00  0.00     0.005 C 
ATOM     79  C   UNL A   1      31.006  26.935  22.879  1.00  0.00     0.002 C 
ATOM     80  C   UNL A   1      29.655  27.383  23.505  1.00  0.00     0.005 C 
ATOM     81  C   UNL A   1      30.856  25.469  22.452  1.00  0.00     0.005 C 
BRANCH  76  82
ATOM     82  C   UNL A   1      33.527  26.568  23.354  1.00  0.00     0.228 C 
ATOM     83  O   UNL A   1      34.051  27.231  22.450  1.00  0.00    -0.274 OA
ATOM     84  N   UNL A   1      34.343  25.720  24.059  1.00  0.00    -0.326 N 
ATOM     85  H   UNL A   1      35.118  26.155  24.482  1.00  0.00     0.169 HD
BRANCH  84  86
ATOM     86  C   UNL A   1      34.259  24.329  24.278  1.00  0.00     0.041 A 
ATOM     87  C   UNL A   1      34.374  23.874  25.596  1.00  0.00     0.026 A 
ATOM     88  C   UNL A   1      34.098  23.386  23.266  1.00  0.00     0.026 A 
ATOM     89  C   UNL A   1      34.114  22.535  25.917  1.00  0.00     0.006 A 
ATOM     90  C   UNL A   1      33.862  22.037  23.580  1.00  0.00     0.006 A 
ATOM     91  C   UNL A   1      33.755  21.624  24.916  1.00  0.00    -0.043 A 
BRANCH  91  92
ATOM     92  C   UNL A   1      32.979  20.375  25.271  1.00  0.00     0.071 C 
BRANCH  92  93
ATOM     93  C   UNL A   1      33.130  19.112  24.476  1.00  0.00    -0.041 A 
ATOM     94  C   UNL A   1      32.245  18.791  23.446  1.00  0.00     0.024 A 
ATOM     95  C   UNL A   1      34.273  18.318  24.634  1.00  0.00     0.024 A 
ATOM     96  C   UNL A   1      32.544  17.712  22.624  1.00  0.00     0.111 A 
ATOM     97  C   UNL A   1      34.489  17.266  23.760  1.00  0.00     0.111 A 
ATOM     98  N   UNL A   1      33.649  16.946  22.757  1.00  0.00    -0.265 NA
ENDBRANCH  92  93
ENDBRANCH  91  92
ENDBRANCH  84  86
ENDBRANCH  76  82
ENDBRANCH  72  74
ENDBRANCH  71  72
ENDBRANCH  70  71
ENDBRANCH  69  70
ENDBRANCH  68  69
ENDBRANCH  67  68
ENDBRANCH   1  67
TORSDOF 24
ENDMDL
MODEL 2
REMARK VINA RESULT:     -10.6      0.609      5.828
REMARK SMILES O=C(OCCOCCOCCOCCOC(=O)[C@H]1[C@H]2CC[C@H](CC2)[C@@H]1C(=O)Nc1ccc(Cc2ccncc2)cc1)c1ccc(-c2c3nc(c(-c4c(F)cccc4F)c4ccc([nH]4)c(-c4c(F)cccc4F)c4nc(c(-c5c(F)cccc5F)c5ccc2[nH]5)C=C4)C=C3)cc1
REMARK SMILES IDX 10 1 9 2 8 3 7 4 6 5 5 6 4 7 3 8 2 9 1 10 42 11 43 12 95 13
REMARK SMILES IDX 44 14 94 15 45 16 46 17 47 18 88 19 48 20 93 21 87 22 89 23
REMARK SMILES IDX 49 24 92 25 86 26 85 27 50 29 76 30 59 31 75 32 60 33 63 34
REMARK SMILES IDX 74 35 90 36 61 37 62 38 73 40 91 41 64 42 51 43 52 44 57 45
REMARK SMILES IDX 53 46 54 47 56 48 58 49 55 50 77 51 78 52 83 53 79 54 80 55
REMARK SMILES IDX 82 56 84 57 81 58 65 59 66 60 71 61 67 62 68 63 70 64 72 65
REMARK SMILES IDX 69 66 11 67 12 68 13 69 14 70 15 71 16 72 17 73 18 74 19 75
REMARK SMILES IDX 25 76 24 77 20 78 22 79 23 80 21 81 26 82 27 83 28 84 29 86
REMARK SMILES IDX 30 87 41 88 31 89 40 90 32 91 33 92 34 93 35 94 39 95 36 96
REMARK SMILES IDX 38 97 37 98
REMARK H PARENT 89 28 63 39 28 85
REMARK Flexibility Score: inf
ROOT
ATOM      1  C   UNL A   1      34.242  33.219  28.747  1.00  0.00     0.188 C 
ENDROOT
BRANCH   1   2
ATOM      2  O   UNL A   1      33.676  33.839  29.889  1.00  0.00    -0.377 OA
BRANCH   2   3
ATOM      3  C   UNL A   1      34.232  34.997  30.495  1.00  0.00     0.188 C 
BRANCH   3   4
ATOM      4  C   UNL A   1      33.558  35.567  31.729  1.00  0.00     0.188 C 
BRANCH   4   5
ATOM      5  O   UNL A   1      33.929  34.879  32.905  1.00  0.00    -0.376 OA
BRANCH   5   6
ATOM      6  C   UNL A   1      35.270  34.931  33.325  1.00  0.00     0.202 C 
BRANCH   6   7
ATOM      7  C   UNL A   1      35.440  33.786  34.324  1.00  0.00     0.261 C 
BRANCH   7   8
ATOM      8  O   UNL A   1      36.449  32.838  33.909  1.00  0.00    -0.460 OA
BRANCH   8   9
ATOM      9  C   UNL A   1      36.390  32.065  32.793  1.00  0.00     0.338 C 
ATOM     10  O   UNL A   1      35.310  31.898  32.229  1.00  0.00    -0.246 OA
BRANCH   9  11
ATOM     11  C   UNL A   1      37.625  31.582  32.088  1.00  0.00     0.060 A 
ATOM     12  C   UNL A   1      38.749  31.009  32.692  1.00  0.00     0.016 A 
ATOM     13  C   UNL A   1      37.574  31.592  30.686  1.00  0.00     0.016 A 
ATOM     14  C   UNL A   1      39.783  30.448  31.937  1.00  0.00     0.010 A 
ATOM     15  C   UNL A   1      38.616  31.053  29.921  1.00  0.00     0.010 A 
ATOM     16  C   UNL A   1      39.735  30.486  30.547  1.00  0.00    -0.014 A 
BRANCH  16  17
ATOM     17  C   UNL A   1      40.943  30.155  29.755  1.00  0.00     0.031 A 
ATOM     18  C   UNL A   1      41.019  28.776  29.169  1.00  0.00     0.074 A 
ATOM     19  C   UNL A   1      41.921  31.048  29.520  1.00  0.00     0.049 A 
ATOM     20  N   UNL A   1      42.030  28.150  28.629  1.00  0.00    -0.248 NA
ATOM     21  C   UNL A   1      39.774  27.992  29.217  1.00  0.00     0.031 C 
ATOM     22  C   UNL A   1      41.908  32.452  29.923  1.00  0.00     0.029 A 
ATOM     23  N   UNL A   1      43.128  30.892  28.883  1.00  0.00    -0.354 N 
ATOM     24  C   UNL A   1      41.556  26.879  28.326  1.00  0.00     0.074 A 
ATOM     25  C   UNL A   1      40.175  26.823  28.747  1.00  0.00     0.031 C 
ATOM     26  C   UNL A   1      43.058  33.029  29.532  1.00  0.00     0.029 A 
ATOM     27  C   UNL A   1      43.914  32.020  28.911  1.00  0.00     0.049 A 
ATOM     28  H   UNL A   1      43.404  30.054  28.448  1.00  0.00     0.167 HD
ATOM     29  C   UNL A   1      42.221  25.850  27.753  1.00  0.00     0.037 A 
ATOM     30  C   UNL A   1      45.193  32.194  28.521  1.00  0.00     0.037 A 
ATOM     31  C   UNL A   1      43.587  25.936  27.314  1.00  0.00     0.049 A 
ATOM     32  C   UNL A   1      45.946  31.014  27.955  1.00  0.00     0.074 A 
ATOM     33  C   UNL A   1      44.376  24.956  26.743  1.00  0.00     0.029 A 
ATOM     34  N   UNL A   1      44.362  27.085  27.393  1.00  0.00    -0.354 N 
ATOM     35  N   UNL A   1      45.526  29.790  27.737  1.00  0.00    -0.248 NA
ATOM     36  C   UNL A   1      47.354  31.235  27.595  1.00  0.00     0.031 C 
ATOM     37  C   UNL A   1      45.645  25.500  26.518  1.00  0.00     0.029 A 
ATOM     38  C   UNL A   1      45.627  26.836  26.893  1.00  0.00     0.049 A 
ATOM     39  H   UNL A   1      44.057  27.949  27.751  1.00  0.00     0.167 HD
ATOM     40  C   UNL A   1      46.603  29.104  27.191  1.00  0.00     0.074 A 
ATOM     41  C   UNL A   1      47.696  30.052  27.102  1.00  0.00     0.031 C 
ATOM     42  C   UNL A   1      46.688  27.808  26.799  1.00  0.00     0.037 A 
BRANCH  29  43
ATOM     43  C   UNL A   1      41.491  24.542  27.646  1.00  0.00     0.057 A 
ATOM     44  C   UNL A   1      41.775  23.453  28.482  1.00  0.00     0.134 A 
ATOM     45  C   UNL A   1      40.520  24.357  26.655  1.00  0.00     0.134 A 
ATOM     46  F   UNL A   1      42.711  23.556  29.437  1.00  0.00    -0.206 F 
ATOM     47  C   UNL A   1      41.152  22.216  28.305  1.00  0.00     0.040 A 
ATOM     48  C   UNL A   1      39.864  23.136  26.491  1.00  0.00     0.040 A 
ATOM     49  F   UNL A   1      40.198  25.357  25.820  1.00  0.00    -0.206 F 
ATOM     50  C   UNL A   1      40.191  22.057  27.309  1.00  0.00     0.006 A 
ENDBRANCH  29  43
BRANCH  30  51
ATOM     51  C   UNL A   1      45.861  33.513  28.690  1.00  0.00     0.057 A 
ATOM     52  C   UNL A   1      45.690  34.542  27.755  1.00  0.00     0.134 A 
ATOM     53  C   UNL A   1      46.704  33.772  29.778  1.00  0.00     0.134 A 
ATOM     54  F   UNL A   1      44.920  34.352  26.675  1.00  0.00    -0.206 F 
ATOM     55  C   UNL A   1      46.340  35.772  27.890  1.00  0.00     0.040 A 
ATOM     56  C   UNL A   1      47.338  35.006  29.941  1.00  0.00     0.040 A 
ATOM     57  F   UNL A   1      46.920  32.830  30.708  1.00  0.00    -0.206 F 
ATOM     58  C   UNL A   1      47.161  36.009  28.991  1.00  0.00     0.006 A 
ENDBRANCH  30  51
BRANCH  42  59
ATOM     59  C   UNL A   1      47.980  27.354  26.184  1.00  0.00     0.057 A 
ATOM     60  C   UNL A   1      49.017  26.807  26.948  1.00  0.00     0.134 A 
ATOM     61  C   UNL A   1      48.154  27.403  24.794  1.00  0.00     0.134 A 
ATOM     62  F   UNL A   1      48.915  26.741  28.284  1.00  0.00    -0.206 F 
ATOM     63  C   UNL A   1      50.191  26.342  26.354  1.00  0.00     0.040 A 
ATOM     64  C   UNL A   1      49.311  26.914  24.186  1.00  0.00     0.040 A 
ATOM     65  F   UNL A   1      47.194  27.904  24.004  1.00  0.00    -0.206 F 
ATOM     66  C   UNL A   1      50.336  26.386  24.969  1.00  0.00     0.006 A 
ENDBRANCH  42  59
ENDBRANCH  16  17
ENDBRANCH   9  11
ENDBRANCH   8   9
ENDBRANCH   7   8
ENDBRANCH   6   7
ENDBRANCH   5   6
ENDBRANCH   4   5
ENDBRANCH   3   4
ENDBRANCH   2   3
ENDBRANCH   1   2
BRANCH   1  67
ATOM     67  C   UNL A   1      34.036  31.713  28.555  1.00  0.00     0.188 C 
BRANCH  67  68
ATOM     68  O   UNL A   1      34.466  31.178  27.312  1.00  0.00    -0.376 OA
BRANCH  68  69
ATOM     69  C   UNL A   1      33.942  29.904  26.951  1.00  0.00     0.202 C 
BRANCH  69  70
ATOM     70  C   UNL A   1      32.408  29.755  26.924  1.00  0.00     0.261 C 
BRANCH  70  71
ATOM     71  O   UNL A   1      31.961  28.716  26.020  1.00  0.00    -0.463 OA
BRANCH  71  72
ATOM     72  C   UNL A   1      31.591  27.532  26.582  1.00  0.00     0.310 C 
ATOM     73  O   UNL A   1      31.010  27.469  27.654  1.00  0.00    -0.252 OA
BRANCH  72  74
ATOM     74  C   UNL A   1      31.821  26.308  25.643  1.00  0.00     0.115 C 
ATOM     75  C   UNL A   1      30.643  25.287  25.548  1.00  0.00     0.004 C 
ATOM     76  C   UNL A   1      32.147  26.829  24.220  1.00  0.00     0.096 C 
ATOM     77  C   UNL A   1      29.349  26.036  25.238  1.00  0.00     0.005 C 
ATOM     78  C   UNL A   1      30.869  24.292  24.380  1.00  0.00     0.005 C 
ATOM     79  C   UNL A   1      30.915  26.539  23.304  1.00  0.00     0.002 C 
ATOM     80  C   UNL A   1      29.596  26.941  24.025  1.00  0.00     0.005 C 
ATOM     81  C   UNL A   1      30.855  25.030  23.036  1.00  0.00     0.005 C 
BRANCH  76  82
ATOM     82  C   UNL A   1      33.492  26.425  23.542  1.00  0.00     0.228 C 
ATOM     83  O   UNL A   1      33.949  27.135  22.637  1.00  0.00    -0.274 OA
ATOM     84  N   UNL A   1      34.364  25.567  24.163  1.00  0.00    -0.326 N 
ATOM     85  H   UNL A   1      35.154  26.002  24.559  1.00  0.00     0.169 HD
BRANCH  84  86
ATOM     86  C   UNL A   1      34.319  24.167  24.330  1.00  0.00     0.041 A 
ATOM     87  C   UNL A   1      34.635  23.656  25.593  1.00  0.00     0.026 A 
ATOM     88  C   UNL A   1      34.010  23.268  23.313  1.00  0.00     0.026 A 
ATOM     89  C   UNL A   1      34.432  22.301  25.890  1.00  0.00     0.006 A 
ATOM     90  C   UNL A   1      33.829  21.904  23.597  1.00  0.00     0.006 A 
ATOM     91  C   UNL A   1      33.928  21.432  24.915  1.00  0.00    -0.043 A 
BRANCH  91  92
ATOM     92  C   UNL A   1      33.219  20.160  25.327  1.00  0.00     0.071 C 
BRANCH  92  93
ATOM     93  C   UNL A   1      33.352  18.899  24.524  1.00  0.00    -0.041 A 
ATOM     94  C   UNL A   1      32.450  18.588  23.505  1.00  0.00     0.024 A 
ATOM     95  C   UNL A   1      34.492  18.099  24.664  1.00  0.00     0.024 A 
ATOM     96  C   UNL A   1      32.732  17.511  22.675  1.00  0.00     0.111 A 
ATOM     97  C   UNL A   1      34.690  17.049  23.782  1.00  0.00     0.111 A 
ATOM     98  N   UNL A   1      33.834  16.739  22.789  1.00  0.00    -0.265 NA
ENDBRANCH  92  93
ENDBRANCH  91  92
ENDBRANCH  84  86
ENDBRANCH  76  82
ENDBRANCH  72  74
ENDBRANCH  71  72
ENDBRANCH  70  71
ENDBRANCH  69  70
ENDBRANCH  68  69
ENDBRANCH  67  68
ENDBRANCH   1  67
TORSDOF 24
ENDMDL
MODEL 3
REMARK VINA RESULT:     -10.5      4.569      9.669
REMARK SMILES O=C(OCCOCCOCCOCCOC(=O)[C@H]1[C@H]2CC[C@H](CC2)[C@@H]1C(=O)Nc1ccc(Cc2ccncc2)cc1)c1ccc(-c2c3nc(c(-c4c(F)cccc4F)c4ccc([nH]4)c(-c4c(F)cccc4F)c4nc(c(-c5c(F)cccc5F)c5ccc2[nH]5)C=C4)C=C3)cc1
REMARK SMILES IDX 10 1 9 2 8 3 7 4 6 5 5 6 4 7 3 8 2 9 1 10 42 11 43 12 95 13
REMARK SMILES IDX 44 14 94 15 45 16 46 17 47 18 88 19 48 20 93 21 87 22 89 23
REMARK SMILES IDX 49 24 92 25 86 26 85 27 50 29 76 30 59 31 75 32 60 33 63 34
REMARK SMILES IDX 74 35 90 36 61 37 62 38 73 40 91 41 64 42 51 43 52 44 57 45
REMARK SMILES IDX 53 46 54 47 56 48 58 49 55 50 77 51 78 52 83 53 79 54 80 55
REMARK SMILES IDX 82 56 84 57 81 58 65 59 66 60 71 61 67 62 68 63 70 64 72 65
REMARK SMILES IDX 69 66 11 67 12 68 13 69 14 70 15 71 16 72 17 73 18 74 19 75
REMARK SMILES IDX 25 76 24 77 20 78 22 79 23 80 21 81 26 82 27 83 28 84 29 86
REMARK SMILES IDX 30 87 41 88 31 89 40 90 32 91 33 92 34 93 35 94 39 95 36 96
REMARK SMILES IDX 38 97 37 98
REMARK H PARENT 89 28 63 39 28 85
REMARK Flexibility Score: inf
ROOT
ATOM      1  C   UNL A   1      38.313  21.916  25.702  1.00  0.00     0.188 C 
ENDROOT
BRANCH   1   2
ATOM      2  O   UNL A   1      39.363  22.166  26.619  1.00  0.00    -0.377 OA
BRANCH   2   3
ATOM      3  C   UNL A   1      40.567  21.412  26.641  1.00  0.00     0.188 C 
BRANCH   3   4
ATOM      4  C   UNL A   1      41.788  21.969  25.934  1.00  0.00     0.188 C 
BRANCH   4   5
ATOM      5  O   UNL A   1      42.991  21.441  26.450  1.00  0.00    -0.376 OA
BRANCH   5   6
ATOM      6  C   UNL A   1      44.045  21.164  25.561  1.00  0.00     0.202 C 
BRANCH   6   7
ATOM      7  C   UNL A   1      44.443  22.510  24.953  1.00  0.00     0.261 C 
BRANCH   7   8
ATOM      8  O   UNL A   1      44.850  23.467  25.955  1.00  0.00    -0.460 OA
BRANCH   8   9
ATOM      9  C   UNL A   1      44.719  24.816  25.854  1.00  0.00     0.338 C 
ATOM     10  O   UNL A   1      44.895  25.361  24.765  1.00  0.00    -0.246 OA
BRANCH   9  11
ATOM     11  C   UNL A   1      44.151  25.650  26.965  1.00  0.00     0.060 A 
ATOM     12  C   UNL A   1      44.405  27.007  27.191  1.00  0.00     0.016 A 
ATOM     13  C   UNL A   1      43.174  25.031  27.760  1.00  0.00     0.016 A 
ATOM     14  C   UNL A   1      43.706  27.735  28.160  1.00  0.00     0.010 A 
ATOM     15  C   UNL A   1      42.486  25.745  28.748  1.00  0.00     0.010 A 
ATOM     16  C   UNL A   1      42.758  27.104  28.960  1.00  0.00    -0.014 A 
BRANCH  16  17
ATOM     17  C   UNL A   1      42.229  27.792  30.161  1.00  0.00     0.031 A 
ATOM     18  C   UNL A   1      40.952  28.564  29.999  1.00  0.00     0.074 A 
ATOM     19  C   UNL A   1      42.823  27.706  31.364  1.00  0.00     0.049 A 
ATOM     20  N   UNL A   1      40.386  29.423  30.802  1.00  0.00    -0.248 NA
ATOM     21  C   UNL A   1      40.224  28.337  28.740  1.00  0.00     0.031 C 
ATOM     22  C   UNL A   1      43.991  26.888  31.682  1.00  0.00     0.029 A 
ATOM     23  N   UNL A   1      42.519  28.331  32.549  1.00  0.00    -0.354 N 
ATOM     24  C   UNL A   1      39.266  29.882  30.120  1.00  0.00     0.074 A 
ATOM     25  C   UNL A   1      39.237  29.212  28.839  1.00  0.00     0.031 C 
ATOM     26  C   UNL A   1      44.312  27.068  32.975  1.00  0.00     0.029 A 
ATOM     27  C   UNL A   1      43.413  28.063  33.558  1.00  0.00     0.049 A 
ATOM     28  H   UNL A   1      41.735  28.915  32.665  1.00  0.00     0.167 HD
ATOM     29  C   UNL A   1      38.347  30.788  30.526  1.00  0.00     0.037 A 
ATOM     30  C   UNL A   1      43.514  28.600  34.791  1.00  0.00     0.037 A 
ATOM     31  C   UNL A   1      38.377  31.421  31.816  1.00  0.00     0.049 A 
ATOM     32  C   UNL A   1      42.528  29.667  35.201  1.00  0.00     0.074 A 
ATOM     33  C   UNL A   1      37.518  32.372  32.333  1.00  0.00     0.029 A 
ATOM     34  N   UNL A   1      39.320  31.150  32.798  1.00  0.00    -0.354 N 
ATOM     35  N   UNL A   1      41.512  30.159  34.530  1.00  0.00    -0.248 NA
ATOM     36  C   UNL A   1      42.709  30.264  36.532  1.00  0.00     0.031 C 
ATOM     37  C   UNL A   1      37.970  32.711  33.613  1.00  0.00     0.029 A 
ATOM     38  C   UNL A   1      39.073  31.927  33.915  1.00  0.00     0.049 A 
ATOM     39  H   UNL A   1      40.056  30.502  32.712  1.00  0.00     0.167 HD
ATOM     40  C   UNL A   1      40.919  31.100  35.363  1.00  0.00     0.074 A 
ATOM     41  C   UNL A   1      41.684  31.102  36.594  1.00  0.00     0.031 C 
ATOM     42  C   UNL A   1      39.842  31.892  35.135  1.00  0.00     0.037 A 
BRANCH  29  43
ATOM     43  C   UNL A   1      37.295  31.185  29.532  1.00  0.00     0.057 A 
ATOM     44  C   UNL A   1      37.330  32.408  28.848  1.00  0.00     0.134 A 
ATOM     45  C   UNL A   1      36.200  30.344  29.292  1.00  0.00     0.134 A 
ATOM     46  F   UNL A   1      38.338  33.269  29.049  1.00  0.00    -0.206 F 
ATOM     47  C   UNL A   1      36.293  32.799  27.999  1.00  0.00     0.040 A 
ATOM     48  C   UNL A   1      35.175  30.709  28.418  1.00  0.00     0.040 A 
ATOM     49  F   UNL A   1      36.102  29.158  29.911  1.00  0.00    -0.206 F 
ATOM     50  C   UNL A   1      35.213  31.946  27.779  1.00  0.00     0.006 A 
ENDBRANCH  29  43
BRANCH  30  51
ATOM     51  C   UNL A   1      44.606  28.180  35.709  1.00  0.00     0.057 A 
ATOM     52  C   UNL A   1      45.858  28.807  35.690  1.00  0.00     0.134 A 
ATOM     53  C   UNL A   1      44.435  27.125  36.616  1.00  0.00     0.134 A 
ATOM     54  F   UNL A   1      46.100  29.804  34.827  1.00  0.00    -0.206 F 
ATOM     55  C   UNL A   1      46.900  28.395  36.526  1.00  0.00     0.040 A 
ATOM     56  C   UNL A   1      45.458  26.721  37.478  1.00  0.00     0.040 A 
ATOM     57  F   UNL A   1      43.265  26.473  36.683  1.00  0.00    -0.206 F 
ATOM     58  C   UNL A   1      46.697  27.355  37.430  1.00  0.00     0.006 A 
ENDBRANCH  30  51
BRANCH  42  59
ATOM     59  C   UNL A   1      39.388  32.782  36.256  1.00  0.00     0.057 A 
ATOM     60  C   UNL A   1      38.461  32.358  37.215  1.00  0.00     0.134 A 
ATOM     61  C   UNL A   1      39.945  34.060  36.410  1.00  0.00     0.134 A 
ATOM     62  F   UNL A   1      37.886  31.151  37.117  1.00  0.00    -0.206 F 
ATOM     63  C   UNL A   1      38.090  33.180  38.280  1.00  0.00     0.040 A 
ATOM     64  C   UNL A   1      39.603  34.878  37.487  1.00  0.00     0.040 A 
ATOM     65  F   UNL A   1      40.847  34.521  35.532  1.00  0.00    -0.206 F 
ATOM     66  C   UNL A   1      38.669  34.440  38.423  1.00  0.00     0.006 A 
ENDBRANCH  42  59
ENDBRANCH  16  17
ENDBRANCH   9  11
ENDBRANCH   8   9
ENDBRANCH   7   8
ENDBRANCH   6   7
ENDBRANCH   5   6
ENDBRANCH   4   5
ENDBRANCH   3   4
ENDBRANCH   2   3
ENDBRANCH   1   2
BRANCH   1  67
ATOM     67  C   UNL A   1      37.214  22.972  25.541  1.00  0.00     0.188 C 
BRANCH  67  68
ATOM     68  O   UNL A   1      36.256  22.727  24.523  1.00  0.00    -0.376 OA
BRANCH  68  69
ATOM     69  C   UNL A   1      35.213  23.686  24.383  1.00  0.00     0.202 C 
BRANCH  69  70
ATOM     70  C   UNL A   1      34.405  23.660  23.071  1.00  0.00     0.261 C 
BRANCH  70  71
ATOM     71  O   UNL A   1      33.274  24.564  23.092  1.00  0.00    -0.463 OA
BRANCH  71  72
ATOM     72  C   UNL A   1      33.539  25.883  22.876  1.00  0.00     0.310 C 
ATOM     73  O   UNL A   1      33.748  26.334  21.761  1.00  0.00    -0.252 OA
BRANCH  72  74
ATOM     74  C   UNL A   1      33.367  26.761  24.153  1.00  0.00     0.115 C 
ATOM     75  C   UNL A   1      33.615  28.291  23.970  1.00  0.00     0.004 C 
ATOM     76  C   UNL A   1      31.936  26.550  24.711  1.00  0.00     0.096 C 
ATOM     77  C   UNL A   1      32.793  28.800  22.788  1.00  0.00     0.005 C 
ATOM     78  C   UNL A   1      33.133  29.081  25.216  1.00  0.00     0.005 C 
ATOM     79  C   UNL A   1      31.112  27.849  24.437  1.00  0.00     0.002 C 
ATOM     80  C   UNL A   1      31.342  28.339  22.978  1.00  0.00     0.005 C 
ATOM     81  C   UNL A   1      31.615  28.948  25.380  1.00  0.00     0.005 C 
BRANCH  76  82
ATOM     82  C   UNL A   1      31.748  26.031  26.170  1.00  0.00     0.228 C 
ATOM     83  O   UNL A   1      31.725  26.844  27.103  1.00  0.00    -0.274 OA
ATOM     84  N   UNL A   1      31.218  24.789  26.412  1.00  0.00    -0.326 N 
ATOM     85  H   UNL A   1      30.282  24.795  26.718  1.00  0.00     0.169 HD
BRANCH  84  86
ATOM     86  C   UNL A   1      31.790  23.504  26.297  1.00  0.00     0.041 A 
ATOM     87  C   UNL A   1      31.314  22.674  25.276  1.00  0.00     0.026 A 
ATOM     88  C   UNL A   1      32.771  23.005  27.150  1.00  0.00     0.026 A 
ATOM     89  C   UNL A   1      31.955  21.464  24.979  1.00  0.00     0.006 A 
ATOM     90  C   UNL A   1      33.401  21.781  26.872  1.00  0.00     0.006 A 
ATOM     91  C   UNL A   1      33.074  21.057  25.716  1.00  0.00    -0.043 A 
BRANCH  91  92
ATOM     92  C   UNL A   1      34.068  20.088  25.113  1.00  0.00     0.071 C 
BRANCH  92  93
ATOM     93  C   UNL A   1      33.758  18.625  24.996  1.00  0.00    -0.041 A 
ATOM     94  C   UNL A   1      32.817  18.014  25.825  1.00  0.00     0.024 A 
ATOM     95  C   UNL A   1      34.278  17.883  23.928  1.00  0.00     0.024 A 
ATOM     96  C   UNL A   1      32.434  16.708  25.546  1.00  0.00     0.111 A 
ATOM     97  C   UNL A   1      33.829  16.589  23.726  1.00  0.00     0.111 A 
ATOM     98  N   UNL A   1      32.917  15.985  24.512  1.00  0.00    -0.265 NA
ENDBRANCH  92  93
ENDBRANCH  91  92
ENDBRANCH  84  86
ENDBRANCH  76  82
ENDBRANCH  72  74
ENDBRANCH  71  72
ENDBRANCH  70  71
ENDBRANCH  69  70
ENDBRANCH  68  69
ENDBRANCH  67  68
ENDBRANCH   1  67
TORSDOF 24
ENDMDL
