MODEL 1
REMARK VINA RESULT:      -7.9      0.000      0.000
REMARK SMILES CC(C)[C@@H]1C(=O)Nc2ccccc2N1C(=O)N[C@H](Cc1ccccc1)C(=O)OCCOCCOCCOCCOC(=O)c1ccc(-c2c3nc(c(-c4c(F)cccc4F)c4ccc([nH]4)c(-c4c(F)cccc4F)c4nc(c(-c5c(F)cccc5F)c5ccc2[nH]5)C=C4)C=C3)cc1
REMARK SMILES IDX 33 1 32 2 31 3 30 4 29 5 28 6 26 7 27 8 18 9 17 10 15 11
REMARK SMILES IDX 16 12 14 14 4 15 5 16 6 17 7 18 13 19 8 20 12 22 9 23 11 24
REMARK SMILES IDX 10 25 2 26 1 27 3 28 19 29 20 30 21 31 25 32 22 33 24 34
REMARK SMILES IDX 23 35 34 36 35 37 36 38 37 39 38 40 39 41 40 42 41 43 42 44
REMARK SMILES IDX 43 45 44 46 96 47 45 48 95 49 46 50 47 51 48 52 89 53 49 54
REMARK SMILES IDX 94 55 88 56 90 57 50 58 93 59 87 60 86 61 51 63 77 64 60 65
REMARK SMILES IDX 76 66 61 67 64 68 75 69 91 70 62 71 63 72 74 74 92 75 65 76
REMARK SMILES IDX 52 77 53 78 58 79 54 80 55 81 57 82 59 83 56 84 78 85 79 86
REMARK SMILES IDX 84 87 80 88 81 89 83 90 85 91 82 92 66 93 67 94 72 95 68 96
REMARK SMILES IDX 69 97 71 98 73 99 70 100
REMARK H PARENT 17 13 7 21 90 62 64 73
REMARK Flexibility Score: inf
ROOT
ATOM      1  C   UNL A   1      33.790  34.315  32.424  1.00  0.00     0.188 C 
ENDROOT
BRANCH   1   2
ATOM      2  C   UNL A   1      34.224  33.434  33.598  1.00  0.00     0.188 C 
BRANCH   2   3
ATOM      3  O   UNL A   1      35.410  32.682  33.425  1.00  0.00    -0.376 OA
BRANCH   3   4
ATOM      4  C   UNL A   1      36.623  33.195  33.976  1.00  0.00     0.202 C 
BRANCH   4   5
ATOM      5  C   UNL A   1      36.604  34.120  35.201  1.00  0.00     0.261 C 
BRANCH   5   6
ATOM      6  O   UNL A   1      37.480  33.707  36.271  1.00  0.00    -0.462 OA
BRANCH   6   7
ATOM      7  C   UNL A   1      38.813  33.622  35.996  1.00  0.00     0.329 C 
ATOM      8  O   UNL A   1      39.475  34.511  35.471  1.00  0.00    -0.250 OA
BRANCH   7   9
ATOM      9  C   UNL A   1      39.409  32.257  36.355  1.00  0.00     0.198 C 
BRANCH   9  10
ATOM     10  N   UNL A   1      40.040  32.374  37.726  1.00  0.00    -0.324 N 
ATOM     11  C   UNL A   1      39.968  32.846  38.980  1.00  0.00     0.323 C 
ATOM     12  O   UNL A   1      40.848  32.305  39.675  1.00  0.00    -0.248 OA
ATOM     13  H   UNL A   1      40.890  31.879  37.674  1.00  0.00     0.166 HD
BRANCH  11  14
ATOM     14  N   UNL A   1      39.094  33.758  39.541  1.00  0.00    -0.280 N 
ATOM     15  C   UNL A   1      39.309  35.240  39.798  1.00  0.00     0.184 C 
ATOM     16  C   UNL A   1      38.670  35.851  41.063  1.00  0.00     0.247 C 
ATOM     17  O   UNL A   1      38.905  36.984  41.488  1.00  0.00    -0.272 OA
ATOM     18  N   UNL A   1      37.703  35.149  41.684  1.00  0.00    -0.322 N 
ATOM     19  C   UNL A   1      37.900  33.219  40.210  1.00  0.00     0.070 A 
ATOM     20  C   UNL A   1      37.274  33.903  41.266  1.00  0.00     0.065 A 
ATOM     21  H   UNL A   1      37.277  35.545  42.478  1.00  0.00     0.170 HD
ATOM     22  C   UNL A   1      37.332  31.983  39.854  1.00  0.00     0.028 A 
ATOM     23  C   UNL A   1      36.201  33.357  41.981  1.00  0.00     0.028 A 
ATOM     24  C   UNL A   1      36.239  31.442  40.552  1.00  0.00     0.002 A 
ATOM     25  C   UNL A   1      35.681  32.123  41.625  1.00  0.00     0.002 A 
BRANCH  15  26
ATOM     26  C   UNL A   1      40.779  35.654  39.837  1.00  0.00     0.015 C 
ATOM     27  C   UNL A   1      41.173  36.969  39.154  1.00  0.00     0.010 C 
ATOM     28  C   UNL A   1      41.487  35.461  41.179  1.00  0.00     0.010 C 
ENDBRANCH  15  26
ENDBRANCH  11  14
ENDBRANCH   9  10
BRANCH   9  29
ATOM     29  C   UNL A   1      40.221  31.503  35.284  1.00  0.00     0.072 C 
BRANCH  29  30
ATOM     30  C   UNL A   1      39.987  30.206  34.532  1.00  0.00    -0.045 A 
ATOM     31  C   UNL A   1      38.735  30.126  33.862  1.00  0.00     0.004 A 
ATOM     32  C   UNL A   1      40.934  29.229  34.247  1.00  0.00     0.004 A 
ATOM     33  C   UNL A   1      38.452  29.145  32.916  1.00  0.00     0.000 A 
ATOM     34  C   UNL A   1      40.639  28.224  33.304  1.00  0.00     0.000 A 
ATOM     35  C   UNL A   1      39.412  28.190  32.631  1.00  0.00     0.000 A 
ENDBRANCH  29  30
ENDBRANCH   9  29
ENDBRANCH   7   9
ENDBRANCH   6   7
ENDBRANCH   5   6
ENDBRANCH   4   5
ENDBRANCH   3   4
ENDBRANCH   2   3
ENDBRANCH   1   2
BRANCH   1  36
ATOM     36  O   UNL A   1      32.479  34.864  32.477  1.00  0.00    -0.377 OA
BRANCH  36  37
ATOM     37  C   UNL A   1      32.345  36.289  32.501  1.00  0.00     0.188 C 
BRANCH  37  38
ATOM     38  C   UNL A   1      33.325  37.140  31.690  1.00  0.00     0.188 C 
BRANCH  38  39
ATOM     39  O   UNL A   1      33.063  37.317  30.297  1.00  0.00    -0.376 OA
BRANCH  39  40
ATOM     40  C   UNL A   1      32.861  36.171  29.475  1.00  0.00     0.202 C 
BRANCH  40  41
ATOM     41  C   UNL A   1      33.796  36.082  28.274  1.00  0.00     0.261 C 
BRANCH  41  42
ATOM     42  O   UNL A   1      35.062  35.509  28.634  1.00  0.00    -0.460 OA
BRANCH  42  43
ATOM     43  C   UNL A   1      35.126  34.168  28.566  1.00  0.00     0.338 C 
ATOM     44  O   UNL A   1      34.376  33.411  27.950  1.00  0.00    -0.246 OA
BRANCH  43  45
ATOM     45  C   UNL A   1      36.315  33.687  29.278  1.00  0.00     0.060 A 
ATOM     46  C   UNL A   1      37.556  34.258  28.967  1.00  0.00     0.016 A 
ATOM     47  C   UNL A   1      36.225  32.601  30.151  1.00  0.00     0.016 A 
ATOM     48  C   UNL A   1      38.723  33.696  29.474  1.00  0.00     0.010 A 
ATOM     49  C   UNL A   1      37.395  32.036  30.656  1.00  0.00     0.010 A 
ATOM     50  C   UNL A   1      38.647  32.550  30.277  1.00  0.00    -0.014 A 
BRANCH  50  51
ATOM     51  C   UNL A   1      39.867  31.765  30.564  1.00  0.00     0.031 A 
ATOM     52  C   UNL A   1      40.032  30.428  29.899  1.00  0.00     0.074 A 
ATOM     53  C   UNL A   1      40.810  32.237  31.395  1.00  0.00     0.049 A 
ATOM     54  N   UNL A   1      40.961  29.524  30.071  1.00  0.00    -0.248 NA
ATOM     55  C   UNL A   1      39.012  30.063  28.903  1.00  0.00     0.031 C 
ATOM     56  C   UNL A   1      40.792  33.551  32.034  1.00  0.00     0.029 A 
ATOM     57  N   UNL A   1      41.964  31.653  31.850  1.00  0.00    -0.354 N 
ATOM     58  C   UNL A   1      40.634  28.483  29.212  1.00  0.00     0.074 A 
ATOM     59  C   UNL A   1      39.403  28.850  28.546  1.00  0.00     0.031 C 
ATOM     60  C   UNL A   1      41.878  33.664  32.816  1.00  0.00     0.029 A 
ATOM     61  C   UNL A   1      42.634  32.416  32.771  1.00  0.00     0.049 A 
ATOM     62  H   UNL A   1      42.280  30.772  31.544  1.00  0.00     0.167 HD
ATOM     63  C   UNL A   1      41.306  27.329  28.993  1.00  0.00     0.037 A 
ATOM     64  C   UNL A   1      43.718  32.124  33.515  1.00  0.00     0.037 A 
ATOM     65  C   UNL A   1      42.526  26.971  29.666  1.00  0.00     0.049 A 
ATOM     66  C   UNL A   1      44.390  30.790  33.335  1.00  0.00     0.074 A 
ATOM     67  C   UNL A   1      43.292  25.829  29.516  1.00  0.00     0.029 A 
ATOM     68  N   UNL A   1      43.153  27.752  30.625  1.00  0.00    -0.354 N 
ATOM     69  N   UNL A   1      44.082  29.813  32.516  1.00  0.00    -0.248 NA
ATOM     70  C   UNL A   1      45.566  30.520  34.173  1.00  0.00     0.031 C 
ATOM     71  C   UNL A   1      44.356  25.896  30.422  1.00  0.00     0.029 A 
ATOM     72  C   UNL A   1      44.284  27.107  31.094  1.00  0.00     0.049 A 
ATOM     73  H   UNL A   1      42.840  28.635  30.928  1.00  0.00     0.167 HD
ATOM     74  C   UNL A   1      45.048  28.833  32.707  1.00  0.00     0.074 A 
ATOM     75  C   UNL A   1      45.952  29.335  33.722  1.00  0.00     0.031 C 
ATOM     76  C   UNL A   1      45.181  27.632  32.093  1.00  0.00     0.037 A 
BRANCH  63  77
ATOM     77  C   UNL A   1      40.715  26.361  28.008  1.00  0.00     0.057 A 
ATOM     78  C   UNL A   1      41.245  26.195  26.721  1.00  0.00     0.134 A 
ATOM     79  C   UNL A   1      39.611  25.574  28.356  1.00  0.00     0.134 A 
ATOM     80  F   UNL A   1      42.294  26.930  26.318  1.00  0.00    -0.206 F 
ATOM     81  C   UNL A   1      40.683  25.300  25.809  1.00  0.00     0.040 A 
ATOM     82  C   UNL A   1      39.056  24.656  27.462  1.00  0.00     0.040 A 
ATOM     83  F   UNL A   1      39.054  25.680  29.572  1.00  0.00    -0.206 F 
ATOM     84  C   UNL A   1      39.588  24.523  26.182  1.00  0.00     0.006 A 
ENDBRANCH  63  77
BRANCH  64  85
ATOM     85  C   UNL A   1      44.223  33.107  34.506  1.00  0.00     0.057 A 
ATOM     86  C   UNL A   1      45.049  34.168  34.121  1.00  0.00     0.134 A 
ATOM     87  C   UNL A   1      43.901  33.003  35.866  1.00  0.00     0.134 A 
ATOM     88  F   UNL A   1      45.406  34.312  32.836  1.00  0.00    -0.206 F 
ATOM     89  C   UNL A   1      45.554  35.078  35.051  1.00  0.00     0.040 A 
ATOM     90  C   UNL A   1      44.378  33.919  36.804  1.00  0.00     0.040 A 
ATOM     91  F   UNL A   1      43.101  32.017  36.300  1.00  0.00    -0.206 F 
ATOM     92  C   UNL A   1      45.215  34.957  36.398  1.00  0.00     0.006 A 
ENDBRANCH  64  85
BRANCH  76  93
ATOM     93  C   UNL A   1      46.378  26.802  32.455  1.00  0.00     0.057 A 
ATOM     94  C   UNL A   1      47.601  26.923  31.783  1.00  0.00     0.134 A 
ATOM     95  C   UNL A   1      46.316  25.903  33.528  1.00  0.00     0.134 A 
ATOM     96  F   UNL A   1      47.724  27.756  30.739  1.00  0.00    -0.206 F 
ATOM     97  C   UNL A   1      48.713  26.164  32.153  1.00  0.00     0.040 A 
ATOM     98  C   UNL A   1      47.428  25.160  33.925  1.00  0.00     0.040 A 
ATOM     99  F   UNL A   1      45.177  25.745  34.220  1.00  0.00    -0.206 F 
ATOM    100  C   UNL A   1      48.630  25.286  33.233  1.00  0.00     0.006 A 
ENDBRANCH  76  93
ENDBRANCH  50  51
ENDBRANCH  43  45
ENDBRANCH  42  43
ENDBRANCH  41  42
ENDBRANCH  40  41
ENDBRANCH  39  40
ENDBRANCH  38  39
ENDBRANCH  37  38
ENDBRANCH  36  37
ENDBRANCH   1  36
TORSDOF 25
ENDMDL
MODEL 2
REMARK VINA RESULT:      -7.7      4.187     10.748
REMARK SMILES CC(C)[C@@H]1C(=O)Nc2ccccc2N1C(=O)N[C@H](Cc1ccccc1)C(=O)OCCOCCOCCOCCOC(=O)c1ccc(-c2c3nc(c(-c4c(F)cccc4F)c4ccc([nH]4)c(-c4c(F)cccc4F)c4nc(c(-c5c(F)cccc5F)c5ccc2[nH]5)C=C4)C=C3)cc1
REMARK SMILES IDX 33 1 32 2 31 3 30 4 29 5 28 6 26 7 27 8 18 9 17 10 15 11
REMARK SMILES IDX 16 12 14 14 4 15 5 16 6 17 7 18 13 19 8 20 12 22 9 23 11 24
REMARK SMILES IDX 10 25 2 26 1 27 3 28 19 29 20 30 21 31 25 32 22 33 24 34
REMARK SMILES IDX 23 35 34 36 35 37 36 38 37 39 38 40 39 41 40 42 41 43 42 44
REMARK SMILES IDX 43 45 44 46 96 47 45 48 95 49 46 50 47 51 48 52 89 53 49 54
REMARK SMILES IDX 94 55 88 56 90 57 50 58 93 59 87 60 86 61 51 63 77 64 60 65
REMARK SMILES IDX 76 66 61 67 64 68 75 69 91 70 62 71 63 72 74 74 92 75 65 76
REMARK SMILES IDX 52 77 53 78 58 79 54 80 55 81 57 82 59 83 56 84 78 85 79 86
REMARK SMILES IDX 84 87 80 88 81 89 83 90 85 91 82 92 66 93 67 94 72 95 68 96
REMARK SMILES IDX 69 97 71 98 73 99 70 100
REMARK H PARENT 17 13 7 21 90 62 64 73
REMARK Flexibility Score: inf
ROOT
ATOM      1  C   UNL A   1      33.409  35.766  30.258  1.00  0.00     0.188 C 
ENDROOT
BRANCH   1   2
ATOM      2  C   UNL A   1      33.334  35.931  28.739  1.00  0.00     0.188 C 
BRANCH   2   3
ATOM      3  O   UNL A   1      34.283  35.212  27.973  1.00  0.00    -0.376 OA
BRANCH   3   4
ATOM      4  C   UNL A   1      34.524  33.845  28.305  1.00  0.00     0.202 C 
BRANCH   4   5
ATOM      5  C   UNL A   1      33.441  32.778  28.091  1.00  0.00     0.261 C 
BRANCH   5   6
ATOM      6  O   UNL A   1      33.918  31.563  27.473  1.00  0.00    -0.462 OA
BRANCH   6   7
ATOM      7  C   UNL A   1      32.984  30.695  26.990  1.00  0.00     0.329 C 
ATOM      8  O   UNL A   1      31.778  30.915  26.956  1.00  0.00    -0.250 OA
BRANCH   7   9
ATOM      9  C   UNL A   1      33.590  29.362  26.539  1.00  0.00     0.198 C 
BRANCH   9  10
ATOM     10  N   UNL A   1      32.474  28.340  26.490  1.00  0.00    -0.324 N 
ATOM     11  C   UNL A   1      32.048  27.133  26.085  1.00  0.00     0.323 C 
ATOM     12  O   UNL A   1      30.975  26.864  26.656  1.00  0.00    -0.248 OA
ATOM     13  H   UNL A   1      31.719  28.743  26.976  1.00  0.00     0.166 HD
BRANCH  11  14
ATOM     14  N   UNL A   1      32.622  26.232  25.210  1.00  0.00    -0.280 N 
ATOM     15  C   UNL A   1      33.363  26.513  23.913  1.00  0.00     0.184 C 
ATOM     16  C   UNL A   1      33.195  25.505  22.756  1.00  0.00     0.247 C 
ATOM     17  O   UNL A   1      33.588  25.693  21.603  1.00  0.00    -0.272 OA
ATOM     18  N   UNL A   1      32.692  24.290  23.045  1.00  0.00    -0.322 N 
ATOM     19  C   UNL A   1      32.282  24.812  25.389  1.00  0.00     0.070 A 
ATOM     20  C   UNL A   1      32.292  23.910  24.312  1.00  0.00     0.065 A 
ATOM     21  H   UNL A   1      32.604  23.637  22.314  1.00  0.00     0.170 HD
ATOM     22  C   UNL A   1      31.901  24.281  26.634  1.00  0.00     0.028 A 
ATOM     23  C   UNL A   1      31.871  22.580  24.444  1.00  0.00     0.028 A 
ATOM     24  C   UNL A   1      31.502  22.942  26.777  1.00  0.00     0.002 A 
ATOM     25  C   UNL A   1      31.474  22.094  25.679  1.00  0.00     0.002 A 
BRANCH  15  26
ATOM     26  C   UNL A   1      33.061  27.884  23.313  1.00  0.00     0.015 C 
ATOM     27  C   UNL A   1      34.214  28.649  22.652  1.00  0.00     0.010 C 
ATOM     28  C   UNL A   1      31.762  27.986  22.513  1.00  0.00     0.010 C 
ENDBRANCH  15  26
ENDBRANCH  11  14
ENDBRANCH   9  10
BRANCH   9  29
ATOM     29  C   UNL A   1      34.917  28.903  27.174  1.00  0.00     0.072 C 
BRANCH  29  30
ATOM     30  C   UNL A   1      35.978  29.623  27.986  1.00  0.00    -0.045 A 
ATOM     31  C   UNL A   1      35.743  29.639  29.388  1.00  0.00     0.004 A 
ATOM     32  C   UNL A   1      37.225  30.042  27.537  1.00  0.00     0.004 A 
ATOM     33  C   UNL A   1      36.718  30.012  30.309  1.00  0.00     0.000 A 
ATOM     34  C   UNL A   1      38.206  30.439  28.468  1.00  0.00     0.000 A 
ATOM     35  C   UNL A   1      37.960  30.409  29.845  1.00  0.00     0.000 A 
ENDBRANCH  29  30
ENDBRANCH   9  29
ENDBRANCH   7   9
ENDBRANCH   6   7
ENDBRANCH   5   6
ENDBRANCH   4   5
ENDBRANCH   3   4
ENDBRANCH   2   3
ENDBRANCH   1   2
BRANCH   1  36
ATOM     36  O   UNL A   1      32.691  36.707  31.048  1.00  0.00    -0.377 OA
BRANCH  36  37
ATOM     37  C   UNL A   1      32.589  36.468  32.456  1.00  0.00     0.188 C 
BRANCH  37  38
ATOM     38  C   UNL A   1      33.846  36.582  33.320  1.00  0.00     0.188 C 
BRANCH  38  39
ATOM     39  O   UNL A   1      34.693  35.436  33.422  1.00  0.00    -0.376 OA
BRANCH  39  40
ATOM     40  C   UNL A   1      34.107  34.138  33.459  1.00  0.00     0.202 C 
BRANCH  40  41
ATOM     41  C   UNL A   1      34.970  33.037  32.850  1.00  0.00     0.261 C 
BRANCH  41  42
ATOM     42  O   UNL A   1      36.368  33.334  32.980  1.00  0.00    -0.460 OA
BRANCH  42  43
ATOM     43  C   UNL A   1      37.003  32.685  33.972  1.00  0.00     0.338 C 
ATOM     44  O   UNL A   1      36.720  32.683  35.170  1.00  0.00    -0.246 OA
BRANCH  43  45
ATOM     45  C   UNL A   1      38.080  31.856  33.418  1.00  0.00     0.060 A 
ATOM     46  C   UNL A   1      38.066  30.480  33.680  1.00  0.00     0.016 A 
ATOM     47  C   UNL A   1      39.157  32.449  32.753  1.00  0.00     0.016 A 
ATOM     48  C   UNL A   1      39.167  29.700  33.340  1.00  0.00     0.010 A 
ATOM     49  C   UNL A   1      40.260  31.666  32.417  1.00  0.00     0.010 A 
ATOM     50  C   UNL A   1      40.288  30.303  32.757  1.00  0.00    -0.014 A 
BRANCH  50  51
ATOM     51  C   UNL A   1      41.568  29.565  32.676  1.00  0.00     0.031 A 
ATOM     52  C   UNL A   1      42.541  29.691  33.814  1.00  0.00     0.074 A 
ATOM     53  C   UNL A   1      41.853  28.795  31.615  1.00  0.00     0.049 A 
ATOM     54  N   UNL A   1      43.756  29.223  33.924  1.00  0.00    -0.248 NA
ATOM     55  C   UNL A   1      42.077  30.448  34.989  1.00  0.00     0.031 C 
ATOM     56  C   UNL A   1      40.954  28.537  30.492  1.00  0.00     0.029 A 
ATOM     57  N   UNL A   1      42.991  28.094  31.308  1.00  0.00    -0.354 N 
ATOM     58  C   UNL A   1      44.204  29.631  35.173  1.00  0.00     0.074 A 
ATOM     59  C   UNL A   1      43.146  30.415  35.771  1.00  0.00     0.031 C 
ATOM     60  C   UNL A   1      41.587  27.749  29.607  1.00  0.00     0.029 A 
ATOM     61  C   UNL A   1      42.945  27.492  30.077  1.00  0.00     0.049 A 
ATOM     62  H   UNL A   1      43.765  28.030  31.913  1.00  0.00     0.167 HD
ATOM     63  C   UNL A   1      45.390  29.368  35.771  1.00  0.00     0.037 A 
ATOM     64  C   UNL A   1      43.903  26.836  29.396  1.00  0.00     0.037 A 
ATOM     65  C   UNL A   1      46.439  28.592  35.165  1.00  0.00     0.049 A 
ATOM     66  C   UNL A   1      45.253  26.644  30.034  1.00  0.00     0.074 A 
ATOM     67  C   UNL A   1      47.677  28.259  35.683  1.00  0.00     0.029 A 
ATOM     68  N   UNL A   1      46.371  28.033  33.897  1.00  0.00    -0.354 N 
ATOM     69  N   UNL A   1      45.668  27.026  31.218  1.00  0.00    -0.248 NA
ATOM     70  C   UNL A   1      46.263  25.925  29.248  1.00  0.00     0.031 C 
ATOM     71  C   UNL A   1      48.379  27.542  34.708  1.00  0.00     0.029 A 
ATOM     72  C   UNL A   1      47.554  27.377  33.606  1.00  0.00     0.049 A 
ATOM     73  H   UNL A   1      45.595  28.093  33.293  1.00  0.00     0.167 HD
ATOM     74  C   UNL A   1      46.969  26.555  31.337  1.00  0.00     0.074 A 
ATOM     75  C   UNL A   1      47.274  25.861  30.102  1.00  0.00     0.031 C 
ATOM     76  C   UNL A   1      47.831  26.677  32.377  1.00  0.00     0.037 A 
BRANCH  63  77
ATOM     77  C   UNL A   1      45.621  29.951  37.135  1.00  0.00     0.057 A 
ATOM     78  C   UNL A   1      45.318  29.243  38.306  1.00  0.00     0.134 A 
ATOM     79  C   UNL A   1      46.169  31.231  37.280  1.00  0.00     0.134 A 
ATOM     80  F   UNL A   1      44.775  28.017  38.238  1.00  0.00    -0.206 F 
ATOM     81  C   UNL A   1      45.527  29.798  39.570  1.00  0.00     0.040 A 
ATOM     82  C   UNL A   1      46.408  31.786  38.539  1.00  0.00     0.040 A 
ATOM     83  F   UNL A   1      46.485  31.963  36.201  1.00  0.00    -0.206 F 
ATOM     84  C   UNL A   1      46.080  31.072  39.688  1.00  0.00     0.006 A 
ENDBRANCH  63  77
BRANCH  64  85
ATOM     85  C   UNL A   1      43.624  26.325  28.030  1.00  0.00     0.057 A 
ATOM     86  C   UNL A   1      43.844  27.119  26.899  1.00  0.00     0.134 A 
ATOM     87  C   UNL A   1      43.123  25.033  27.823  1.00  0.00     0.134 A 
ATOM     88  F   UNL A   1      44.308  28.370  27.034  1.00  0.00    -0.206 F 
ATOM     89  C   UNL A   1      43.555  26.657  25.614  1.00  0.00     0.040 A 
ATOM     90  C   UNL A   1      42.852  24.549  26.542  1.00  0.00     0.040 A 
ATOM     91  F   UNL A   1      42.905  24.215  28.863  1.00  0.00    -0.206 F 
ATOM     92  C   UNL A   1      43.062  25.366  25.432  1.00  0.00     0.006 A 
ENDBRANCH  64  85
BRANCH  76  93
ATOM     93  C   UNL A   1      49.164  25.997  32.251  1.00  0.00     0.057 A 
ATOM     94  C   UNL A   1      49.407  24.729  32.793  1.00  0.00     0.134 A 
ATOM     95  C   UNL A   1      50.201  26.604  31.531  1.00  0.00     0.134 A 
ATOM     96  F   UNL A   1      48.460  24.099  33.504  1.00  0.00    -0.206 F 
ATOM     97  C   UNL A   1      50.643  24.098  32.641  1.00  0.00     0.040 A 
ATOM     98  C   UNL A   1      51.431  25.970  31.347  1.00  0.00     0.040 A 
ATOM     99  F   UNL A   1      50.030  27.814  30.977  1.00  0.00    -0.206 F 
ATOM    100  C   UNL A   1      51.656  24.716  31.908  1.00  0.00     0.006 A 
ENDBRANCH  76  93
ENDBRANCH  50  51
ENDBRANCH  43  45
ENDBRANCH  42  43
ENDBRANCH  41  42
ENDBRANCH  40  41
ENDBRANCH  39  40
ENDBRANCH  38  39
ENDBRANCH  37  38
ENDBRANCH  36  37
ENDBRANCH   1  36
TORSDOF 25
ENDMDL
MODEL 3
REMARK VINA RESULT:      -7.7      8.892     14.134
REMARK SMILES CC(C)[C@@H]1C(=O)Nc2ccccc2N1C(=O)N[C@H](Cc1ccccc1)C(=O)OCCOCCOCCOCCOC(=O)c1ccc(-c2c3nc(c(-c4c(F)cccc4F)c4ccc([nH]4)c(-c4c(F)cccc4F)c4nc(c(-c5c(F)cccc5F)c5ccc2[nH]5)C=C4)C=C3)cc1
REMARK SMILES IDX 33 1 32 2 31 3 30 4 29 5 28 6 26 7 27 8 18 9 17 10 15 11
REMARK SMILES IDX 16 12 14 14 4 15 5 16 6 17 7 18 13 19 8 20 12 22 9 23 11 24
REMARK SMILES IDX 10 25 2 26 1 27 3 28 19 29 20 30 21 31 25 32 22 33 24 34
REMARK SMILES IDX 23 35 34 36 35 37 36 38 37 39 38 40 39 41 40 42 41 43 42 44
REMARK SMILES IDX 43 45 44 46 96 47 45 48 95 49 46 50 47 51 48 52 89 53 49 54
REMARK SMILES IDX 94 55 88 56 90 57 50 58 93 59 87 60 86 61 51 63 77 64 60 65
REMARK SMILES IDX 76 66 61 67 64 68 75 69 91 70 62 71 63 72 74 74 92 75 65 76
REMARK SMILES IDX 52 77 53 78 58 79 54 80 55 81 57 82 59 83 56 84 78 85 79 86
REMARK SMILES IDX 84 87 80 88 81 89 83 90 85 91 82 92 66 93 67 94 72 95 68 96
REMARK SMILES IDX 69 97 71 98 73 99 70 100
REMARK H PARENT 17 13 7 21 90 62 64 73
REMARK Flexibility Score: inf
ROOT
ATOM      1  C   UNL A   1      37.243  22.576  26.237  1.00  0.00     0.188 C 
ENDROOT
BRANCH   1   2
ATOM      2  C   UNL A   1      35.896  23.008  25.654  1.00  0.00     0.188 C 
BRANCH   2   3
ATOM      3  O   UNL A   1      34.841  23.218  26.574  1.00  0.00    -0.376 OA
BRANCH   3   4
ATOM      4  C   UNL A   1      33.707  23.969  26.142  1.00  0.00     0.202 C 
BRANCH   4   5
ATOM      5  C   UNL A   1      32.572  24.316  27.114  1.00  0.00     0.261 C 
BRANCH   5   6
ATOM      6  O   UNL A   1      31.316  23.668  26.817  1.00  0.00    -0.462 OA
BRANCH   6   7
ATOM      7  C   UNL A   1      31.347  22.591  25.982  1.00  0.00     0.329 C 
ATOM      8  O   UNL A   1      31.251  21.423  26.344  1.00  0.00    -0.250 OA
BRANCH   7   9
ATOM      9  C   UNL A   1      31.580  22.980  24.518  1.00  0.00     0.198 C 
BRANCH   9  10
ATOM     10  N   UNL A   1      30.601  24.080  24.170  1.00  0.00    -0.324 N 
ATOM     11  C   UNL A   1      30.400  25.340  23.753  1.00  0.00     0.323 C 
ATOM     12  O   UNL A   1      29.196  25.494  23.474  1.00  0.00    -0.248 OA
ATOM     13  H   UNL A   1      29.705  23.699  24.316  1.00  0.00     0.166 HD
BRANCH  11  14
ATOM     14  N   UNL A   1      31.296  26.379  23.588  1.00  0.00    -0.280 N 
ATOM     15  C   UNL A   1      32.126  26.727  22.362  1.00  0.00     0.184 C 
ATOM     16  C   UNL A   1      33.541  27.298  22.591  1.00  0.00     0.247 C 
ATOM     17  O   UNL A   1      34.382  27.457  21.705  1.00  0.00    -0.272 OA
ATOM     18  N   UNL A   1      33.843  27.766  23.817  1.00  0.00    -0.322 N 
ATOM     19  C   UNL A   1      31.712  27.105  24.797  1.00  0.00     0.070 A 
ATOM     20  C   UNL A   1      32.966  27.734  24.885  1.00  0.00     0.065 A 
ATOM     21  H   UNL A   1      34.737  28.152  23.961  1.00  0.00     0.170 HD
ATOM     22  C   UNL A   1      30.899  27.191  25.940  1.00  0.00     0.028 A 
ATOM     23  C   UNL A   1      33.419  28.341  26.064  1.00  0.00     0.028 A 
ATOM     24  C   UNL A   1      31.338  27.820  27.117  1.00  0.00     0.002 A 
ATOM     25  C   UNL A   1      32.605  28.384  27.183  1.00  0.00     0.002 A 
BRANCH  15  26
ATOM     26  C   UNL A   1      32.302  25.566  21.385  1.00  0.00     0.015 C 
ATOM     27  C   UNL A   1      32.325  25.887  19.886  1.00  0.00     0.010 C 
ATOM     28  C   UNL A   1      33.354  24.527  21.773  1.00  0.00     0.010 C 
ENDBRANCH  15  26
ENDBRANCH  11  14
ENDBRANCH   9  10
BRANCH   9  29
ATOM     29  C   UNL A   1      31.755  21.858  23.476  1.00  0.00     0.072 C 
BRANCH  29  30
ATOM     30  C   UNL A   1      32.526  20.550  23.484  1.00  0.00    -0.045 A 
ATOM     31  C   UNL A   1      33.647  20.527  24.358  1.00  0.00     0.004 A 
ATOM     32  C   UNL A   1      32.120  19.344  22.925  1.00  0.00     0.004 A 
ATOM     33  C   UNL A   1      34.309  19.351  24.699  1.00  0.00     0.000 A 
ATOM     34  C   UNL A   1      32.803  18.157  23.254  1.00  0.00     0.000 A 
ATOM     35  C   UNL A   1      33.881  18.157  24.147  1.00  0.00     0.000 A 
ENDBRANCH  29  30
ENDBRANCH   9  29
ENDBRANCH   7   9
ENDBRANCH   6   7
ENDBRANCH   5   6
ENDBRANCH   4   5
ENDBRANCH   3   4
ENDBRANCH   2   3
ENDBRANCH   1   2
BRANCH   1  36
ATOM     36  O   UNL A   1      38.099  21.814  25.395  1.00  0.00    -0.377 OA
BRANCH  36  37
ATOM     37  C   UNL A   1      39.462  21.639  25.799  1.00  0.00     0.188 C 
BRANCH  37  38
ATOM     38  C   UNL A   1      40.006  20.219  25.976  1.00  0.00     0.188 C 
BRANCH  38  39
ATOM     39  O   UNL A   1      41.358  19.968  25.589  1.00  0.00    -0.376 OA
BRANCH  39  40
ATOM     40  C   UNL A   1      42.418  20.433  26.420  1.00  0.00     0.202 C 
BRANCH  40  41
ATOM     41  C   UNL A   1      43.338  21.453  25.760  1.00  0.00     0.261 C 
BRANCH  41  42
ATOM     42  O   UNL A   1      42.708  22.738  25.655  1.00  0.00    -0.460 OA
BRANCH  42  43
ATOM     43  C   UNL A   1      42.499  23.373  26.821  1.00  0.00     0.338 C 
ATOM     44  O   UNL A   1      41.919  22.941  27.818  1.00  0.00    -0.246 OA
BRANCH  43  45
ATOM     45  C   UNL A   1      43.160  24.683  26.804  1.00  0.00     0.060 A 
ATOM     46  C   UNL A   1      43.572  25.207  25.572  1.00  0.00     0.016 A 
ATOM     47  C   UNL A   1      43.481  25.328  28.001  1.00  0.00     0.016 A 
ATOM     48  C   UNL A   1      44.371  26.345  25.537  1.00  0.00     0.010 A 
ATOM     49  C   UNL A   1      44.285  26.466  27.964  1.00  0.00     0.010 A 
ATOM     50  C   UNL A   1      44.773  26.945  26.737  1.00  0.00    -0.014 A 
BRANCH  50  51
ATOM     51  C   UNL A   1      45.859  27.951  26.735  1.00  0.00     0.031 A 
ATOM     52  C   UNL A   1      45.487  29.406  26.781  1.00  0.00     0.074 A 
ATOM     53  C   UNL A   1      47.146  27.575  26.699  1.00  0.00     0.049 A 
ATOM     54  N   UNL A   1      46.253  30.462  26.689  1.00  0.00    -0.248 NA
ATOM     55  C   UNL A   1      44.058  29.710  26.956  1.00  0.00     0.031 C 
ATOM     56  C   UNL A   1      47.624  26.194  26.731  1.00  0.00     0.029 A 
ATOM     57  N   UNL A   1      48.288  28.328  26.618  1.00  0.00    -0.354 N 
ATOM     58  C   UNL A   1      45.399  31.553  26.789  1.00  0.00     0.074 A 
ATOM     59  C   UNL A   1      44.055  31.034  26.913  1.00  0.00     0.031 C 
ATOM     60  C   UNL A   1      48.965  26.201  26.649  1.00  0.00     0.029 A 
ATOM     61  C   UNL A   1      49.431  27.577  26.508  1.00  0.00     0.049 A 
ATOM     62  H   UNL A   1      48.288  29.312  26.637  1.00  0.00     0.167 HD
ATOM     63  C   UNL A   1      45.712  32.870  26.787  1.00  0.00     0.037 A 
ATOM     64  C   UNL A   1      50.702  27.959  26.288  1.00  0.00     0.037 A 
ATOM     65  C   UNL A   1      47.053  33.376  26.656  1.00  0.00     0.049 A 
ATOM     66  C   UNL A   1      51.016  29.428  26.181  1.00  0.00     0.074 A 
ATOM     67  C   UNL A   1      47.483  34.690  26.648  1.00  0.00     0.029 A 
ATOM     68  N   UNL A   1      48.181  32.584  26.505  1.00  0.00    -0.354 N 
ATOM     69  N   UNL A   1      50.207  30.455  26.284  1.00  0.00    -0.248 NA
ATOM     70  C   UNL A   1      52.418  29.792  25.936  1.00  0.00     0.031 C 
ATOM     71  C   UNL A   1      48.866  34.695  26.439  1.00  0.00     0.029 A 
ATOM     72  C   UNL A   1      49.305  33.381  26.377  1.00  0.00     0.049 A 
ATOM     73  H   UNL A   1      48.182  31.598  26.491  1.00  0.00     0.167 HD
ATOM     74  C   UNL A   1      51.006  31.585  26.162  1.00  0.00     0.074 A 
ATOM     75  C   UNL A   1      52.364  31.115  25.976  1.00  0.00     0.031 C 
ATOM     76  C   UNL A   1      50.650  32.893  26.210  1.00  0.00     0.037 A 
BRANCH  63  77
ATOM     77  C   UNL A   1      44.579  33.850  26.898  1.00  0.00     0.057 A 
ATOM     78  C   UNL A   1      44.154  34.355  28.134  1.00  0.00     0.134 A 
ATOM     79  C   UNL A   1      43.916  34.306  25.753  1.00  0.00     0.134 A 
ATOM     80  F   UNL A   1      44.737  33.947  29.272  1.00  0.00    -0.206 F 
ATOM     81  C   UNL A   1      43.093  35.258  28.228  1.00  0.00     0.040 A 
ATOM     82  C   UNL A   1      42.872  35.229  25.831  1.00  0.00     0.040 A 
ATOM     83  F   UNL A   1      44.273  33.865  24.537  1.00  0.00    -0.206 F 
ATOM     84  C   UNL A   1      42.453  35.702  27.072  1.00  0.00     0.006 A 
ENDBRANCH  63  77
BRANCH  64  85
ATOM     85  C   UNL A   1      51.769  26.938  26.140  1.00  0.00     0.057 A 
ATOM     86  C   UNL A   1      52.535  26.524  27.234  1.00  0.00     0.134 A 
ATOM     87  C   UNL A   1      52.055  26.357  24.896  1.00  0.00     0.134 A 
ATOM     88  F   UNL A   1      52.320  27.055  28.447  1.00  0.00    -0.206 F 
ATOM     89  C   UNL A   1      53.561  25.587  27.097  1.00  0.00     0.040 A 
ATOM     90  C   UNL A   1      53.061  25.401  24.749  1.00  0.00     0.040 A 
ATOM     91  F   UNL A   1      51.347  26.698  23.810  1.00  0.00    -0.206 F 
ATOM     92  C   UNL A   1      53.823  25.019  25.851  1.00  0.00     0.006 A 
ENDBRANCH  64  85
BRANCH  76  93
ATOM     93  C   UNL A   1      51.751  33.909  26.119  1.00  0.00     0.057 A 
ATOM     94  C   UNL A   1      52.366  34.446  27.258  1.00  0.00     0.134 A 
ATOM     95  C   UNL A   1      52.235  34.317  24.869  1.00  0.00     0.134 A 
ATOM     96  F   UNL A   1      51.941  34.108  28.484  1.00  0.00    -0.206 F 
ATOM     97  C   UNL A   1      53.408  35.369  27.154  1.00  0.00     0.040 A 
ATOM     98  C   UNL A   1      53.295  35.216  24.754  1.00  0.00     0.040 A 
ATOM     99  F   UNL A   1      51.697  33.833  23.739  1.00  0.00    -0.206 F 
ATOM    100  C   UNL A   1      53.881  35.749  25.899  1.00  0.00     0.006 A 
ENDBRANCH  76  93
ENDBRANCH  50  51
ENDBRANCH  43  45
ENDBRANCH  42  43
ENDBRANCH  41  42
ENDBRANCH  40  41
ENDBRANCH  39  40
ENDBRANCH  38  39
ENDBRANCH  37  38
ENDBRANCH  36  37
ENDBRANCH   1  36
TORSDOF 25
ENDMDL
