MODEL 1
REMARK VINA RESULT:      -9.8      0.000      0.000
REMARK SMILES CC(C)Cc1cc2c(cc1Cl)C=C(C(=O)OCCOCCOCCOCCOC(=O)c1ccc(-c3c4nc(c(-c5c(F)cccc5F)c5ccc([nH]5)c(-c5c(F)cccc5F)c5nc(c(-c6c(F)cccc6F)c6ccc3[nH]6)C=C5)C=C4)cc1)[C@@H](C(F)(F)F)O2
REMARK SMILES IDX 22 1 21 2 20 3 19 4 18 5 17 6 16 7 14 8 15 9 13 10 5 11 6 12
REMARK SMILES IDX 10 13 7 14 9 15 11 16 8 17 90 18 12 19 85 20 4 21 2 22 1 23
REMARK SMILES IDX 3 24 86 25 87 26 88 27 89 28 23 29 24 30 25 31 26 32 27 33
REMARK SMILES IDX 28 34 29 35 30 36 31 37 32 38 84 39 33 40 83 41 34 42 35 43
REMARK SMILES IDX 36 44 77 45 37 46 82 47 76 48 78 49 38 50 81 51 75 52 74 53
REMARK SMILES IDX 39 55 65 56 48 57 64 58 49 59 52 60 63 61 79 62 50 63 51 64
REMARK SMILES IDX 62 66 80 67 53 68 40 69 41 70 46 71 42 72 43 73 45 74 47 75
REMARK SMILES IDX 44 76 66 77 67 78 72 79 68 80 69 81 71 82 73 83 70 84 54 85
REMARK SMILES IDX 55 86 60 87 56 88 57 89 59 90 61 91 58 92
REMARK H PARENT 78 54 52 65
REMARK Flexibility Score: inf
ROOT
ATOM      1  O   UNL A   1      40.056  21.407  27.285  1.00  0.00    -0.377 OA
ENDROOT
BRANCH   1   2
ATOM      2  C   UNL A   1      39.503  21.805  26.040  1.00  0.00     0.188 C 
BRANCH   2   3
ATOM      3  C   UNL A   1      38.327  20.912  25.604  1.00  0.00     0.188 C 
BRANCH   3   4
ATOM      4  O   UNL A   1      37.626  21.432  24.476  1.00  0.00    -0.376 OA
BRANCH   4   5
ATOM      5  C   UNL A   1      36.509  22.275  24.729  1.00  0.00     0.202 C 
BRANCH   5   6
ATOM      6  C   UNL A   1      35.789  22.112  26.077  1.00  0.00     0.261 C 
BRANCH   6   7
ATOM      7  O   UNL A   1      35.133  23.290  26.567  1.00  0.00    -0.460 OA
BRANCH   7   8
ATOM      8  C   UNL A   1      33.788  23.310  26.551  1.00  0.00     0.338 C 
ATOM      9  O   UNL A   1      33.038  22.706  27.297  1.00  0.00    -0.246 OA
BRANCH   8  10
ATOM     10  C   UNL A   1      33.366  24.334  25.571  1.00  0.00     0.087 C 
ATOM     11  C   UNL A   1      31.466  28.385  23.341  1.00  0.00    -0.025 A 
ATOM     12  C   UNL A   1      31.935  27.143  22.880  1.00  0.00     0.052 A 
ATOM     13  C   UNL A   1      31.772  28.769  24.655  1.00  0.00     0.045 A 
ATOM     14  C   UNL A   1      32.540  26.241  23.753  1.00  0.00     0.128 A 
ATOM     15  C   UNL A   1      32.403  27.872  25.523  1.00  0.00     0.032 A 
ATOM     16  Cl  UNL A   1      31.325  30.308  25.298  1.00  0.00    -0.084 Cl
ATOM     17  C   UNL A   1      32.724  26.582  25.090  1.00  0.00     0.019 A 
ATOM     18  O   UNL A   1      32.873  25.031  23.222  1.00  0.00    -0.475 OA
ATOM     19  C   UNL A   1      33.155  25.572  26.038  1.00  0.00     0.027 C 
ATOM     20  C   UNL A   1      33.278  23.957  24.113  1.00  0.00     0.316 C 
BRANCH  11  21
ATOM     21  C   UNL A   1      30.522  29.163  22.447  1.00  0.00     0.040 C 
BRANCH  21  22
ATOM     22  C   UNL A   1      29.080  29.185  23.014  1.00  0.00    -0.013 C 
ATOM     23  C   UNL A   1      28.084  29.894  22.088  1.00  0.00     0.008 C 
ATOM     24  C   UNL A   1      28.595  27.761  23.291  1.00  0.00     0.008 C 
ENDBRANCH  21  22
ENDBRANCH  11  21
BRANCH  20  25
ATOM     25  C   UNL A   1      32.348  22.760  23.873  1.00  0.00     0.430 C 
ATOM     26  F   UNL A   1      32.015  22.650  22.564  1.00  0.00    -0.167 F 
ATOM     27  F   UNL A   1      32.927  21.587  24.224  1.00  0.00    -0.167 F 
ATOM     28  F   UNL A   1      31.198  22.867  24.576  1.00  0.00    -0.167 F 
ENDBRANCH  20  25
ENDBRANCH   8  10
ENDBRANCH   7   8
ENDBRANCH   6   7
ENDBRANCH   5   6
ENDBRANCH   4   5
ENDBRANCH   3   4
ENDBRANCH   2   3
ENDBRANCH   1   2
BRANCH   1  29
ATOM     29  C   UNL A   1      41.389  20.898  27.273  1.00  0.00     0.188 C 
BRANCH  29  30
ATOM     30  C   UNL A   1      41.932  20.080  26.078  1.00  0.00     0.188 C 
BRANCH  30  31
ATOM     31  O   UNL A   1      43.064  20.671  25.442  1.00  0.00    -0.376 OA
BRANCH  31  32
ATOM     32  C   UNL A   1      43.649  21.795  26.089  1.00  0.00     0.202 C 
BRANCH  32  33
ATOM     33  C   UNL A   1      44.457  22.698  25.148  1.00  0.00     0.261 C 
BRANCH  33  34
ATOM     34  O   UNL A   1      44.525  24.077  25.544  1.00  0.00    -0.460 OA
BRANCH  34  35
ATOM     35  C   UNL A   1      43.430  24.842  25.335  1.00  0.00     0.338 C 
ATOM     36  O   UNL A   1      42.674  24.801  24.382  1.00  0.00    -0.246 OA
BRANCH  35  37
ATOM     37  C   UNL A   1      43.178  25.608  26.575  1.00  0.00     0.060 A 
ATOM     38  C   UNL A   1      43.858  26.803  26.823  1.00  0.00     0.016 A 
ATOM     39  C   UNL A   1      42.264  25.104  27.509  1.00  0.00     0.016 A 
ATOM     40  C   UNL A   1      43.583  27.523  27.985  1.00  0.00     0.010 A 
ATOM     41  C   UNL A   1      41.994  25.822  28.676  1.00  0.00     0.010 A 
ATOM     42  C   UNL A   1      42.624  27.054  28.902  1.00  0.00    -0.014 A 
BRANCH  42  43
ATOM     43  C   UNL A   1      42.116  27.970  29.949  1.00  0.00     0.031 A 
ATOM     44  C   UNL A   1      40.908  28.831  29.757  1.00  0.00     0.074 A 
ATOM     45  C   UNL A   1      42.802  28.013  31.108  1.00  0.00     0.049 A 
ATOM     46  N   UNL A   1      40.299  29.593  30.632  1.00  0.00    -0.248 NA
ATOM     47  C   UNL A   1      40.309  28.850  28.417  1.00  0.00     0.031 C 
ATOM     48  C   UNL A   1      44.025  27.255  31.386  1.00  0.00     0.029 A 
ATOM     49  N   UNL A   1      42.569  28.710  32.263  1.00  0.00    -0.354 N 
ATOM     50  C   UNL A   1      39.230  30.167  29.959  1.00  0.00     0.074 A 
ATOM     51  C   UNL A   1      39.304  29.701  28.588  1.00  0.00     0.031 C 
ATOM     52  C   UNL A   1      44.422  27.512  32.641  1.00  0.00     0.029 A 
ATOM     53  C   UNL A   1      43.493  28.458  33.246  1.00  0.00     0.049 A 
ATOM     54  H   UNL A   1      41.814  29.331  32.378  1.00  0.00     0.167 HD
ATOM     55  C   UNL A   1      38.272  30.993  30.450  1.00  0.00     0.037 A 
ATOM     56  C   UNL A   1      43.577  28.929  34.502  1.00  0.00     0.037 A 
ATOM     57  C   UNL A   1      38.225  31.476  31.809  1.00  0.00     0.049 A 
ATOM     58  C   UNL A   1      42.518  29.863  35.007  1.00  0.00     0.074 A 
ATOM     59  C   UNL A   1      37.266  32.274  32.413  1.00  0.00     0.029 A 
ATOM     60  N   UNL A   1      39.192  31.225  32.774  1.00  0.00    -0.354 N 
ATOM     61  N   UNL A   1      41.453  30.315  34.391  1.00  0.00    -0.248 NA
ATOM     62  C   UNL A   1      42.668  30.339  36.387  1.00  0.00     0.031 C 
ATOM     63  C   UNL A   1      37.678  32.546  33.724  1.00  0.00     0.029 A 
ATOM     64  C   UNL A   1      38.868  31.878  33.955  1.00  0.00     0.049 A 
ATOM     65  H   UNL A   1      39.991  30.666  32.639  1.00  0.00     0.167 HD
ATOM     66  C   UNL A   1      40.795  31.115  35.314  1.00  0.00     0.074 A 
ATOM     67  C   UNL A   1      41.567  31.059  36.540  1.00  0.00     0.031 C 
ATOM     68  C   UNL A   1      39.656  31.835  35.162  1.00  0.00     0.037 A 
BRANCH  55  69
ATOM     69  C   UNL A   1      37.185  31.428  29.508  1.00  0.00     0.057 A 
ATOM     70  C   UNL A   1      37.211  32.695  28.911  1.00  0.00     0.134 A 
ATOM     71  C   UNL A   1      36.078  30.612  29.239  1.00  0.00     0.134 A 
ATOM     72  F   UNL A   1      38.235  33.533  29.135  1.00  0.00    -0.206 F 
ATOM     73  C   UNL A   1      36.176  33.134  28.083  1.00  0.00     0.040 A 
ATOM     74  C   UNL A   1      35.048  31.030  28.393  1.00  0.00     0.040 A 
ATOM     75  F   UNL A   1      35.991  29.386  29.776  1.00  0.00    -0.206 F 
ATOM     76  C   UNL A   1      35.093  32.298  27.817  1.00  0.00     0.006 A 
ENDBRANCH  55  69
BRANCH  56  77
ATOM     77  C   UNL A   1      44.689  28.497  35.382  1.00  0.00     0.057 A 
ATOM     78  C   UNL A   1      45.910  29.182  35.402  1.00  0.00     0.134 A 
ATOM     79  C   UNL A   1      44.550  27.394  36.230  1.00  0.00     0.134 A 
ATOM     80  F   UNL A   1      46.108  30.240  34.603  1.00  0.00    -0.206 F 
ATOM     81  C   UNL A   1      46.953  28.785  36.240  1.00  0.00     0.040 A 
ATOM     82  C   UNL A   1      45.575  27.002  37.091  1.00  0.00     0.040 A 
ATOM     83  F   UNL A   1      43.398  26.708  36.262  1.00  0.00    -0.206 F 
ATOM     84  C   UNL A   1      46.782  27.698  37.094  1.00  0.00     0.006 A 
ENDBRANCH  56  77
BRANCH  68  85
ATOM     85  C   UNL A   1      39.187  32.606  36.362  1.00  0.00     0.057 A 
ATOM     86  C   UNL A   1      39.640  33.909  36.601  1.00  0.00     0.134 A 
ATOM     87  C   UNL A   1      38.256  32.072  37.265  1.00  0.00     0.134 A 
ATOM     88  F   UNL A   1      40.534  34.481  35.780  1.00  0.00    -0.206 F 
ATOM     89  C   UNL A   1      39.177  34.657  37.685  1.00  0.00     0.040 A 
ATOM     90  C   UNL A   1      37.763  32.820  38.335  1.00  0.00     0.040 A 
ATOM     91  F   UNL A   1      37.765  30.836  37.083  1.00  0.00    -0.206 F 
ATOM     92  C   UNL A   1      38.226  34.117  38.548  1.00  0.00     0.006 A 
ENDBRANCH  68  85
ENDBRANCH  42  43
ENDBRANCH  35  37
ENDBRANCH  34  35
ENDBRANCH  33  34
ENDBRANCH  32  33
ENDBRANCH  31  32
ENDBRANCH  30  31
ENDBRANCH  29  30
ENDBRANCH   1  29
TORSDOF 23
ENDMDL
MODEL 2
REMARK VINA RESULT:      -9.7      1.422      2.037
REMARK SMILES CC(C)Cc1cc2c(cc1Cl)C=C(C(=O)OCCOCCOCCOCCOC(=O)c1ccc(-c3c4nc(c(-c5c(F)cccc5F)c5ccc([nH]5)c(-c5c(F)cccc5F)c5nc(c(-c6c(F)cccc6F)c6ccc3[nH]6)C=C5)C=C4)cc1)[C@@H](C(F)(F)F)O2
REMARK SMILES IDX 22 1 21 2 20 3 19 4 18 5 17 6 16 7 14 8 15 9 13 10 5 11 6 12
REMARK SMILES IDX 10 13 7 14 9 15 11 16 8 17 90 18 12 19 85 20 4 21 2 22 1 23
REMARK SMILES IDX 3 24 86 25 87 26 88 27 89 28 23 29 24 30 25 31 26 32 27 33
REMARK SMILES IDX 28 34 29 35 30 36 31 37 32 38 84 39 33 40 83 41 34 42 35 43
REMARK SMILES IDX 36 44 77 45 37 46 82 47 76 48 78 49 38 50 81 51 75 52 74 53
REMARK SMILES IDX 39 55 65 56 48 57 64 58 49 59 52 60 63 61 79 62 50 63 51 64
REMARK SMILES IDX 62 66 80 67 53 68 40 69 41 70 46 71 42 72 43 73 45 74 47 75
REMARK SMILES IDX 44 76 66 77 67 78 72 79 68 80 69 81 71 82 73 83 70 84 54 85
REMARK SMILES IDX 55 86 60 87 56 88 57 89 59 90 61 91 58 92
REMARK H PARENT 78 54 52 65
REMARK Flexibility Score: inf
ROOT
ATOM      1  O   UNL A   1      40.709  24.386  26.315  1.00  0.00    -0.377 OA
ENDROOT
BRANCH   1   2
ATOM      2  C   UNL A   1      39.484  24.969  26.732  1.00  0.00     0.188 C 
BRANCH   2   3
ATOM      3  C   UNL A   1      38.356  23.933  26.880  1.00  0.00     0.188 C 
BRANCH   3   4
ATOM      4  O   UNL A   1      37.798  23.538  25.628  1.00  0.00    -0.376 OA
BRANCH   4   5
ATOM      5  C   UNL A   1      37.612  22.146  25.402  1.00  0.00     0.202 C 
BRANCH   5   6
ATOM      6  C   UNL A   1      36.362  21.715  24.620  1.00  0.00     0.261 C 
BRANCH   6   7
ATOM      7  O   UNL A   1      35.118  22.223  25.127  1.00  0.00    -0.460 OA
BRANCH   7   8
ATOM      8  C   UNL A   1      34.012  22.014  24.391  1.00  0.00     0.338 C 
ATOM      9  O   UNL A   1      33.642  20.959  23.906  1.00  0.00    -0.246 OA
BRANCH   8  10
ATOM     10  C   UNL A   1      33.219  23.262  24.411  1.00  0.00     0.087 C 
ATOM     11  C   UNL A   1      31.711  28.025  24.216  1.00  0.00    -0.025 A 
ATOM     12  C   UNL A   1      31.130  26.832  24.679  1.00  0.00     0.052 A 
ATOM     13  C   UNL A   1      32.850  27.941  23.400  1.00  0.00     0.045 A 
ATOM     14  C   UNL A   1      31.761  25.607  24.477  1.00  0.00     0.128 A 
ATOM     15  C   UNL A   1      33.468  26.706  23.177  1.00  0.00     0.032 A 
ATOM     16  Cl  UNL A   1      33.595  29.335  22.703  1.00  0.00    -0.084 Cl
ATOM     17  C   UNL A   1      32.962  25.549  23.774  1.00  0.00     0.019 A 
ATOM     18  O   UNL A   1      31.158  24.526  25.047  1.00  0.00    -0.475 OA
ATOM     19  C   UNL A   1      33.721  24.312  23.748  1.00  0.00     0.027 C 
ATOM     20  C   UNL A   1      31.873  23.262  25.092  1.00  0.00     0.316 C 
BRANCH  11  21
ATOM     21  C   UNL A   1      31.173  29.334  24.756  1.00  0.00     0.040 C 
BRANCH  21  22
ATOM     22  C   UNL A   1      31.982  29.826  25.983  1.00  0.00    -0.013 C 
ATOM     23  C   UNL A   1      31.568  31.227  26.450  1.00  0.00     0.008 C 
ATOM     24  C   UNL A   1      31.844  28.839  27.143  1.00  0.00     0.008 C 
ENDBRANCH  21  22
ENDBRANCH  11  21
BRANCH  20  25
ATOM     25  C   UNL A   1      31.959  22.814  26.558  1.00  0.00     0.430 C 
ATOM     26  F   UNL A   1      30.824  23.118  27.233  1.00  0.00    -0.167 F 
ATOM     27  F   UNL A   1      32.130  21.476  26.673  1.00  0.00    -0.167 F 
ATOM     28  F   UNL A   1      32.987  23.408  27.206  1.00  0.00    -0.167 F 
ENDBRANCH  20  25
ENDBRANCH   8  10
ENDBRANCH   7   8
ENDBRANCH   6   7
ENDBRANCH   5   6
ENDBRANCH   4   5
ENDBRANCH   3   4
ENDBRANCH   2   3
ENDBRANCH   1   2
BRANCH   1  29
ATOM     29  C   UNL A   1      40.962  23.042  26.724  1.00  0.00     0.188 C 
BRANCH  29  30
ATOM     30  C   UNL A   1      41.784  22.071  25.846  1.00  0.00     0.188 C 
BRANCH  30  31
ATOM     31  O   UNL A   1      43.026  21.677  26.428  1.00  0.00    -0.376 OA
BRANCH  31  32
ATOM     32  C   UNL A   1      44.080  21.351  25.530  1.00  0.00     0.202 C 
BRANCH  32  33
ATOM     33  C   UNL A   1      45.310  22.257  25.667  1.00  0.00     0.261 C 
BRANCH  33  34
ATOM     34  O   UNL A   1      45.140  23.379  26.547  1.00  0.00    -0.460 OA
BRANCH  34  35
ATOM     35  C   UNL A   1      45.041  24.605  25.986  1.00  0.00     0.338 C 
ATOM     36  O   UNL A   1      45.411  24.939  24.876  1.00  0.00    -0.246 OA
BRANCH  35  37
ATOM     37  C   UNL A   1      44.208  25.438  26.880  1.00  0.00     0.060 A 
ATOM     38  C   UNL A   1      43.529  24.865  27.958  1.00  0.00     0.016 A 
ATOM     39  C   UNL A   1      44.092  26.809  26.615  1.00  0.00     0.016 A 
ATOM     40  C   UNL A   1      42.773  25.676  28.805  1.00  0.00     0.010 A 
ATOM     41  C   UNL A   1      43.330  27.619  27.460  1.00  0.00     0.010 A 
ATOM     42  C   UNL A   1      42.697  27.062  28.580  1.00  0.00    -0.014 A 
BRANCH  42  43
ATOM     43  C   UNL A   1      42.168  27.940  29.650  1.00  0.00     0.031 A 
ATOM     44  C   UNL A   1      40.928  28.761  29.487  1.00  0.00     0.074 A 
ATOM     45  C   UNL A   1      42.863  27.984  30.804  1.00  0.00     0.049 A 
ATOM     46  N   UNL A   1      40.302  29.484  30.382  1.00  0.00    -0.248 NA
ATOM     47  C   UNL A   1      40.317  28.785  28.152  1.00  0.00     0.031 C 
ATOM     48  C   UNL A   1      44.115  27.265  31.056  1.00  0.00     0.029 A 
ATOM     49  N   UNL A   1      42.617  28.650  31.974  1.00  0.00    -0.354 N 
ATOM     50  C   UNL A   1      39.207  30.033  29.730  1.00  0.00     0.074 A 
ATOM     51  C   UNL A   1      39.284  29.596  28.349  1.00  0.00     0.031 C 
ATOM     52  C   UNL A   1      44.515  27.511  32.312  1.00  0.00     0.029 A 
ATOM     53  C   UNL A   1      43.559  28.411  32.944  1.00  0.00     0.049 A 
ATOM     54  H   UNL A   1      41.842  29.241  32.108  1.00  0.00     0.167 HD
ATOM     55  C   UNL A   1      38.225  30.814  30.245  1.00  0.00     0.037 A 
ATOM     56  C   UNL A   1      43.638  28.860  34.209  1.00  0.00     0.037 A 
ATOM     57  C   UNL A   1      38.175  31.268  31.615  1.00  0.00     0.049 A 
ATOM     58  C   UNL A   1      42.552  29.746  34.741  1.00  0.00     0.074 A 
ATOM     59  C   UNL A   1      37.194  32.020  32.243  1.00  0.00     0.029 A 
ATOM     60  N   UNL A   1      39.159  31.033  32.566  1.00  0.00    -0.354 N 
ATOM     61  N   UNL A   1      41.466  30.172  34.144  1.00  0.00    -0.248 NA
ATOM     62  C   UNL A   1      42.698  30.201  36.129  1.00  0.00     0.031 C 
ATOM     63  C   UNL A   1      37.609  32.281  33.556  1.00  0.00     0.029 A 
ATOM     64  C   UNL A   1      38.824  31.651  33.762  1.00  0.00     0.049 A 
ATOM     65  H   UNL A   1      39.976  30.505  32.413  1.00  0.00     0.167 HD
ATOM     66  C   UNL A   1      40.789  30.931  35.089  1.00  0.00     0.074 A 
ATOM     67  C   UNL A   1      41.575  30.878  36.306  1.00  0.00     0.031 C 
ATOM     68  C   UNL A   1      39.624  31.612  34.961  1.00  0.00     0.037 A 
BRANCH  55  69
ATOM     69  C   UNL A   1      37.114  31.228  29.323  1.00  0.00     0.057 A 
ATOM     70  C   UNL A   1      37.084  32.511  28.760  1.00  0.00     0.134 A 
ATOM     71  C   UNL A   1      36.040  30.375  29.038  1.00  0.00     0.134 A 
ATOM     72  F   UNL A   1      38.073  33.385  29.000  1.00  0.00    -0.206 F 
ATOM     73  C   UNL A   1      36.025  32.929  27.950  1.00  0.00     0.040 A 
ATOM     74  C   UNL A   1      34.988  30.773  28.210  1.00  0.00     0.040 A 
ATOM     75  F   UNL A   1      36.007  29.133  29.543  1.00  0.00    -0.206 F 
ATOM     76  C   UNL A   1      34.976  32.056  27.668  1.00  0.00     0.006 A 
ENDBRANCH  55  69
BRANCH  56  77
ATOM     77  C   UNL A   1      44.774  28.451  35.069  1.00  0.00     0.057 A 
ATOM     78  C   UNL A   1      44.699  27.312  35.879  1.00  0.00     0.134 A 
ATOM     79  C   UNL A   1      45.963  29.186  35.090  1.00  0.00     0.134 A 
ATOM     80  F   UNL A   1      43.581  26.574  35.912  1.00  0.00    -0.206 F 
ATOM     81  C   UNL A   1      45.772  26.918  36.680  1.00  0.00     0.040 A 
ATOM     82  C   UNL A   1      47.053  28.789  35.866  1.00  0.00     0.040 A 
ATOM     83  F   UNL A   1      46.095  30.279  34.324  1.00  0.00    -0.206 F 
ATOM     84  C   UNL A   1      46.956  27.652  36.666  1.00  0.00     0.006 A 
ENDBRANCH  56  77
BRANCH  68  85
ATOM     85  C   UNL A   1      39.139  32.343  36.180  1.00  0.00     0.057 A 
ATOM     86  C   UNL A   1      39.559  33.651  36.448  1.00  0.00     0.134 A 
ATOM     87  C   UNL A   1      38.227  31.763  37.074  1.00  0.00     0.134 A 
ATOM     88  F   UNL A   1      40.433  34.266  35.636  1.00  0.00    -0.206 F 
ATOM     89  C   UNL A   1      39.081  34.362  37.550  1.00  0.00     0.040 A 
ATOM     90  C   UNL A   1      37.720  32.473  38.163  1.00  0.00     0.040 A 
ATOM     91  F   UNL A   1      37.769  30.519  36.865  1.00  0.00    -0.206 F 
ATOM     92  C   UNL A   1      38.149  33.777  38.404  1.00  0.00     0.006 A 
ENDBRANCH  68  85
ENDBRANCH  42  43
ENDBRANCH  35  37
ENDBRANCH  34  35
ENDBRANCH  33  34
ENDBRANCH  32  33
ENDBRANCH  31  32
ENDBRANCH  30  31
ENDBRANCH  29  30
ENDBRANCH   1  29
TORSDOF 23
ENDMDL
MODEL 3
REMARK VINA RESULT:      -9.6      2.434      7.654
REMARK SMILES CC(C)Cc1cc2c(cc1Cl)C=C(C(=O)OCCOCCOCCOCCOC(=O)c1ccc(-c3c4nc(c(-c5c(F)cccc5F)c5ccc([nH]5)c(-c5c(F)cccc5F)c5nc(c(-c6c(F)cccc6F)c6ccc3[nH]6)C=C5)C=C4)cc1)[C@@H](C(F)(F)F)O2
REMARK SMILES IDX 22 1 21 2 20 3 19 4 18 5 17 6 16 7 14 8 15 9 13 10 5 11 6 12
REMARK SMILES IDX 10 13 7 14 9 15 11 16 8 17 90 18 12 19 85 20 4 21 2 22 1 23
REMARK SMILES IDX 3 24 86 25 87 26 88 27 89 28 23 29 24 30 25 31 26 32 27 33
REMARK SMILES IDX 28 34 29 35 30 36 31 37 32 38 84 39 33 40 83 41 34 42 35 43
REMARK SMILES IDX 36 44 77 45 37 46 82 47 76 48 78 49 38 50 81 51 75 52 74 53
REMARK SMILES IDX 39 55 65 56 48 57 64 58 49 59 52 60 63 61 79 62 50 63 51 64
REMARK SMILES IDX 62 66 80 67 53 68 40 69 41 70 46 71 42 72 43 73 45 74 47 75
REMARK SMILES IDX 44 76 66 77 67 78 72 79 68 80 69 81 71 82 73 83 70 84 54 85
REMARK SMILES IDX 55 86 60 87 56 88 57 89 59 90 61 91 58 92
REMARK H PARENT 78 54 52 65
REMARK Flexibility Score: inf
ROOT
ATOM      1  O   UNL A   1      32.568  26.111  26.523  1.00  0.00    -0.377 OA
ENDROOT
BRANCH   1   2
ATOM      2  C   UNL A   1      31.778  24.937  26.411  1.00  0.00     0.188 C 
BRANCH   2   3
ATOM      3  C   UNL A   1      32.248  23.817  27.357  1.00  0.00     0.188 C 
BRANCH   3   4
ATOM      4  O   UNL A   1      32.645  22.636  26.662  1.00  0.00    -0.376 OA
BRANCH   4   5
ATOM      5  C   UNL A   1      33.514  21.737  27.340  1.00  0.00     0.202 C 
BRANCH   5   6
ATOM      6  C   UNL A   1      34.966  21.648  26.847  1.00  0.00     0.261 C 
BRANCH   6   7
ATOM      7  O   UNL A   1      35.353  22.649  25.895  1.00  0.00    -0.460 OA
BRANCH   7   8
ATOM      8  C   UNL A   1      35.401  22.295  24.598  1.00  0.00     0.338 C 
ATOM      9  O   UNL A   1      35.950  21.315  24.126  1.00  0.00    -0.246 OA
BRANCH   8  10
ATOM     10  C   UNL A   1      34.520  23.217  23.849  1.00  0.00     0.087 C 
ATOM     11  C   UNL A   1      31.828  27.142  22.318  1.00  0.00    -0.025 A 
ATOM     12  C   UNL A   1      31.883  25.788  21.947  1.00  0.00     0.052 A 
ATOM     13  C   UNL A   1      32.869  27.663  23.102  1.00  0.00     0.045 A 
ATOM     14  C   UNL A   1      32.852  24.941  22.481  1.00  0.00     0.128 A 
ATOM     15  C   UNL A   1      33.856  26.816  23.616  1.00  0.00     0.032 A 
ATOM     16  Cl  UNL A   1      32.951  29.331  23.543  1.00  0.00    -0.084 Cl
ATOM     17  C   UNL A   1      33.806  25.442  23.362  1.00  0.00     0.019 A 
ATOM     18  O   UNL A   1      32.756  23.629  22.125  1.00  0.00    -0.475 OA
ATOM     19  C   UNL A   1      34.676  24.527  24.078  1.00  0.00     0.027 C 
ATOM     20  C   UNL A   1      33.570  22.648  22.824  1.00  0.00     0.316 C 
BRANCH  11  21
ATOM     21  C   UNL A   1      30.570  27.918  21.988  1.00  0.00     0.040 C 
BRANCH  21  22
ATOM     22  C   UNL A   1      29.795  28.328  23.267  1.00  0.00    -0.013 C 
ATOM     23  C   UNL A   1      29.804  29.843  23.510  1.00  0.00     0.008 C 
ATOM     24  C   UNL A   1      28.351  27.830  23.198  1.00  0.00     0.008 C 
ENDBRANCH  21  22
ENDBRANCH  11  21
BRANCH  20  25
ATOM     25  C   UNL A   1      32.632  21.589  23.421  1.00  0.00     0.430 C 
ATOM     26  F   UNL A   1      31.841  21.040  22.469  1.00  0.00    -0.167 F 
ATOM     27  F   UNL A   1      33.315  20.568  23.991  1.00  0.00    -0.167 F 
ATOM     28  F   UNL A   1      31.822  22.111  24.370  1.00  0.00    -0.167 F 
ENDBRANCH  20  25
ENDBRANCH   8  10
ENDBRANCH   7   8
ENDBRANCH   6   7
ENDBRANCH   5   6
ENDBRANCH   4   5
ENDBRANCH   3   4
ENDBRANCH   2   3
ENDBRANCH   1   2
BRANCH   1  29
ATOM     29  C   UNL A   1      31.879  27.341  26.747  1.00  0.00     0.188 C 
BRANCH  29  30
ATOM     30  C   UNL A   1      32.642  28.651  27.051  1.00  0.00     0.188 C 
BRANCH  30  31
ATOM     31  O   UNL A   1      31.795  29.740  27.414  1.00  0.00    -0.376 OA
BRANCH  31  32
ATOM     32  C   UNL A   1      31.478  30.674  26.389  1.00  0.00     0.202 C 
BRANCH  32  33
ATOM     33  C   UNL A   1      31.535  32.137  26.846  1.00  0.00     0.261 C 
BRANCH  33  34
ATOM     34  O   UNL A   1      32.829  32.752  26.746  1.00  0.00    -0.460 OA
BRANCH  34  35
ATOM     35  C   UNL A   1      33.283  33.433  27.821  1.00  0.00     0.338 C 
ATOM     36  O   UNL A   1      32.699  34.300  28.444  1.00  0.00    -0.246 OA
BRANCH  35  37
ATOM     37  C   UNL A   1      34.546  32.795  28.252  1.00  0.00     0.060 A 
ATOM     38  C   UNL A   1      35.729  33.536  28.323  1.00  0.00     0.016 A 
ATOM     39  C   UNL A   1      34.543  31.429  28.564  1.00  0.00     0.016 A 
ATOM     40  C   UNL A   1      36.901  32.919  28.760  1.00  0.00     0.010 A 
ATOM     41  C   UNL A   1      35.719  30.811  28.995  1.00  0.00     0.010 A 
ATOM     42  C   UNL A   1      36.895  31.562  29.131  1.00  0.00    -0.014 A 
BRANCH  42  43
ATOM     43  C   UNL A   1      38.047  31.014  29.885  1.00  0.00     0.031 A 
ATOM     44  C   UNL A   1      38.323  31.365  31.313  1.00  0.00     0.074 A 
ATOM     45  C   UNL A   1      38.866  30.174  29.224  1.00  0.00     0.049 A 
ATOM     46  N   UNL A   1      39.232  30.871  32.116  1.00  0.00    -0.248 NA
ATOM     47  C   UNL A   1      37.483  32.407  31.917  1.00  0.00     0.031 C 
ATOM     48  C   UNL A   1      38.723  29.801  27.813  1.00  0.00     0.029 A 
ATOM     49  N   UNL A   1      39.969  29.480  29.643  1.00  0.00    -0.354 N 
ATOM     50  C   UNL A   1      39.063  31.522  33.330  1.00  0.00     0.074 A 
ATOM     51  C   UNL A   1      37.993  32.482  33.140  1.00  0.00     0.031 C 
ATOM     52  C   UNL A   1      39.688  28.928  27.492  1.00  0.00     0.029 A 
ATOM     53  C   UNL A   1      40.521  28.692  28.664  1.00  0.00     0.049 A 
ATOM     54  H   UNL A   1      40.330  29.539  30.557  1.00  0.00     0.167 HD
ATOM     55  C   UNL A   1      39.731  31.321  34.493  1.00  0.00     0.037 A 
ATOM     56  C   UNL A   1      41.578  27.862  28.709  1.00  0.00     0.037 A 
ATOM     57  C   UNL A   1      40.816  30.383  34.662  1.00  0.00     0.049 A 
ATOM     58  C   UNL A   1      42.314  27.682  30.002  1.00  0.00     0.074 A 
ATOM     59  C   UNL A   1      41.520  30.072  35.814  1.00  0.00     0.029 A 
ATOM     60  N   UNL A   1      41.371  29.620  33.644  1.00  0.00    -0.354 N 
ATOM     61  N   UNL A   1      42.077  28.226  31.171  1.00  0.00    -0.248 NA
ATOM     62  C   UNL A   1      43.457  26.761  29.984  1.00  0.00     0.031 C 
ATOM     63  C   UNL A   1      42.531  29.160  35.483  1.00  0.00     0.029 A 
ATOM     64  C   UNL A   1      42.427  28.865  34.134  1.00  0.00     0.049 A 
ATOM     65  H   UNL A   1      41.062  29.616  32.709  1.00  0.00     0.167 HD
ATOM     66  C   UNL A   1      43.029  27.699  32.032  1.00  0.00     0.074 A 
ATOM     67  C   UNL A   1      43.826  26.771  31.255  1.00  0.00     0.031 C 
ATOM     68  C   UNL A   1      43.229  27.962  33.347  1.00  0.00     0.037 A 
BRANCH  55  69
ATOM     69  C   UNL A   1      39.305  32.130  35.685  1.00  0.00     0.057 A 
ATOM     70  C   UNL A   1      39.832  33.408  35.916  1.00  0.00     0.134 A 
ATOM     71  C   UNL A   1      38.416  31.618  36.639  1.00  0.00     0.134 A 
ATOM     72  F   UNL A   1      40.698  33.954  35.050  1.00  0.00    -0.206 F 
ATOM     73  C   UNL A   1      39.490  34.145  37.052  1.00  0.00     0.040 A 
ATOM     74  C   UNL A   1      38.048  32.355  37.767  1.00  0.00     0.040 A 
ATOM     75  F   UNL A   1      37.873  30.402  36.478  1.00  0.00    -0.206 F 
ATOM     76  C   UNL A   1      38.591  33.621  37.979  1.00  0.00     0.006 A 
ENDBRANCH  55  69
BRANCH  56  77
ATOM     77  C   UNL A   1      41.981  27.112  27.495  1.00  0.00     0.057 A 
ATOM     78  C   UNL A   1      42.830  27.679  26.538  1.00  0.00     0.134 A 
ATOM     79  C   UNL A   1      41.534  25.806  27.275  1.00  0.00     0.134 A 
ATOM     80  F   UNL A   1      43.282  28.932  26.688  1.00  0.00    -0.206 F 
ATOM     81  C   UNL A   1      43.221  26.969  25.401  1.00  0.00     0.040 A 
ATOM     82  C   UNL A   1      41.937  25.075  26.157  1.00  0.00     0.040 A 
ATOM     83  F   UNL A   1      40.729  25.208  28.166  1.00  0.00    -0.206 F 
ATOM     84  C   UNL A   1      42.782  25.660  25.215  1.00  0.00     0.006 A 
ENDBRANCH  56  77
BRANCH  68  85
ATOM     85  C   UNL A   1      44.352  27.220  34.014  1.00  0.00     0.057 A 
ATOM     86  C   UNL A   1      45.639  27.769  34.075  1.00  0.00     0.134 A 
ATOM     87  C   UNL A   1      44.153  25.976  34.628  1.00  0.00     0.134 A 
ATOM     88  F   UNL A   1      45.902  28.955  33.505  1.00  0.00    -0.206 F 
ATOM     89  C   UNL A   1      46.682  27.116  34.733  1.00  0.00     0.040 A 
ATOM     90  C   UNL A   1      45.180  25.326  35.314  1.00  0.00     0.040 A 
ATOM     91  F   UNL A   1      42.939  25.403  34.624  1.00  0.00    -0.206 F 
ATOM     92  C   UNL A   1      46.450  25.896  35.366  1.00  0.00     0.006 A 
ENDBRANCH  68  85
ENDBRANCH  42  43
ENDBRANCH  35  37
ENDBRANCH  34  35
ENDBRANCH  33  34
ENDBRANCH  32  33
ENDBRANCH  31  32
ENDBRANCH  30  31
ENDBRANCH  29  30
ENDBRANCH   1  29
TORSDOF 23
ENDMDL
