MODEL 1
REMARK VINA RESULT:     -10.0      0.000      0.000
REMARK SMILES Cc1c([C@H]2[C@H](C(=O)OCCOCCOCCOCCOC(=O)c3ccc(-c4c5nc(c(-c6c(F)cccc6F)c6ccc([nH]6)c(-c6c(F)cccc6F)c6nc(c(-c7c(F)cccc7F)c7ccc4[nH]7)C=C6)C=C5)cc3)OCC(=O)N2CC(C)C)cnn1C
REMARK SMILES IDX 14 1 13 2 12 3 11 4 10 5 9 6 8 7 6 8 7 9 5 10 4 11 81 12
REMARK SMILES IDX 77 13 79 14 78 15 80 16 3 17 1 18 2 19 88 20 86 21 87 22
REMARK SMILES IDX 89 23 82 24 83 25 84 26 85 27 15 28 16 29 17 30 18 31 19 32
REMARK SMILES IDX 20 33 21 34 22 35 23 36 24 37 76 38 25 39 75 40 26 41 27 42
REMARK SMILES IDX 28 43 69 44 29 45 74 46 68 47 70 48 30 49 73 50 67 51 66 52
REMARK SMILES IDX 31 54 57 55 40 56 56 57 41 58 44 59 55 60 71 61 42 62 43 63
REMARK SMILES IDX 54 65 72 66 45 67 32 68 33 69 38 70 34 71 35 72 37 73 39 74
REMARK SMILES IDX 36 75 58 76 59 77 64 78 60 79 61 80 63 81 65 82 62 83 46 84
REMARK SMILES IDX 47 85 52 86 48 87 49 88 51 89 53 90 50 91
REMARK H PARENT 70 53 44 64
REMARK Flexibility Score: inf
ROOT
ATOM      1  O   UNL A   1      38.424  21.648  26.334  1.00  0.00    -0.377 OA
ENDROOT
BRANCH   1   2
ATOM      2  C   UNL A   1      37.846  21.503  25.057  1.00  0.00     0.188 C 
BRANCH   2   3
ATOM      3  C   UNL A   1      36.629  22.400  24.816  1.00  0.00     0.188 C 
BRANCH   3   4
ATOM      4  O   UNL A   1      35.826  22.224  23.666  1.00  0.00    -0.376 OA
BRANCH   4   5
ATOM      5  C   UNL A   1      34.586  22.897  23.508  1.00  0.00     0.202 C 
BRANCH   5   6
ATOM      6  C   UNL A   1      34.374  24.171  22.665  1.00  0.00     0.261 C 
BRANCH   6   7
ATOM      7  O   UNL A   1      33.044  24.692  22.532  1.00  0.00    -0.461 OA
BRANCH   7   8
ATOM      8  C   UNL A   1      32.932  25.784  21.739  1.00  0.00     0.337 C 
ATOM      9  O   UNL A   1      33.267  25.806  20.557  1.00  0.00    -0.249 OA
BRANCH   8  10
ATOM     10  C   UNL A   1      32.371  27.020  22.457  1.00  0.00     0.255 C 
ATOM     11  C   UNL A   1      31.319  26.797  23.583  1.00  0.00     0.159 C 
ATOM     12  N   UNL A   1      31.852  26.706  24.962  1.00  0.00    -0.330 N 
ATOM     13  O   UNL A   1      33.381  27.927  22.890  1.00  0.00    -0.354 OA
ATOM     14  C   UNL A   1      33.205  26.941  25.210  1.00  0.00     0.249 C 
ATOM     15  C   UNL A   1      34.056  27.408  24.019  1.00  0.00     0.261 C 
ATOM     16  O   UNL A   1      33.739  26.719  26.297  1.00  0.00    -0.272 OA
BRANCH  11  17
ATOM     17  C   UNL A   1      30.228  27.835  23.416  1.00  0.00     0.019 A 
ATOM     18  C   UNL A   1      28.008  26.533  24.025  1.00  0.00     0.067 C 
ATOM     19  C   UNL A   1      28.845  27.670  23.555  1.00  0.00     0.040 A 
ATOM     20  N   UNL A   1      28.281  28.811  23.038  1.00  0.00    -0.273 N 
ATOM     21  C   UNL A   1      30.358  29.149  22.911  1.00  0.00     0.141 A 
ATOM     22  N   UNL A   1      29.183  29.749  22.716  1.00  0.00    -0.181 NA
ATOM     23  C   UNL A   1      26.890  29.010  22.693  1.00  0.00     0.174 C 
ENDBRANCH  11  17
BRANCH  12  24
ATOM     24  C   UNL A   1      31.065  26.020  26.016  1.00  0.00     0.123 C 
BRANCH  24  25
ATOM     25  C   UNL A   1      30.695  24.545  25.730  1.00  0.00     0.002 C 
ATOM     26  C   UNL A   1      31.932  23.642  25.719  1.00  0.00     0.009 C 
ATOM     27  C   UNL A   1      29.745  23.997  26.808  1.00  0.00     0.009 C 
ENDBRANCH  24  25
ENDBRANCH  12  24
ENDBRANCH   8  10
ENDBRANCH   7   8
ENDBRANCH   6   7
ENDBRANCH   5   6
ENDBRANCH   4   5
ENDBRANCH   3   4
ENDBRANCH   2   3
ENDBRANCH   1   2
BRANCH   1  28
ATOM     28  C   UNL A   1      39.787  22.061  26.336  1.00  0.00     0.188 C 
BRANCH  28  29
ATOM     29  C   UNL A   1      40.649  21.740  27.583  1.00  0.00     0.188 C 
BRANCH  29  30
ATOM     30  O   UNL A   1      41.867  21.057  27.317  1.00  0.00    -0.376 OA
BRANCH  30  31
ATOM     31  C   UNL A   1      42.285  20.854  25.974  1.00  0.00     0.202 C 
BRANCH  31  32
ATOM     32  C   UNL A   1      43.464  21.680  25.427  1.00  0.00     0.261 C 
BRANCH  32  33
ATOM     33  O   UNL A   1      43.140  22.936  24.813  1.00  0.00    -0.460 OA
BRANCH  33  34
ATOM     34  C   UNL A   1      43.961  23.980  25.043  1.00  0.00     0.338 C 
ATOM     35  O   UNL A   1      45.024  24.215  24.493  1.00  0.00    -0.246 OA
BRANCH  34  36
ATOM     36  C   UNL A   1      43.252  24.923  25.933  1.00  0.00     0.060 A 
ATOM     37  C   UNL A   1      43.657  26.264  25.958  1.00  0.00     0.016 A 
ATOM     38  C   UNL A   1      42.189  24.490  26.728  1.00  0.00     0.016 A 
ATOM     39  C   UNL A   1      43.027  27.170  26.810  1.00  0.00     0.010 A 
ATOM     40  C   UNL A   1      41.578  25.391  27.605  1.00  0.00     0.010 A 
ATOM     41  C   UNL A   1      42.020  26.725  27.675  1.00  0.00    -0.014 A 
BRANCH  41  42
ATOM     42  C   UNL A   1      41.593  27.589  28.800  1.00  0.00     0.031 A 
ATOM     43  C   UNL A   1      42.361  27.502  30.090  1.00  0.00     0.074 A 
ATOM     44  C   UNL A   1      40.569  28.452  28.677  1.00  0.00     0.049 A 
ATOM     45  N   UNL A   1      42.151  28.109  31.229  1.00  0.00    -0.248 NA
ATOM     46  C   UNL A   1      43.527  26.601  30.096  1.00  0.00     0.031 C 
ATOM     47  C   UNL A   1      39.783  28.667  27.465  1.00  0.00     0.029 A 
ATOM     48  N   UNL A   1      40.011  29.302  29.598  1.00  0.00    -0.354 N 
ATOM     49  C   UNL A   1      43.143  27.652  32.088  1.00  0.00     0.074 A 
ATOM     50  C   UNL A   1      43.942  26.701  31.348  1.00  0.00     0.031 C 
ATOM     51  C   UNL A   1      38.833  29.585  27.721  1.00  0.00     0.029 A 
ATOM     52  C   UNL A   1      38.922  29.990  29.123  1.00  0.00     0.049 A 
ATOM     53  H   UNL A   1      40.359  29.409  30.513  1.00  0.00     0.167 HD
ATOM     54  C   UNL A   1      43.369  27.999  33.376  1.00  0.00     0.037 A 
ATOM     55  C   UNL A   1      38.081  30.829  29.759  1.00  0.00     0.037 A 
ATOM     56  C   UNL A   1      42.574  28.950  34.106  1.00  0.00     0.049 A 
ATOM     57  C   UNL A   1      38.305  31.133  31.219  1.00  0.00     0.074 A 
ATOM     58  C   UNL A   1      42.739  29.390  35.407  1.00  0.00     0.029 A 
ATOM     59  N   UNL A   1      41.457  29.597  33.602  1.00  0.00    -0.354 N 
ATOM     60  N   UNL A   1      39.263  30.723  32.015  1.00  0.00    -0.248 NA
ATOM     61  C   UNL A   1      37.328  32.020  31.869  1.00  0.00     0.031 C 
ATOM     62  C   UNL A   1      41.683  30.254  35.711  1.00  0.00     0.029 A 
ATOM     63  C   UNL A   1      40.901  30.406  34.578  1.00  0.00     0.049 A 
ATOM     64  H   UNL A   1      41.110  29.496  32.686  1.00  0.00     0.167 HD
ATOM     65  C   UNL A   1      39.027  31.331  33.244  1.00  0.00     0.074 A 
ATOM     66  C   UNL A   1      37.842  32.146  33.084  1.00  0.00     0.031 C 
ATOM     67  C   UNL A   1      39.729  31.225  34.400  1.00  0.00     0.037 A 
BRANCH  54  68
ATOM     68  C   UNL A   1      44.498  27.316  34.092  1.00  0.00     0.057 A 
ATOM     69  C   UNL A   1      44.343  26.074  34.720  1.00  0.00     0.134 A 
ATOM     70  C   UNL A   1      45.772  27.899  34.120  1.00  0.00     0.134 A 
ATOM     71  F   UNL A   1      43.146  25.469  34.744  1.00  0.00    -0.206 F 
ATOM     72  C   UNL A   1      45.409  25.445  35.367  1.00  0.00     0.040 A 
ATOM     73  C   UNL A   1      46.852  27.268  34.739  1.00  0.00     0.040 A 
ATOM     74  F   UNL A   1      45.991  29.088  33.538  1.00  0.00    -0.206 F 
ATOM     75  C   UNL A   1      46.670  26.039  35.370  1.00  0.00     0.006 A 
ENDBRANCH  54  68
BRANCH  55  76
ATOM     76  C   UNL A   1      36.930  31.434  29.036  1.00  0.00     0.057 A 
ATOM     77  C   UNL A   1      36.968  32.762  28.595  1.00  0.00     0.134 A 
ATOM     78  C   UNL A   1      35.750  30.716  28.812  1.00  0.00     0.134 A 
ATOM     79  F   UNL A   1      38.061  33.512  28.804  1.00  0.00    -0.206 F 
ATOM     80  C   UNL A   1      35.866  33.362  27.983  1.00  0.00     0.040 A 
ATOM     81  C   UNL A   1      34.652  31.293  28.172  1.00  0.00     0.040 A 
ATOM     82  F   UNL A   1      35.647  29.440  29.211  1.00  0.00    -0.206 F 
ATOM     83  C   UNL A   1      34.704  32.623  27.765  1.00  0.00     0.006 A 
ENDBRANCH  55  76
BRANCH  67  84
ATOM     84  C   UNL A   1      39.271  32.052  35.568  1.00  0.00     0.057 A 
ATOM     85  C   UNL A   1      39.658  33.388  35.735  1.00  0.00     0.134 A 
ATOM     86  C   UNL A   1      38.392  31.513  36.517  1.00  0.00     0.134 A 
ATOM     87  F   UNL A   1      40.505  33.964  34.869  1.00  0.00    -0.206 F 
ATOM     88  C   UNL A   1      39.208  34.149  36.816  1.00  0.00     0.040 A 
ATOM     89  C   UNL A   1      37.909  32.274  37.583  1.00  0.00     0.040 A 
ATOM     90  F   UNL A   1      37.969  30.244  36.412  1.00  0.00    -0.206 F 
ATOM     91  C   UNL A   1      38.325  33.594  37.740  1.00  0.00     0.006 A 
ENDBRANCH  67  84
ENDBRANCH  41  42
ENDBRANCH  34  36
ENDBRANCH  33  34
ENDBRANCH  32  33
ENDBRANCH  31  32
ENDBRANCH  30  31
ENDBRANCH  29  30
ENDBRANCH  28  29
ENDBRANCH   1  28
TORSDOF 23
ENDMDL
MODEL 2
REMARK VINA RESULT:      -9.7      1.703      6.608
REMARK SMILES Cc1c([C@H]2[C@H](C(=O)OCCOCCOCCOCCOC(=O)c3ccc(-c4c5nc(c(-c6c(F)cccc6F)c6ccc([nH]6)c(-c6c(F)cccc6F)c6nc(c(-c7c(F)cccc7F)c7ccc4[nH]7)C=C6)C=C5)cc3)OCC(=O)N2CC(C)C)cnn1C
REMARK SMILES IDX 14 1 13 2 12 3 11 4 10 5 9 6 8 7 6 8 7 9 5 10 4 11 81 12
REMARK SMILES IDX 77 13 79 14 78 15 80 16 3 17 1 18 2 19 88 20 86 21 87 22
REMARK SMILES IDX 89 23 82 24 83 25 84 26 85 27 15 28 16 29 17 30 18 31 19 32
REMARK SMILES IDX 20 33 21 34 22 35 23 36 24 37 76 38 25 39 75 40 26 41 27 42
REMARK SMILES IDX 28 43 69 44 29 45 74 46 68 47 70 48 30 49 73 50 67 51 66 52
REMARK SMILES IDX 31 54 57 55 40 56 56 57 41 58 44 59 55 60 71 61 42 62 43 63
REMARK SMILES IDX 54 65 72 66 45 67 32 68 33 69 38 70 34 71 35 72 37 73 39 74
REMARK SMILES IDX 36 75 58 76 59 77 64 78 60 79 61 80 63 81 65 82 62 83 46 84
REMARK SMILES IDX 47 85 52 86 48 87 49 88 51 89 53 90 50 91
REMARK H PARENT 70 53 44 64
REMARK Flexibility Score: inf
ROOT
ATOM      1  O   UNL A   1      39.854  21.355  27.072  1.00  0.00    -0.377 OA
ENDROOT
BRANCH   1   2
ATOM      2  C   UNL A   1      39.541  20.950  25.760  1.00  0.00     0.188 C 
BRANCH   2   3
ATOM      3  C   UNL A   1      38.218  21.511  25.231  1.00  0.00     0.188 C 
BRANCH   3   4
ATOM      4  O   UNL A   1      37.007  21.256  25.916  1.00  0.00    -0.376 OA
BRANCH   4   5
ATOM      5  C   UNL A   1      35.872  22.095  25.767  1.00  0.00     0.202 C 
BRANCH   5   6
ATOM      6  C   UNL A   1      35.741  23.515  26.352  1.00  0.00     0.261 C 
BRANCH   6   7
ATOM      7  O   UNL A   1      35.708  24.629  25.448  1.00  0.00    -0.461 OA
BRANCH   7   8
ATOM      8  C   UNL A   1      34.473  24.986  25.022  1.00  0.00     0.337 C 
ATOM      9  O   UNL A   1      33.837  25.929  25.485  1.00  0.00    -0.249 OA
BRANCH   8  10
ATOM     10  C   UNL A   1      33.912  24.081  23.915  1.00  0.00     0.255 C 
ATOM     11  C   UNL A   1      32.378  23.813  23.897  1.00  0.00     0.159 C 
ATOM     12  N   UNL A   1      31.571  24.716  23.043  1.00  0.00    -0.330 N 
ATOM     13  O   UNL A   1      34.374  24.430  22.613  1.00  0.00    -0.354 OA
ATOM     14  C   UNL A   1      32.198  25.653  22.221  1.00  0.00     0.249 C 
ATOM     15  C   UNL A   1      33.733  25.607  22.164  1.00  0.00     0.261 C 
ATOM     16  O   UNL A   1      31.587  26.537  21.620  1.00  0.00    -0.272 OA
BRANCH  11  17
ATOM     17  C   UNL A   1      32.164  22.342  23.605  1.00  0.00     0.019 A 
ATOM     18  C   UNL A   1      32.475  21.171  25.956  1.00  0.00     0.067 C 
ATOM     19  C   UNL A   1      32.270  21.259  24.485  1.00  0.00     0.040 A 
ATOM     20  N   UNL A   1      32.258  20.135  23.694  1.00  0.00    -0.273 N 
ATOM     21  C   UNL A   1      31.985  21.730  22.343  1.00  0.00     0.141 A 
ATOM     22  N   UNL A   1      32.007  20.398  22.404  1.00  0.00    -0.181 NA
ATOM     23  C   UNL A   1      32.622  18.792  24.092  1.00  0.00     0.174 C 
ENDBRANCH  11  17
BRANCH  12  24
ATOM     24  C   UNL A   1      30.123  24.893  23.315  1.00  0.00     0.123 C 
BRANCH  24  25
ATOM     25  C   UNL A   1      29.754  26.036  24.290  1.00  0.00     0.002 C 
ATOM     26  C   UNL A   1      28.296  26.471  24.128  1.00  0.00     0.009 C 
ATOM     27  C   UNL A   1      29.935  25.593  25.751  1.00  0.00     0.009 C 
ENDBRANCH  24  25
ENDBRANCH  12  24
ENDBRANCH   8  10
ENDBRANCH   7   8
ENDBRANCH   6   7
ENDBRANCH   5   6
ENDBRANCH   4   5
ENDBRANCH   3   4
ENDBRANCH   2   3
ENDBRANCH   1   2
BRANCH   1  28
ATOM     28  C   UNL A   1      40.918  22.296  27.176  1.00  0.00     0.188 C 
BRANCH  28  29
ATOM     29  C   UNL A   1      42.276  21.807  27.742  1.00  0.00     0.188 C 
BRANCH  29  30
ATOM     30  O   UNL A   1      43.255  21.474  26.765  1.00  0.00    -0.376 OA
BRANCH  30  31
ATOM     31  C   UNL A   1      43.153  22.009  25.452  1.00  0.00     0.202 C 
BRANCH  31  32
ATOM     32  C   UNL A   1      44.209  23.025  24.978  1.00  0.00     0.261 C 
BRANCH  32  33
ATOM     33  O   UNL A   1      43.767  24.379  24.802  1.00  0.00    -0.460 OA
BRANCH  33  34
ATOM     34  C   UNL A   1      44.544  25.364  25.294  1.00  0.00     0.338 C 
ATOM     35  O   UNL A   1      45.633  25.722  24.877  1.00  0.00    -0.246 OA
BRANCH  34  36
ATOM     36  C   UNL A   1      43.754  26.094  26.308  1.00  0.00     0.060 A 
ATOM     37  C   UNL A   1      43.981  27.466  26.483  1.00  0.00     0.016 A 
ATOM     38  C   UNL A   1      42.791  25.434  27.073  1.00  0.00     0.016 A 
ATOM     39  C   UNL A   1      43.274  28.175  27.452  1.00  0.00     0.010 A 
ATOM     40  C   UNL A   1      42.103  26.138  28.066  1.00  0.00     0.010 A 
ATOM     41  C   UNL A   1      42.370  27.502  28.283  1.00  0.00    -0.014 A 
BRANCH  41  42
ATOM     42  C   UNL A   1      41.880  28.167  29.513  1.00  0.00     0.031 A 
ATOM     43  C   UNL A   1      40.612  28.972  29.426  1.00  0.00     0.074 A 
ATOM     44  C   UNL A   1      42.523  28.040  30.687  1.00  0.00     0.049 A 
ATOM     45  N   UNL A   1      40.013  29.687  30.341  1.00  0.00    -0.248 NA
ATOM     46  C   UNL A   1      39.927  28.970  28.121  1.00  0.00     0.031 C 
ATOM     47  C   UNL A   1      43.728  27.245  30.912  1.00  0.00     0.029 A 
ATOM     48  N   UNL A   1      42.248  28.593  31.912  1.00  0.00    -0.354 N 
ATOM     49  C   UNL A   1      38.896  30.233  29.722  1.00  0.00     0.074 A 
ATOM     50  C   UNL A   1      38.910  29.786  28.347  1.00  0.00     0.031 C 
ATOM     51  C   UNL A   1      44.098  27.372  32.199  1.00  0.00     0.029 A 
ATOM     52  C   UNL A   1      43.178  28.286  32.875  1.00  0.00     0.049 A 
ATOM     53  H   UNL A   1      41.460  29.158  32.085  1.00  0.00     0.167 HD
ATOM     54  C   UNL A   1      37.942  31.031  30.253  1.00  0.00     0.037 A 
ATOM     55  C   UNL A   1      43.284  28.717  34.148  1.00  0.00     0.037 A 
ATOM     56  C   UNL A   1      37.930  31.470  31.624  1.00  0.00     0.049 A 
ATOM     57  C   UNL A   1      42.253  29.676  34.691  1.00  0.00     0.074 A 
ATOM     58  C   UNL A   1      36.992  32.258  32.266  1.00  0.00     0.029 A 
ATOM     59  N   UNL A   1      38.908  31.169  32.557  1.00  0.00    -0.354 N 
ATOM     60  N   UNL A   1      41.183  30.161  34.109  1.00  0.00    -0.248 NA
ATOM     61  C   UNL A   1      42.447  30.145  36.071  1.00  0.00     0.031 C 
ATOM     62  C   UNL A   1      37.437  32.488  33.571  1.00  0.00     0.029 A 
ATOM     63  C   UNL A   1      38.615  31.785  33.762  1.00  0.00     0.049 A 
ATOM     64  H   UNL A   1      39.695  30.601  32.389  1.00  0.00     0.167 HD
ATOM     65  C   UNL A   1      40.558  30.958  35.062  1.00  0.00     0.074 A 
ATOM     66  C   UNL A   1      41.363  30.882  36.262  1.00  0.00     0.031 C 
ATOM     67  C   UNL A   1      39.419  31.687  34.955  1.00  0.00     0.037 A 
BRANCH  54  68
ATOM     68  C   UNL A   1      36.853  31.517  29.341  1.00  0.00     0.057 A 
ATOM     69  C   UNL A   1      35.762  30.713  28.985  1.00  0.00     0.134 A 
ATOM     70  C   UNL A   1      36.881  32.826  28.841  1.00  0.00     0.134 A 
ATOM     71  F   UNL A   1      35.683  29.445  29.415  1.00  0.00    -0.206 F 
ATOM     72  C   UNL A   1      34.750  31.186  28.148  1.00  0.00     0.040 A 
ATOM     73  C   UNL A   1      35.860  33.320  28.028  1.00  0.00     0.040 A 
ATOM     74  F   UNL A   1      37.896  33.650  29.143  1.00  0.00    -0.206 F 
ATOM     75  C   UNL A   1      34.794  32.497  27.675  1.00  0.00     0.006 A 
ENDBRANCH  54  68
BRANCH  55  76
ATOM     76  C   UNL A   1      44.416  28.271  35.003  1.00  0.00     0.057 A 
ATOM     77  C   UNL A   1      45.634  28.960  35.010  1.00  0.00     0.134 A 
ATOM     78  C   UNL A   1      44.323  27.120  35.795  1.00  0.00     0.134 A 
ATOM     79  F   UNL A   1      45.795  30.055  34.252  1.00  0.00    -0.206 F 
ATOM     80  C   UNL A   1      46.727  28.507  35.752  1.00  0.00     0.040 A 
ATOM     81  C   UNL A   1      45.398  26.673  36.566  1.00  0.00     0.040 A 
ATOM     82  F   UNL A   1      43.185  26.412  35.831  1.00  0.00    -0.206 F 
ATOM     83  C   UNL A   1      46.608  27.362  36.537  1.00  0.00     0.006 A 
ENDBRANCH  55  76
BRANCH  67  84
ATOM     84  C   UNL A   1      38.941  32.415  36.180  1.00  0.00     0.057 A 
ATOM     85  C   UNL A   1      38.121  31.806  37.138  1.00  0.00     0.134 A 
ATOM     86  C   UNL A   1      39.348  33.734  36.424  1.00  0.00     0.134 A 
ATOM     87  F   UNL A   1      37.687  30.549  36.962  1.00  0.00    -0.206 F 
ATOM     88  C   UNL A   1      37.701  32.490  38.281  1.00  0.00     0.040 A 
ATOM     89  C   UNL A   1      38.963  34.416  37.579  1.00  0.00     0.040 A 
ATOM     90  F   UNL A   1      40.145  34.374  35.556  1.00  0.00    -0.206 F 
ATOM     91  C   UNL A   1      38.129  33.797  38.507  1.00  0.00     0.006 A 
ENDBRANCH  67  84
ENDBRANCH  41  42
ENDBRANCH  34  36
ENDBRANCH  33  34
ENDBRANCH  32  33
ENDBRANCH  31  32
ENDBRANCH  30  31
ENDBRANCH  29  30
ENDBRANCH  28  29
ENDBRANCH   1  28
TORSDOF 23
ENDMDL
MODEL 3
REMARK VINA RESULT:      -9.7      1.199      6.216
REMARK SMILES Cc1c([C@H]2[C@H](C(=O)OCCOCCOCCOCCOC(=O)c3ccc(-c4c5nc(c(-c6c(F)cccc6F)c6ccc([nH]6)c(-c6c(F)cccc6F)c6nc(c(-c7c(F)cccc7F)c7ccc4[nH]7)C=C6)C=C5)cc3)OCC(=O)N2CC(C)C)cnn1C
REMARK SMILES IDX 14 1 13 2 12 3 11 4 10 5 9 6 8 7 6 8 7 9 5 10 4 11 81 12
REMARK SMILES IDX 77 13 79 14 78 15 80 16 3 17 1 18 2 19 88 20 86 21 87 22
REMARK SMILES IDX 89 23 82 24 83 25 84 26 85 27 15 28 16 29 17 30 18 31 19 32
REMARK SMILES IDX 20 33 21 34 22 35 23 36 24 37 76 38 25 39 75 40 26 41 27 42
REMARK SMILES IDX 28 43 69 44 29 45 74 46 68 47 70 48 30 49 73 50 67 51 66 52
REMARK SMILES IDX 31 54 57 55 40 56 56 57 41 58 44 59 55 60 71 61 42 62 43 63
REMARK SMILES IDX 54 65 72 66 45 67 32 68 33 69 38 70 34 71 35 72 37 73 39 74
REMARK SMILES IDX 36 75 58 76 59 77 64 78 60 79 61 80 63 81 65 82 62 83 46 84
REMARK SMILES IDX 47 85 52 86 48 87 49 88 51 89 53 90 50 91
REMARK H PARENT 70 53 44 64
REMARK Flexibility Score: inf
ROOT
ATOM      1  O   UNL A   1      39.504  21.507  26.914  1.00  0.00    -0.377 OA
ENDROOT
BRANCH   1   2
ATOM      2  C   UNL A   1      38.974  21.167  25.654  1.00  0.00     0.188 C 
BRANCH   2   3
ATOM      3  C   UNL A   1      37.663  21.880  25.313  1.00  0.00     0.188 C 
BRANCH   3   4
ATOM      4  O   UNL A   1      37.349  23.124  25.907  1.00  0.00    -0.376 OA
BRANCH   4   5
ATOM      5  C   UNL A   1      36.432  24.028  25.311  1.00  0.00     0.202 C 
BRANCH   5   6
ATOM      6  C   UNL A   1      35.013  23.659  24.833  1.00  0.00     0.261 C 
BRANCH   6   7
ATOM      7  O   UNL A   1      34.094  24.719  24.530  1.00  0.00    -0.461 OA
BRANCH   7   8
ATOM      8  C   UNL A   1      32.808  24.331  24.357  1.00  0.00     0.337 C 
ATOM      9  O   UNL A   1      32.340  23.293  24.818  1.00  0.00    -0.249 OA
BRANCH   8  10
ATOM     10  C   UNL A   1      31.978  25.296  23.499  1.00  0.00     0.255 C 
ATOM     11  C   UNL A   1      31.596  26.676  24.110  1.00  0.00     0.159 C 
ATOM     12  N   UNL A   1      32.515  27.798  23.808  1.00  0.00    -0.330 N 
ATOM     13  O   UNL A   1      32.490  25.459  22.179  1.00  0.00    -0.354 OA
ATOM     14  C   UNL A   1      33.575  27.618  22.918  1.00  0.00     0.249 C 
ATOM     15  C   UNL A   1      33.653  26.262  22.199  1.00  0.00     0.261 C 
ATOM     16  O   UNL A   1      34.466  28.453  22.754  1.00  0.00    -0.272 OA
BRANCH  11  17
ATOM     17  C   UNL A   1      30.150  26.959  23.760  1.00  0.00     0.019 A 
ATOM     18  C   UNL A   1      30.261  29.184  22.334  1.00  0.00     0.067 C 
ATOM     19  C   UNL A   1      29.625  28.053  23.062  1.00  0.00     0.040 A 
ATOM     20  N   UNL A   1      28.264  27.992  23.244  1.00  0.00    -0.273 N 
ATOM     21  C   UNL A   1      29.001  26.272  24.214  1.00  0.00     0.141 A 
ATOM     22  N   UNL A   1      27.863  26.878  23.873  1.00  0.00    -0.181 NA
ATOM     23  C   UNL A   1      27.305  29.039  22.966  1.00  0.00     0.174 C 
ENDBRANCH  11  17
BRANCH  12  24
ATOM     24  C   UNL A   1      32.552  28.985  24.696  1.00  0.00     0.123 C 
BRANCH  24  25
ATOM     25  C   UNL A   1      32.241  28.720  26.189  1.00  0.00     0.002 C 
ATOM     26  C   UNL A   1      33.472  28.210  26.943  1.00  0.00     0.009 C 
ATOM     27  C   UNL A   1      31.782  30.009  26.892  1.00  0.00     0.009 C 
ENDBRANCH  24  25
ENDBRANCH  12  24
ENDBRANCH   8  10
ENDBRANCH   7   8
ENDBRANCH   6   7
ENDBRANCH   5   6
ENDBRANCH   4   5
ENDBRANCH   3   4
ENDBRANCH   2   3
ENDBRANCH   1   2
BRANCH   1  28
ATOM     28  C   UNL A   1      40.601  22.414  26.883  1.00  0.00     0.188 C 
BRANCH  28  29
ATOM     29  C   UNL A   1      41.895  22.026  27.643  1.00  0.00     0.188 C 
BRANCH  29  30
ATOM     30  O   UNL A   1      42.990  21.645  26.820  1.00  0.00    -0.376 OA
BRANCH  30  31
ATOM     31  C   UNL A   1      42.921  21.846  25.415  1.00  0.00     0.202 C 
BRANCH  31  32
ATOM     32  C   UNL A   1      43.853  22.884  24.763  1.00  0.00     0.261 C 
BRANCH  32  33
ATOM     33  O   UNL A   1      43.393  24.244  24.751  1.00  0.00    -0.460 OA
BRANCH  33  34
ATOM     34  C   UNL A   1      44.222  25.193  25.228  1.00  0.00     0.338 C 
ATOM     35  O   UNL A   1      45.320  25.499  24.794  1.00  0.00    -0.246 OA
BRANCH  34  36
ATOM     36  C   UNL A   1      43.482  25.962  26.251  1.00  0.00     0.060 A 
ATOM     37  C   UNL A   1      43.832  27.300  26.476  1.00  0.00     0.016 A 
ATOM     38  C   UNL A   1      42.445  25.370  26.975  1.00  0.00     0.016 A 
ATOM     39  C   UNL A   1      43.172  28.041  27.454  1.00  0.00     0.010 A 
ATOM     40  C   UNL A   1      41.805  26.104  27.978  1.00  0.00     0.010 A 
ATOM     41  C   UNL A   1      42.192  27.430  28.246  1.00  0.00    -0.014 A 
BRANCH  41  42
ATOM     42  C   UNL A   1      41.739  28.098  29.488  1.00  0.00     0.031 A 
ATOM     43  C   UNL A   1      40.510  28.962  29.419  1.00  0.00     0.074 A 
ATOM     44  C   UNL A   1      42.381  27.924  30.657  1.00  0.00     0.049 A 
ATOM     45  N   UNL A   1      39.949  29.691  30.348  1.00  0.00    -0.248 NA
ATOM     46  C   UNL A   1      39.819  29.011  28.119  1.00  0.00     0.031 C 
ATOM     47  C   UNL A   1      43.549  27.071  30.863  1.00  0.00     0.029 A 
ATOM     48  N   UNL A   1      42.139  28.471  31.891  1.00  0.00    -0.354 N 
ATOM     49  C   UNL A   1      38.856  30.298  29.743  1.00  0.00     0.074 A 
ATOM     50  C   UNL A   1      38.843  29.871  28.362  1.00  0.00     0.031 C 
ATOM     51  C   UNL A   1      43.930  27.161  32.150  1.00  0.00     0.029 A 
ATOM     52  C   UNL A   1      43.058  28.107  32.845  1.00  0.00     0.049 A 
ATOM     53  H   UNL A   1      41.378  29.069  32.076  1.00  0.00     0.167 HD
ATOM     54  C   UNL A   1      37.943  31.132  30.291  1.00  0.00     0.037 A 
ATOM     55  C   UNL A   1      43.189  28.514  34.123  1.00  0.00     0.037 A 
ATOM     56  C   UNL A   1      37.958  31.550  31.668  1.00  0.00     0.049 A 
ATOM     57  C   UNL A   1      42.207  29.511  34.685  1.00  0.00     0.074 A 
ATOM     58  C   UNL A   1      37.060  32.371  32.327  1.00  0.00     0.029 A 
ATOM     59  N   UNL A   1      38.925  31.189  32.592  1.00  0.00    -0.354 N 
ATOM     60  N   UNL A   1      41.158  30.054  34.117  1.00  0.00    -0.248 NA
ATOM     61  C   UNL A   1      42.429  29.950  36.071  1.00  0.00     0.031 C 
ATOM     62  C   UNL A   1      37.522  32.560  33.632  1.00  0.00     0.029 A 
ATOM     63  C   UNL A   1      38.667  31.801  33.807  1.00  0.00     0.049 A 
ATOM     64  H   UNL A   1      39.684  30.588  32.411  1.00  0.00     0.167 HD
ATOM     65  C   UNL A   1      40.575  30.866  35.084  1.00  0.00     0.074 A 
ATOM     66  C   UNL A   1      41.382  30.734  36.279  1.00  0.00     0.031 C 
ATOM     67  C   UNL A   1      39.470  31.648  34.993  1.00  0.00     0.037 A 
BRANCH  54  68
ATOM     68  C   UNL A   1      36.873  31.680  29.392  1.00  0.00     0.057 A 
ATOM     69  C   UNL A   1      36.940  32.971  28.851  1.00  0.00     0.134 A 
ATOM     70  C   UNL A   1      35.775  30.887  29.033  1.00  0.00     0.134 A 
ATOM     71  F   UNL A   1      37.956  33.788  29.167  1.00  0.00    -0.206 F 
ATOM     72  C   UNL A   1      35.944  33.459  28.003  1.00  0.00     0.040 A 
ATOM     73  C   UNL A   1      34.789  31.352  28.163  1.00  0.00     0.040 A 
ATOM     74  F   UNL A   1      35.649  29.640  29.514  1.00  0.00    -0.206 F 
ATOM     75  C   UNL A   1      34.870  32.645  27.650  1.00  0.00     0.006 A 
ENDBRANCH  54  68
BRANCH  55  76
ATOM     76  C   UNL A   1      44.303  28.002  34.965  1.00  0.00     0.057 A 
ATOM     77  C   UNL A   1      44.188  26.795  35.664  1.00  0.00     0.134 A 
ATOM     78  C   UNL A   1      45.488  28.729  35.129  1.00  0.00     0.134 A 
ATOM     79  F   UNL A   1      43.066  26.064  35.571  1.00  0.00    -0.206 F 
ATOM     80  C   UNL A   1      45.197  26.343  36.517  1.00  0.00     0.040 A 
ATOM     81  C   UNL A   1      46.518  28.274  35.953  1.00  0.00     0.040 A 
ATOM     82  F   UNL A   1      45.661  29.895  34.490  1.00  0.00    -0.206 F 
ATOM     83  C   UNL A   1      46.370  27.082  36.658  1.00  0.00     0.006 A 
ENDBRANCH  55  76
BRANCH  67  84
ATOM     84  C   UNL A   1      39.034  32.379  36.232  1.00  0.00     0.057 A 
ATOM     85  C   UNL A   1      39.431  33.695  36.501  1.00  0.00     0.134 A 
ATOM     86  C   UNL A   1      38.164  31.769  37.146  1.00  0.00     0.134 A 
ATOM     87  F   UNL A   1      40.271  34.336  35.673  1.00  0.00    -0.206 F 
ATOM     88  C   UNL A   1      39.002  34.368  37.647  1.00  0.00     0.040 A 
ATOM     89  C   UNL A   1      37.701  32.443  38.277  1.00  0.00     0.040 A 
ATOM     90  F   UNL A   1      37.732  30.515  36.944  1.00  0.00    -0.206 F 
ATOM     91  C   UNL A   1      38.127  33.743  38.535  1.00  0.00     0.006 A 
ENDBRANCH  67  84
ENDBRANCH  41  42
ENDBRANCH  34  36
ENDBRANCH  33  34
ENDBRANCH  32  33
ENDBRANCH  31  32
ENDBRANCH  30  31
ENDBRANCH  29  30
ENDBRANCH  28  29
ENDBRANCH   1  28
TORSDOF 23
ENDMDL
