MODEL 1
REMARK VINA RESULT:     -11.3      0.000      0.000
REMARK SMILES C[C@@]1(C(=O)OCCOCCOCCOCCOC(=O)c2ccc(-c3c4nc(c(-c5c(F)cccc5F)c5ccc([nH]5)c(-c5c(F)cccc5F)c5nc(c(-c6c(F)cccc6F)c6ccc3[nH]6)C=C5)C=C4)cc2)[C@@H]2C=C[C@@]3(CN(c4ccccc4)C(=O)[C@H]13)O2
REMARK SMILES IDX 12 1 11 2 10 3 9 4 8 5 7 6 6 7 5 8 3 9 4 10 2 11 1 12 74 13
REMARK SMILES IDX 88 14 75 15 89 16 77 17 86 18 76 19 78 20 79 21 87 22 80 23
REMARK SMILES IDX 81 24 85 25 82 26 84 27 83 28 13 29 14 30 15 31 16 32 17 33
REMARK SMILES IDX 18 34 19 35 20 36 21 37 73 38 22 39 72 40 23 41 24 42 25 43
REMARK SMILES IDX 66 44 26 45 71 46 65 47 67 48 27 49 70 50 64 51 63 52 28 54
REMARK SMILES IDX 54 55 37 56 53 57 38 58 41 59 52 60 68 61 39 62 40 63 51 65
REMARK SMILES IDX 69 66 42 67 29 68 30 69 35 70 31 71 32 72 34 73 36 74 33 75
REMARK SMILES IDX 55 76 56 77 61 78 57 79 58 80 60 81 62 82 59 83 43 84 44 85
REMARK SMILES IDX 49 86 45 87 46 88 48 89 50 90 47 91
REMARK H PARENT 67 53 41 64
REMARK Flexibility Score: inf
ROOT
ATOM      1  C   UNL A   1      39.395  21.751  26.375  1.00  0.00     0.188 C 
ENDROOT
BRANCH   1   2
ATOM      2  O   UNL A   1      38.511  21.736  25.262  1.00  0.00    -0.377 OA
BRANCH   2   3
ATOM      3  C   UNL A   1      37.201  21.220  25.383  1.00  0.00     0.188 C 
BRANCH   3   4
ATOM      4  C   UNL A   1      36.164  22.349  25.356  1.00  0.00     0.188 C 
BRANCH   4   5
ATOM      5  O   UNL A   1      35.485  22.629  26.576  1.00  0.00    -0.376 OA
BRANCH   5   6
ATOM      6  C   UNL A   1      34.268  21.932  26.853  1.00  0.00     0.202 C 
BRANCH   6   7
ATOM      7  C   UNL A   1      32.915  22.628  26.593  1.00  0.00     0.261 C 
BRANCH   7   8
ATOM      8  O   UNL A   1      32.929  24.084  26.611  1.00  0.00    -0.463 OA
BRANCH   8   9
ATOM      9  C   UNL A   1      31.867  24.683  26.034  1.00  0.00     0.315 C 
ATOM     10  O   UNL A   1      30.826  24.928  26.645  1.00  0.00    -0.251 OA
BRANCH   9  11
ATOM     11  C   UNL A   1      31.964  25.016  24.546  1.00  0.00     0.110 C 
ATOM     12  C   UNL A   1      31.726  23.685  23.791  1.00  0.00     0.028 C 
ATOM     13  C   UNL A   1      33.449  25.523  24.373  1.00  0.00     0.160 C 
ATOM     14  C   UNL A   1      31.258  26.134  23.748  1.00  0.00     0.137 C 
ATOM     15  C   UNL A   1      33.692  26.639  25.358  1.00  0.00     0.004 C 
ATOM     16  O   UNL A   1      33.387  26.341  23.148  1.00  0.00    -0.360 OA
ATOM     17  C   UNL A   1      32.346  27.206  23.624  1.00  0.00     0.118 C 
ATOM     18  C   UNL A   1      30.027  26.986  23.859  1.00  0.00     0.234 C 
ATOM     19  C   UNL A   1      32.934  27.657  24.934  1.00  0.00     0.009 C 
ATOM     20  C   UNL A   1      31.703  28.270  22.765  1.00  0.00     0.166 C 
ATOM     21  N   UNL A   1      30.348  28.228  23.281  1.00  0.00    -0.309 N 
ATOM     22  O   UNL A   1      28.899  26.593  24.089  1.00  0.00    -0.274 OA
BRANCH  21  23
ATOM     23  C   UNL A   1      29.488  29.330  23.242  1.00  0.00     0.044 A 
ATOM     24  C   UNL A   1      28.355  29.330  22.426  1.00  0.00     0.026 A 
ATOM     25  C   UNL A   1      29.813  30.468  23.983  1.00  0.00     0.026 A 
ATOM     26  C   UNL A   1      27.529  30.456  22.381  1.00  0.00     0.002 A 
ATOM     27  C   UNL A   1      29.032  31.616  23.867  1.00  0.00     0.002 A 
ATOM     28  C   UNL A   1      27.876  31.605  23.090  1.00  0.00     0.000 A 
ENDBRANCH  21  23
ENDBRANCH   9  11
ENDBRANCH   8   9
ENDBRANCH   7   8
ENDBRANCH   6   7
ENDBRANCH   5   6
ENDBRANCH   4   5
ENDBRANCH   3   4
ENDBRANCH   2   3
ENDBRANCH   1   2
BRANCH   1  29
ATOM     29  C   UNL A   1      40.353  20.571  26.510  1.00  0.00     0.188 C 
BRANCH  29  30
ATOM     30  O   UNL A   1      41.717  20.858  26.841  1.00  0.00    -0.376 OA
BRANCH  30  31
ATOM     31  C   UNL A   1      42.749  20.366  25.986  1.00  0.00     0.202 C 
BRANCH  31  32
ATOM     32  C   UNL A   1      43.593  21.441  25.301  1.00  0.00     0.261 C 
BRANCH  32  33
ATOM     33  O   UNL A   1      42.857  22.646  25.053  1.00  0.00    -0.460 OA
BRANCH  33  34
ATOM     34  C   UNL A   1      43.596  23.777  24.987  1.00  0.00     0.338 C 
ATOM     35  O   UNL A   1      44.569  24.001  24.295  1.00  0.00    -0.246 OA
BRANCH  34  36
ATOM     36  C   UNL A   1      42.961  24.796  25.838  1.00  0.00     0.060 A 
ATOM     37  C   UNL A   1      43.431  26.116  25.795  1.00  0.00     0.016 A 
ATOM     38  C   UNL A   1      41.961  24.424  26.734  1.00  0.00     0.016 A 
ATOM     39  C   UNL A   1      42.916  27.067  26.672  1.00  0.00     0.010 A 
ATOM     40  C   UNL A   1      41.458  25.372  27.620  1.00  0.00     0.010 A 
ATOM     41  C   UNL A   1      41.951  26.689  27.612  1.00  0.00    -0.014 A 
BRANCH  41  42
ATOM     42  C   UNL A   1      41.584  27.590  28.727  1.00  0.00     0.031 A 
ATOM     43  C   UNL A   1      42.372  27.485  30.002  1.00  0.00     0.074 A 
ATOM     44  C   UNL A   1      40.557  28.450  28.621  1.00  0.00     0.049 A 
ATOM     45  N   UNL A   1      42.156  28.045  31.162  1.00  0.00    -0.248 NA
ATOM     46  C   UNL A   1      43.553  26.605  29.965  1.00  0.00     0.031 C 
ATOM     47  C   UNL A   1      39.742  28.658  27.426  1.00  0.00     0.029 A 
ATOM     48  N   UNL A   1      40.012  29.297  29.553  1.00  0.00    -0.354 N 
ATOM     49  C   UNL A   1      43.157  27.565  31.998  1.00  0.00     0.074 A 
ATOM     50  C   UNL A   1      43.954  26.639  31.226  1.00  0.00     0.031 C 
ATOM     51  C   UNL A   1      38.791  29.568  27.701  1.00  0.00     0.029 A 
ATOM     52  C   UNL A   1      38.905  29.971  29.100  1.00  0.00     0.049 A 
ATOM     53  H   UNL A   1      40.380  29.411  30.458  1.00  0.00     0.167 HD
ATOM     54  C   UNL A   1      43.395  27.878  33.292  1.00  0.00     0.037 A 
ATOM     55  C   UNL A   1      38.066  30.796  29.757  1.00  0.00     0.037 A 
ATOM     56  C   UNL A   1      42.605  28.814  34.045  1.00  0.00     0.049 A 
ATOM     57  C   UNL A   1      38.318  31.089  31.215  1.00  0.00     0.074 A 
ATOM     58  C   UNL A   1      42.775  29.230  35.352  1.00  0.00     0.029 A 
ATOM     59  N   UNL A   1      41.491  29.477  33.552  1.00  0.00    -0.354 N 
ATOM     60  N   UNL A   1      39.279  30.651  31.994  1.00  0.00    -0.248 NA
ATOM     61  C   UNL A   1      37.369  31.988  31.885  1.00  0.00     0.031 C 
ATOM     62  C   UNL A   1      41.732  30.104  35.668  1.00  0.00     0.029 A 
ATOM     63  C   UNL A   1      40.947  30.281  34.539  1.00  0.00     0.049 A 
ATOM     64  H   UNL A   1      41.139  29.389  32.637  1.00  0.00     0.167 HD
ATOM     65  C   UNL A   1      39.070  31.248  33.232  1.00  0.00     0.074 A 
ATOM     66  C   UNL A   1      37.896  32.084  33.097  1.00  0.00     0.031 C 
ATOM     67  C   UNL A   1      39.785  31.119  34.376  1.00  0.00     0.037 A 
BRANCH  54  68
ATOM     68  C   UNL A   1      44.537  27.183  33.974  1.00  0.00     0.057 A 
ATOM     69  C   UNL A   1      44.374  25.957  34.634  1.00  0.00     0.134 A 
ATOM     70  C   UNL A   1      45.820  27.742  33.958  1.00  0.00     0.134 A 
ATOM     71  F   UNL A   1      43.167  25.376  34.702  1.00  0.00    -0.206 F 
ATOM     72  C   UNL A   1      45.441  25.327  35.277  1.00  0.00     0.040 A 
ATOM     73  C   UNL A   1      46.901  27.106  34.572  1.00  0.00     0.040 A 
ATOM     74  F   UNL A   1      46.047  28.913  33.345  1.00  0.00    -0.206 F 
ATOM     75  C   UNL A   1      46.711  25.898  35.240  1.00  0.00     0.006 A 
ENDBRANCH  54  68
BRANCH  55  76
ATOM     76  C   UNL A   1      36.904  31.396  29.054  1.00  0.00     0.057 A 
ATOM     77  C   UNL A   1      35.755  30.644  28.780  1.00  0.00     0.134 A 
ATOM     78  C   UNL A   1      36.917  32.728  28.621  1.00  0.00     0.134 A 
ATOM     79  F   UNL A   1      35.688  29.356  29.149  1.00  0.00    -0.206 F 
ATOM     80  C   UNL A   1      34.673  31.185  28.083  1.00  0.00     0.040 A 
ATOM     81  C   UNL A   1      35.832  33.291  27.947  1.00  0.00     0.040 A 
ATOM     82  F   UNL A   1      37.985  33.505  28.855  1.00  0.00    -0.206 F 
ATOM     83  C   UNL A   1      34.708  32.516  27.670  1.00  0.00     0.006 A 
ENDBRANCH  55  76
BRANCH  67  84
ATOM     84  C   UNL A   1      39.354  31.934  35.561  1.00  0.00     0.057 A 
ATOM     85  C   UNL A   1      39.765  33.261  35.738  1.00  0.00     0.134 A 
ATOM     86  C   UNL A   1      38.461  31.401  36.500  1.00  0.00     0.134 A 
ATOM     87  F   UNL A   1      40.628  33.826  34.882  1.00  0.00    -0.206 F 
ATOM     88  C   UNL A   1      39.317  34.023  36.819  1.00  0.00     0.040 A 
ATOM     89  C   UNL A   1      37.982  32.163  37.565  1.00  0.00     0.040 A 
ATOM     90  F   UNL A   1      38.018  30.140  36.380  1.00  0.00    -0.206 F 
ATOM     91  C   UNL A   1      38.414  33.476  37.730  1.00  0.00     0.006 A 
ENDBRANCH  67  84
ENDBRANCH  41  42
ENDBRANCH  34  36
ENDBRANCH  33  34
ENDBRANCH  32  33
ENDBRANCH  31  32
ENDBRANCH  30  31
ENDBRANCH  29  30
ENDBRANCH   1  29
TORSDOF 21
ENDMDL
MODEL 2
REMARK VINA RESULT:     -10.9      2.088      7.232
REMARK SMILES C[C@@]1(C(=O)OCCOCCOCCOCCOC(=O)c2ccc(-c3c4nc(c(-c5c(F)cccc5F)c5ccc([nH]5)c(-c5c(F)cccc5F)c5nc(c(-c6c(F)cccc6F)c6ccc3[nH]6)C=C5)C=C4)cc2)[C@@H]2C=C[C@@]3(CN(c4ccccc4)C(=O)[C@H]13)O2
REMARK SMILES IDX 12 1 11 2 10 3 9 4 8 5 7 6 6 7 5 8 3 9 4 10 2 11 1 12 74 13
REMARK SMILES IDX 88 14 75 15 89 16 77 17 86 18 76 19 78 20 79 21 87 22 80 23
REMARK SMILES IDX 81 24 85 25 82 26 84 27 83 28 13 29 14 30 15 31 16 32 17 33
REMARK SMILES IDX 18 34 19 35 20 36 21 37 73 38 22 39 72 40 23 41 24 42 25 43
REMARK SMILES IDX 66 44 26 45 71 46 65 47 67 48 27 49 70 50 64 51 63 52 28 54
REMARK SMILES IDX 54 55 37 56 53 57 38 58 41 59 52 60 68 61 39 62 40 63 51 65
REMARK SMILES IDX 69 66 42 67 29 68 30 69 35 70 31 71 32 72 34 73 36 74 33 75
REMARK SMILES IDX 55 76 56 77 61 78 57 79 58 80 60 81 62 82 59 83 43 84 44 85
REMARK SMILES IDX 49 86 45 87 46 88 48 89 50 90 47 91
REMARK H PARENT 67 53 41 64
REMARK Flexibility Score: inf
ROOT
ATOM      1  C   UNL A   1      41.204  20.173  26.438  1.00  0.00     0.188 C 
ENDROOT
BRANCH   1   2
ATOM      2  O   UNL A   1      40.756  21.466  26.053  1.00  0.00    -0.377 OA
BRANCH   2   3
ATOM      3  C   UNL A   1      39.394  21.827  26.173  1.00  0.00     0.188 C 
BRANCH   3   4
ATOM      4  C   UNL A   1      39.253  23.254  26.716  1.00  0.00     0.188 C 
BRANCH   4   5
ATOM      5  O   UNL A   1      38.239  24.068  26.134  1.00  0.00    -0.376 OA
BRANCH   5   6
ATOM      6  C   UNL A   1      37.090  23.428  25.575  1.00  0.00     0.202 C 
BRANCH   6   7
ATOM      7  C   UNL A   1      35.682  23.966  25.909  1.00  0.00     0.261 C 
BRANCH   7   8
ATOM      8  O   UNL A   1      35.118  24.918  24.963  1.00  0.00    -0.463 OA
BRANCH   8   9
ATOM      9  C   UNL A   1      33.977  25.522  25.356  1.00  0.00     0.315 C 
ATOM     10  O   UNL A   1      33.964  26.496  26.111  1.00  0.00    -0.251 OA
BRANCH   9  11
ATOM     11  C   UNL A   1      32.657  24.924  24.873  1.00  0.00     0.110 C 
ATOM     12  C   UNL A   1      32.091  25.917  23.828  1.00  0.00     0.028 C 
ATOM     13  C   UNL A   1      31.768  24.883  26.176  1.00  0.00     0.160 C 
ATOM     14  C   UNL A   1      32.361  23.497  24.361  1.00  0.00     0.137 C 
ATOM     15  C   UNL A   1      32.523  24.138  27.248  1.00  0.00     0.004 C 
ATOM     16  O   UNL A   1      30.768  23.842  25.871  1.00  0.00    -0.360 OA
ATOM     17  C   UNL A   1      31.731  22.819  25.584  1.00  0.00     0.118 C 
ATOM     18  C   UNL A   1      33.106  22.347  23.749  1.00  0.00     0.234 C 
ATOM     19  C   UNL A   1      32.573  22.869  26.831  1.00  0.00     0.009 C 
ATOM     20  C   UNL A   1      31.349  21.448  25.075  1.00  0.00     0.166 C 
ATOM     21  N   UNL A   1      32.480  21.174  24.211  1.00  0.00    -0.309 N 
ATOM     22  O   UNL A   1      33.867  22.407  22.801  1.00  0.00    -0.274 OA
BRANCH  21  23
ATOM     23  C   UNL A   1      32.916  19.877  23.920  1.00  0.00     0.044 A 
ATOM     24  C   UNL A   1      32.245  19.085  22.986  1.00  0.00     0.026 A 
ATOM     25  C   UNL A   1      33.997  19.352  24.631  1.00  0.00     0.026 A 
ATOM     26  C   UNL A   1      32.681  17.781  22.738  1.00  0.00     0.002 A 
ATOM     27  C   UNL A   1      34.371  18.024  24.440  1.00  0.00     0.002 A 
ATOM     28  C   UNL A   1      33.735  17.245  23.476  1.00  0.00     0.000 A 
ENDBRANCH  21  23
ENDBRANCH   9  11
ENDBRANCH   8   9
ENDBRANCH   7   8
ENDBRANCH   6   7
ENDBRANCH   5   6
ENDBRANCH   4   5
ENDBRANCH   3   4
ENDBRANCH   2   3
ENDBRANCH   1   2
BRANCH   1  29
ATOM     29  C   UNL A   1      42.648  19.816  26.097  1.00  0.00     0.188 C 
BRANCH  29  30
ATOM     30  O   UNL A   1      43.279  20.544  25.038  1.00  0.00    -0.376 OA
BRANCH  30  31
ATOM     31  C   UNL A   1      44.178  21.601  25.373  1.00  0.00     0.202 C 
BRANCH  31  32
ATOM     32  C   UNL A   1      44.177  22.787  24.407  1.00  0.00     0.261 C 
BRANCH  32  33
ATOM     33  O   UNL A   1      43.422  23.901  24.903  1.00  0.00    -0.460 OA
BRANCH  33  34
ATOM     34  C   UNL A   1      44.146  24.995  25.232  1.00  0.00     0.338 C 
ATOM     35  O   UNL A   1      45.198  25.373  24.754  1.00  0.00    -0.246 OA
BRANCH  34  36
ATOM     36  C   UNL A   1      43.391  25.769  26.229  1.00  0.00     0.060 A 
ATOM     37  C   UNL A   1      43.733  27.108  26.462  1.00  0.00     0.016 A 
ATOM     38  C   UNL A   1      42.404  25.143  26.988  1.00  0.00     0.016 A 
ATOM     39  C   UNL A   1      43.102  27.822  27.478  1.00  0.00     0.010 A 
ATOM     40  C   UNL A   1      41.784  25.853  28.013  1.00  0.00     0.010 A 
ATOM     41  C   UNL A   1      42.149  27.184  28.280  1.00  0.00    -0.014 A 
BRANCH  41  42
ATOM     42  C   UNL A   1      41.663  27.815  29.527  1.00  0.00     0.031 A 
ATOM     43  C   UNL A   1      40.433  28.675  29.445  1.00  0.00     0.074 A 
ATOM     44  C   UNL A   1      42.318  27.659  30.690  1.00  0.00     0.049 A 
ATOM     45  N   UNL A   1      39.900  29.452  30.349  1.00  0.00    -0.248 NA
ATOM     46  C   UNL A   1      39.724  28.673  28.154  1.00  0.00     0.031 C 
ATOM     47  C   UNL A   1      43.503  26.828  30.893  1.00  0.00     0.029 A 
ATOM     48  N   UNL A   1      42.083  28.219  31.920  1.00  0.00    -0.354 N 
ATOM     49  C   UNL A   1      38.811  30.050  29.729  1.00  0.00     0.074 A 
ATOM     50  C   UNL A   1      38.782  29.579  28.363  1.00  0.00     0.031 C 
ATOM     51  C   UNL A   1      43.899  26.941  32.173  1.00  0.00     0.029 A 
ATOM     52  C   UNL A   1      43.023  27.885  32.863  1.00  0.00     0.049 A 
ATOM     53  H   UNL A   1      41.315  28.804  32.109  1.00  0.00     0.167 HD
ATOM     54  C   UNL A   1      37.908  30.908  30.256  1.00  0.00     0.037 A 
ATOM     55  C   UNL A   1      43.170  28.319  34.130  1.00  0.00     0.037 A 
ATOM     56  C   UNL A   1      37.935  31.356  31.621  1.00  0.00     0.049 A 
ATOM     57  C   UNL A   1      42.183  29.319  34.681  1.00  0.00     0.074 A 
ATOM     58  C   UNL A   1      37.053  32.199  32.270  1.00  0.00     0.029 A 
ATOM     59  N   UNL A   1      38.903  30.996  32.547  1.00  0.00    -0.354 N 
ATOM     60  N   UNL A   1      41.142  29.863  34.098  1.00  0.00    -0.248 NA
ATOM     61  C   UNL A   1      42.394  29.765  36.065  1.00  0.00     0.031 C 
ATOM     62  C   UNL A   1      37.517  32.393  33.574  1.00  0.00     0.029 A 
ATOM     63  C   UNL A   1      38.654  31.621  33.757  1.00  0.00     0.049 A 
ATOM     64  H   UNL A   1      39.656  30.386  32.370  1.00  0.00     0.167 HD
ATOM     65  C   UNL A   1      40.555  30.685  35.052  1.00  0.00     0.074 A 
ATOM     66  C   UNL A   1      41.352  30.563  36.254  1.00  0.00     0.031 C 
ATOM     67  C   UNL A   1      39.454  31.470  34.946  1.00  0.00     0.037 A 
BRANCH  54  68
ATOM     68  C   UNL A   1      36.836  31.432  29.345  1.00  0.00     0.057 A 
ATOM     69  C   UNL A   1      36.865  32.737  28.836  1.00  0.00     0.134 A 
ATOM     70  C   UNL A   1      35.767  30.613  28.961  1.00  0.00     0.134 A 
ATOM     71  F   UNL A   1      37.851  33.579  29.179  1.00  0.00    -0.206 F 
ATOM     72  C   UNL A   1      35.855  33.218  28.001  1.00  0.00     0.040 A 
ATOM     73  C   UNL A   1      34.767  31.073  28.103  1.00  0.00     0.040 A 
ATOM     74  F   UNL A   1      35.677  29.352  29.411  1.00  0.00    -0.206 F 
ATOM     75  C   UNL A   1      34.805  32.381  27.626  1.00  0.00     0.006 A 
ENDBRANCH  54  68
BRANCH  55  76
ATOM     76  C   UNL A   1      44.296  27.828  34.964  1.00  0.00     0.057 A 
ATOM     77  C   UNL A   1      45.559  28.429  34.904  1.00  0.00     0.134 A 
ATOM     78  C   UNL A   1      44.146  26.736  35.827  1.00  0.00     0.134 A 
ATOM     79  F   UNL A   1      45.774  29.466  34.081  1.00  0.00    -0.206 F 
ATOM     80  C   UNL A   1      46.636  27.950  35.653  1.00  0.00     0.040 A 
ATOM     81  C   UNL A   1      45.206  26.262  36.603  1.00  0.00     0.040 A 
ATOM     82  F   UNL A   1      42.962  26.116  35.937  1.00  0.00    -0.206 F 
ATOM     83  C   UNL A   1      46.458  26.866  36.510  1.00  0.00     0.006 A 
ENDBRANCH  55  76
BRANCH  67  84
ATOM     84  C   UNL A   1      39.014  32.219  36.171  1.00  0.00     0.057 A 
ATOM     85  C   UNL A   1      38.168  31.646  37.127  1.00  0.00     0.134 A 
ATOM     86  C   UNL A   1      39.501  33.508  36.425  1.00  0.00     0.134 A 
ATOM     87  F   UNL A   1      37.658  30.420  36.938  1.00  0.00    -0.206 F 
ATOM     88  C   UNL A   1      37.806  32.337  38.286  1.00  0.00     0.040 A 
ATOM     89  C   UNL A   1      39.172  34.195  37.593  1.00  0.00     0.040 A 
ATOM     90  F   UNL A   1      40.327  34.109  35.554  1.00  0.00    -0.206 F 
ATOM     91  C   UNL A   1      38.318  33.611  38.525  1.00  0.00     0.006 A 
ENDBRANCH  67  84
ENDBRANCH  41  42
ENDBRANCH  34  36
ENDBRANCH  33  34
ENDBRANCH  32  33
ENDBRANCH  31  32
ENDBRANCH  30  31
ENDBRANCH  29  30
ENDBRANCH   1  29
TORSDOF 21
ENDMDL
MODEL 3
REMARK VINA RESULT:     -10.9      1.412      2.271
REMARK SMILES C[C@@]1(C(=O)OCCOCCOCCOCCOC(=O)c2ccc(-c3c4nc(c(-c5c(F)cccc5F)c5ccc([nH]5)c(-c5c(F)cccc5F)c5nc(c(-c6c(F)cccc6F)c6ccc3[nH]6)C=C5)C=C4)cc2)[C@@H]2C=C[C@@]3(CN(c4ccccc4)C(=O)[C@H]13)O2
REMARK SMILES IDX 12 1 11 2 10 3 9 4 8 5 7 6 6 7 5 8 3 9 4 10 2 11 1 12 74 13
REMARK SMILES IDX 88 14 75 15 89 16 77 17 86 18 76 19 78 20 79 21 87 22 80 23
REMARK SMILES IDX 81 24 85 25 82 26 84 27 83 28 13 29 14 30 15 31 16 32 17 33
REMARK SMILES IDX 18 34 19 35 20 36 21 37 73 38 22 39 72 40 23 41 24 42 25 43
REMARK SMILES IDX 66 44 26 45 71 46 65 47 67 48 27 49 70 50 64 51 63 52 28 54
REMARK SMILES IDX 54 55 37 56 53 57 38 58 41 59 52 60 68 61 39 62 40 63 51 65
REMARK SMILES IDX 69 66 42 67 29 68 30 69 35 70 31 71 32 72 34 73 36 74 33 75
REMARK SMILES IDX 55 76 56 77 61 78 57 79 58 80 60 81 62 82 59 83 43 84 44 85
REMARK SMILES IDX 49 86 45 87 46 88 48 89 50 90 47 91
REMARK H PARENT 67 53 41 64
REMARK Flexibility Score: inf
ROOT
ATOM      1  C   UNL A   1      40.019  21.534  26.884  1.00  0.00     0.188 C 
ENDROOT
BRANCH   1   2
ATOM      2  O   UNL A   1      39.372  21.499  25.619  1.00  0.00    -0.377 OA
BRANCH   2   3
ATOM      3  C   UNL A   1      38.293  20.616  25.380  1.00  0.00     0.188 C 
BRANCH   3   4
ATOM      4  C   UNL A   1      37.068  21.378  24.864  1.00  0.00     0.188 C 
BRANCH   4   5
ATOM      5  O   UNL A   1      36.680  22.543  25.586  1.00  0.00    -0.376 OA
BRANCH   5   6
ATOM      6  C   UNL A   1      35.685  22.413  26.604  1.00  0.00     0.202 C 
BRANCH   6   7
ATOM      7  C   UNL A   1      34.458  21.509  26.357  1.00  0.00     0.261 C 
BRANCH   7   8
ATOM      8  O   UNL A   1      33.348  22.116  25.637  1.00  0.00    -0.463 OA
BRANCH   8   9
ATOM      9  C   UNL A   1      33.198  21.719  24.357  1.00  0.00     0.315 C 
ATOM     10  O   UNL A   1      33.616  20.637  23.941  1.00  0.00    -0.251 OA
BRANCH   9  11
ATOM     11  C   UNL A   1      32.524  22.690  23.388  1.00  0.00     0.110 C 
ATOM     12  C   UNL A   1      31.352  21.911  22.744  1.00  0.00     0.028 C 
ATOM     13  C   UNL A   1      33.656  23.012  22.337  1.00  0.00     0.160 C 
ATOM     14  C   UNL A   1      32.039  24.135  23.636  1.00  0.00     0.137 C 
ATOM     15  C   UNL A   1      34.877  23.496  23.079  1.00  0.00     0.004 C 
ATOM     16  O   UNL A   1      33.234  24.308  21.771  1.00  0.00    -0.360 OA
ATOM     17  C   UNL A   1      33.167  24.983  23.035  1.00  0.00     0.118 C 
ATOM     18  C   UNL A   1      31.620  24.996  24.792  1.00  0.00     0.234 C 
ATOM     19  C   UNL A   1      34.535  24.686  23.585  1.00  0.00     0.009 C 
ATOM     20  C   UNL A   1      32.666  26.401  23.184  1.00  0.00     0.166 C 
ATOM     21  N   UNL A   1      32.023  26.308  24.480  1.00  0.00    -0.309 N 
ATOM     22  O   UNL A   1      30.815  24.698  25.655  1.00  0.00    -0.274 OA
BRANCH  21  23
ATOM     23  C   UNL A   1      31.874  27.406  25.334  1.00  0.00     0.044 A 
ATOM     24  C   UNL A   1      32.011  28.711  24.856  1.00  0.00     0.026 A 
ATOM     25  C   UNL A   1      31.654  27.181  26.693  1.00  0.00     0.026 A 
ATOM     26  C   UNL A   1      31.890  29.791  25.736  1.00  0.00     0.002 A 
ATOM     27  C   UNL A   1      31.621  28.257  27.577  1.00  0.00     0.002 A 
ATOM     28  C   UNL A   1      31.710  29.563  27.099  1.00  0.00     0.000 A 
ENDBRANCH  21  23
ENDBRANCH   9  11
ENDBRANCH   8   9
ENDBRANCH   7   8
ENDBRANCH   6   7
ENDBRANCH   5   6
ENDBRANCH   4   5
ENDBRANCH   3   4
ENDBRANCH   2   3
ENDBRANCH   1   2
BRANCH   1  29
ATOM     29  C   UNL A   1      41.120  20.505  27.122  1.00  0.00     0.188 C 
BRANCH  29  30
ATOM     30  O   UNL A   1      42.477  20.940  26.982  1.00  0.00    -0.376 OA
BRANCH  30  31
ATOM     31  C   UNL A   1      43.193  20.587  25.799  1.00  0.00     0.202 C 
BRANCH  31  32
ATOM     32  C   UNL A   1      43.856  21.754  25.067  1.00  0.00     0.261 C 
BRANCH  32  33
ATOM     33  O   UNL A   1      43.065  22.950  25.104  1.00  0.00    -0.460 OA
BRANCH  33  34
ATOM     34  C   UNL A   1      43.761  24.110  25.089  1.00  0.00     0.338 C 
ATOM     35  O   UNL A   1      44.743  24.390  24.430  1.00  0.00    -0.246 OA
BRANCH  34  36
ATOM     36  C   UNL A   1      43.064  25.079  25.948  1.00  0.00     0.060 A 
ATOM     37  C   UNL A   1      43.410  26.436  25.872  1.00  0.00     0.016 A 
ATOM     38  C   UNL A   1      42.132  24.632  26.882  1.00  0.00     0.016 A 
ATOM     39  C   UNL A   1      42.839  27.350  26.755  1.00  0.00     0.010 A 
ATOM     40  C   UNL A   1      41.574  25.544  27.773  1.00  0.00     0.010 A 
ATOM     41  C   UNL A   1      41.944  26.900  27.732  1.00  0.00    -0.014 A 
BRANCH  41  42
ATOM     42  C   UNL A   1      41.533  27.781  28.847  1.00  0.00     0.031 A 
ATOM     43  C   UNL A   1      42.289  27.672  30.142  1.00  0.00     0.074 A 
ATOM     44  C   UNL A   1      40.495  28.626  28.724  1.00  0.00     0.049 A 
ATOM     45  N   UNL A   1      42.033  28.214  31.302  1.00  0.00    -0.248 NA
ATOM     46  C   UNL A   1      43.485  26.812  30.126  1.00  0.00     0.031 C 
ATOM     47  C   UNL A   1      39.709  28.836  27.510  1.00  0.00     0.029 A 
ATOM     48  N   UNL A   1      39.913  29.453  29.652  1.00  0.00    -0.354 N 
ATOM     49  C   UNL A   1      43.019  27.740  32.159  1.00  0.00     0.074 A 
ATOM     50  C   UNL A   1      43.851  26.837  31.397  1.00  0.00     0.031 C 
ATOM     51  C   UNL A   1      38.736  29.727  27.771  1.00  0.00     0.029 A 
ATOM     52  C   UNL A   1      38.807  30.114  29.177  1.00  0.00     0.049 A 
ATOM     53  H   UNL A   1      40.254  29.561  30.568  1.00  0.00     0.167 HD
ATOM     54  C   UNL A   1      43.217  28.041  33.462  1.00  0.00     0.037 A 
ATOM     55  C   UNL A   1      37.937  30.917  29.821  1.00  0.00     0.037 A 
ATOM     56  C   UNL A   1      42.393  28.955  34.205  1.00  0.00     0.049 A 
ATOM     57  C   UNL A   1      38.146  31.196  31.289  1.00  0.00     0.074 A 
ATOM     58  C   UNL A   1      42.522  29.357  35.521  1.00  0.00     0.029 A 
ATOM     59  N   UNL A   1      41.282  29.606  33.691  1.00  0.00    -0.354 N 
ATOM     60  N   UNL A   1      39.093  30.764  32.088  1.00  0.00    -0.248 NA
ATOM     61  C   UNL A   1      37.165  32.072  31.944  1.00  0.00     0.031 C 
ATOM     62  C   UNL A   1      41.456  30.211  35.820  1.00  0.00     0.029 A 
ATOM     63  C   UNL A   1      40.699  30.389  34.672  1.00  0.00     0.049 A 
ATOM     64  H   UNL A   1      40.955  29.524  32.765  1.00  0.00     0.167 HD
ATOM     65  C   UNL A   1      38.841  31.342  33.327  1.00  0.00     0.074 A 
ATOM     66  C   UNL A   1      37.658  32.161  33.171  1.00  0.00     0.031 C 
ATOM     67  C   UNL A   1      39.528  31.210  34.489  1.00  0.00     0.037 A 
BRANCH  54  68
ATOM     68  C   UNL A   1      44.352  27.356  34.166  1.00  0.00     0.057 A 
ATOM     69  C   UNL A   1      45.636  27.915  34.229  1.00  0.00     0.134 A 
ATOM     70  C   UNL A   1      44.153  26.124  34.802  1.00  0.00     0.134 A 
ATOM     71  F   UNL A   1      45.898  29.084  33.625  1.00  0.00    -0.206 F 
ATOM     72  C   UNL A   1      46.686  27.261  34.874  1.00  0.00     0.040 A 
ATOM     73  C   UNL A   1      45.189  25.475  35.476  1.00  0.00     0.040 A 
ATOM     74  F   UNL A   1      42.950  25.532  34.781  1.00  0.00    -0.206 F 
ATOM     75  C   UNL A   1      46.462  26.041  35.507  1.00  0.00     0.006 A 
ENDBRANCH  54  68
BRANCH  55  76
ATOM     76  C   UNL A   1      36.784  31.507  29.095  1.00  0.00     0.057 A 
ATOM     77  C   UNL A   1      35.666  30.735  28.762  1.00  0.00     0.134 A 
ATOM     78  C   UNL A   1      36.779  32.850  28.698  1.00  0.00     0.134 A 
ATOM     79  F   UNL A   1      35.619  29.437  29.094  1.00  0.00    -0.206 F 
ATOM     80  C   UNL A   1      34.594  31.268  28.043  1.00  0.00     0.040 A 
ATOM     81  C   UNL A   1      35.702  33.405  28.003  1.00  0.00     0.040 A 
ATOM     82  F   UNL A   1      37.817  33.648  28.989  1.00  0.00    -0.206 F 
ATOM     83  C   UNL A   1      34.609  32.610  27.666  1.00  0.00     0.006 A 
ENDBRANCH  55  76
BRANCH  67  84
ATOM     84  C   UNL A   1      39.052  32.004  35.671  1.00  0.00     0.057 A 
ATOM     85  C   UNL A   1      38.258  31.436  36.675  1.00  0.00     0.134 A 
ATOM     86  C   UNL A   1      39.452  33.336  35.837  1.00  0.00     0.134 A 
ATOM     87  F   UNL A   1      37.831  30.169  36.570  1.00  0.00    -0.206 F 
ATOM     88  C   UNL A   1      37.863  32.173  37.794  1.00  0.00     0.040 A 
ATOM     89  C   UNL A   1      39.090  34.072  36.965  1.00  0.00     0.040 A 
ATOM     90  F   UNL A   1      40.225  33.935  34.917  1.00  0.00    -0.206 F 
ATOM     91  C   UNL A   1      38.289  33.491  37.945  1.00  0.00     0.006 A 
ENDBRANCH  67  84
ENDBRANCH  41  42
ENDBRANCH  34  36
ENDBRANCH  33  34
ENDBRANCH  32  33
ENDBRANCH  31  32
ENDBRANCH  30  31
ENDBRANCH  29  30
ENDBRANCH   1  29
TORSDOF 21
ENDMDL
