MODEL 1
REMARK VINA RESULT:     -11.2      0.000      0.000
REMARK SMILES CCc1ccc2c(CC(=O)OCCOCCOCCOCCOC(=O)c3ccc(-c4c5nc(c(-c6c(F)cccc6F)c6ccc([nH]6)c(-c6c(F)cccc6F)c6nc(c(-c7c(F)cccc7F)c7ccc4[nH]7)C=C6)C=C5)cc3)c(C(=O)c3cc(C)ccn3)[nH]c2c1
REMARK SMILES IDX 16 1 15 2 14 3 13 4 12 5 11 6 9 7 10 8 8 9 7 10 3 11 4 12
REMARK SMILES IDX 92 13 5 14 91 15 6 16 90 17 80 18 2 20 1 21 81 22 82 23
REMARK SMILES IDX 83 24 84 25 89 26 85 27 88 28 86 29 87 30 17 31 18 32 19 33
REMARK SMILES IDX 20 34 21 35 22 36 23 37 24 38 25 39 26 40 27 41 79 42 28 43
REMARK SMILES IDX 78 44 29 45 30 46 31 47 72 48 32 49 77 50 71 51 73 52 33 53
REMARK SMILES IDX 76 54 70 55 69 56 34 58 60 59 43 60 59 61 44 62 47 63 58 64
REMARK SMILES IDX 74 65 45 66 46 67 57 69 75 70 48 71 35 72 36 73 41 74 37 75
REMARK SMILES IDX 38 76 40 77 42 78 39 79 61 80 62 81 67 82 63 83 64 84 66 85
REMARK SMILES IDX 68 86 65 87 49 88 50 89 55 90 51 91 52 92 54 93 56 94 53 95
REMARK H PARENT 90 19 73 57 47 68
REMARK Flexibility Score: inf
ROOT
ATOM      1  C   UNL A   1      34.631  33.154  28.680  1.00  0.00     0.188 C 
ENDROOT
BRANCH   1   2
ATOM      2  C   UNL A   1      34.721  31.740  28.060  1.00  0.00     0.188 C 
BRANCH   2   3
ATOM      3  O   UNL A   1      33.536  30.992  27.902  1.00  0.00    -0.376 OA
BRANCH   3   4
ATOM      4  C   UNL A   1      33.378  30.002  26.909  1.00  0.00     0.202 C 
BRANCH   4   5
ATOM      5  C   UNL A   1      34.124  28.652  26.859  1.00  0.00     0.261 C 
BRANCH   5   6
ATOM      6  O   UNL A   1      33.341  27.444  26.840  1.00  0.00    -0.463 OA
BRANCH   6   7
ATOM      7  C   UNL A   1      33.630  26.518  25.897  1.00  0.00     0.310 C 
ATOM      8  O   UNL A   1      33.847  25.340  26.178  1.00  0.00    -0.252 OA
BRANCH   7   9
ATOM      9  C   UNL A   1      33.658  26.995  24.446  1.00  0.00     0.161 C 
BRANCH   9  10
ATOM     10  C   UNL A   1      32.410  27.100  23.573  1.00  0.00     0.000 A 
ATOM     11  C   UNL A   1      29.434  30.088  23.090  1.00  0.00    -0.046 A 
ATOM     12  C   UNL A   1      30.317  30.266  24.163  1.00  0.00     0.004 A 
ATOM     13  C   UNL A   1      29.495  28.905  22.341  1.00  0.00     0.030 A 
ATOM     14  C   UNL A   1      31.300  29.310  24.473  1.00  0.00     0.011 A 
ATOM     15  C   UNL A   1      30.515  27.988  22.637  1.00  0.00     0.046 A 
ATOM     16  C   UNL A   1      31.437  28.165  23.662  1.00  0.00     0.004 A 
ATOM     17  N   UNL A   1      30.833  26.807  22.021  1.00  0.00    -0.352 N 
ATOM     18  C   UNL A   1      32.088  26.375  22.402  1.00  0.00     0.093 A 
ATOM     19  H   UNL A   1      30.245  26.330  21.392  1.00  0.00     0.167 HD
BRANCH  11  20
ATOM     20  C   UNL A   1      28.495  31.203  22.683  1.00  0.00     0.032 C 
ATOM     21  C   UNL A   1      27.261  31.338  23.562  1.00  0.00     0.009 C 
ENDBRANCH  11  20
BRANCH  18  22
ATOM     22  C   UNL A   1      32.838  25.302  21.723  1.00  0.00     0.227 C 
ATOM     23  O   UNL A   1      33.164  25.395  20.540  1.00  0.00    -0.285 OA
BRANCH  22  24
ATOM     24  C   UNL A   1      33.330  24.086  22.480  1.00  0.00     0.113 A 
ATOM     25  C   UNL A   1      32.501  23.039  22.884  1.00  0.00     0.036 A 
ATOM     26  N   UNL A   1      34.668  24.083  22.727  1.00  0.00    -0.253 NA
ATOM     27  C   UNL A   1      33.062  21.969  23.604  1.00  0.00    -0.047 A 
ATOM     28  C   UNL A   1      35.185  23.033  23.401  1.00  0.00     0.112 A 
ATOM     29  C   UNL A   1      32.248  20.797  24.071  1.00  0.00     0.044 C 
ATOM     30  C   UNL A   1      34.430  21.984  23.882  1.00  0.00     0.023 A 
ENDBRANCH  22  24
ENDBRANCH  18  22
ENDBRANCH   9  10
ENDBRANCH   7   9
ENDBRANCH   6   7
ENDBRANCH   5   6
ENDBRANCH   4   5
ENDBRANCH   3   4
ENDBRANCH   2   3
ENDBRANCH   1   2
BRANCH   1  31
ATOM     31  O   UNL A   1      33.515  34.020  28.645  1.00  0.00    -0.377 OA
BRANCH  31  32
ATOM     32  C   UNL A   1      33.753  35.389  28.846  1.00  0.00     0.188 C 
BRANCH  32  33
ATOM     33  C   UNL A   1      32.952  35.918  30.034  1.00  0.00     0.188 C 
BRANCH  33  34
ATOM     34  O   UNL A   1      32.857  34.989  31.096  1.00  0.00    -0.376 OA
BRANCH  34  35
ATOM     35  C   UNL A   1      33.859  34.965  32.107  1.00  0.00     0.202 C 
BRANCH  35  36
ATOM     36  C   UNL A   1      34.298  33.691  32.868  1.00  0.00     0.261 C 
BRANCH  36  37
ATOM     37  O   UNL A   1      35.362  32.916  32.316  1.00  0.00    -0.460 OA
BRANCH  37  38
ATOM     38  C   UNL A   1      36.268  32.401  33.157  1.00  0.00     0.338 C 
ATOM     39  O   UNL A   1      36.228  32.368  34.375  1.00  0.00    -0.246 OA
BRANCH  38  40
ATOM     40  C   UNL A   1      37.218  31.670  32.304  1.00  0.00     0.060 A 
ATOM     41  C   UNL A   1      38.279  31.008  32.931  1.00  0.00     0.016 A 
ATOM     42  C   UNL A   1      37.020  31.573  30.922  1.00  0.00     0.016 A 
ATOM     43  C   UNL A   1      39.161  30.254  32.174  1.00  0.00     0.010 A 
ATOM     44  C   UNL A   1      37.933  30.855  30.154  1.00  0.00     0.010 A 
ATOM     45  C   UNL A   1      39.024  30.231  30.781  1.00  0.00    -0.014 A 
BRANCH  45  46
ATOM     46  C   UNL A   1      40.194  29.803  29.998  1.00  0.00     0.031 A 
ATOM     47  C   UNL A   1      41.285  30.812  29.793  1.00  0.00     0.074 A 
ATOM     48  C   UNL A   1      40.315  28.535  29.579  1.00  0.00     0.049 A 
ATOM     49  N   UNL A   1      42.437  30.682  29.193  1.00  0.00    -0.248 NA
ATOM     50  C   UNL A   1      41.039  32.155  30.347  1.00  0.00     0.031 C 
ATOM     51  C   UNL A   1      39.325  27.481  29.784  1.00  0.00     0.029 A 
ATOM     52  N   UNL A   1      41.332  27.924  28.897  1.00  0.00    -0.354 N 
ATOM     53  C   UNL A   1      43.048  31.925  29.293  1.00  0.00     0.074 A 
ATOM     54  C   UNL A   1      42.128  32.805  29.975  1.00  0.00     0.031 C 
ATOM     55  C   UNL A   1      39.779  26.347  29.224  1.00  0.00     0.029 A 
ATOM     56  C   UNL A   1      41.075  26.611  28.601  1.00  0.00     0.049 A 
ATOM     57  H   UNL A   1      42.165  28.383  28.644  1.00  0.00     0.167 HD
ATOM     58  C   UNL A   1      44.274  32.294  28.855  1.00  0.00     0.037 A 
ATOM     59  C   UNL A   1      41.804  25.736  27.885  1.00  0.00     0.037 A 
ATOM     60  C   UNL A   1      45.161  31.401  28.162  1.00  0.00     0.049 A 
ATOM     61  C   UNL A   1      43.137  26.181  27.349  1.00  0.00     0.074 A 
ATOM     62  C   UNL A   1      46.429  31.648  27.674  1.00  0.00     0.029 A 
ATOM     63  N   UNL A   1      44.854  30.083  27.842  1.00  0.00    -0.354 N 
ATOM     64  N   UNL A   1      43.726  27.349  27.462  1.00  0.00    -0.248 NA
ATOM     65  C   UNL A   1      43.914  25.188  26.598  1.00  0.00     0.031 C 
ATOM     66  C   UNL A   1      46.862  30.501  26.999  1.00  0.00     0.029 A 
ATOM     67  C   UNL A   1      45.896  29.514  27.131  1.00  0.00     0.049 A 
ATOM     68  H   UNL A   1      44.019  29.623  28.087  1.00  0.00     0.167 HD
ATOM     69  C   UNL A   1      44.950  27.229  26.816  1.00  0.00     0.074 A 
ATOM     70  C   UNL A   1      45.021  25.865  26.328  1.00  0.00     0.031 C 
ATOM     71  C   UNL A   1      45.929  28.154  26.647  1.00  0.00     0.037 A 
BRANCH  58  72
ATOM     72  C   UNL A   1      44.667  33.730  29.059  1.00  0.00     0.057 A 
ATOM     73  C   UNL A   1      45.375  34.164  30.189  1.00  0.00     0.134 A 
ATOM     74  C   UNL A   1      44.282  34.704  28.130  1.00  0.00     0.134 A 
ATOM     75  F   UNL A   1      45.754  33.288  31.134  1.00  0.00    -0.206 F 
ATOM     76  C   UNL A   1      45.645  35.517  30.409  1.00  0.00     0.040 A 
ATOM     77  C   UNL A   1      44.576  36.056  28.322  1.00  0.00     0.040 A 
ATOM     78  F   UNL A   1      43.598  34.364  27.028  1.00  0.00    -0.206 F 
ATOM     79  C   UNL A   1      45.247  36.467  29.471  1.00  0.00     0.006 A 
ENDBRANCH  58  72
BRANCH  59  80
ATOM     80  C   UNL A   1      41.269  24.375  27.635  1.00  0.00     0.057 A 
ATOM     81  C   UNL A   1      41.731  23.262  28.343  1.00  0.00     0.134 A 
ATOM     82  C   UNL A   1      40.237  24.167  26.709  1.00  0.00     0.134 A 
ATOM     83  F   UNL A   1      42.727  23.392  29.232  1.00  0.00    -0.206 F 
ATOM     84  C   UNL A   1      41.190  21.990  28.139  1.00  0.00     0.040 A 
ATOM     85  C   UNL A   1      39.671  22.908  26.513  1.00  0.00     0.040 A 
ATOM     86  F   UNL A   1      39.746  25.195  26.002  1.00  0.00    -0.206 F 
ATOM     87  C   UNL A   1      40.150  21.813  27.229  1.00  0.00     0.006 A 
ENDBRANCH  59  80
BRANCH  71  88
ATOM     88  C   UNL A   1      47.169  27.709  25.926  1.00  0.00     0.057 A 
ATOM     89  C   UNL A   1      47.244  27.673  24.528  1.00  0.00     0.134 A 
ATOM     90  C   UNL A   1      48.317  27.354  26.646  1.00  0.00     0.134 A 
ATOM     91  F   UNL A   1      46.177  27.991  23.780  1.00  0.00    -0.206 F 
ATOM     92  C   UNL A   1      48.408  27.268  23.872  1.00  0.00     0.040 A 
ATOM     93  C   UNL A   1      49.497  26.982  26.002  1.00  0.00     0.040 A 
ATOM     94  F   UNL A   1      48.318  27.382  27.987  1.00  0.00    -0.206 F 
ATOM     95  C   UNL A   1      49.541  26.929  24.609  1.00  0.00     0.006 A 
ENDBRANCH  71  88
ENDBRANCH  45  46
ENDBRANCH  38  40
ENDBRANCH  37  38
ENDBRANCH  36  37
ENDBRANCH  35  36
ENDBRANCH  34  35
ENDBRANCH  33  34
ENDBRANCH  32  33
ENDBRANCH  31  32
ENDBRANCH   1  31
TORSDOF 24
ENDMDL
MODEL 2
REMARK VINA RESULT:     -11.1      1.168      2.052
REMARK SMILES CCc1ccc2c(CC(=O)OCCOCCOCCOCCOC(=O)c3ccc(-c4c5nc(c(-c6c(F)cccc6F)c6ccc([nH]6)c(-c6c(F)cccc6F)c6nc(c(-c7c(F)cccc7F)c7ccc4[nH]7)C=C6)C=C5)cc3)c(C(=O)c3cc(C)ccn3)[nH]c2c1
REMARK SMILES IDX 16 1 15 2 14 3 13 4 12 5 11 6 9 7 10 8 8 9 7 10 3 11 4 12
REMARK SMILES IDX 92 13 5 14 91 15 6 16 90 17 80 18 2 20 1 21 81 22 82 23
REMARK SMILES IDX 83 24 84 25 89 26 85 27 88 28 86 29 87 30 17 31 18 32 19 33
REMARK SMILES IDX 20 34 21 35 22 36 23 37 24 38 25 39 26 40 27 41 79 42 28 43
REMARK SMILES IDX 78 44 29 45 30 46 31 47 72 48 32 49 77 50 71 51 73 52 33 53
REMARK SMILES IDX 76 54 70 55 69 56 34 58 60 59 43 60 59 61 44 62 47 63 58 64
REMARK SMILES IDX 74 65 45 66 46 67 57 69 75 70 48 71 35 72 36 73 41 74 37 75
REMARK SMILES IDX 38 76 40 77 42 78 39 79 61 80 62 81 67 82 63 83 64 84 66 85
REMARK SMILES IDX 68 86 65 87 49 88 50 89 55 90 51 91 52 92 54 93 56 94 53 95
REMARK H PARENT 90 19 73 57 47 68
REMARK Flexibility Score: inf
ROOT
ATOM      1  C   UNL A   1      34.363  34.261  29.401  1.00  0.00     0.188 C 
ENDROOT
BRANCH   1   2
ATOM      2  C   UNL A   1      34.718  33.310  28.234  1.00  0.00     0.188 C 
BRANCH   2   3
ATOM      3  O   UNL A   1      33.760  32.363  27.816  1.00  0.00    -0.376 OA
BRANCH   3   4
ATOM      4  C   UNL A   1      34.050  30.990  27.670  1.00  0.00     0.202 C 
BRANCH   4   5
ATOM      5  C   UNL A   1      33.069  29.914  27.156  1.00  0.00     0.261 C 
BRANCH   5   6
ATOM      6  O   UNL A   1      33.524  28.549  27.105  1.00  0.00    -0.463 OA
BRANCH   6   7
ATOM      7  C   UNL A   1      33.650  27.970  25.889  1.00  0.00     0.310 C 
ATOM      8  O   UNL A   1      34.243  28.517  24.960  1.00  0.00    -0.252 OA
BRANCH   7   9
ATOM      9  C   UNL A   1      33.034  26.583  25.716  1.00  0.00     0.161 C 
BRANCH   9  10
ATOM     10  C   UNL A   1      31.622  26.353  25.182  1.00  0.00     0.000 A 
ATOM     11  C   UNL A   1      28.887  28.781  23.028  1.00  0.00    -0.046 A 
ATOM     12  C   UNL A   1      30.020  29.430  23.534  1.00  0.00     0.004 A 
ATOM     13  C   UNL A   1      28.659  27.439  23.363  1.00  0.00     0.030 A 
ATOM     14  C   UNL A   1      30.963  28.753  24.326  1.00  0.00     0.011 A 
ATOM     15  C   UNL A   1      29.638  26.771  24.113  1.00  0.00     0.046 A 
ATOM     16  C   UNL A   1      30.797  27.377  24.583  1.00  0.00     0.004 A 
ATOM     17  N   UNL A   1      29.691  25.460  24.509  1.00  0.00    -0.352 N 
ATOM     18  C   UNL A   1      30.959  25.127  24.941  1.00  0.00     0.093 A 
ATOM     19  H   UNL A   1      28.927  24.840  24.489  1.00  0.00     0.167 HD
BRANCH  11  20
ATOM     20  C   UNL A   1      27.976  29.490  22.051  1.00  0.00     0.032 C 
ATOM     21  C   UNL A   1      28.497  30.834  21.566  1.00  0.00     0.009 C 
ENDBRANCH  11  20
BRANCH  18  22
ATOM     22  C   UNL A   1      31.423  23.745  25.167  1.00  0.00     0.227 C 
ATOM     23  O   UNL A   1      30.702  22.905  25.701  1.00  0.00    -0.285 OA
BRANCH  22  24
ATOM     24  C   UNL A   1      32.770  23.275  24.658  1.00  0.00     0.113 A 
ATOM     25  C   UNL A   1      33.598  22.398  25.359  1.00  0.00     0.036 A 
ATOM     26  N   UNL A   1      33.111  23.769  23.437  1.00  0.00    -0.253 NA
ATOM     27  C   UNL A   1      34.840  22.047  24.801  1.00  0.00    -0.047 A 
ATOM     28  C   UNL A   1      34.299  23.399  22.914  1.00  0.00     0.112 A 
ATOM     29  C   UNL A   1      35.792  21.104  25.479  1.00  0.00     0.044 C 
ATOM     30  C   UNL A   1      35.200  22.579  23.562  1.00  0.00     0.023 A 
ENDBRANCH  22  24
ENDBRANCH  18  22
ENDBRANCH   9  10
ENDBRANCH   7   9
ENDBRANCH   6   7
ENDBRANCH   5   6
ENDBRANCH   4   5
ENDBRANCH   3   4
ENDBRANCH   2   3
ENDBRANCH   1   2
BRANCH   1  31
ATOM     31  O   UNL A   1      33.072  34.710  29.759  1.00  0.00    -0.377 OA
BRANCH  31  32
ATOM     32  C   UNL A   1      32.915  36.080  30.022  1.00  0.00     0.188 C 
BRANCH  32  33
ATOM     33  C   UNL A   1      33.038  36.372  31.516  1.00  0.00     0.188 C 
BRANCH  33  34
ATOM     34  O   UNL A   1      32.866  35.222  32.321  1.00  0.00    -0.376 OA
BRANCH  34  35
ATOM     35  C   UNL A   1      33.987  34.643  32.978  1.00  0.00     0.202 C 
BRANCH  35  36
ATOM     36  C   UNL A   1      34.140  33.132  33.274  1.00  0.00     0.261 C 
BRANCH  36  37
ATOM     37  O   UNL A   1      35.217  32.433  32.649  1.00  0.00    -0.460 OA
BRANCH  37  38
ATOM     38  C   UNL A   1      36.379  32.348  33.309  1.00  0.00     0.338 C 
ATOM     39  O   UNL A   1      36.604  32.634  34.473  1.00  0.00    -0.246 OA
BRANCH  38  40
ATOM     40  C   UNL A   1      37.284  31.618  32.408  1.00  0.00     0.060 A 
ATOM     41  C   UNL A   1      38.217  30.750  32.986  1.00  0.00     0.016 A 
ATOM     42  C   UNL A   1      37.160  31.727  31.018  1.00  0.00     0.016 A 
ATOM     43  C   UNL A   1      39.046  29.994  32.174  1.00  0.00     0.010 A 
ATOM     44  C   UNL A   1      38.026  31.003  30.201  1.00  0.00     0.010 A 
ATOM     45  C   UNL A   1      38.993  30.169  30.786  1.00  0.00    -0.014 A 
BRANCH  45  46
ATOM     46  C   UNL A   1      40.148  29.699  30.005  1.00  0.00     0.031 A 
ATOM     47  C   UNL A   1      41.281  30.663  29.815  1.00  0.00     0.074 A 
ATOM     48  C   UNL A   1      40.218  28.432  29.575  1.00  0.00     0.049 A 
ATOM     49  N   UNL A   1      42.430  30.490  29.220  1.00  0.00    -0.248 NA
ATOM     50  C   UNL A   1      41.089  32.010  30.380  1.00  0.00     0.031 C 
ATOM     51  C   UNL A   1      39.184  27.418  29.765  1.00  0.00     0.029 A 
ATOM     52  N   UNL A   1      41.212  27.785  28.892  1.00  0.00    -0.354 N 
ATOM     53  C   UNL A   1      43.092  31.706  29.334  1.00  0.00     0.074 A 
ATOM     54  C   UNL A   1      42.206  32.618  30.020  1.00  0.00     0.031 C 
ATOM     55  C   UNL A   1      39.593  26.271  29.197  1.00  0.00     0.029 A 
ATOM     56  C   UNL A   1      40.903  26.486  28.583  1.00  0.00     0.049 A 
ATOM     57  H   UNL A   1      42.065  28.210  28.648  1.00  0.00     0.167 HD
ATOM     58  C   UNL A   1      44.334  32.028  28.906  1.00  0.00     0.037 A 
ATOM     59  C   UNL A   1      41.598  25.588  27.862  1.00  0.00     0.037 A 
ATOM     60  C   UNL A   1      45.187  31.104  28.209  1.00  0.00     0.049 A 
ATOM     61  C   UNL A   1      42.952  25.981  27.337  1.00  0.00     0.074 A 
ATOM     62  C   UNL A   1      46.468  31.302  27.730  1.00  0.00     0.029 A 
ATOM     63  N   UNL A   1      44.828  29.803  27.876  1.00  0.00    -0.354 N 
ATOM     64  N   UNL A   1      43.588  27.123  27.464  1.00  0.00    -0.248 NA
ATOM     65  C   UNL A   1      43.690  24.963  26.581  1.00  0.00     0.031 C 
ATOM     66  C   UNL A   1      46.856  30.145  27.046  1.00  0.00     0.029 A 
ATOM     67  C   UNL A   1      45.848  29.198  27.164  1.00  0.00     0.049 A 
ATOM     68  H   UNL A   1      43.972  29.376  28.111  1.00  0.00     0.167 HD
ATOM     69  C   UNL A   1      44.809  26.957  26.824  1.00  0.00     0.074 A 
ATOM     70  C   UNL A   1      44.826  25.596  26.323  1.00  0.00     0.031 C 
ATOM     71  C   UNL A   1      45.827  27.842  26.668  1.00  0.00     0.037 A 
BRANCH  58  72
ATOM     72  C   UNL A   1      44.786  33.444  29.125  1.00  0.00     0.057 A 
ATOM     73  C   UNL A   1      44.546  34.464  28.193  1.00  0.00     0.134 A 
ATOM     74  C   UNL A   1      45.521  33.780  30.269  1.00  0.00     0.134 A 
ATOM     75  F   UNL A   1      43.870  34.208  27.062  1.00  0.00    -0.206 F 
ATOM     76  C   UNL A   1      45.060  35.751  28.368  1.00  0.00     0.040 A 
ATOM     77  C   UNL A   1      46.010  35.072  30.472  1.00  0.00     0.040 A 
ATOM     78  F   UNL A   1      45.793  32.855  31.201  1.00  0.00    -0.206 F 
ATOM     79  C   UNL A   1      45.792  36.058  29.513  1.00  0.00     0.006 A 
ENDBRANCH  58  72
BRANCH  59  80
ATOM     80  C   UNL A   1      41.008  24.253  27.598  1.00  0.00     0.057 A 
ATOM     81  C   UNL A   1      39.994  24.071  26.652  1.00  0.00     0.134 A 
ATOM     82  C   UNL A   1      41.485  23.112  28.257  1.00  0.00     0.134 A 
ATOM     83  F   UNL A   1      39.483  25.126  25.998  1.00  0.00    -0.206 F 
ATOM     84  C   UNL A   1      39.475  22.806  26.371  1.00  0.00     0.040 A 
ATOM     85  C   UNL A   1      40.994  21.839  27.969  1.00  0.00     0.040 A 
ATOM     86  F   UNL A   1      42.461  23.218  29.171  1.00  0.00    -0.206 F 
ATOM     87  C   UNL A   1      39.983  21.684  27.024  1.00  0.00     0.006 A 
ENDBRANCH  59  80
BRANCH  71  88
ATOM     88  C   UNL A   1      47.051  27.352  25.950  1.00  0.00     0.057 A 
ATOM     89  C   UNL A   1      48.088  26.687  26.616  1.00  0.00     0.134 A 
ATOM     90  C   UNL A   1      47.171  27.512  24.563  1.00  0.00     0.134 A 
ATOM     91  F   UNL A   1      48.040  26.509  27.945  1.00  0.00    -0.206 F 
ATOM     92  C   UNL A   1      49.215  26.227  25.933  1.00  0.00     0.040 A 
ATOM     93  C   UNL A   1      48.275  27.027  23.864  1.00  0.00     0.040 A 
ATOM     94  F   UNL A   1      46.206  28.127  23.862  1.00  0.00    -0.206 F 
ATOM     95  C   UNL A   1      49.307  26.389  24.552  1.00  0.00     0.006 A 
ENDBRANCH  71  88
ENDBRANCH  45  46
ENDBRANCH  38  40
ENDBRANCH  37  38
ENDBRANCH  36  37
ENDBRANCH  35  36
ENDBRANCH  34  35
ENDBRANCH  33  34
ENDBRANCH  32  33
ENDBRANCH  31  32
ENDBRANCH   1  31
TORSDOF 24
ENDMDL
MODEL 3
REMARK VINA RESULT:     -10.7      1.219      3.854
REMARK SMILES CCc1ccc2c(CC(=O)OCCOCCOCCOCCOC(=O)c3ccc(-c4c5nc(c(-c6c(F)cccc6F)c6ccc([nH]6)c(-c6c(F)cccc6F)c6nc(c(-c7c(F)cccc7F)c7ccc4[nH]7)C=C6)C=C5)cc3)c(C(=O)c3cc(C)ccn3)[nH]c2c1
REMARK SMILES IDX 16 1 15 2 14 3 13 4 12 5 11 6 9 7 10 8 8 9 7 10 3 11 4 12
REMARK SMILES IDX 92 13 5 14 91 15 6 16 90 17 80 18 2 20 1 21 81 22 82 23
REMARK SMILES IDX 83 24 84 25 89 26 85 27 88 28 86 29 87 30 17 31 18 32 19 33
REMARK SMILES IDX 20 34 21 35 22 36 23 37 24 38 25 39 26 40 27 41 79 42 28 43
REMARK SMILES IDX 78 44 29 45 30 46 31 47 72 48 32 49 77 50 71 51 73 52 33 53
REMARK SMILES IDX 76 54 70 55 69 56 34 58 60 59 43 60 59 61 44 62 47 63 58 64
REMARK SMILES IDX 74 65 45 66 46 67 57 69 75 70 48 71 35 72 36 73 41 74 37 75
REMARK SMILES IDX 38 76 40 77 42 78 39 79 61 80 62 81 67 82 63 83 64 84 66 85
REMARK SMILES IDX 68 86 65 87 49 88 50 89 55 90 51 91 52 92 54 93 56 94 53 95
REMARK H PARENT 90 19 73 57 47 68
REMARK Flexibility Score: inf
ROOT
ATOM      1  C   UNL A   1      34.123  33.889  29.177  1.00  0.00     0.188 C 
ENDROOT
BRANCH   1   2
ATOM      2  C   UNL A   1      34.405  32.854  28.064  1.00  0.00     0.188 C 
BRANCH   2   3
ATOM      3  O   UNL A   1      34.011  31.516  28.266  1.00  0.00    -0.376 OA
BRANCH   3   4
ATOM      4  C   UNL A   1      34.426  30.458  27.430  1.00  0.00     0.202 C 
BRANCH   4   5
ATOM      5  C   UNL A   1      33.922  29.001  27.507  1.00  0.00     0.261 C 
BRANCH   5   6
ATOM      6  O   UNL A   1      34.310  28.091  26.461  1.00  0.00    -0.463 OA
BRANCH   6   7
ATOM      7  C   UNL A   1      33.660  28.174  25.278  1.00  0.00     0.310 C 
ATOM      8  O   UNL A   1      32.948  29.134  24.985  1.00  0.00    -0.252 OA
BRANCH   7   9
ATOM      9  C   UNL A   1      33.861  27.021  24.296  1.00  0.00     0.161 C 
BRANCH   9  10
ATOM     10  C   UNL A   1      33.080  25.712  24.369  1.00  0.00     0.000 A 
ATOM     11  C   UNL A   1      34.230  21.626  24.366  1.00  0.00    -0.046 A 
ATOM     12  C   UNL A   1      35.237  22.549  24.060  1.00  0.00     0.004 A 
ATOM     13  C   UNL A   1      32.911  22.076  24.519  1.00  0.00     0.030 A 
ATOM     14  C   UNL A   1      34.968  23.925  23.958  1.00  0.00     0.011 A 
ATOM     15  C   UNL A   1      32.674  23.457  24.461  1.00  0.00     0.046 A 
ATOM     16  C   UNL A   1      33.665  24.400  24.213  1.00  0.00     0.004 A 
ATOM     17  N   UNL A   1      31.508  24.152  24.644  1.00  0.00    -0.352 N 
ATOM     18  C   UNL A   1      31.758  25.497  24.827  1.00  0.00     0.093 A 
ATOM     19  H   UNL A   1      30.611  23.746  24.644  1.00  0.00     0.167 HD
BRANCH  11  20
ATOM     20  C   UNL A   1      34.578  20.177  24.626  1.00  0.00     0.032 C 
ATOM     21  C   UNL A   1      33.439  19.348  25.201  1.00  0.00     0.009 C 
ENDBRANCH  11  20
BRANCH  18  22
ATOM     22  C   UNL A   1      30.764  26.467  25.321  1.00  0.00     0.227 C 
ATOM     23  O   UNL A   1      30.699  26.771  26.511  1.00  0.00    -0.285 OA
BRANCH  22  24
ATOM     24  C   UNL A   1      29.847  27.208  24.370  1.00  0.00     0.113 A 
ATOM     25  C   UNL A   1      30.256  28.288  23.587  1.00  0.00     0.036 A 
ATOM     26  N   UNL A   1      28.577  26.723  24.324  1.00  0.00    -0.253 NA
ATOM     27  C   UNL A   1      29.312  28.917  22.755  1.00  0.00    -0.047 A 
ATOM     28  C   UNL A   1      27.696  27.331  23.501  1.00  0.00     0.112 A 
ATOM     29  C   UNL A   1      29.663  30.080  21.872  1.00  0.00     0.044 C 
ATOM     30  C   UNL A   1      28.002  28.436  22.734  1.00  0.00     0.023 A 
ENDBRANCH  22  24
ENDBRANCH  18  22
ENDBRANCH   9  10
ENDBRANCH   7   9
ENDBRANCH   6   7
ENDBRANCH   5   6
ENDBRANCH   4   5
ENDBRANCH   3   4
ENDBRANCH   2   3
ENDBRANCH   1   2
BRANCH   1  31
ATOM     31  O   UNL A   1      32.897  34.547  29.426  1.00  0.00    -0.377 OA
BRANCH  31  32
ATOM     32  C   UNL A   1      32.938  35.935  29.632  1.00  0.00     0.188 C 
BRANCH  32  33
ATOM     33  C   UNL A   1      33.304  36.267  31.077  1.00  0.00     0.188 C 
BRANCH  33  34
ATOM     34  O   UNL A   1      32.899  35.269  31.994  1.00  0.00    -0.376 OA
BRANCH  34  35
ATOM     35  C   UNL A   1      33.869  34.615  32.804  1.00  0.00     0.202 C 
BRANCH  35  36
ATOM     36  C   UNL A   1      34.030  33.079  32.902  1.00  0.00     0.261 C 
BRANCH  36  37
ATOM     37  O   UNL A   1      35.176  32.486  32.291  1.00  0.00    -0.460 OA
BRANCH  37  38
ATOM     38  C   UNL A   1      36.255  32.271  33.053  1.00  0.00     0.338 C 
ATOM     39  O   UNL A   1      36.382  32.470  34.249  1.00  0.00    -0.246 OA
BRANCH  38  40
ATOM     40  C   UNL A   1      37.191  31.523  32.199  1.00  0.00     0.060 A 
ATOM     41  C   UNL A   1      38.199  30.785  32.828  1.00  0.00     0.016 A 
ATOM     42  C   UNL A   1      37.027  31.487  30.809  1.00  0.00     0.016 A 
ATOM     43  C   UNL A   1      39.063  30.015  32.066  1.00  0.00     0.010 A 
ATOM     44  C   UNL A   1      37.924  30.751  30.039  1.00  0.00     0.010 A 
ATOM     45  C   UNL A   1      38.964  30.049  30.671  1.00  0.00    -0.014 A 
BRANCH  45  46
ATOM     46  C   UNL A   1      40.132  29.590  29.903  1.00  0.00     0.031 A 
ATOM     47  C   UNL A   1      41.247  30.573  29.702  1.00  0.00     0.074 A 
ATOM     48  C   UNL A   1      40.230  28.317  29.494  1.00  0.00     0.049 A 
ATOM     49  N   UNL A   1      42.402  30.414  29.115  1.00  0.00    -0.248 NA
ATOM     50  C   UNL A   1      41.025  31.925  30.243  1.00  0.00     0.031 C 
ATOM     51  C   UNL A   1      39.215  27.286  29.696  1.00  0.00     0.029 A 
ATOM     52  N   UNL A   1      41.240  27.679  28.827  1.00  0.00    -0.354 N 
ATOM     53  C   UNL A   1      43.039  31.644  29.212  1.00  0.00     0.074 A 
ATOM     54  C   UNL A   1      42.132  32.549  29.879  1.00  0.00     0.031 C 
ATOM     55  C   UNL A   1      39.650  26.139  29.149  1.00  0.00     0.029 A 
ATOM     56  C   UNL A   1      40.958  26.369  28.538  1.00  0.00     0.049 A 
ATOM     57  H   UNL A   1      42.085  28.118  28.579  1.00  0.00     0.167 HD
ATOM     58  C   UNL A   1      44.277  31.983  28.785  1.00  0.00     0.037 A 
ATOM     59  C   UNL A   1      41.675  25.474  27.836  1.00  0.00     0.037 A 
ATOM     60  C   UNL A   1      45.152  31.066  28.107  1.00  0.00     0.049 A 
ATOM     61  C   UNL A   1      43.023  25.885  27.310  1.00  0.00     0.074 A 
ATOM     62  C   UNL A   1      46.430  31.282  27.631  1.00  0.00     0.029 A 
ATOM     63  N   UNL A   1      44.820  29.752  27.794  1.00  0.00    -0.354 N 
ATOM     64  N   UNL A   1      43.636  27.041  27.421  1.00  0.00    -0.248 NA
ATOM     65  C   UNL A   1      43.785  24.870  26.575  1.00  0.00     0.031 C 
ATOM     66  C   UNL A   1      46.844  30.121  26.968  1.00  0.00     0.029 A 
ATOM     67  C   UNL A   1      45.856  29.156  27.098  1.00  0.00     0.049 A 
ATOM     68  H   UNL A   1      43.972  29.313  28.033  1.00  0.00     0.167 HD
ATOM     69  C   UNL A   1      44.863  26.890  26.789  1.00  0.00     0.074 A 
ATOM     70  C   UNL A   1      44.910  25.521  26.311  1.00  0.00     0.031 C 
ATOM     71  C   UNL A   1      45.864  27.791  26.624  1.00  0.00     0.037 A 
BRANCH  58  72
ATOM     72  C   UNL A   1      44.699  33.412  28.983  1.00  0.00     0.057 A 
ATOM     73  C   UNL A   1      45.347  33.851  30.146  1.00  0.00     0.134 A 
ATOM     74  C   UNL A   1      44.403  34.375  28.010  1.00  0.00     0.134 A 
ATOM     75  F   UNL A   1      45.640  32.987  31.131  1.00  0.00    -0.206 F 
ATOM     76  C   UNL A   1      45.643  35.201  30.354  1.00  0.00     0.040 A 
ATOM     77  C   UNL A   1      44.725  35.722  28.191  1.00  0.00     0.040 A 
ATOM     78  F   UNL A   1      43.780  34.028  26.874  1.00  0.00    -0.206 F 
ATOM     79  C   UNL A   1      45.334  36.140  29.372  1.00  0.00     0.006 A 
ENDBRANCH  58  72
BRANCH  59  80
ATOM     80  C   UNL A   1      41.112  24.123  27.590  1.00  0.00     0.057 A 
ATOM     81  C   UNL A   1      40.107  23.906  26.644  1.00  0.00     0.134 A 
ATOM     82  C   UNL A   1      41.610  23.003  28.270  1.00  0.00     0.134 A 
ATOM     83  F   UNL A   1      39.577  24.939  25.971  1.00  0.00    -0.206 F 
ATOM     84  C   UNL A   1      39.614  22.626  26.382  1.00  0.00     0.040 A 
ATOM     85  C   UNL A   1      41.146  21.715  28.000  1.00  0.00     0.040 A 
ATOM     86  F   UNL A   1      42.580  23.143  29.185  1.00  0.00    -0.206 F 
ATOM     87  C   UNL A   1      40.141  21.525  27.054  1.00  0.00     0.006 A 
ENDBRANCH  59  80
BRANCH  71  88
ATOM     88  C   UNL A   1      47.101  27.315  25.919  1.00  0.00     0.057 A 
ATOM     89  C   UNL A   1      48.134  26.653  26.596  1.00  0.00     0.134 A 
ATOM     90  C   UNL A   1      47.239  27.484  24.535  1.00  0.00     0.134 A 
ATOM     91  F   UNL A   1      48.069  26.467  27.923  1.00  0.00    -0.206 F 
ATOM     92  C   UNL A   1      49.273  26.205  25.926  1.00  0.00     0.040 A 
ATOM     93  C   UNL A   1      48.356  27.010  23.849  1.00  0.00     0.040 A 
ATOM     94  F   UNL A   1      46.279  28.096  23.825  1.00  0.00    -0.206 F 
ATOM     95  C   UNL A   1      49.383  26.376  24.547  1.00  0.00     0.006 A 
ENDBRANCH  71  88
ENDBRANCH  45  46
ENDBRANCH  38  40
ENDBRANCH  37  38
ENDBRANCH  36  37
ENDBRANCH  35  36
ENDBRANCH  34  35
ENDBRANCH  33  34
ENDBRANCH  32  33
ENDBRANCH  31  32
ENDBRANCH   1  31
TORSDOF 24
ENDMDL
