MODEL 1
REMARK VINA RESULT:     -10.6      0.000      0.000
REMARK SMILES Cc1c(-c2nn(-c3ccccc3)cc2/C=N/O)nnn1-c1ccc(C(=O)OCCOCCOCCOCCOC(=O)c2ccc(-c3c4nc(c(-c5c(F)cccc5F)c5ccc([nH]5)c(-c5c(F)cccc5F)c5nc(c(-c6c(F)cccc6F)c6ccc3[nH]6)C=C5)C=C4)cc2)cc1
REMARK SMILES IDX 32 1 31 2 30 3 29 4 28 5 27 6 25 7 26 8 24 9 21 10 22 11
REMARK SMILES IDX 97 12 23 13 96 14 20 15 1 16 2 17 3 18 18 19 19 20 4 21 5 22
REMARK SMILES IDX 14 23 6 24 13 25 15 26 16 27 17 28 7 30 8 31 12 32 9 33
REMARK SMILES IDX 11 34 10 35 33 36 34 37 35 38 36 39 37 40 38 41 39 42 40 43
REMARK SMILES IDX 41 44 42 45 43 46 95 47 44 48 94 49 45 50 46 51 47 52 88 53
REMARK SMILES IDX 48 54 93 55 87 56 89 57 49 58 92 59 86 60 85 61 50 63 76 64
REMARK SMILES IDX 59 65 75 66 60 67 63 68 74 69 90 70 61 71 62 72 73 74 91 75
REMARK SMILES IDX 64 76 51 77 52 78 57 79 53 80 54 81 56 82 58 83 55 84 77 85
REMARK SMILES IDX 78 86 83 87 79 88 80 89 82 90 84 91 81 92 65 93 66 94 71 95
REMARK SMILES IDX 67 96 68 97 70 98 72 99 69 100
REMARK H PARENT 17 29 89 62 63 73
REMARK Flexibility Score: inf
ROOT
ATOM      1  C   UNL A   1      45.189  22.834  24.329  1.00  0.00     0.188 C 
ENDROOT
BRANCH   1   2
ATOM      2  C   UNL A   1      46.311  21.782  24.491  1.00  0.00     0.188 C 
BRANCH   2   3
ATOM      3  O   UNL A   1      46.088  20.835  25.525  1.00  0.00    -0.376 OA
BRANCH   3   4
ATOM      4  C   UNL A   1      46.257  19.471  25.183  1.00  0.00     0.202 C 
BRANCH   4   5
ATOM      5  C   UNL A   1      45.004  18.831  24.575  1.00  0.00     0.261 C 
BRANCH   5   6
ATOM      6  O   UNL A   1      43.780  19.529  24.860  1.00  0.00    -0.460 OA
BRANCH   6   7
ATOM      7  C   UNL A   1      42.972  18.968  25.780  1.00  0.00     0.338 C 
ATOM      8  O   UNL A   1      43.199  17.958  26.443  1.00  0.00    -0.246 OA
BRANCH   7   9
ATOM      9  C   UNL A   1      41.822  19.857  26.015  1.00  0.00     0.060 A 
ATOM     10  C   UNL A   1      39.647  21.571  26.191  1.00  0.00     0.067 A 
ATOM     11  C   UNL A   1      39.434  20.226  25.870  1.00  0.00     0.029 A 
ATOM     12  C   UNL A   1      40.923  22.027  26.553  1.00  0.00     0.029 A 
ATOM     13  C   UNL A   1      40.532  19.379  25.744  1.00  0.00     0.018 A 
ATOM     14  C   UNL A   1      42.013  21.161  26.480  1.00  0.00     0.018 A 
BRANCH  10  15
ATOM     15  N   UNL A   1      38.583  22.484  26.007  1.00  0.00    -0.217 N 
ATOM     16  C   UNL A   1      36.917  20.988  24.763  1.00  0.00     0.069 C 
ATOM     17  C   UNL A   1      37.376  22.261  25.368  1.00  0.00     0.071 A 
ATOM     18  C   UNL A   1      36.683  23.435  25.586  1.00  0.00     0.137 A 
ATOM     19  N   UNL A   1      37.422  24.292  26.344  1.00  0.00    -0.128 NA
ATOM     20  N   UNL A   1      38.560  23.680  26.646  1.00  0.00    -0.061 NA
BRANCH  18  21
ATOM     21  C   UNL A   1      35.310  23.733  25.193  1.00  0.00     0.124 A 
ATOM     22  N   UNL A   1      35.012  24.772  24.403  1.00  0.00    -0.165 NA
ATOM     23  C   UNL A   1      34.162  23.056  25.659  1.00  0.00     0.044 A 
ATOM     24  N   UNL A   1      33.662  24.839  24.429  1.00  0.00    -0.240 N 
ATOM     25  C   UNL A   1      33.116  23.824  25.184  1.00  0.00     0.125 A 
BRANCH  23  26
ATOM     26  C   UNL A   1      34.014  21.865  26.454  1.00  0.00     0.166 C 
ATOM     27  N   UNL A   1      33.401  20.836  25.972  1.00  0.00    -0.097 NA
BRANCH  27  28
ATOM     28  O   UNL A   1      33.354  19.828  26.941  1.00  0.00    -0.411 OA
ATOM     29  H   UNL A   1      33.146  20.043  27.830  1.00  0.00     0.330 HD
ENDBRANCH  27  28
ENDBRANCH  23  26
BRANCH  24  30
ATOM     30  C   UNL A   1      32.966  25.870  23.754  1.00  0.00     0.065 A 
ATOM     31  C   UNL A   1      31.622  25.679  23.400  1.00  0.00     0.028 A 
ATOM     32  C   UNL A   1      33.608  27.076  23.443  1.00  0.00     0.028 A 
ATOM     33  C   UNL A   1      30.917  26.708  22.776  1.00  0.00     0.002 A 
ATOM     34  C   UNL A   1      32.906  28.082  22.775  1.00  0.00     0.002 A 
ATOM     35  C   UNL A   1      31.560  27.905  22.457  1.00  0.00     0.000 A 
ENDBRANCH  24  30
ENDBRANCH  18  21
ENDBRANCH  10  15
ENDBRANCH   7   9
ENDBRANCH   6   7
ENDBRANCH   5   6
ENDBRANCH   4   5
ENDBRANCH   3   4
ENDBRANCH   2   3
ENDBRANCH   1   2
BRANCH   1  36
ATOM     36  O   UNL A   1      44.693  23.565  25.444  1.00  0.00    -0.377 OA
BRANCH  36  37
ATOM     37  C   UNL A   1      45.505  23.746  26.596  1.00  0.00     0.188 C 
BRANCH  37  38
ATOM     38  C   UNL A   1      46.055  25.144  26.967  1.00  0.00     0.188 C 
BRANCH  38  39
ATOM     39  O   UNL A   1      46.404  25.974  25.864  1.00  0.00    -0.376 OA
BRANCH  39  40
ATOM     40  C   UNL A   1      45.648  27.151  25.638  1.00  0.00     0.202 C 
BRANCH  40  41
ATOM     41  C   UNL A   1      44.240  26.874  25.118  1.00  0.00     0.261 C 
BRANCH  41  42
ATOM     42  O   UNL A   1      43.264  26.863  26.149  1.00  0.00    -0.460 OA
BRANCH  42  43
ATOM     43  C   UNL A   1      42.102  26.274  25.838  1.00  0.00     0.338 C 
ATOM     44  O   UNL A   1      41.916  25.388  25.003  1.00  0.00    -0.246 OA
BRANCH  43  45
ATOM     45  C   UNL A   1      41.026  26.921  26.582  1.00  0.00     0.060 A 
ATOM     46  C   UNL A   1      40.829  28.275  26.310  1.00  0.00     0.016 A 
ATOM     47  C   UNL A   1      40.545  26.306  27.748  1.00  0.00     0.016 A 
ATOM     48  C   UNL A   1      40.447  29.078  27.352  1.00  0.00     0.010 A 
ATOM     49  C   UNL A   1      40.185  27.112  28.797  1.00  0.00     0.010 A 
ATOM     50  C   UNL A   1      40.266  28.487  28.606  1.00  0.00    -0.014 A 
BRANCH  50  51
ATOM     51  C   UNL A   1      40.289  29.374  29.743  1.00  0.00     0.031 A 
ATOM     52  C   UNL A   1      39.085  30.200  29.906  1.00  0.00     0.074 A 
ATOM     53  C   UNL A   1      41.326  29.386  30.599  1.00  0.00     0.049 A 
ATOM     54  N   UNL A   1      38.984  31.484  29.832  1.00  0.00    -0.248 NA
ATOM     55  C   UNL A   1      37.811  29.487  30.068  1.00  0.00     0.031 C 
ATOM     56  C   UNL A   1      42.411  28.408  30.729  1.00  0.00     0.029 A 
ATOM     57  N   UNL A   1      41.562  30.253  31.616  1.00  0.00    -0.354 N 
ATOM     58  C   UNL A   1      37.655  31.760  30.120  1.00  0.00     0.074 A 
ATOM     59  C   UNL A   1      36.952  30.502  30.109  1.00  0.00     0.031 C 
ATOM     60  C   UNL A   1      43.057  28.623  31.898  1.00  0.00     0.029 A 
ATOM     61  C   UNL A   1      42.513  29.819  32.521  1.00  0.00     0.049 A 
ATOM     62  H   UNL A   1      41.095  31.116  31.703  1.00  0.00     0.167 HD
ATOM     63  C   UNL A   1      37.262  32.977  30.573  1.00  0.00     0.037 A 
ATOM     64  C   UNL A   1      42.754  30.362  33.738  1.00  0.00     0.037 A 
ATOM     65  C   UNL A   1      38.224  34.004  30.281  1.00  0.00     0.049 A 
ATOM     66  C   UNL A   1      42.167  31.726  33.757  1.00  0.00     0.074 A 
ATOM     67  C   UNL A   1      38.771  34.516  29.120  1.00  0.00     0.029 A 
ATOM     68  N   UNL A   1      39.030  34.450  31.299  1.00  0.00    -0.354 N 
ATOM     69  N   UNL A   1      42.626  32.740  33.080  1.00  0.00    -0.248 NA
ATOM     70  C   UNL A   1      40.794  31.866  34.226  1.00  0.00     0.031 C 
ATOM     71  C   UNL A   1      40.116  34.850  29.454  1.00  0.00     0.029 A 
ATOM     72  C   UNL A   1      40.305  34.536  30.800  1.00  0.00     0.049 A 
ATOM     73  H   UNL A   1      38.745  34.667  32.216  1.00  0.00     0.167 HD
ATOM     74  C   UNL A   1      41.501  33.456  32.693  1.00  0.00     0.074 A 
ATOM     75  C   UNL A   1      40.417  32.933  33.517  1.00  0.00     0.031 C 
ATOM     76  C   UNL A   1      41.494  34.207  31.552  1.00  0.00     0.037 A 
BRANCH  63  77
ATOM     77  C   UNL A   1      36.153  33.147  31.569  1.00  0.00     0.057 A 
ATOM     78  C   UNL A   1      35.060  33.967  31.260  1.00  0.00     0.134 A 
ATOM     79  C   UNL A   1      36.247  32.739  32.917  1.00  0.00     0.134 A 
ATOM     80  F   UNL A   1      34.894  34.453  30.022  1.00  0.00    -0.206 F 
ATOM     81  C   UNL A   1      34.139  34.376  32.232  1.00  0.00     0.040 A 
ATOM     82  C   UNL A   1      35.302  33.091  33.882  1.00  0.00     0.040 A 
ATOM     83  F   UNL A   1      37.303  32.061  33.387  1.00  0.00    -0.206 F 
ATOM     84  C   UNL A   1      34.257  33.935  33.546  1.00  0.00     0.006 A 
ENDBRANCH  63  77
BRANCH  64  85
ATOM     85  C   UNL A   1      43.170  29.657  34.967  1.00  0.00     0.057 A 
ATOM     86  C   UNL A   1      42.362  28.674  35.549  1.00  0.00     0.134 A 
ATOM     87  C   UNL A   1      44.484  29.753  35.461  1.00  0.00     0.134 A 
ATOM     88  F   UNL A   1      41.111  28.475  35.109  1.00  0.00    -0.206 F 
ATOM     89  C   UNL A   1      42.834  27.828  36.560  1.00  0.00     0.040 A 
ATOM     90  C   UNL A   1      44.964  28.924  36.477  1.00  0.00     0.040 A 
ATOM     91  F   UNL A   1      45.371  30.596  34.915  1.00  0.00    -0.206 F 
ATOM     92  C   UNL A   1      44.142  27.947  37.024  1.00  0.00     0.006 A 
ENDBRANCH  64  85
BRANCH  76  93
ATOM     93  C   UNL A   1      42.813  34.463  30.879  1.00  0.00     0.057 A 
ATOM     94  C   UNL A   1      43.665  35.524  31.221  1.00  0.00     0.134 A 
ATOM     95  C   UNL A   1      43.304  33.528  29.960  1.00  0.00     0.134 A 
ATOM     96  F   UNL A   1      43.324  36.406  32.171  1.00  0.00    -0.206 F 
ATOM     97  C   UNL A   1      44.926  35.674  30.637  1.00  0.00     0.040 A 
ATOM     98  C   UNL A   1      44.575  33.648  29.394  1.00  0.00     0.040 A 
ATOM     99  F   UNL A   1      42.570  32.452  29.633  1.00  0.00    -0.206 F 
ATOM    100  C   UNL A   1      45.386  34.732  29.723  1.00  0.00     0.006 A 
ENDBRANCH  76  93
ENDBRANCH  50  51
ENDBRANCH  43  45
ENDBRANCH  42  43
ENDBRANCH  41  42
ENDBRANCH  40  41
ENDBRANCH  39  40
ENDBRANCH  38  39
ENDBRANCH  37  38
ENDBRANCH  36  37
ENDBRANCH   1  36
TORSDOF 25
ENDMDL
MODEL 2
REMARK VINA RESULT:      -9.5      2.768      7.110
REMARK SMILES Cc1c(-c2nn(-c3ccccc3)cc2/C=N/O)nnn1-c1ccc(C(=O)OCCOCCOCCOCCOC(=O)c2ccc(-c3c4nc(c(-c5c(F)cccc5F)c5ccc([nH]5)c(-c5c(F)cccc5F)c5nc(c(-c6c(F)cccc6F)c6ccc3[nH]6)C=C5)C=C4)cc2)cc1
REMARK SMILES IDX 32 1 31 2 30 3 29 4 28 5 27 6 25 7 26 8 24 9 21 10 22 11
REMARK SMILES IDX 97 12 23 13 96 14 20 15 1 16 2 17 3 18 18 19 19 20 4 21 5 22
REMARK SMILES IDX 14 23 6 24 13 25 15 26 16 27 17 28 7 30 8 31 12 32 9 33
REMARK SMILES IDX 11 34 10 35 33 36 34 37 35 38 36 39 37 40 38 41 39 42 40 43
REMARK SMILES IDX 41 44 42 45 43 46 95 47 44 48 94 49 45 50 46 51 47 52 88 53
REMARK SMILES IDX 48 54 93 55 87 56 89 57 49 58 92 59 86 60 85 61 50 63 76 64
REMARK SMILES IDX 59 65 75 66 60 67 63 68 74 69 90 70 61 71 62 72 73 74 91 75
REMARK SMILES IDX 64 76 51 77 52 78 57 79 53 80 54 81 56 82 58 83 55 84 77 85
REMARK SMILES IDX 78 86 83 87 79 88 80 89 82 90 84 91 81 92 65 93 66 94 71 95
REMARK SMILES IDX 67 96 68 97 70 98 72 99 69 100
REMARK H PARENT 17 29 89 62 63 73
REMARK Flexibility Score: inf
ROOT
ATOM      1  C   UNL A   1      40.625  21.665  26.111  1.00  0.00     0.188 C 
ENDROOT
BRANCH   1   2
ATOM      2  C   UNL A   1      39.171  22.187  26.132  1.00  0.00     0.188 C 
BRANCH   2   3
ATOM      3  O   UNL A   1      38.251  21.405  25.386  1.00  0.00    -0.376 OA
BRANCH   3   4
ATOM      4  C   UNL A   1      36.880  21.561  25.706  1.00  0.00     0.202 C 
BRANCH   4   5
ATOM      5  C   UNL A   1      35.933  21.002  24.639  1.00  0.00     0.261 C 
BRANCH   5   6
ATOM      6  O   UNL A   1      35.258  19.790  25.017  1.00  0.00    -0.460 OA
BRANCH   6   7
ATOM      7  C   UNL A   1      34.012  19.624  24.533  1.00  0.00     0.338 C 
ATOM      8  O   UNL A   1      33.554  18.612  24.006  1.00  0.00    -0.246 OA
BRANCH   7   9
ATOM      9  C   UNL A   1      33.197  20.796  24.892  1.00  0.00     0.060 A 
ATOM     10  C   UNL A   1      31.860  23.158  25.469  1.00  0.00     0.067 A 
ATOM     11  C   UNL A   1      31.798  22.637  24.172  1.00  0.00     0.029 A 
ATOM     12  C   UNL A   1      32.474  22.436  26.502  1.00  0.00     0.029 A 
ATOM     13  C   UNL A   1      32.503  21.472  23.878  1.00  0.00     0.018 A 
ATOM     14  C   UNL A   1      33.131  21.241  26.215  1.00  0.00     0.018 A 
BRANCH  10  15
ATOM     15  N   UNL A   1      31.418  24.484  25.683  1.00  0.00    -0.217 N 
ATOM     16  C   UNL A   1      32.639  25.679  23.774  1.00  0.00     0.069 C 
ATOM     17  C   UNL A   1      31.757  25.617  24.964  1.00  0.00     0.071 A 
ATOM     18  C   UNL A   1      30.957  26.595  25.522  1.00  0.00     0.137 A 
ATOM     19  N   UNL A   1      30.160  26.065  26.492  1.00  0.00    -0.128 NA
ATOM     20  N   UNL A   1      30.407  24.761  26.544  1.00  0.00    -0.061 NA
BRANCH  18  21
ATOM     21  C   UNL A   1      30.844  27.986  25.100  1.00  0.00     0.124 A 
ATOM     22  N   UNL A   1      29.859  28.401  24.293  1.00  0.00    -0.165 NA
ATOM     23  C   UNL A   1      31.775  29.006  25.392  1.00  0.00     0.044 A 
ATOM     24  N   UNL A   1      30.198  29.671  23.973  1.00  0.00    -0.240 N 
ATOM     25  C   UNL A   1      31.353  30.066  24.612  1.00  0.00     0.125 A 
BRANCH  23  26
ATOM     26  C   UNL A   1      32.925  29.030  26.258  1.00  0.00     0.166 C 
ATOM     27  N   UNL A   1      34.014  28.432  25.906  1.00  0.00    -0.097 NA
BRANCH  27  28
ATOM     28  O   UNL A   1      34.965  28.565  26.924  1.00  0.00    -0.411 OA
ATOM     29  H   UNL A   1      35.748  28.050  26.903  1.00  0.00     0.330 HD
ENDBRANCH  27  28
ENDBRANCH  23  26
BRANCH  24  30
ATOM     30  C   UNL A   1      29.420  30.431  23.067  1.00  0.00     0.065 A 
ATOM     31  C   UNL A   1      29.114  31.765  23.372  1.00  0.00     0.028 A 
ATOM     32  C   UNL A   1      28.960  29.861  21.873  1.00  0.00     0.028 A 
ATOM     33  C   UNL A   1      28.387  32.534  22.462  1.00  0.00     0.002 A 
ATOM     34  C   UNL A   1      28.192  30.625  20.991  1.00  0.00     0.002 A 
ATOM     35  C   UNL A   1      27.920  31.963  21.278  1.00  0.00     0.000 A 
ENDBRANCH  24  30
ENDBRANCH  18  21
ENDBRANCH  10  15
ENDBRANCH   7   9
ENDBRANCH   6   7
ENDBRANCH   5   6
ENDBRANCH   4   5
ENDBRANCH   3   4
ENDBRANCH   2   3
ENDBRANCH   1   2
BRANCH   1  36
ATOM     36  O   UNL A   1      41.232  21.114  27.274  1.00  0.00    -0.377 OA
BRANCH  36  37
ATOM     37  C   UNL A   1      41.754  21.973  28.279  1.00  0.00     0.188 C 
BRANCH  37  38
ATOM     38  C   UNL A   1      42.991  22.860  28.001  1.00  0.00     0.188 C 
BRANCH  38  39
ATOM     39  O   UNL A   1      44.048  22.226  27.288  1.00  0.00    -0.376 OA
BRANCH  39  40
ATOM     40  C   UNL A   1      44.247  22.571  25.928  1.00  0.00     0.202 C 
BRANCH  40  41
ATOM     41  C   UNL A   1      43.290  23.651  25.433  1.00  0.00     0.261 C 
BRANCH  41  42
ATOM     42  O   UNL A   1      43.961  24.827  25.006  1.00  0.00    -0.460 OA
BRANCH  42  43
ATOM     43  C   UNL A   1      44.384  25.639  25.985  1.00  0.00     0.338 C 
ATOM     44  O   UNL A   1      45.549  25.916  26.270  1.00  0.00    -0.246 OA
BRANCH  43  45
ATOM     45  C   UNL A   1      43.233  26.089  26.761  1.00  0.00     0.060 A 
ATOM     46  C   UNL A   1      42.265  26.801  26.053  1.00  0.00     0.016 A 
ATOM     47  C   UNL A   1      43.340  26.143  28.159  1.00  0.00     0.016 A 
ATOM     48  C   UNL A   1      41.624  27.818  26.709  1.00  0.00     0.010 A 
ATOM     49  C   UNL A   1      42.716  27.175  28.811  1.00  0.00     0.010 A 
ATOM     50  C   UNL A   1      41.971  28.063  28.042  1.00  0.00    -0.014 A 
BRANCH  50  51
ATOM     51  C   UNL A   1      41.622  29.359  28.569  1.00  0.00     0.031 A 
ATOM     52  C   UNL A   1      42.649  30.395  28.389  1.00  0.00     0.074 A 
ATOM     53  C   UNL A   1      40.423  29.584  29.133  1.00  0.00     0.049 A 
ATOM     54  N   UNL A   1      43.320  31.017  29.298  1.00  0.00    -0.248 NA
ATOM     55  C   UNL A   1      43.049  30.696  27.009  1.00  0.00     0.031 C 
ATOM     56  C   UNL A   1      39.220  28.746  29.083  1.00  0.00     0.029 A 
ATOM     57  N   UNL A   1      40.005  30.690  29.799  1.00  0.00    -0.354 N 
ATOM     58  C   UNL A   1      44.107  31.928  28.608  1.00  0.00     0.074 A 
ATOM     59  C   UNL A   1      44.015  31.588  27.210  1.00  0.00     0.031 C 
ATOM     60  C   UNL A   1      38.160  29.473  29.504  1.00  0.00     0.029 A 
ATOM     61  C   UNL A   1      38.635  30.768  29.966  1.00  0.00     0.049 A 
ATOM     62  H   UNL A   1      40.625  31.379  30.134  1.00  0.00     0.167 HD
ATOM     63  C   UNL A   1      44.601  33.040  29.207  1.00  0.00     0.037 A 
ATOM     64  C   UNL A   1      37.947  31.863  30.366  1.00  0.00     0.037 A 
ATOM     65  C   UNL A   1      44.620  32.926  30.639  1.00  0.00     0.049 A 
ATOM     66  C   UNL A   1      38.905  32.799  31.008  1.00  0.00     0.074 A 
ATOM     67  C   UNL A   1      45.229  32.067  31.534  1.00  0.00     0.029 A 
ATOM     68  N   UNL A   1      43.654  33.586  31.357  1.00  0.00    -0.354 N 
ATOM     69  N   UNL A   1      39.482  32.595  32.158  1.00  0.00    -0.248 NA
ATOM     70  C   UNL A   1      39.545  33.798  30.163  1.00  0.00     0.031 C 
ATOM     71  C   UNL A   1      44.304  31.926  32.609  1.00  0.00     0.029 A 
ATOM     72  C   UNL A   1      43.194  32.716  32.313  1.00  0.00     0.049 A 
ATOM     73  H   UNL A   1      43.349  34.510  31.213  1.00  0.00     0.167 HD
ATOM     74  C   UNL A   1      40.758  33.124  32.020  1.00  0.00     0.074 A 
ATOM     75  C   UNL A   1      40.701  33.944  30.816  1.00  0.00     0.031 C 
ATOM     76  C   UNL A   1      41.813  32.630  32.734  1.00  0.00     0.037 A 
BRANCH  63  77
ATOM     77  C   UNL A   1      44.753  34.345  28.483  1.00  0.00     0.057 A 
ATOM     78  C   UNL A   1      43.629  34.963  27.919  1.00  0.00     0.134 A 
ATOM     79  C   UNL A   1      46.000  34.884  28.102  1.00  0.00     0.134 A 
ATOM     80  F   UNL A   1      42.394  34.508  28.173  1.00  0.00    -0.206 F 
ATOM     81  C   UNL A   1      43.741  36.026  27.015  1.00  0.00     0.040 A 
ATOM     82  C   UNL A   1      46.121  35.981  27.247  1.00  0.00     0.040 A 
ATOM     83  F   UNL A   1      47.162  34.320  28.457  1.00  0.00    -0.206 F 
ATOM     84  C   UNL A   1      44.989  36.540  26.680  1.00  0.00     0.006 A 
ENDBRANCH  63  77
BRANCH  64  85
ATOM     85  C   UNL A   1      36.594  32.277  29.939  1.00  0.00     0.057 A 
ATOM     86  C   UNL A   1      35.691  32.848  30.843  1.00  0.00     0.134 A 
ATOM     87  C   UNL A   1      36.243  32.351  28.579  1.00  0.00     0.134 A 
ATOM     88  F   UNL A   1      35.964  32.869  32.156  1.00  0.00    -0.206 F 
ATOM     89  C   UNL A   1      34.508  33.466  30.419  1.00  0.00     0.040 A 
ATOM     90  C   UNL A   1      35.061  32.954  28.143  1.00  0.00     0.040 A 
ATOM     91  F   UNL A   1      37.076  31.918  27.622  1.00  0.00    -0.206 F 
ATOM     92  C   UNL A   1      34.193  33.526  29.063  1.00  0.00     0.006 A 
ENDBRANCH  64  85
BRANCH  76  93
ATOM     93  C   UNL A   1      41.509  31.695  33.870  1.00  0.00     0.057 A 
ATOM     94  C   UNL A   1      41.156  32.126  35.157  1.00  0.00     0.134 A 
ATOM     95  C   UNL A   1      41.427  30.320  33.618  1.00  0.00     0.134 A 
ATOM     96  F   UNL A   1      41.101  33.431  35.458  1.00  0.00    -0.206 F 
ATOM     97  C   UNL A   1      40.789  31.227  36.161  1.00  0.00     0.040 A 
ATOM     98  C   UNL A   1      41.030  29.413  34.603  1.00  0.00     0.040 A 
ATOM     99  F   UNL A   1      41.688  29.840  32.391  1.00  0.00    -0.206 F 
ATOM    100  C   UNL A   1      40.720  29.865  35.885  1.00  0.00     0.006 A 
ENDBRANCH  76  93
ENDBRANCH  50  51
ENDBRANCH  43  45
ENDBRANCH  42  43
ENDBRANCH  41  42
ENDBRANCH  40  41
ENDBRANCH  39  40
ENDBRANCH  38  39
ENDBRANCH  37  38
ENDBRANCH  36  37
ENDBRANCH   1  36
TORSDOF 25
ENDMDL
MODEL 3
REMARK VINA RESULT:      -9.4      4.156      8.987
REMARK SMILES Cc1c(-c2nn(-c3ccccc3)cc2/C=N/O)nnn1-c1ccc(C(=O)OCCOCCOCCOCCOC(=O)c2ccc(-c3c4nc(c(-c5c(F)cccc5F)c5ccc([nH]5)c(-c5c(F)cccc5F)c5nc(c(-c6c(F)cccc6F)c6ccc3[nH]6)C=C5)C=C4)cc2)cc1
REMARK SMILES IDX 32 1 31 2 30 3 29 4 28 5 27 6 25 7 26 8 24 9 21 10 22 11
REMARK SMILES IDX 97 12 23 13 96 14 20 15 1 16 2 17 3 18 18 19 19 20 4 21 5 22
REMARK SMILES IDX 14 23 6 24 13 25 15 26 16 27 17 28 7 30 8 31 12 32 9 33
REMARK SMILES IDX 11 34 10 35 33 36 34 37 35 38 36 39 37 40 38 41 39 42 40 43
REMARK SMILES IDX 41 44 42 45 43 46 95 47 44 48 94 49 45 50 46 51 47 52 88 53
REMARK SMILES IDX 48 54 93 55 87 56 89 57 49 58 92 59 86 60 85 61 50 63 76 64
REMARK SMILES IDX 59 65 75 66 60 67 63 68 74 69 90 70 61 71 62 72 73 74 91 75
REMARK SMILES IDX 64 76 51 77 52 78 57 79 53 80 54 81 56 82 58 83 55 84 77 85
REMARK SMILES IDX 78 86 83 87 79 88 80 89 82 90 84 91 81 92 65 93 66 94 71 95
REMARK SMILES IDX 67 96 68 97 70 98 72 99 69 100
REMARK H PARENT 17 29 89 62 63 73
REMARK Flexibility Score: inf
ROOT
ATOM      1  C   UNL A   1      39.830  21.673  26.116  1.00  0.00     0.188 C 
ENDROOT
BRANCH   1   2
ATOM      2  C   UNL A   1      38.349  22.068  25.923  1.00  0.00     0.188 C 
BRANCH   2   3
ATOM      3  O   UNL A   1      37.581  21.136  25.177  1.00  0.00    -0.376 OA
BRANCH   3   4
ATOM      4  C   UNL A   1      36.177  21.175  25.366  1.00  0.00     0.202 C 
BRANCH   4   5
ATOM      5  C   UNL A   1      35.388  20.499  24.240  1.00  0.00     0.261 C 
BRANCH   5   6
ATOM      6  O   UNL A   1      34.714  19.289  24.627  1.00  0.00    -0.460 OA
BRANCH   6   7
ATOM      7  C   UNL A   1      33.401  19.217  24.340  1.00  0.00     0.338 C 
ATOM      8  O   UNL A   1      32.792  18.239  23.911  1.00  0.00    -0.246 OA
BRANCH   7   9
ATOM      9  C   UNL A   1      32.742  20.454  24.790  1.00  0.00     0.060 A 
ATOM     10  C   UNL A   1      31.700  22.921  25.517  1.00  0.00     0.067 A 
ATOM     11  C   UNL A   1      31.444  22.422  24.235  1.00  0.00     0.029 A 
ATOM     12  C   UNL A   1      32.359  22.136  26.472  1.00  0.00     0.029 A 
ATOM     13  C   UNL A   1      32.002  21.201  23.862  1.00  0.00     0.018 A 
ATOM     14  C   UNL A   1      32.868  20.889  26.112  1.00  0.00     0.018 A 
BRANCH  10  15
ATOM     15  N   UNL A   1      31.408  24.279  25.780  1.00  0.00    -0.217 N 
ATOM     16  C   UNL A   1      32.251  25.350  23.611  1.00  0.00     0.069 C 
ATOM     17  C   UNL A   1      31.654  25.372  24.968  1.00  0.00     0.071 A 
ATOM     18  C   UNL A   1      31.067  26.415  25.657  1.00  0.00     0.137 A 
ATOM     19  N   UNL A   1      30.473  25.961  26.796  1.00  0.00    -0.128 NA
ATOM     20  N   UNL A   1      30.637  24.644  26.834  1.00  0.00    -0.061 NA
BRANCH  18  21
ATOM     21  C   UNL A   1      30.957  27.804  25.226  1.00  0.00     0.124 A 
ATOM     22  N   UNL A   1      29.988  28.212  24.398  1.00  0.00    -0.165 NA
ATOM     23  C   UNL A   1      31.880  28.829  25.530  1.00  0.00     0.044 A 
ATOM     24  N   UNL A   1      30.328  29.481  24.079  1.00  0.00    -0.240 N 
ATOM     25  C   UNL A   1      31.469  29.883  24.737  1.00  0.00     0.125 A 
BRANCH  23  26
ATOM     26  C   UNL A   1      33.013  28.861  26.418  1.00  0.00     0.166 C 
ATOM     27  N   UNL A   1      33.131  29.811  27.284  1.00  0.00    -0.097 NA
BRANCH  27  28
ATOM     28  O   UNL A   1      34.324  29.642  27.997  1.00  0.00    -0.411 OA
ATOM     29  H   UNL A   1      35.075  29.276  27.572  1.00  0.00     0.330 HD
ENDBRANCH  27  28
ENDBRANCH  23  26
BRANCH  24  30
ATOM     30  C   UNL A   1      29.564  30.234  23.154  1.00  0.00     0.065 A 
ATOM     31  C   UNL A   1      28.567  31.099  23.626  1.00  0.00     0.028 A 
ATOM     32  C   UNL A   1      29.803  30.122  21.778  1.00  0.00     0.028 A 
ATOM     33  C   UNL A   1      27.842  31.879  22.724  1.00  0.00     0.002 A 
ATOM     34  C   UNL A   1      29.039  30.871  20.880  1.00  0.00     0.002 A 
ATOM     35  C   UNL A   1      28.072  31.759  21.353  1.00  0.00     0.000 A 
ENDBRANCH  24  30
ENDBRANCH  18  21
ENDBRANCH  10  15
ENDBRANCH   7   9
ENDBRANCH   6   7
ENDBRANCH   5   6
ENDBRANCH   4   5
ENDBRANCH   3   4
ENDBRANCH   2   3
ENDBRANCH   1   2
BRANCH   1  36
ATOM     36  O   UNL A   1      40.302  21.144  27.350  1.00  0.00    -0.377 OA
BRANCH  36  37
ATOM     37  C   UNL A   1      41.468  21.684  27.957  1.00  0.00     0.188 C 
BRANCH  37  38
ATOM     38  C   UNL A   1      42.839  20.982  27.805  1.00  0.00     0.188 C 
BRANCH  38  39
ATOM     39  O   UNL A   1      42.794  19.559  27.768  1.00  0.00    -0.376 OA
BRANCH  39  40
ATOM     40  C   UNL A   1      42.580  18.923  26.520  1.00  0.00     0.202 C 
BRANCH  40  41
ATOM     41  C   UNL A   1      42.623  19.885  25.336  1.00  0.00     0.261 C 
BRANCH  41  42
ATOM     42  O   UNL A   1      43.698  19.618  24.449  1.00  0.00    -0.460 OA
BRANCH  42  43
ATOM     43  C   UNL A   1      44.896  20.074  24.839  1.00  0.00     0.338 C 
ATOM     44  O   UNL A   1      45.782  19.440  25.415  1.00  0.00    -0.246 OA
BRANCH  43  45
ATOM     45  C   UNL A   1      44.973  21.506  24.568  1.00  0.00     0.060 A 
ATOM     46  C   UNL A   1      46.172  22.126  24.917  1.00  0.00     0.016 A 
ATOM     47  C   UNL A   1      43.782  22.221  24.367  1.00  0.00     0.016 A 
ATOM     48  C   UNL A   1      46.105  23.410  25.390  1.00  0.00     0.010 A 
ATOM     49  C   UNL A   1      43.710  23.497  24.861  1.00  0.00     0.010 A 
ATOM     50  C   UNL A   1      44.846  24.014  25.474  1.00  0.00    -0.014 A 
BRANCH  50  51
ATOM     51  C   UNL A   1      44.740  25.158  26.345  1.00  0.00     0.031 A 
ATOM     52  C   UNL A   1      45.913  26.044  26.346  1.00  0.00     0.074 A 
ATOM     53  C   UNL A   1      43.623  25.397  27.053  1.00  0.00     0.049 A 
ATOM     54  N   UNL A   1      46.720  26.296  27.320  1.00  0.00    -0.248 NA
ATOM     55  C   UNL A   1      46.291  26.642  25.059  1.00  0.00     0.031 C 
ATOM     56  C   UNL A   1      42.298  24.787  26.897  1.00  0.00     0.029 A 
ATOM     57  N   UNL A   1      43.424  26.333  28.015  1.00  0.00    -0.354 N 
ATOM     58  C   UNL A   1      47.612  27.234  26.819  1.00  0.00     0.074 A 
ATOM     59  C   UNL A   1      47.398  27.298  25.395  1.00  0.00     0.031 C 
ATOM     60  C   UNL A   1      41.393  25.521  27.584  1.00  0.00     0.029 A 
ATOM     61  C   UNL A   1      42.095  26.562  28.318  1.00  0.00     0.049 A 
ATOM     62  H   UNL A   1      44.164  26.810  28.458  1.00  0.00     0.167 HD
ATOM     63  C   UNL A   1      48.310  28.061  27.636  1.00  0.00     0.037 A 
ATOM     64  C   UNL A   1      41.616  27.598  29.045  1.00  0.00     0.037 A 
ATOM     65  C   UNL A   1      48.378  27.567  28.984  1.00  0.00     0.049 A 
ATOM     66  C   UNL A   1      42.744  28.179  29.817  1.00  0.00     0.074 A 
ATOM     67  C   UNL A   1      48.880  26.421  29.570  1.00  0.00     0.029 A 
ATOM     68  N   UNL A   1      47.569  28.145  29.931  1.00  0.00    -0.354 N 
ATOM     69  N   UNL A   1      43.334  27.592  30.820  1.00  0.00    -0.248 NA
ATOM     70  C   UNL A   1      43.498  29.263  29.203  1.00  0.00     0.031 C 
ATOM     71  C   UNL A   1      47.997  26.134  30.652  1.00  0.00     0.029 A 
ATOM     72  C   UNL A   1      47.018  27.127  30.669  1.00  0.00     0.049 A 
ATOM     73  H   UNL A   1      47.413  29.108  30.056  1.00  0.00     0.167 HD
ATOM     74  C   UNL A   1      44.672  27.948  30.709  1.00  0.00     0.074 A 
ATOM     75  C   UNL A   1      44.692  29.060  29.766  1.00  0.00     0.031 C 
ATOM     76  C   UNL A   1      45.664  27.134  31.175  1.00  0.00     0.037 A 
BRANCH  63  77
ATOM     77  C   UNL A   1      48.638  29.476  27.261  1.00  0.00     0.057 A 
ATOM     78  C   UNL A   1      49.967  29.919  27.311  1.00  0.00     0.134 A 
ATOM     79  C   UNL A   1      47.666  30.486  27.100  1.00  0.00     0.134 A 
ATOM     80  F   UNL A   1      50.972  29.054  27.506  1.00  0.00    -0.206 F 
ATOM     81  C   UNL A   1      50.301  31.276  27.236  1.00  0.00     0.040 A 
ATOM     82  C   UNL A   1      47.991  31.836  26.965  1.00  0.00     0.040 A 
ATOM     83  F   UNL A   1      46.352  30.229  27.163  1.00  0.00    -0.206 F 
ATOM     84  C   UNL A   1      49.313  32.238  27.058  1.00  0.00     0.006 A 
ENDBRANCH  63  77
BRANCH  64  85
ATOM     85  C   UNL A   1      40.330  28.303  28.861  1.00  0.00     0.057 A 
ATOM     86  C   UNL A   1      40.012  28.929  27.651  1.00  0.00     0.134 A 
ATOM     87  C   UNL A   1      39.277  28.164  29.784  1.00  0.00     0.134 A 
ATOM     88  F   UNL A   1      40.938  29.061  26.690  1.00  0.00    -0.206 F 
ATOM     89  C   UNL A   1      38.719  29.387  27.370  1.00  0.00     0.040 A 
ATOM     90  C   UNL A   1      37.986  28.626  29.522  1.00  0.00     0.040 A 
ATOM     91  F   UNL A   1      39.447  27.500  30.936  1.00  0.00    -0.206 F 
ATOM     92  C   UNL A   1      37.699  29.230  28.305  1.00  0.00     0.006 A 
ENDBRANCH  64  85
BRANCH  76  93
ATOM     93  C   UNL A   1      45.265  25.983  32.056  1.00  0.00     0.057 A 
ATOM     94  C   UNL A   1      45.115  26.087  33.446  1.00  0.00     0.134 A 
ATOM     95  C   UNL A   1      44.882  24.773  31.465  1.00  0.00     0.134 A 
ATOM     96  F   UNL A   1      45.354  27.241  34.084  1.00  0.00    -0.206 F 
ATOM     97  C   UNL A   1      44.651  25.018  34.219  1.00  0.00     0.040 A 
ATOM     98  C   UNL A   1      44.386  23.709  32.222  1.00  0.00     0.040 A 
ATOM     99  F   UNL A   1      44.938  24.623  30.132  1.00  0.00    -0.206 F 
ATOM    100  C   UNL A   1      44.280  23.826  33.606  1.00  0.00     0.006 A 
ENDBRANCH  76  93
ENDBRANCH  50  51
ENDBRANCH  43  45
ENDBRANCH  42  43
ENDBRANCH  41  42
ENDBRANCH  40  41
ENDBRANCH  39  40
ENDBRANCH  38  39
ENDBRANCH  37  38
ENDBRANCH  36  37
ENDBRANCH   1  36
TORSDOF 25
ENDMDL
