MODEL 1
REMARK VINA RESULT:      -9.6      0.000      0.000
REMARK SMILES CCCOc1ccccc1O[C@@H]1CC[C@@]([NH3+])(C(=O)OCCOCCOCCOCCOC(=O)c2ccc(-c3c4nc(c(-c5c(F)cccc5F)c5ccc([nH]5)c(-c5c(F)cccc5F)c5nc(c(-c6c(F)cccc6F)c6ccc3[nH]6)C=C5)C=C4)cc2)C1
REMARK SMILES IDX 23 1 22 2 21 3 20 4 19 5 17 6 18 7 15 8 12 9 13 10 88 11
REMARK SMILES IDX 14 12 11 13 10 14 5 15 6 16 7 17 9 18 8 19 4 20 3 21 2 22
REMARK SMILES IDX 1 23 16 24 24 28 25 29 26 30 27 31 28 32 29 33 30 34 31 35
REMARK SMILES IDX 32 36 33 37 34 38 35 39 87 40 36 41 86 42 37 43 38 44 39 45
REMARK SMILES IDX 80 46 40 47 85 48 79 49 81 50 41 51 84 52 78 53 77 54 42 56
REMARK SMILES IDX 68 57 51 58 67 59 52 60 55 61 66 62 82 63 53 64 54 65 65 67
REMARK SMILES IDX 83 68 56 69 43 70 44 71 49 72 45 73 46 74 48 75 50 76 47 77
REMARK SMILES IDX 69 78 70 79 75 80 71 81 72 82 74 83 76 84 73 85 57 86 58 87
REMARK SMILES IDX 63 88 59 89 60 90 62 91 64 92 61 93
REMARK H PARENT 16 25 16 26 16 27 81 55 55 66
REMARK Flexibility Score: inf
ROOT
ATOM      1  C   UNL A   1      38.836  22.488  25.993  1.00  0.00     0.188 C 
ENDROOT
BRANCH   1   2
ATOM      2  O   UNL A   1      37.711  22.997  25.320  1.00  0.00    -0.376 OA
BRANCH   2   3
ATOM      3  C   UNL A   1      36.591  22.139  25.157  1.00  0.00     0.202 C 
BRANCH   3   4
ATOM      4  C   UNL A   1      35.752  21.445  26.283  1.00  0.00     0.261 C 
BRANCH   4   5
ATOM      5  O   UNL A   1      34.370  21.780  26.537  1.00  0.00    -0.459 OA
BRANCH   5   6
ATOM      6  C   UNL A   1      33.338  21.197  25.838  1.00  0.00     0.368 C 
ATOM      7  O   UNL A   1      33.137  19.991  25.770  1.00  0.00    -0.245 OA
BRANCH   6   8
ATOM      8  C   UNL A   1      32.400  22.358  25.034  1.00  0.00     0.196 C 
ATOM      9  C   UNL A   1      33.634  24.804  23.188  1.00  0.00     0.180 C 
ATOM     10  C   UNL A   1      32.915  23.362  21.958  1.00  0.00     0.052 C 
ATOM     11  C   UNL A   1      33.184  24.231  25.109  1.00  0.00     0.126 C 
ATOM     12  C   UNL A   1      32.249  21.866  23.100  1.00  0.00     0.085 C 
BRANCH   9  13
ATOM     13  O   UNL A   1      33.717  26.167  22.837  1.00  0.00    -0.486 OA
BRANCH  13  14
ATOM     14  C   UNL A   1      32.584  26.845  23.051  1.00  0.00     0.161 A 
ATOM     15  C   UNL A   1      32.630  28.127  23.548  1.00  0.00     0.161 A 
ATOM     16  C   UNL A   1      31.454  28.783  23.865  1.00  0.00     0.050 A 
ATOM     17  C   UNL A   1      30.234  28.131  23.650  1.00  0.00     0.004 A 
ATOM     18  C   UNL A   1      31.388  26.169  22.864  1.00  0.00     0.050 A 
ATOM     19  C   UNL A   1      30.200  26.822  23.160  1.00  0.00     0.004 A 
BRANCH  15  20
ATOM     20  O   UNL A   1      33.842  28.586  23.955  1.00  0.00    -0.490 OA
BRANCH  20  21
ATOM     21  C   UNL A   1      34.002  29.000  25.410  1.00  0.00     0.229 C 
BRANCH  21  22
ATOM     22  C   UNL A   1      33.103  28.208  27.219  1.00  0.00     0.038 C 
ATOM     23  C   UNL A   1      31.407  28.125  27.776  1.00  0.00     0.007 C 
ENDBRANCH  21  22
ENDBRANCH  20  21
ENDBRANCH  15  20
ENDBRANCH  13  14
ENDBRANCH   9  13
BRANCH   8  24
ATOM     24  N   UNL A   1      31.085  22.142  25.698  1.00  0.00    -0.343 N 
ATOM     25  H   UNL A   1      30.439  21.708  25.039  1.00  0.00     0.345 HD
ATOM     26  H   UNL A   1      30.708  23.039  26.005  1.00  0.00     0.345 HD
ATOM     27  H   UNL A   1      31.209  21.532  26.506  1.00  0.00     0.345 HD
ENDBRANCH   8  24
ENDBRANCH   6   8
ENDBRANCH   5   6
ENDBRANCH   4   5
ENDBRANCH   3   4
ENDBRANCH   2   3
ENDBRANCH   1   2
BRANCH   1  28
ATOM     28  C   UNL A   1      39.117  21.002  25.782  1.00  0.00     0.188 C 
BRANCH  28  29
ATOM     29  O   UNL A   1      40.332  20.597  26.354  1.00  0.00    -0.377 OA
BRANCH  29  30
ATOM     30  C   UNL A   1      41.297  21.632  26.346  1.00  0.00     0.188 C 
BRANCH  30  31
ATOM     31  C   UNL A   1      42.739  21.341  25.830  1.00  0.00     0.188 C 
BRANCH  31  32
ATOM     32  O   UNL A   1      43.290  22.184  24.832  1.00  0.00    -0.376 OA
BRANCH  32  33
ATOM     33  C   UNL A   1      44.646  22.238  24.426  1.00  0.00     0.202 C 
BRANCH  33  34
ATOM     34  C   UNL A   1      45.499  23.519  24.358  1.00  0.00     0.261 C 
BRANCH  34  35
ATOM     35  O   UNL A   1      45.215  24.541  25.306  1.00  0.00    -0.460 OA
BRANCH  35  36
ATOM     36  C   UNL A   1      45.593  24.280  26.577  1.00  0.00     0.338 C 
ATOM     37  O   UNL A   1      46.564  23.643  26.937  1.00  0.00    -0.246 OA
BRANCH  36  38
ATOM     38  C   UNL A   1      44.743  25.087  27.473  1.00  0.00     0.060 A 
ATOM     39  C   UNL A   1      44.895  26.479  27.448  1.00  0.00     0.016 A 
ATOM     40  C   UNL A   1      43.771  24.491  28.282  1.00  0.00     0.016 A 
ATOM     41  C   UNL A   1      44.074  27.284  28.225  1.00  0.00     0.010 A 
ATOM     42  C   UNL A   1      42.987  25.299  29.110  1.00  0.00     0.010 A 
ATOM     43  C   UNL A   1      43.154  26.695  29.098  1.00  0.00    -0.014 A 
BRANCH  43  44
ATOM     44  C   UNL A   1      42.537  27.551  30.132  1.00  0.00     0.031 A 
ATOM     45  C   UNL A   1      43.200  27.628  31.476  1.00  0.00     0.074 A 
ATOM     46  C   UNL A   1      41.469  28.316  29.848  1.00  0.00     0.049 A 
ATOM     47  N   UNL A   1      42.870  28.334  32.526  1.00  0.00    -0.248 NA
ATOM     48  C   UNL A   1      44.403  26.798  31.659  1.00  0.00     0.031 C 
ATOM     49  C   UNL A   1      40.784  28.368  28.558  1.00  0.00     0.029 A 
ATOM     50  N   UNL A   1      40.781  29.202  30.635  1.00  0.00    -0.354 N 
ATOM     51  C   UNL A   1      43.820  28.032  33.493  1.00  0.00     0.074 A 
ATOM     52  C   UNL A   1      44.717  27.054  32.919  1.00  0.00     0.031 C 
ATOM     53  C   UNL A   1      39.764  29.239  28.645  1.00  0.00     0.029 A 
ATOM     54  C   UNL A   1      39.709  29.779  30.003  1.00  0.00     0.049 A 
ATOM     55  H   UNL A   1      41.032  29.405  31.566  1.00  0.00     0.167 HD
ATOM     56  C   UNL A   1      43.938  28.535  34.744  1.00  0.00     0.037 A 
ATOM     57  C   UNL A   1      38.779  30.629  30.478  1.00  0.00     0.037 A 
ATOM     58  C   UNL A   1      43.031  29.497  35.312  1.00  0.00     0.049 A 
ATOM     59  C   UNL A   1      38.881  31.101  31.906  1.00  0.00     0.074 A 
ATOM     60  C   UNL A   1      43.062  30.074  36.569  1.00  0.00     0.029 A 
ATOM     61  N   UNL A   1      41.918  30.016  34.664  1.00  0.00    -0.354 N 
ATOM     62  N   UNL A   1      39.792  30.831  32.809  1.00  0.00    -0.248 NA
ATOM     63  C   UNL A   1      37.824  32.009  32.375  1.00  0.00     0.031 C 
ATOM     64  C   UNL A   1      41.931  30.883  36.708  1.00  0.00     0.029 A 
ATOM     65  C   UNL A   1      41.236  30.877  35.509  1.00  0.00     0.049 A 
ATOM     66  H   UNL A   1      41.653  29.802  33.740  1.00  0.00     0.167 HD
ATOM     67  C   UNL A   1      39.437  31.556  33.942  1.00  0.00     0.074 A 
ATOM     68  C   UNL A   1      38.243  32.299  33.598  1.00  0.00     0.031 C 
ATOM     69  C   UNL A   1      40.042  31.603  35.156  1.00  0.00     0.037 A 
BRANCH  56  70
ATOM     70  C   UNL A   1      45.061  28.015  35.595  1.00  0.00     0.057 A 
ATOM     71  C   UNL A   1      44.918  26.889  36.416  1.00  0.00     0.134 A 
ATOM     72  C   UNL A   1      46.315  28.640  35.572  1.00  0.00     0.134 A 
ATOM     73  F   UNL A   1      43.740  26.252  36.501  1.00  0.00    -0.206 F 
ATOM     74  C   UNL A   1      45.972  26.420  37.203  1.00  0.00     0.040 A 
ATOM     75  C   UNL A   1      47.385  28.160  36.328  1.00  0.00     0.040 A 
ATOM     76  F   UNL A   1      46.523  29.722  34.808  1.00  0.00    -0.206 F 
ATOM     77  C   UNL A   1      47.214  27.051  37.153  1.00  0.00     0.006 A 
ENDBRANCH  56  70
BRANCH  57  78
ATOM     78  C   UNL A   1      37.660  31.076  29.610  1.00  0.00     0.057 A 
ATOM     79  C   UNL A   1      36.559  30.251  29.355  1.00  0.00     0.134 A 
ATOM     80  C   UNL A   1      37.684  32.328  28.982  1.00  0.00     0.134 A 
ATOM     81  F   UNL A   1      36.488  29.030  29.907  1.00  0.00    -0.206 F 
ATOM     82  C   UNL A   1      35.536  30.641  28.488  1.00  0.00     0.040 A 
ATOM     83  C   UNL A   1      36.652  32.746  28.141  1.00  0.00     0.040 A 
ATOM     84  F   UNL A   1      38.710  33.168  29.183  1.00  0.00    -0.206 F 
ATOM     85  C   UNL A   1      35.578  31.896  27.883  1.00  0.00     0.006 A 
ENDBRANCH  57  78
BRANCH  69  86
ATOM     86  C   UNL A   1      39.436  32.520  36.186  1.00  0.00     0.057 A 
ATOM     87  C   UNL A   1      39.836  33.855  36.326  1.00  0.00     0.134 A 
ATOM     88  C   UNL A   1      38.438  32.054  37.054  1.00  0.00     0.134 A 
ATOM     89  F   UNL A   1      40.791  34.366  35.534  1.00  0.00    -0.206 F 
ATOM     90  C   UNL A   1      39.308  34.676  37.324  1.00  0.00     0.040 A 
ATOM     91  C   UNL A   1      37.873  32.878  38.028  1.00  0.00     0.040 A 
ATOM     92  F   UNL A   1      37.990  30.792  36.967  1.00  0.00    -0.206 F 
ATOM     93  C   UNL A   1      38.321  34.189  38.177  1.00  0.00     0.006 A 
ENDBRANCH  69  86
ENDBRANCH  43  44
ENDBRANCH  36  38
ENDBRANCH  35  36
ENDBRANCH  34  35
ENDBRANCH  33  34
ENDBRANCH  32  33
ENDBRANCH  31  32
ENDBRANCH  30  31
ENDBRANCH  29  30
ENDBRANCH  28  29
ENDBRANCH   1  28
TORSDOF 26
ENDMDL
MODEL 2
REMARK VINA RESULT:      -8.7      1.404      2.127
REMARK SMILES CCCOc1ccccc1O[C@@H]1CC[C@@]([NH3+])(C(=O)OCCOCCOCCOCCOC(=O)c2ccc(-c3c4nc(c(-c5c(F)cccc5F)c5ccc([nH]5)c(-c5c(F)cccc5F)c5nc(c(-c6c(F)cccc6F)c6ccc3[nH]6)C=C5)C=C4)cc2)C1
REMARK SMILES IDX 23 1 22 2 21 3 20 4 19 5 17 6 18 7 15 8 12 9 13 10 88 11
REMARK SMILES IDX 14 12 11 13 10 14 5 15 6 16 7 17 9 18 8 19 4 20 3 21 2 22
REMARK SMILES IDX 1 23 16 24 24 28 25 29 26 30 27 31 28 32 29 33 30 34 31 35
REMARK SMILES IDX 32 36 33 37 34 38 35 39 87 40 36 41 86 42 37 43 38 44 39 45
REMARK SMILES IDX 80 46 40 47 85 48 79 49 81 50 41 51 84 52 78 53 77 54 42 56
REMARK SMILES IDX 68 57 51 58 67 59 52 60 55 61 66 62 82 63 53 64 54 65 65 67
REMARK SMILES IDX 83 68 56 69 43 70 44 71 49 72 45 73 46 74 48 75 50 76 47 77
REMARK SMILES IDX 69 78 70 79 75 80 71 81 72 82 74 83 76 84 73 85 57 86 58 87
REMARK SMILES IDX 63 88 59 89 60 90 62 91 64 92 61 93
REMARK H PARENT 16 25 16 26 16 27 81 55 55 66
REMARK Flexibility Score: inf
ROOT
ATOM      1  C   UNL A   1      38.544  22.334  26.010  1.00  0.00     0.188 C 
ENDROOT
BRANCH   1   2
ATOM      2  O   UNL A   1      37.569  22.677  25.055  1.00  0.00    -0.376 OA
BRANCH   2   3
ATOM      3  C   UNL A   1      36.321  22.001  25.110  1.00  0.00     0.202 C 
BRANCH   3   4
ATOM      4  C   UNL A   1      35.432  21.746  26.374  1.00  0.00     0.261 C 
BRANCH   4   5
ATOM      5  O   UNL A   1      34.072  22.225  26.475  1.00  0.00    -0.459 OA
BRANCH   5   6
ATOM      6  C   UNL A   1      33.038  21.638  25.783  1.00  0.00     0.368 C 
ATOM      7  O   UNL A   1      32.768  20.443  25.815  1.00  0.00    -0.245 OA
BRANCH   6   8
ATOM      8  C   UNL A   1      32.208  22.768  24.830  1.00  0.00     0.196 C 
ATOM      9  C   UNL A   1      33.668  25.079  22.976  1.00  0.00     0.180 C 
ATOM     10  C   UNL A   1      33.031  23.582  21.766  1.00  0.00     0.052 C 
ATOM     11  C   UNL A   1      33.028  24.627  24.874  1.00  0.00     0.126 C 
ATOM     12  C   UNL A   1      32.225  22.169  22.921  1.00  0.00     0.085 C 
BRANCH   9  13
ATOM     13  O   UNL A   1      33.818  26.418  22.558  1.00  0.00    -0.486 OA
BRANCH  13  14
ATOM     14  C   UNL A   1      32.732  27.169  22.772  1.00  0.00     0.161 A 
ATOM     15  C   UNL A   1      32.846  28.378  23.420  1.00  0.00     0.161 A 
ATOM     16  C   UNL A   1      31.708  29.100  23.732  1.00  0.00     0.050 A 
ATOM     17  C   UNL A   1      30.458  28.592  23.357  1.00  0.00     0.004 A 
ATOM     18  C   UNL A   1      31.502  26.632  22.425  1.00  0.00     0.050 A 
ATOM     19  C   UNL A   1      30.353  27.354  22.714  1.00  0.00     0.004 A 
BRANCH  15  20
ATOM     20  O   UNL A   1      34.056  28.674  23.962  1.00  0.00    -0.490 OA
BRANCH  20  21
ATOM     21  C   UNL A   1      34.189  28.656  25.476  1.00  0.00     0.229 C 
BRANCH  21  22
ATOM     22  C   UNL A   1      32.882  27.849  27.008  1.00  0.00     0.038 C 
ATOM     23  C   UNL A   1      31.190  27.273  26.956  1.00  0.00     0.007 C 
ENDBRANCH  21  22
ENDBRANCH  20  21
ENDBRANCH  15  20
ENDBRANCH  13  14
ENDBRANCH   9  13
BRANCH   8  24
ATOM     24  N   UNL A   1      30.833  22.616  25.379  1.00  0.00    -0.343 N 
ATOM     25  H   UNL A   1      30.518  21.656  25.246  1.00  0.00     0.345 HD
ATOM     26  H   UNL A   1      30.201  23.253  24.892  1.00  0.00     0.345 HD
ATOM     27  H   UNL A   1      30.838  22.839  26.374  1.00  0.00     0.345 HD
ENDBRANCH   8  24
ENDBRANCH   6   8
ENDBRANCH   5   6
ENDBRANCH   4   5
ENDBRANCH   3   4
ENDBRANCH   2   3
ENDBRANCH   1   2
BRANCH   1  28
ATOM     28  C   UNL A   1      39.102  20.917  25.906  1.00  0.00     0.188 C 
BRANCH  28  29
ATOM     29  O   UNL A   1      40.322  20.768  26.581  1.00  0.00    -0.377 OA
BRANCH  29  30
ATOM     30  C   UNL A   1      41.123  21.932  26.497  1.00  0.00     0.188 C 
BRANCH  30  31
ATOM     31  C   UNL A   1      42.493  21.876  25.754  1.00  0.00     0.188 C 
BRANCH  31  32
ATOM     32  O   UNL A   1      42.835  22.933  24.872  1.00  0.00    -0.376 OA
BRANCH  32  33
ATOM     33  C   UNL A   1      44.098  23.562  24.758  1.00  0.00     0.202 C 
BRANCH  33  34
ATOM     34  C   UNL A   1      44.342  25.080  24.858  1.00  0.00     0.261 C 
BRANCH  34  35
ATOM     35  O   UNL A   1      43.755  25.763  25.959  1.00  0.00    -0.460 OA
BRANCH  35  36
ATOM     36  C   UNL A   1      44.391  25.617  27.143  1.00  0.00     0.338 C 
ATOM     37  O   UNL A   1      45.436  25.029  27.347  1.00  0.00    -0.246 OA
BRANCH  36  38
ATOM     38  C   UNL A   1      43.712  26.482  28.127  1.00  0.00     0.060 A 
ATOM     39  C   UNL A   1      43.859  27.868  27.996  1.00  0.00     0.016 A 
ATOM     40  C   UNL A   1      42.897  25.943  29.127  1.00  0.00     0.016 A 
ATOM     41  C   UNL A   1      43.188  28.725  28.858  1.00  0.00     0.010 A 
ATOM     42  C   UNL A   1      42.272  26.804  30.032  1.00  0.00     0.010 A 
ATOM     43  C   UNL A   1      42.436  28.196  29.911  1.00  0.00    -0.014 A 
BRANCH  43  44
ATOM     44  C   UNL A   1      42.011  29.116  30.986  1.00  0.00     0.031 A 
ATOM     45  C   UNL A   1      42.893  29.249  32.194  1.00  0.00     0.074 A 
ATOM     46  C   UNL A   1      40.918  29.884  30.846  1.00  0.00     0.049 A 
ATOM     47  N   UNL A   1      42.753  30.014  33.244  1.00  0.00    -0.248 NA
ATOM     48  C   UNL A   1      44.101  28.407  32.215  1.00  0.00     0.031 C 
ATOM     49  C   UNL A   1      40.025  29.882  29.689  1.00  0.00     0.029 A 
ATOM     50  N   UNL A   1      40.382  30.822  31.689  1.00  0.00    -0.354 N 
ATOM     51  C   UNL A   1      43.850  29.745  34.052  1.00  0.00     0.074 A 
ATOM     52  C   UNL A   1      44.627  28.722  33.388  1.00  0.00     0.031 C 
ATOM     53  C   UNL A   1      39.042  30.776  29.900  1.00  0.00     0.029 A 
ATOM     54  C   UNL A   1      39.223  31.385  31.216  1.00  0.00     0.049 A 
ATOM     55  H   UNL A   1      40.789  31.069  32.552  1.00  0.00     0.167 HD
ATOM     56  C   UNL A   1      44.183  30.309  35.237  1.00  0.00     0.037 A 
ATOM     57  C   UNL A   1      38.396  32.276  31.795  1.00  0.00     0.037 A 
ATOM     58  C   UNL A   1      43.394  31.316  35.897  1.00  0.00     0.049 A 
ATOM     59  C   UNL A   1      38.743  32.819  33.158  1.00  0.00     0.074 A 
ATOM     60  C   UNL A   1      43.644  31.956  37.097  1.00  0.00     0.029 A 
ATOM     61  N   UNL A   1      42.193  31.821  35.418  1.00  0.00    -0.354 N 
ATOM     62  N   UNL A   1      39.791  32.579  33.908  1.00  0.00    -0.248 NA
ATOM     63  C   UNL A   1      37.789  33.769  33.749  1.00  0.00     0.031 C 
ATOM     64  C   UNL A   1      42.560  32.792  37.381  1.00  0.00     0.029 A 
ATOM     65  C   UNL A   1      41.672  32.737  36.318  1.00  0.00     0.049 A 
ATOM     66  H   UNL A   1      41.773  31.565  34.565  1.00  0.00     0.167 HD
ATOM     67  C   UNL A   1      39.640  33.368  35.043  1.00  0.00     0.074 A 
ATOM     68  C   UNL A   1      38.412  34.114  34.866  1.00  0.00     0.031 C 
ATOM     69  C   UNL A   1      40.442  33.467  36.133  1.00  0.00     0.037 A 
BRANCH  56  70
ATOM     70  C   UNL A   1      45.429  29.813  35.912  1.00  0.00     0.057 A 
ATOM     71  C   UNL A   1      46.691  30.360  35.648  1.00  0.00     0.134 A 
ATOM     72  C   UNL A   1      45.359  28.783  36.861  1.00  0.00     0.134 A 
ATOM     73  F   UNL A   1      46.834  31.335  34.738  1.00  0.00    -0.206 F 
ATOM     74  C   UNL A   1      47.841  29.885  36.283  1.00  0.00     0.040 A 
ATOM     75  C   UNL A   1      46.495  28.324  37.526  1.00  0.00     0.040 A 
ATOM     76  F   UNL A   1      44.182  28.214  37.163  1.00  0.00    -0.206 F 
ATOM     77  C   UNL A   1      47.743  28.870  37.233  1.00  0.00     0.006 A 
ENDBRANCH  56  70
BRANCH  57  78
ATOM     78  C   UNL A   1      37.150  32.699  31.105  1.00  0.00     0.057 A 
ATOM     79  C   UNL A   1      35.914  32.118  31.408  1.00  0.00     0.134 A 
ATOM     80  C   UNL A   1      37.173  33.670  30.096  1.00  0.00     0.134 A 
ATOM     81  F   UNL A   1      35.829  31.164  32.349  1.00  0.00    -0.206 F 
ATOM     82  C   UNL A   1      34.752  32.465  30.718  1.00  0.00     0.040 A 
ATOM     83  C   UNL A   1      36.013  34.053  29.421  1.00  0.00     0.040 A 
ATOM     84  F   UNL A   1      38.324  34.267  29.755  1.00  0.00    -0.206 F 
ATOM     85  C   UNL A   1      34.799  33.441  29.724  1.00  0.00     0.006 A 
ENDBRANCH  57  78
BRANCH  69  86
ATOM     86  C   UNL A   1      40.028  34.446  37.200  1.00  0.00     0.057 A 
ATOM     87  C   UNL A   1      39.268  34.062  38.313  1.00  0.00     0.134 A 
ATOM     88  C   UNL A   1      40.394  35.796  37.108  1.00  0.00     0.134 A 
ATOM     89  F   UNL A   1      38.876  32.788  38.463  1.00  0.00    -0.206 F 
ATOM     90  C   UNL A   1      38.842  34.992  39.264  1.00  0.00     0.040 A 
ATOM     91  C   UNL A   1      40.010  36.727  38.074  1.00  0.00     0.040 A 
ATOM     92  F   UNL A   1      41.138  36.234  36.080  1.00  0.00    -0.206 F 
ATOM     93  C   UNL A   1      39.216  36.328  39.147  1.00  0.00     0.006 A 
ENDBRANCH  69  86
ENDBRANCH  43  44
ENDBRANCH  36  38
ENDBRANCH  35  36
ENDBRANCH  34  35
ENDBRANCH  33  34
ENDBRANCH  32  33
ENDBRANCH  31  32
ENDBRANCH  30  31
ENDBRANCH  29  30
ENDBRANCH  28  29
ENDBRANCH   1  28
TORSDOF 26
ENDMDL
MODEL 3
REMARK VINA RESULT:      -8.2      6.984     11.238
REMARK SMILES CCCOc1ccccc1O[C@@H]1CC[C@@]([NH3+])(C(=O)OCCOCCOCCOCCOC(=O)c2ccc(-c3c4nc(c(-c5c(F)cccc5F)c5ccc([nH]5)c(-c5c(F)cccc5F)c5nc(c(-c6c(F)cccc6F)c6ccc3[nH]6)C=C5)C=C4)cc2)C1
REMARK SMILES IDX 23 1 22 2 21 3 20 4 19 5 17 6 18 7 15 8 12 9 13 10 88 11
REMARK SMILES IDX 14 12 11 13 10 14 5 15 6 16 7 17 9 18 8 19 4 20 3 21 2 22
REMARK SMILES IDX 1 23 16 24 24 28 25 29 26 30 27 31 28 32 29 33 30 34 31 35
REMARK SMILES IDX 32 36 33 37 34 38 35 39 87 40 36 41 86 42 37 43 38 44 39 45
REMARK SMILES IDX 80 46 40 47 85 48 79 49 81 50 41 51 84 52 78 53 77 54 42 56
REMARK SMILES IDX 68 57 51 58 67 59 52 60 55 61 66 62 82 63 53 64 54 65 65 67
REMARK SMILES IDX 83 68 56 69 43 70 44 71 49 72 45 73 46 74 48 75 50 76 47 77
REMARK SMILES IDX 69 78 70 79 75 80 71 81 72 82 74 83 76 84 73 85 57 86 58 87
REMARK SMILES IDX 63 88 59 89 60 90 62 91 64 92 61 93
REMARK H PARENT 16 25 16 26 16 27 81 55 55 66
REMARK Flexibility Score: inf
ROOT
ATOM      1  C   UNL A   1      37.684  22.101  25.846  1.00  0.00     0.188 C 
ENDROOT
BRANCH   1   2
ATOM      2  O   UNL A   1      37.033  22.144  24.600  1.00  0.00    -0.376 OA
BRANCH   2   3
ATOM      3  C   UNL A   1      35.743  22.736  24.546  1.00  0.00     0.202 C 
BRANCH   3   4
ATOM      4  C   UNL A   1      35.397  24.238  24.264  1.00  0.00     0.261 C 
BRANCH   4   5
ATOM      5  O   UNL A   1      34.051  24.755  24.366  1.00  0.00    -0.459 OA
BRANCH   5   6
ATOM      6  C   UNL A   1      33.542  25.233  25.552  1.00  0.00     0.368 C 
ATOM      7  O   UNL A   1      33.746  26.357  25.994  1.00  0.00    -0.245 OA
BRANCH   6   8
ATOM      8  C   UNL A   1      32.632  24.052  26.357  1.00  0.00     0.196 C 
ATOM      9  C   UNL A   1      32.639  20.840  25.585  1.00  0.00     0.180 C 
ATOM     10  C   UNL A   1      33.769  21.111  27.245  1.00  0.00     0.052 C 
ATOM     11  C   UNL A   1      31.819  22.664  25.115  1.00  0.00     0.126 C 
ATOM     12  C   UNL A   1      33.809  23.066  27.641  1.00  0.00     0.085 C 
BRANCH   9  13
ATOM     13  O   UNL A   1      31.964  19.640  25.279  1.00  0.00    -0.486 OA
BRANCH  13  14
ATOM     14  C   UNL A   1      32.691  18.790  24.545  1.00  0.00     0.161 A 
ATOM     15  C   UNL A   1      32.602  18.813  23.172  1.00  0.00     0.161 A 
ATOM     16  C   UNL A   1      33.274  17.863  22.425  1.00  0.00     0.050 A 
ATOM     17  C   UNL A   1      34.054  16.906  23.086  1.00  0.00     0.004 A 
ATOM     18  C   UNL A   1      33.428  17.828  25.220  1.00  0.00     0.050 A 
ATOM     19  C   UNL A   1      34.122  16.881  24.482  1.00  0.00     0.004 A 
BRANCH  15  20
ATOM     20  O   UNL A   1      31.641  19.606  22.631  1.00  0.00    -0.490 OA
BRANCH  20  21
ATOM     21  C   UNL A   1      32.068  20.679  21.642  1.00  0.00     0.229 C 
BRANCH  21  22
ATOM     22  C   UNL A   1      32.993  22.616  21.959  1.00  0.00     0.038 C 
ATOM     23  C   UNL A   1      32.847  24.169  21.087  1.00  0.00     0.007 C 
ENDBRANCH  21  22
ENDBRANCH  20  21
ENDBRANCH  15  20
ENDBRANCH  13  14
ENDBRANCH   9  13
BRANCH   8  24
ATOM     24  N   UNL A   1      31.691  24.917  27.121  1.00  0.00    -0.343 N 
ATOM     25  H   UNL A   1      31.796  24.735  28.118  1.00  0.00     0.345 HD
ATOM     26  H   UNL A   1      30.733  24.712  26.835  1.00  0.00     0.345 HD
ATOM     27  H   UNL A   1      31.900  25.897  26.929  1.00  0.00     0.345 HD
ENDBRANCH   8  24
ENDBRANCH   6   8
ENDBRANCH   5   6
ENDBRANCH   4   5
ENDBRANCH   3   4
ENDBRANCH   2   3
ENDBRANCH   1   2
BRANCH   1  28
ATOM     28  C   UNL A   1      38.902  23.010  25.988  1.00  0.00     0.188 C 
BRANCH  28  29
ATOM     29  O   UNL A   1      38.562  24.307  26.402  1.00  0.00    -0.377 OA
BRANCH  29  30
ATOM     30  C   UNL A   1      39.142  24.636  27.651  1.00  0.00     0.188 C 
BRANCH  30  31
ATOM     31  C   UNL A   1      40.417  25.532  27.698  1.00  0.00     0.188 C 
BRANCH  31  32
ATOM     32  O   UNL A   1      41.371  25.308  28.723  1.00  0.00    -0.376 OA
BRANCH  32  33
ATOM     33  C   UNL A   1      42.360  24.294  28.751  1.00  0.00     0.202 C 
BRANCH  33  34
ATOM     34  C   UNL A   1      42.567  23.231  27.656  1.00  0.00     0.261 C 
BRANCH  34  35
ATOM     35  O   UNL A   1      43.292  23.624  26.496  1.00  0.00    -0.460 OA
BRANCH  35  36
ATOM     36  C   UNL A   1      44.627  23.417  26.544  1.00  0.00     0.338 C 
ATOM     37  O   UNL A   1      45.208  22.354  26.437  1.00  0.00    -0.246 OA
BRANCH  36  38
ATOM     38  C   UNL A   1      45.287  24.736  26.534  1.00  0.00     0.060 A 
ATOM     39  C   UNL A   1      45.358  25.427  25.317  1.00  0.00     0.016 A 
ATOM     40  C   UNL A   1      45.775  25.313  27.710  1.00  0.00     0.016 A 
ATOM     41  C   UNL A   1      45.911  26.699  25.270  1.00  0.00     0.010 A 
ATOM     42  C   UNL A   1      46.388  26.567  27.649  1.00  0.00     0.010 A 
ATOM     43  C   UNL A   1      46.476  27.251  26.423  1.00  0.00    -0.014 A 
BRANCH  43  44
ATOM     44  C   UNL A   1      47.334  28.444  26.270  1.00  0.00     0.031 A 
ATOM     45  C   UNL A   1      46.695  29.796  26.394  1.00  0.00     0.074 A 
ATOM     46  C   UNL A   1      48.664  28.324  26.122  1.00  0.00     0.049 A 
ATOM     47  N   UNL A   1      47.242  30.982  26.335  1.00  0.00    -0.248 NA
ATOM     48  C   UNL A   1      45.240  29.812  26.620  1.00  0.00     0.031 C 
ATOM     49  C   UNL A   1      49.398  27.062  26.053  1.00  0.00     0.029 A 
ATOM     50  N   UNL A   1      49.632  29.287  26.011  1.00  0.00    -0.354 N 
ATOM     51  C   UNL A   1      46.201  31.884  26.513  1.00  0.00     0.074 A 
ATOM     52  C   UNL A   1      44.986  31.111  26.646  1.00  0.00     0.031 C 
ATOM     53  C   UNL A   1      50.706  27.330  25.903  1.00  0.00     0.029 A 
ATOM     54  C   UNL A   1      50.894  28.778  25.835  1.00  0.00     0.049 A 
ATOM     55  H   UNL A   1      49.441  30.253  26.053  1.00  0.00     0.167 HD
ATOM     56  C   UNL A   1      46.257  33.235  26.570  1.00  0.00     0.037 A 
ATOM     57  C   UNL A   1      52.062  29.414  25.622  1.00  0.00     0.037 A 
ATOM     58  C   UNL A   1      47.469  33.996  26.421  1.00  0.00     0.049 A 
ATOM     59  C   UNL A   1      52.080  30.921  25.598  1.00  0.00     0.074 A 
ATOM     60  C   UNL A   1      47.636  35.368  26.467  1.00  0.00     0.029 A 
ATOM     61  N   UNL A   1      48.723  33.450  26.184  1.00  0.00    -0.354 N 
ATOM     62  N   UNL A   1      51.098  31.769  25.789  1.00  0.00    -0.248 NA
ATOM     63  C   UNL A   1      53.379  31.558  25.337  1.00  0.00     0.031 C 
ATOM     64  C   UNL A   1      48.975  35.656  26.184  1.00  0.00     0.029 A 
ATOM     65  C   UNL A   1      49.661  34.460  26.043  1.00  0.00     0.049 A 
ATOM     66  H   UNL A   1      48.917  32.486  26.123  1.00  0.00     0.167 HD
ATOM     67  C   UNL A   1      51.663  33.037  25.701  1.00  0.00     0.074 A 
ATOM     68  C   UNL A   1      53.080  32.842  25.470  1.00  0.00     0.031 C 
ATOM     69  C   UNL A   1      51.068  34.252  25.803  1.00  0.00     0.037 A 
BRANCH  56  70
ATOM     70  C   UNL A   1      44.962  33.972  26.757  1.00  0.00     0.057 A 
ATOM     71  C   UNL A   1      44.202  34.434  25.675  1.00  0.00     0.134 A 
ATOM     72  C   UNL A   1      44.457  34.204  28.044  1.00  0.00     0.134 A 
ATOM     73  F   UNL A   1      44.634  34.264  24.416  1.00  0.00    -0.206 F 
ATOM     74  C   UNL A   1      43.001  35.122  25.866  1.00  0.00     0.040 A 
ATOM     75  C   UNL A   1      43.242  34.859  28.246  1.00  0.00     0.040 A 
ATOM     76  F   UNL A   1      45.133  33.788  29.125  1.00  0.00    -0.206 F 
ATOM     77  C   UNL A   1      42.513  35.327  27.155  1.00  0.00     0.006 A 
ENDBRANCH  56  70
BRANCH  57  78
ATOM     78  C   UNL A   1      53.307  28.636  25.395  1.00  0.00     0.057 A 
ATOM     79  C   UNL A   1      53.673  28.200  24.117  1.00  0.00     0.134 A 
ATOM     80  C   UNL A   1      54.144  28.278  26.460  1.00  0.00     0.134 A 
ATOM     81  F   UNL A   1      52.901  28.490  23.059  1.00  0.00    -0.206 F 
ATOM     82  C   UNL A   1      54.808  27.415  23.908  1.00  0.00     0.040 A 
ATOM     83  C   UNL A   1      55.300  27.523  26.262  1.00  0.00     0.040 A 
ATOM     84  F   UNL A   1      53.851  28.663  27.711  1.00  0.00    -0.206 F 
ATOM     85  C   UNL A   1      55.629  27.079  24.983  1.00  0.00     0.006 A 
ENDBRANCH  57  78
BRANCH  69  86
ATOM     86  C   UNL A   1      51.959  35.461  25.699  1.00  0.00     0.057 A 
ATOM     87  C   UNL A   1      52.225  36.091  24.475  1.00  0.00     0.134 A 
ATOM     88  C   UNL A   1      52.563  36.001  26.843  1.00  0.00     0.134 A 
ATOM     89  F   UNL A   1      51.686  35.624  23.339  1.00  0.00    -0.206 F 
ATOM     90  C   UNL A   1      53.100  37.175  24.386  1.00  0.00     0.040 A 
ATOM     91  C   UNL A   1      53.406  37.111  26.772  1.00  0.00     0.040 A 
ATOM     92  F   UNL A   1      52.340  35.463  28.052  1.00  0.00    -0.206 F 
ATOM     93  C   UNL A   1      53.690  37.690  25.538  1.00  0.00     0.006 A 
ENDBRANCH  69  86
ENDBRANCH  43  44
ENDBRANCH  36  38
ENDBRANCH  35  36
ENDBRANCH  34  35
ENDBRANCH  33  34
ENDBRANCH  32  33
ENDBRANCH  31  32
ENDBRANCH  30  31
ENDBRANCH  29  30
ENDBRANCH  28  29
ENDBRANCH   1  28
TORSDOF 26
ENDMDL
