MODEL 1
REMARK VINA RESULT:     -10.9      0.000      0.000
REMARK SMILES Cc1ccn2c([C@@H]3CCCC[C@@H]3C(=O)OCCOCCOCCOCCOC(=O)c3ccc(-c4c5nc(c(-c6c(F)cccc6F)c6ccc([nH]6)c(-c6c(F)cccc6F)c6nc(c(-c7c(F)cccc7F)c7ccc4[nH]7)C=C6)C=C5)cc3)nnc2c1
REMARK SMILES IDX 22 1 21 2 20 3 19 4 18 5 17 6 16 7 15 8 13 9 14 10 12 11
REMARK SMILES IDX 7 12 8 13 9 14 11 15 10 16 6 17 1 18 2 19 3 20 87 21 4 22
REMARK SMILES IDX 86 23 5 24 85 25 84 26 23 27 24 28 25 29 26 30 27 31 28 32
REMARK SMILES IDX 29 33 30 34 31 35 83 36 32 37 82 38 33 39 34 40 35 41 76 42
REMARK SMILES IDX 36 43 81 44 75 45 77 46 37 47 80 48 74 49 73 50 38 52 64 53
REMARK SMILES IDX 47 54 63 55 48 56 51 57 62 58 78 59 49 60 50 61 61 63 79 64
REMARK SMILES IDX 52 65 39 66 40 67 45 68 41 69 42 70 44 71 46 72 43 73 65 74
REMARK SMILES IDX 66 75 71 76 67 77 68 78 70 79 72 80 69 81 53 82 54 83 59 84
REMARK SMILES IDX 55 85 56 86 58 87 60 88 57 89
REMARK H PARENT 77 51 51 62
REMARK Flexibility Score: inf
ROOT
ATOM      1  C   UNL A   1      38.989  21.854  26.140  1.00  0.00     0.188 C 
ENDROOT
BRANCH   1   2
ATOM      2  O   UNL A   1      37.990  21.979  25.135  1.00  0.00    -0.377 OA
BRANCH   2   3
ATOM      3  C   UNL A   1      37.086  23.061  25.216  1.00  0.00     0.188 C 
BRANCH   3   4
ATOM      4  C   UNL A   1      36.256  23.371  23.955  1.00  0.00     0.188 C 
BRANCH   4   5
ATOM      5  O   UNL A   1      35.058  24.093  24.197  1.00  0.00    -0.376 OA
BRANCH   5   6
ATOM      6  C   UNL A   1      34.648  24.427  25.516  1.00  0.00     0.202 C 
BRANCH   6   7
ATOM      7  C   UNL A   1      33.887  25.747  25.779  1.00  0.00     0.261 C 
BRANCH   7   8
ATOM      8  O   UNL A   1      33.919  26.614  24.639  1.00  0.00    -0.463 OA
BRANCH   8   9
ATOM      9  C   UNL A   1      32.676  26.740  24.129  1.00  0.00     0.309 C 
ATOM     10  O   UNL A   1      32.415  26.354  23.020  1.00  0.00    -0.252 OA
BRANCH   9  11
ATOM     11  C   UNL A   1      31.660  27.347  25.079  1.00  0.00     0.110 C 
ATOM     12  C   UNL A   1      30.292  26.634  24.878  1.00  0.00     0.072 C 
ATOM     13  C   UNL A   1      29.748  26.890  23.470  1.00  0.00     0.012 C 
ATOM     14  C   UNL A   1      29.706  28.400  23.166  1.00  0.00     0.001 C 
ATOM     15  C   UNL A   1      31.559  28.853  24.821  1.00  0.00     0.016 C 
ATOM     16  C   UNL A   1      31.033  29.122  23.415  1.00  0.00     0.001 C 
BRANCH  12  17
ATOM     17  C   UNL A   1      30.284  25.201  25.417  1.00  0.00     0.141 A 
ATOM     18  C   UNL A   1      33.379  20.777  24.106  1.00  0.00     0.044 C 
ATOM     19  C   UNL A   1      32.325  21.802  24.414  1.00  0.00    -0.046 A 
ATOM     20  C   UNL A   1      31.757  22.536  23.286  1.00  0.00     0.022 A 
ATOM     21  C   UNL A   1      31.931  22.092  25.674  1.00  0.00     0.053 A 
ATOM     22  C   UNL A   1      30.956  23.593  23.518  1.00  0.00     0.095 A 
ATOM     23  C   UNL A   1      31.083  23.211  25.915  1.00  0.00     0.161 A 
ATOM     24  N   UNL A   1      30.726  24.010  24.831  1.00  0.00    -0.286 N 
ATOM     25  N   UNL A   1      30.596  23.726  27.018  1.00  0.00    -0.130 NA
ATOM     26  N   UNL A   1      30.078  24.959  26.706  1.00  0.00    -0.134 NA
ENDBRANCH  12  17
ENDBRANCH   9  11
ENDBRANCH   8   9
ENDBRANCH   7   8
ENDBRANCH   6   7
ENDBRANCH   5   6
ENDBRANCH   4   5
ENDBRANCH   3   4
ENDBRANCH   2   3
ENDBRANCH   1   2
BRANCH   1  27
ATOM     27  C   UNL A   1      40.086  20.772  26.085  1.00  0.00     0.188 C 
BRANCH  27  28
ATOM     28  O   UNL A   1      40.774  20.613  27.306  1.00  0.00    -0.376 OA
BRANCH  28  29
ATOM     29  C   UNL A   1      42.045  19.988  27.205  1.00  0.00     0.202 C 
BRANCH  29  30
ATOM     30  C   UNL A   1      42.550  19.631  25.792  1.00  0.00     0.261 C 
BRANCH  30  31
ATOM     31  O   UNL A   1      43.974  19.782  25.579  1.00  0.00    -0.460 OA
BRANCH  31  32
ATOM     32  C   UNL A   1      44.458  20.615  24.627  1.00  0.00     0.338 C 
ATOM     33  O   UNL A   1      44.600  20.355  23.447  1.00  0.00    -0.246 OA
BRANCH  32  34
ATOM     34  C   UNL A   1      44.404  22.001  25.205  1.00  0.00     0.060 A 
ATOM     35  C   UNL A   1      45.072  22.349  26.384  1.00  0.00     0.016 A 
ATOM     36  C   UNL A   1      43.387  22.839  24.717  1.00  0.00     0.016 A 
ATOM     37  C   UNL A   1      44.626  23.449  27.128  1.00  0.00     0.010 A 
ATOM     38  C   UNL A   1      42.936  23.931  25.469  1.00  0.00     0.010 A 
ATOM     39  C   UNL A   1      43.524  24.222  26.700  1.00  0.00    -0.014 A 
BRANCH  39  40
ATOM     40  C   UNL A   1      43.224  25.469  27.440  1.00  0.00     0.031 A 
ATOM     41  C   UNL A   1      44.260  26.517  27.202  1.00  0.00     0.074 A 
ATOM     42  C   UNL A   1      42.097  25.832  28.097  1.00  0.00     0.049 A 
ATOM     43  N   UNL A   1      45.012  27.137  28.051  1.00  0.00    -0.248 NA
ATOM     44  C   UNL A   1      44.558  26.819  25.791  1.00  0.00     0.031 C 
ATOM     45  C   UNL A   1      40.814  25.133  28.144  1.00  0.00     0.029 A 
ATOM     46  N   UNL A   1      41.839  26.981  28.810  1.00  0.00    -0.354 N 
ATOM     47  C   UNL A   1      45.771  28.027  27.292  1.00  0.00     0.074 A 
ATOM     48  C   UNL A   1      45.561  27.683  25.912  1.00  0.00     0.031 C 
ATOM     49  C   UNL A   1      39.881  25.932  28.713  1.00  0.00     0.029 A 
ATOM     50  C   UNL A   1      40.495  27.187  29.114  1.00  0.00     0.049 A 
ATOM     51  H   UNL A   1      42.547  27.607  29.082  1.00  0.00     0.167 HD
ATOM     52  C   UNL A   1      46.353  29.131  27.829  1.00  0.00     0.037 A 
ATOM     53  C   UNL A   1      39.905  28.322  29.581  1.00  0.00     0.037 A 
ATOM     54  C   UNL A   1      46.534  29.012  29.250  1.00  0.00     0.049 A 
ATOM     55  C   UNL A   1      40.963  29.215  30.107  1.00  0.00     0.074 A 
ATOM     56  C   UNL A   1      47.190  28.124  30.081  1.00  0.00     0.029 A 
ATOM     57  N   UNL A   1      45.731  29.753  30.078  1.00  0.00    -0.354 N 
ATOM     58  N   UNL A   1      41.607  29.026  31.221  1.00  0.00    -0.248 NA
ATOM     59  C   UNL A   1      41.578  30.147  29.175  1.00  0.00     0.031 C 
ATOM     60  C   UNL A   1      46.376  28.039  31.249  1.00  0.00     0.029 A 
ATOM     61  C   UNL A   1      45.300  28.904  31.063  1.00  0.00     0.049 A 
ATOM     62  H   UNL A   1      45.508  30.708  29.983  1.00  0.00     0.167 HD
ATOM     63  C   UNL A   1      42.896  29.459  30.953  1.00  0.00     0.074 A 
ATOM     64  C   UNL A   1      42.796  30.222  29.712  1.00  0.00     0.031 C 
ATOM     65  C   UNL A   1      43.967  28.930  31.609  1.00  0.00     0.037 A 
BRANCH  52  66
ATOM     66  C   UNL A   1      46.418  30.457  27.107  1.00  0.00     0.057 A 
ATOM     67  C   UNL A   1      45.284  31.200  26.716  1.00  0.00     0.134 A 
ATOM     68  C   UNL A   1      47.634  31.162  27.072  1.00  0.00     0.134 A 
ATOM     69  F   UNL A   1      44.042  30.703  26.769  1.00  0.00    -0.206 F 
ATOM     70  C   UNL A   1      45.348  32.545  26.344  1.00  0.00     0.040 A 
ATOM     71  C   UNL A   1      47.701  32.524  26.756  1.00  0.00     0.040 A 
ATOM     72  F   UNL A   1      48.783  30.572  27.433  1.00  0.00    -0.206 F 
ATOM     73  C   UNL A   1      46.553  33.222  26.400  1.00  0.00     0.006 A 
ENDBRANCH  52  66
BRANCH  53  74
ATOM     74  C   UNL A   1      38.513  28.821  29.404  1.00  0.00     0.057 A 
ATOM     75  C   UNL A   1      38.095  29.429  28.209  1.00  0.00     0.134 A 
ATOM     76  C   UNL A   1      37.632  28.957  30.493  1.00  0.00     0.134 A 
ATOM     77  F   UNL A   1      38.884  29.447  27.127  1.00  0.00    -0.206 F 
ATOM     78  C   UNL A   1      36.887  30.127  28.097  1.00  0.00     0.040 A 
ATOM     79  C   UNL A   1      36.424  29.666  30.399  1.00  0.00     0.040 A 
ATOM     80  F   UNL A   1      37.949  28.456  31.696  1.00  0.00    -0.206 F 
ATOM     81  C   UNL A   1      36.052  30.262  29.199  1.00  0.00     0.006 A 
ENDBRANCH  53  74
BRANCH  65  82
ATOM     82  C   UNL A   1      43.708  28.090  32.825  1.00  0.00     0.057 A 
ATOM     83  C   UNL A   1      43.634  28.724  34.072  1.00  0.00     0.134 A 
ATOM     84  C   UNL A   1      43.660  26.687  32.820  1.00  0.00     0.134 A 
ATOM     85  F   UNL A   1      43.727  30.060  34.158  1.00  0.00    -0.206 F 
ATOM     86  C   UNL A   1      43.507  28.001  35.258  1.00  0.00     0.040 A 
ATOM     87  C   UNL A   1      43.496  25.954  33.998  1.00  0.00     0.040 A 
ATOM     88  F   UNL A   1      43.826  25.989  31.686  1.00  0.00    -0.206 F 
ATOM     89  C   UNL A   1      43.425  26.612  35.224  1.00  0.00     0.006 A 
ENDBRANCH  65  82
ENDBRANCH  39  40
ENDBRANCH  32  34
ENDBRANCH  31  32
ENDBRANCH  30  31
ENDBRANCH  29  30
ENDBRANCH  28  29
ENDBRANCH  27  28
ENDBRANCH   1  27
TORSDOF 21
ENDMDL
MODEL 2
REMARK VINA RESULT:     -10.9      1.475      3.230
REMARK SMILES Cc1ccn2c([C@@H]3CCCC[C@@H]3C(=O)OCCOCCOCCOCCOC(=O)c3ccc(-c4c5nc(c(-c6c(F)cccc6F)c6ccc([nH]6)c(-c6c(F)cccc6F)c6nc(c(-c7c(F)cccc7F)c7ccc4[nH]7)C=C6)C=C5)cc3)nnc2c1
REMARK SMILES IDX 22 1 21 2 20 3 19 4 18 5 17 6 16 7 15 8 13 9 14 10 12 11
REMARK SMILES IDX 7 12 8 13 9 14 11 15 10 16 6 17 1 18 2 19 3 20 87 21 4 22
REMARK SMILES IDX 86 23 5 24 85 25 84 26 23 27 24 28 25 29 26 30 27 31 28 32
REMARK SMILES IDX 29 33 30 34 31 35 83 36 32 37 82 38 33 39 34 40 35 41 76 42
REMARK SMILES IDX 36 43 81 44 75 45 77 46 37 47 80 48 74 49 73 50 38 52 64 53
REMARK SMILES IDX 47 54 63 55 48 56 51 57 62 58 78 59 49 60 50 61 61 63 79 64
REMARK SMILES IDX 52 65 39 66 40 67 45 68 41 69 42 70 44 71 46 72 43 73 65 74
REMARK SMILES IDX 66 75 71 76 67 77 68 78 70 79 72 80 69 81 53 82 54 83 59 84
REMARK SMILES IDX 55 85 56 86 58 87 60 88 57 89
REMARK H PARENT 77 51 51 62
REMARK Flexibility Score: inf
ROOT
ATOM      1  C   UNL A   1      41.724  19.774  26.155  1.00  0.00     0.188 C 
ENDROOT
BRANCH   1   2
ATOM      2  O   UNL A   1      41.909  21.066  26.721  1.00  0.00    -0.377 OA
BRANCH   2   3
ATOM      3  C   UNL A   1      40.818  21.673  27.381  1.00  0.00     0.188 C 
BRANCH   3   4
ATOM      4  C   UNL A   1      39.648  22.150  26.499  1.00  0.00     0.188 C 
BRANCH   4   5
ATOM      5  O   UNL A   1      38.899  23.227  27.040  1.00  0.00    -0.376 OA
BRANCH   5   6
ATOM      6  C   UNL A   1      38.156  24.106  26.204  1.00  0.00     0.202 C 
BRANCH   6   7
ATOM      7  C   UNL A   1      37.116  23.537  25.213  1.00  0.00     0.261 C 
BRANCH   7   8
ATOM      8  O   UNL A   1      35.824  24.123  25.405  1.00  0.00    -0.463 OA
BRANCH   8   9
ATOM      9  C   UNL A   1      34.900  23.150  25.553  1.00  0.00     0.309 C 
ATOM     10  O   UNL A   1      34.385  22.937  26.619  1.00  0.00    -0.252 OA
BRANCH   9  11
ATOM     11  C   UNL A   1      34.547  22.412  24.275  1.00  0.00     0.110 C 
ATOM     12  C   UNL A   1      33.122  22.840  23.822  1.00  0.00     0.072 C 
ATOM     13  C   UNL A   1      32.073  22.411  24.852  1.00  0.00     0.012 C 
ATOM     14  C   UNL A   1      32.195  20.907  25.163  1.00  0.00     0.001 C 
ATOM     15  C   UNL A   1      34.636  20.903  24.519  1.00  0.00     0.016 C 
ATOM     16  C   UNL A   1      33.608  20.465  25.555  1.00  0.00     0.001 C 
BRANCH  12  17
ATOM     17  C   UNL A   1      33.075  24.272  23.281  1.00  0.00     0.141 A 
ATOM     18  C   UNL A   1      33.670  29.171  25.832  1.00  0.00     0.044 C 
ATOM     19  C   UNL A   1      33.271  27.957  25.043  1.00  0.00    -0.046 A 
ATOM     20  C   UNL A   1      32.359  27.013  25.686  1.00  0.00     0.022 A 
ATOM     21  C   UNL A   1      33.754  27.693  23.810  1.00  0.00     0.053 A 
ATOM     22  C   UNL A   1      32.122  25.821  25.107  1.00  0.00     0.095 A 
ATOM     23  C   UNL A   1      33.501  26.429  23.201  1.00  0.00     0.161 A 
ATOM     24  N   UNL A   1      32.796  25.477  23.933  1.00  0.00    -0.286 N 
ATOM     25  N   UNL A   1      33.877  25.912  22.056  1.00  0.00    -0.130 NA
ATOM     26  N   UNL A   1      33.592  24.569  22.096  1.00  0.00    -0.134 NA
ENDBRANCH  12  17
ENDBRANCH   9  11
ENDBRANCH   8   9
ENDBRANCH   7   8
ENDBRANCH   6   7
ENDBRANCH   5   6
ENDBRANCH   4   5
ENDBRANCH   3   4
ENDBRANCH   2   3
ENDBRANCH   1   2
BRANCH   1  27
ATOM     27  C   UNL A   1      42.541  18.548  26.608  1.00  0.00     0.188 C 
BRANCH  27  28
ATOM     28  O   UNL A   1      43.240  17.923  25.554  1.00  0.00    -0.376 OA
BRANCH  28  29
ATOM     29  C   UNL A   1      44.472  18.534  25.201  1.00  0.00     0.202 C 
BRANCH  29  30
ATOM     30  C   UNL A   1      44.553  19.227  23.825  1.00  0.00     0.261 C 
BRANCH  30  31
ATOM     31  O   UNL A   1      44.646  20.671  23.855  1.00  0.00    -0.460 OA
BRANCH  31  32
ATOM     32  C   UNL A   1      45.590  21.299  24.598  1.00  0.00     0.338 C 
ATOM     33  O   UNL A   1      46.792  21.258  24.416  1.00  0.00    -0.246 OA
BRANCH  32  34
ATOM     34  C   UNL A   1      44.873  22.341  25.407  1.00  0.00     0.060 A 
ATOM     35  C   UNL A   1      43.921  23.202  24.850  1.00  0.00     0.016 A 
ATOM     36  C   UNL A   1      45.434  22.654  26.657  1.00  0.00     0.016 A 
ATOM     37  C   UNL A   1      43.647  24.424  25.477  1.00  0.00     0.010 A 
ATOM     38  C   UNL A   1      45.168  23.882  27.275  1.00  0.00     0.010 A 
ATOM     39  C   UNL A   1      44.303  24.795  26.671  1.00  0.00    -0.014 A 
BRANCH  39  40
ATOM     40  C   UNL A   1      43.835  26.015  27.369  1.00  0.00     0.031 A 
ATOM     41  C   UNL A   1      44.748  27.172  27.131  1.00  0.00     0.074 A 
ATOM     42  C   UNL A   1      42.654  26.257  27.984  1.00  0.00     0.049 A 
ATOM     43  N   UNL A   1      45.395  27.896  27.984  1.00  0.00    -0.248 NA
ATOM     44  C   UNL A   1      45.051  27.474  25.722  1.00  0.00     0.031 C 
ATOM     45  C   UNL A   1      41.461  25.412  28.013  1.00  0.00     0.029 A 
ATOM     46  N   UNL A   1      42.240  27.384  28.658  1.00  0.00    -0.354 N 
ATOM     47  C   UNL A   1      46.068  28.852  27.223  1.00  0.00     0.074 A 
ATOM     48  C   UNL A   1      45.942  28.453  25.848  1.00  0.00     0.031 C 
ATOM     49  C   UNL A   1      40.424  26.108  28.534  1.00  0.00     0.029 A 
ATOM     50  C   UNL A   1      40.872  27.437  28.919  1.00  0.00     0.049 A 
ATOM     51  H   UNL A   1      42.861  28.096  28.933  1.00  0.00     0.167 HD
ATOM     52  C   UNL A   1      46.499  30.029  27.747  1.00  0.00     0.037 A 
ATOM     53  C   UNL A   1      40.139  28.504  29.338  1.00  0.00     0.037 A 
ATOM     54  C   UNL A   1      46.649  29.965  29.174  1.00  0.00     0.049 A 
ATOM     55  C   UNL A   1      41.068  29.528  29.869  1.00  0.00     0.074 A 
ATOM     56  C   UNL A   1      47.378  29.180  30.047  1.00  0.00     0.029 A 
ATOM     57  N   UNL A   1      45.739  30.625  29.960  1.00  0.00    -0.354 N 
ATOM     58  N   UNL A   1      41.695  29.443  31.006  1.00  0.00    -0.248 NA
ATOM     59  C   UNL A   1      41.598  30.504  28.930  1.00  0.00     0.031 C 
ATOM     60  C   UNL A   1      46.544  29.027  31.194  1.00  0.00     0.029 A 
ATOM     61  C   UNL A   1      45.380  29.755  30.955  1.00  0.00     0.049 A 
ATOM     62  H   UNL A   1      45.408  31.544  29.833  1.00  0.00     0.167 HD
ATOM     63  C   UNL A   1      42.932  30.019  30.763  1.00  0.00     0.074 A 
ATOM     64  C   UNL A   1      42.781  30.735  29.500  1.00  0.00     0.031 C 
ATOM     65  C   UNL A   1      44.038  29.635  31.462  1.00  0.00     0.037 A 
BRANCH  52  66
ATOM     66  C   UNL A   1      46.430  31.336  26.991  1.00  0.00     0.057 A 
ATOM     67  C   UNL A   1      45.229  31.932  26.551  1.00  0.00     0.134 A 
ATOM     68  C   UNL A   1      47.556  32.177  26.968  1.00  0.00     0.134 A 
ATOM     69  F   UNL A   1      44.052  31.295  26.586  1.00  0.00    -0.206 F 
ATOM     70  C   UNL A   1      45.146  33.266  26.146  1.00  0.00     0.040 A 
ATOM     71  C   UNL A   1      47.473  33.530  26.619  1.00  0.00     0.040 A 
ATOM     72  F   UNL A   1      48.755  31.734  27.375  1.00  0.00    -0.206 F 
ATOM     73  C   UNL A   1      46.263  34.081  26.215  1.00  0.00     0.006 A 
ENDBRANCH  52  66
BRANCH  53  74
ATOM     74  C   UNL A   1      38.704  28.831  29.109  1.00  0.00     0.057 A 
ATOM     75  C   UNL A   1      38.259  29.380  27.895  1.00  0.00     0.134 A 
ATOM     76  C   UNL A   1      37.776  28.863  30.165  1.00  0.00     0.134 A 
ATOM     77  F   UNL A   1      39.079  29.490  26.842  1.00  0.00    -0.206 F 
ATOM     78  C   UNL A   1      36.980  29.927  27.737  1.00  0.00     0.040 A 
ATOM     79  C   UNL A   1      36.495  29.420  30.024  1.00  0.00     0.040 A 
ATOM     80  F   UNL A   1      38.107  28.408  31.383  1.00  0.00    -0.206 F 
ATOM     81  C   UNL A   1      36.097  29.963  28.807  1.00  0.00     0.006 A 
ENDBRANCH  53  74
BRANCH  65  82
ATOM     82  C   UNL A   1      43.841  28.799  32.693  1.00  0.00     0.057 A 
ATOM     83  C   UNL A   1      43.974  29.411  33.945  1.00  0.00     0.134 A 
ATOM     84  C   UNL A   1      43.658  27.407  32.680  1.00  0.00     0.134 A 
ATOM     85  F   UNL A   1      44.205  30.731  34.032  1.00  0.00    -0.206 F 
ATOM     86  C   UNL A   1      43.916  28.680  35.132  1.00  0.00     0.040 A 
ATOM     87  C   UNL A   1      43.562  26.669  33.863  1.00  0.00     0.040 A 
ATOM     88  F   UNL A   1      43.622  26.720  31.528  1.00  0.00    -0.206 F 
ATOM     89  C   UNL A   1      43.697  27.306  35.094  1.00  0.00     0.006 A 
ENDBRANCH  65  82
ENDBRANCH  39  40
ENDBRANCH  32  34
ENDBRANCH  31  32
ENDBRANCH  30  31
ENDBRANCH  29  30
ENDBRANCH  28  29
ENDBRANCH  27  28
ENDBRANCH   1  27
TORSDOF 21
ENDMDL
MODEL 3
REMARK VINA RESULT:     -10.6      1.082      2.662
REMARK SMILES Cc1ccn2c([C@@H]3CCCC[C@@H]3C(=O)OCCOCCOCCOCCOC(=O)c3ccc(-c4c5nc(c(-c6c(F)cccc6F)c6ccc([nH]6)c(-c6c(F)cccc6F)c6nc(c(-c7c(F)cccc7F)c7ccc4[nH]7)C=C6)C=C5)cc3)nnc2c1
REMARK SMILES IDX 22 1 21 2 20 3 19 4 18 5 17 6 16 7 15 8 13 9 14 10 12 11
REMARK SMILES IDX 7 12 8 13 9 14 11 15 10 16 6 17 1 18 2 19 3 20 87 21 4 22
REMARK SMILES IDX 86 23 5 24 85 25 84 26 23 27 24 28 25 29 26 30 27 31 28 32
REMARK SMILES IDX 29 33 30 34 31 35 83 36 32 37 82 38 33 39 34 40 35 41 76 42
REMARK SMILES IDX 36 43 81 44 75 45 77 46 37 47 80 48 74 49 73 50 38 52 64 53
REMARK SMILES IDX 47 54 63 55 48 56 51 57 62 58 78 59 49 60 50 61 61 63 79 64
REMARK SMILES IDX 52 65 39 66 40 67 45 68 41 69 42 70 44 71 46 72 43 73 65 74
REMARK SMILES IDX 66 75 71 76 67 77 68 78 70 79 72 80 69 81 53 82 54 83 59 84
REMARK SMILES IDX 55 85 56 86 58 87 60 88 57 89
REMARK H PARENT 77 51 51 62
REMARK Flexibility Score: inf
ROOT
ATOM      1  C   UNL A   1      40.217  21.106  26.145  1.00  0.00     0.188 C 
ENDROOT
BRANCH   1   2
ATOM      2  O   UNL A   1      38.847  21.489  26.101  1.00  0.00    -0.377 OA
BRANCH   2   3
ATOM      3  C   UNL A   1      38.519  22.840  26.348  1.00  0.00     0.188 C 
BRANCH   3   4
ATOM      4  C   UNL A   1      37.606  23.534  25.320  1.00  0.00     0.188 C 
BRANCH   4   5
ATOM      5  O   UNL A   1      37.212  22.715  24.229  1.00  0.00    -0.376 OA
BRANCH   5   6
ATOM      6  C   UNL A   1      35.938  22.860  23.616  1.00  0.00     0.202 C 
BRANCH   6   7
ATOM      7  C   UNL A   1      35.079  24.113  23.903  1.00  0.00     0.261 C 
BRANCH   7   8
ATOM      8  O   UNL A   1      33.917  24.163  23.067  1.00  0.00    -0.463 OA
BRANCH   8   9
ATOM      9  C   UNL A   1      32.986  24.961  23.631  1.00  0.00     0.309 C 
ATOM     10  O   UNL A   1      33.299  25.946  24.247  1.00  0.00    -0.252 OA
BRANCH   9  11
ATOM     11  C   UNL A   1      31.551  24.539  23.374  1.00  0.00     0.110 C 
ATOM     12  C   UNL A   1      30.663  25.020  24.557  1.00  0.00     0.072 C 
ATOM     13  C   UNL A   1      31.072  24.327  25.859  1.00  0.00     0.012 C 
ATOM     14  C   UNL A   1      31.087  22.796  25.683  1.00  0.00     0.001 C 
ATOM     15  C   UNL A   1      31.492  23.019  23.201  1.00  0.00     0.016 C 
ATOM     16  C   UNL A   1      31.912  22.316  24.486  1.00  0.00     0.001 C 
BRANCH  12  17
ATOM     17  C   UNL A   1      30.458  26.538  24.569  1.00  0.00     0.141 A 
ATOM     18  C   UNL A   1      33.281  30.595  27.105  1.00  0.00     0.044 C 
ATOM     19  C   UNL A   1      32.293  29.614  26.542  1.00  0.00    -0.046 A 
ATOM     20  C   UNL A   1      31.938  28.469  27.378  1.00  0.00     0.022 A 
ATOM     21  C   UNL A   1      31.773  29.728  25.300  1.00  0.00     0.053 A 
ATOM     22  C   UNL A   1      31.214  27.463  26.852  1.00  0.00     0.095 A 
ATOM     23  C   UNL A   1      31.007  28.662  24.748  1.00  0.00     0.161 A 
ATOM     24  N   UNL A   1      30.861  27.499  25.501  1.00  0.00    -0.286 N 
ATOM     25  N   UNL A   1      30.434  28.501  23.579  1.00  0.00    -0.130 NA
ATOM     26  N   UNL A   1      30.072  27.181  23.473  1.00  0.00    -0.134 NA
ENDBRANCH  12  17
ENDBRANCH   9  11
ENDBRANCH   8   9
ENDBRANCH   7   8
ENDBRANCH   6   7
ENDBRANCH   5   6
ENDBRANCH   4   5
ENDBRANCH   3   4
ENDBRANCH   2   3
ENDBRANCH   1   2
BRANCH   1  27
ATOM     27  C   UNL A   1      41.107  21.359  27.378  1.00  0.00     0.188 C 
BRANCH  27  28
ATOM     28  O   UNL A   1      42.244  20.525  27.426  1.00  0.00    -0.376 OA
BRANCH  28  29
ATOM     29  C   UNL A   1      42.164  19.350  26.634  1.00  0.00     0.202 C 
BRANCH  29  30
ATOM     30  C   UNL A   1      43.355  19.037  25.704  1.00  0.00     0.261 C 
BRANCH  30  31
ATOM     31  O   UNL A   1      43.651  20.042  24.705  1.00  0.00    -0.460 OA
BRANCH  31  32
ATOM     32  C   UNL A   1      44.885  20.593  24.607  1.00  0.00     0.338 C 
ATOM     33  O   UNL A   1      45.804  20.182  23.925  1.00  0.00    -0.246 OA
BRANCH  32  34
ATOM     34  C   UNL A   1      44.775  21.984  25.164  1.00  0.00     0.060 A 
ATOM     35  C   UNL A   1      45.491  22.400  26.291  1.00  0.00     0.016 A 
ATOM     36  C   UNL A   1      43.677  22.744  24.727  1.00  0.00     0.016 A 
ATOM     37  C   UNL A   1      45.021  23.485  27.043  1.00  0.00     0.010 A 
ATOM     38  C   UNL A   1      43.202  23.820  25.488  1.00  0.00     0.010 A 
ATOM     39  C   UNL A   1      43.846  24.175  26.674  1.00  0.00    -0.014 A 
BRANCH  39  40
ATOM     40  C   UNL A   1      43.510  25.415  27.410  1.00  0.00     0.031 A 
ATOM     41  C   UNL A   1      44.531  26.482  27.189  1.00  0.00     0.074 A 
ATOM     42  C   UNL A   1      42.367  25.756  28.048  1.00  0.00     0.049 A 
ATOM     43  N   UNL A   1      45.258  27.115  28.051  1.00  0.00    -0.248 NA
ATOM     44  C   UNL A   1      44.846  26.791  25.784  1.00  0.00     0.031 C 
ATOM     45  C   UNL A   1      41.096  25.034  28.073  1.00  0.00     0.029 A 
ATOM     46  N   UNL A   1      42.075  26.900  28.757  1.00  0.00    -0.354 N 
ATOM     47  C   UNL A   1      46.012  28.020  27.305  1.00  0.00     0.074 A 
ATOM     48  C   UNL A   1      45.831  27.673  25.922  1.00  0.00     0.031 C 
ATOM     49  C   UNL A   1      40.140  25.815  28.627  1.00  0.00     0.029 A 
ATOM     50  C   UNL A   1      40.723  27.081  29.039  1.00  0.00     0.049 A 
ATOM     51  H   UNL A   1      42.767  27.539  29.042  1.00  0.00     0.167 HD
ATOM     52  C   UNL A   1      46.565  29.134  27.853  1.00  0.00     0.037 A 
ATOM     53  C   UNL A   1      40.104  28.204  29.498  1.00  0.00     0.037 A 
ATOM     54  C   UNL A   1      46.725  29.016  29.276  1.00  0.00     0.049 A 
ATOM     55  C   UNL A   1      41.137  29.116  30.041  1.00  0.00     0.074 A 
ATOM     56  C   UNL A   1      47.383  28.140  30.118  1.00  0.00     0.029 A 
ATOM     57  N   UNL A   1      45.895  29.742  30.092  1.00  0.00    -0.354 N 
ATOM     58  N   UNL A   1      41.766  28.938  31.166  1.00  0.00    -0.248 NA
ATOM     59  C   UNL A   1      41.751  30.060  29.120  1.00  0.00     0.031 C 
ATOM     60  C   UNL A   1      46.552  28.038  31.272  1.00  0.00     0.029 A 
ATOM     61  C   UNL A   1      45.463  28.884  31.069  1.00  0.00     0.049 A 
ATOM     62  H   UNL A   1      45.655  30.692  29.994  1.00  0.00     0.167 HD
ATOM     63  C   UNL A   1      43.051  29.395  30.920  1.00  0.00     0.074 A 
ATOM     64  C   UNL A   1      42.958  30.157  29.678  1.00  0.00     0.031 C 
ATOM     65  C   UNL A   1      44.121  28.884  31.593  1.00  0.00     0.037 A 
BRANCH  52  66
ATOM     66  C   UNL A   1      46.617  30.461  27.133  1.00  0.00     0.057 A 
ATOM     67  C   UNL A   1      45.477  31.179  26.715  1.00  0.00     0.134 A 
ATOM     68  C   UNL A   1      47.817  31.194  27.128  1.00  0.00     0.134 A 
ATOM     69  F   UNL A   1      44.245  30.655  26.739  1.00  0.00    -0.206 F 
ATOM     70  C   UNL A   1      45.519  32.525  26.345  1.00  0.00     0.040 A 
ATOM     71  C   UNL A   1      47.861  32.558  26.814  1.00  0.00     0.040 A 
ATOM     72  F   UNL A   1      48.971  30.629  27.516  1.00  0.00    -0.206 F 
ATOM     73  C   UNL A   1      46.707  33.230  26.431  1.00  0.00     0.006 A 
ENDBRANCH  52  66
BRANCH  53  74
ATOM     74  C   UNL A   1      38.707  28.678  29.298  1.00  0.00     0.057 A 
ATOM     75  C   UNL A   1      38.306  29.309  28.109  1.00  0.00     0.134 A 
ATOM     76  C   UNL A   1      37.796  28.765  30.367  1.00  0.00     0.134 A 
ATOM     77  F   UNL A   1      39.122  29.373  27.048  1.00  0.00    -0.206 F 
ATOM     78  C   UNL A   1      37.086  29.983  27.985  1.00  0.00     0.040 A 
ATOM     79  C   UNL A   1      36.575  29.450  30.260  1.00  0.00     0.040 A 
ATOM     80  F   UNL A   1      38.093  28.239  31.564  1.00  0.00    -0.206 F 
ATOM     81  C   UNL A   1      36.221  30.070  29.067  1.00  0.00     0.006 A 
ENDBRANCH  53  74
BRANCH  65  82
ATOM     82  C   UNL A   1      43.857  28.038  32.804  1.00  0.00     0.057 A 
ATOM     83  C   UNL A   1      43.824  28.659  34.059  1.00  0.00     0.134 A 
ATOM     84  C   UNL A   1      43.767  26.638  32.783  1.00  0.00     0.134 A 
ATOM     85  F   UNL A   1      43.959  29.991  34.158  1.00  0.00    -0.206 F 
ATOM     86  C   UNL A   1      43.695  27.927  35.239  1.00  0.00     0.040 A 
ATOM     87  C   UNL A   1      43.601  25.896  33.957  1.00  0.00     0.040 A 
ATOM     88  F   UNL A   1      43.892  25.948  31.639  1.00  0.00    -0.206 F 
ATOM     89  C   UNL A   1      43.571  26.542  35.190  1.00  0.00     0.006 A 
ENDBRANCH  65  82
ENDBRANCH  39  40
ENDBRANCH  32  34
ENDBRANCH  31  32
ENDBRANCH  30  31
ENDBRANCH  29  30
ENDBRANCH  28  29
ENDBRANCH  27  28
ENDBRANCH   1  27
TORSDOF 21
ENDMDL
