MODEL 1
REMARK VINA RESULT:      -9.6      0.000      0.000
REMARK SMILES CC[NH2+][C@]1(C(=O)OCCOCCOCCOCCOC(=O)c2ccc(-c3c4nc(c(-c5c(F)cccc5F)c5ccc([nH]5)c(-c5c(F)cccc5F)c5nc(c(-c6c(F)cccc6F)c6ccc3[nH]6)C=C5)C=C4)cc2)CCC[C@H]([N@@H+]2CCC[C@@H]2C(C)C)C1
REMARK SMILES IDX 13 1 12 2 11 3 10 4 9 5 8 6 7 7 5 8 6 9 4 10 76 11 88 12
REMARK SMILES IDX 77 13 79 14 78 15 3 16 2 19 1 20 80 21 81 22 84 23 82 25
REMARK SMILES IDX 83 26 85 27 86 28 87 29 14 30 15 31 16 32 17 33 18 34 19 35
REMARK SMILES IDX 20 36 21 37 22 38 23 39 75 40 24 41 74 42 25 43 26 44 27 45
REMARK SMILES IDX 68 46 28 47 73 48 67 49 69 50 29 51 72 52 66 53 65 54 30 56
REMARK SMILES IDX 56 57 39 58 55 59 40 60 43 61 54 62 70 63 41 64 42 65 53 67
REMARK SMILES IDX 71 68 44 69 31 70 32 71 37 72 33 73 34 74 36 75 38 76 35 77
REMARK SMILES IDX 57 78 58 79 63 80 59 81 60 82 62 83 64 84 61 85 45 86 46 87
REMARK SMILES IDX 51 88 47 89 48 90 50 91 52 92 49 93
REMARK H PARENT 3 17 3 18 80 24 69 55 43 66
REMARK Flexibility Score: inf
ROOT
ATOM      1  O   UNL A   1      34.873  31.084  27.415  1.00  0.00    -0.377 OA
ENDROOT
BRANCH   1   2
ATOM      2  C   UNL A   1      34.779  29.740  27.825  1.00  0.00     0.188 C 
BRANCH   2   3
ATOM      3  C   UNL A   1      34.211  28.817  26.741  1.00  0.00     0.188 C 
BRANCH   3   4
ATOM      4  O   UNL A   1      32.905  28.361  27.080  1.00  0.00    -0.376 OA
BRANCH   4   5
ATOM      5  C   UNL A   1      31.809  28.859  26.318  1.00  0.00     0.202 C 
BRANCH   5   6
ATOM      6  C   UNL A   1      31.409  28.206  24.981  1.00  0.00     0.261 C 
BRANCH   6   7
ATOM      7  O   UNL A   1      31.849  26.847  24.868  1.00  0.00    -0.459 OA
BRANCH   7   8
ATOM      8  C   UNL A   1      31.001  25.804  24.642  1.00  0.00     0.368 C 
ATOM      9  O   UNL A   1      29.838  25.919  24.280  1.00  0.00    -0.245 OA
BRANCH   8  10
ATOM     10  C   UNL A   1      31.788  24.457  24.812  1.00  0.00     0.200 C 
ATOM     11  C   UNL A   1      33.023  24.763  25.751  1.00  0.00     0.081 C 
ATOM     12  C   UNL A   1      31.061  23.316  25.489  1.00  0.00     0.146 C 
ATOM     13  C   UNL A   1      33.697  23.775  26.708  1.00  0.00     0.013 C 
ATOM     14  C   UNL A   1      32.068  22.153  25.831  1.00  0.00     0.191 C 
ATOM     15  C   UNL A   1      32.875  22.575  27.043  1.00  0.00     0.065 C 
BRANCH  10  16
ATOM     16  N   UNL A   1      32.139  23.904  23.477  1.00  0.00    -0.332 N 
ATOM     17  H   UNL A   1      32.333  22.913  23.621  1.00  0.00     0.347 HD
ATOM     18  H   UNL A   1      31.333  24.176  22.915  1.00  0.00     0.347 HD
BRANCH  16  19
ATOM     19  C   UNL A   1      33.246  24.424  22.693  1.00  0.00     0.257 C 
ATOM     20  C   UNL A   1      32.682  25.286  21.555  1.00  0.00     0.071 C 
ENDBRANCH  16  19
ENDBRANCH  10  16
BRANCH  14  21
ATOM     21  N   UNL A   1      32.802  21.498  24.688  1.00  0.00    -0.330 N 
ATOM     22  C   UNL A   1      32.170  20.168  24.459  1.00  0.00     0.262 C 
ATOM     23  C   UNL A   1      34.296  21.249  24.378  1.00  0.00     0.187 C 
ATOM     24  H   UNL A   1      32.726  22.350  24.133  1.00  0.00     0.348 HD
ATOM     25  C   UNL A   1      33.141  19.173  25.035  1.00  0.00     0.067 C 
ATOM     26  C   UNL A   1      34.475  19.730  24.634  1.00  0.00     0.071 C 
BRANCH  23  27
ATOM     27  C   UNL A   1      35.762  21.925  24.632  1.00  0.00     0.041 C 
ATOM     28  C   UNL A   1      36.835  20.849  24.995  1.00  0.00     0.014 C 
ATOM     29  C   UNL A   1      36.523  22.684  23.535  1.00  0.00     0.014 C 
ENDBRANCH  23  27
ENDBRANCH  14  21
ENDBRANCH   8  10
ENDBRANCH   7   8
ENDBRANCH   6   7
ENDBRANCH   5   6
ENDBRANCH   4   5
ENDBRANCH   3   4
ENDBRANCH   2   3
ENDBRANCH   1   2
BRANCH   1  30
ATOM     30  C   UNL A   1      35.617  31.936  28.277  1.00  0.00     0.188 C 
BRANCH  30  31
ATOM     31  C   UNL A   1      35.515  33.490  28.219  1.00  0.00     0.188 C 
BRANCH  31  32
ATOM     32  O   UNL A   1      34.230  34.066  28.405  1.00  0.00    -0.376 OA
BRANCH  32  33
ATOM     33  C   UNL A   1      34.091  35.467  28.587  1.00  0.00     0.202 C 
BRANCH  33  34
ATOM     34  C   UNL A   1      32.908  35.999  29.414  1.00  0.00     0.261 C 
BRANCH  34  35
ATOM     35  O   UNL A   1      32.489  35.182  30.512  1.00  0.00    -0.460 OA
BRANCH  35  36
ATOM     36  C   UNL A   1      32.702  35.674  31.756  1.00  0.00     0.338 C 
ATOM     37  O   UNL A   1      31.990  36.421  32.383  1.00  0.00    -0.246 OA
BRANCH  36  38
ATOM     38  C   UNL A   1      33.872  34.950  32.306  1.00  0.00     0.060 A 
ATOM     39  C   UNL A   1      35.137  35.542  32.185  1.00  0.00     0.016 A 
ATOM     40  C   UNL A   1      33.713  33.749  33.002  1.00  0.00     0.016 A 
ATOM     41  C   UNL A   1      36.251  34.929  32.753  1.00  0.00     0.010 A 
ATOM     42  C   UNL A   1      34.838  33.110  33.530  1.00  0.00     0.010 A 
ATOM     43  C   UNL A   1      36.112  33.685  33.381  1.00  0.00    -0.014 A 
BRANCH  43  44
ATOM     44  C   UNL A   1      37.325  32.877  33.638  1.00  0.00     0.031 A 
ATOM     45  C   UNL A   1      38.077  33.144  34.912  1.00  0.00     0.074 A 
ATOM     46  C   UNL A   1      37.729  31.912  32.794  1.00  0.00     0.049 A 
ATOM     47  N   UNL A   1      39.181  32.605  35.356  1.00  0.00    -0.248 NA
ATOM     48  C   UNL A   1      37.499  34.161  35.806  1.00  0.00     0.031 C 
ATOM     49  C   UNL A   1      37.054  31.525  31.559  1.00  0.00     0.029 A 
ATOM     50  N   UNL A   1      38.822  31.084  32.858  1.00  0.00    -0.354 N 
ATOM     51  C   UNL A   1      39.432  33.223  36.575  1.00  0.00     0.074 A 
ATOM     52  C   UNL A   1      38.384  34.194  36.788  1.00  0.00     0.031 C 
ATOM     53  C   UNL A   1      37.759  30.544  30.968  1.00  0.00     0.029 A 
ATOM     54  C   UNL A   1      38.951  30.259  31.768  1.00  0.00     0.049 A 
ATOM     55  H   UNL A   1      39.454  31.081  33.613  1.00  0.00     0.167 HD
ATOM     56  C   UNL A   1      40.446  32.996  37.441  1.00  0.00     0.037 A 
ATOM     57  C   UNL A   1      39.934  29.395  31.446  1.00  0.00     0.037 A 
ATOM     58  C   UNL A   1      41.492  32.034  37.219  1.00  0.00     0.049 A 
ATOM     59  C   UNL A   1      41.098  29.219  32.389  1.00  0.00     0.074 A 
ATOM     60  C   UNL A   1      42.557  31.718  38.041  1.00  0.00     0.029 A 
ATOM     61  N   UNL A   1      41.608  31.244  36.085  1.00  0.00    -0.354 N 
ATOM     62  N   UNL A   1      41.319  29.788  33.550  1.00  0.00    -0.248 NA
ATOM     63  C   UNL A   1      42.149  28.276  31.976  1.00  0.00     0.031 C 
ATOM     64  C   UNL A   1      43.355  30.781  37.377  1.00  0.00     0.029 A 
ATOM     65  C   UNL A   1      42.747  30.462  36.172  1.00  0.00     0.049 A 
ATOM     66  H   UNL A   1      40.974  31.239  35.332  1.00  0.00     0.167 HD
ATOM     67  C   UNL A   1      42.513  29.251  34.019  1.00  0.00     0.074 A 
ATOM     68  C   UNL A   1      42.963  28.301  33.023  1.00  0.00     0.031 C 
ATOM     69  C   UNL A   1      43.177  29.516  35.173  1.00  0.00     0.037 A 
BRANCH  56  70
ATOM     70  C   UNL A   1      40.492  33.835  38.683  1.00  0.00     0.057 A 
ATOM     71  C   UNL A   1      39.812  33.473  39.853  1.00  0.00     0.134 A 
ATOM     72  C   UNL A   1      41.248  35.014  38.714  1.00  0.00     0.134 A 
ATOM     73  F   UNL A   1      39.053  32.368  39.884  1.00  0.00    -0.206 F 
ATOM     74  C   UNL A   1      39.864  34.265  41.001  1.00  0.00     0.040 A 
ATOM     75  C   UNL A   1      41.332  35.798  39.864  1.00  0.00     0.040 A 
ATOM     76  F   UNL A   1      41.921  35.420  37.627  1.00  0.00    -0.206 F 
ATOM     77  C   UNL A   1      40.634  35.427  41.012  1.00  0.00     0.006 A 
ENDBRANCH  56  70
BRANCH  57  78
ATOM     78  C   UNL A   1      39.880  28.646  30.164  1.00  0.00     0.057 A 
ATOM     79  C   UNL A   1      39.214  27.419  30.063  1.00  0.00     0.134 A 
ATOM     80  C   UNL A   1      40.519  29.127  29.013  1.00  0.00     0.134 A 
ATOM     81  F   UNL A   1      38.606  26.891  31.135  1.00  0.00    -0.206 F 
ATOM     82  C   UNL A   1      39.202  26.689  28.873  1.00  0.00     0.040 A 
ATOM     83  C   UNL A   1      40.490  28.423  27.810  1.00  0.00     0.040 A 
ATOM     84  F   UNL A   1      41.177  30.296  29.042  1.00  0.00    -0.206 F 
ATOM     85  C   UNL A   1      39.836  27.194  27.740  1.00  0.00     0.006 A 
ENDBRANCH  57  78
BRANCH  69  86
ATOM     86  C   UNL A   1      44.434  28.741  35.444  1.00  0.00     0.057 A 
ATOM     87  C   UNL A   1      44.421  27.509  36.111  1.00  0.00     0.134 A 
ATOM     88  C   UNL A   1      45.671  29.210  34.982  1.00  0.00     0.134 A 
ATOM     89  F   UNL A   1      43.273  27.006  36.587  1.00  0.00    -0.206 F 
ATOM     90  C   UNL A   1      45.596  26.787  36.332  1.00  0.00     0.040 A 
ATOM     91  C   UNL A   1      46.847  28.482  35.168  1.00  0.00     0.040 A 
ATOM     92  F   UNL A   1      45.755  30.376  34.321  1.00  0.00    -0.206 F 
ATOM     93  C   UNL A   1      46.812  27.269  35.851  1.00  0.00     0.006 A 
ENDBRANCH  69  86
ENDBRANCH  43  44
ENDBRANCH  36  38
ENDBRANCH  35  36
ENDBRANCH  34  35
ENDBRANCH  33  34
ENDBRANCH  32  33
ENDBRANCH  31  32
ENDBRANCH  30  31
ENDBRANCH   1  30
TORSDOF 24
ENDMDL
MODEL 2
REMARK VINA RESULT:      -9.3      2.495      7.156
REMARK SMILES CC[NH2+][C@]1(C(=O)OCCOCCOCCOCCOC(=O)c2ccc(-c3c4nc(c(-c5c(F)cccc5F)c5ccc([nH]5)c(-c5c(F)cccc5F)c5nc(c(-c6c(F)cccc6F)c6ccc3[nH]6)C=C5)C=C4)cc2)CCC[C@H]([N@@H+]2CCC[C@@H]2C(C)C)C1
REMARK SMILES IDX 13 1 12 2 11 3 10 4 9 5 8 6 7 7 5 8 6 9 4 10 76 11 88 12
REMARK SMILES IDX 77 13 79 14 78 15 3 16 2 19 1 20 80 21 81 22 84 23 82 25
REMARK SMILES IDX 83 26 85 27 86 28 87 29 14 30 15 31 16 32 17 33 18 34 19 35
REMARK SMILES IDX 20 36 21 37 22 38 23 39 75 40 24 41 74 42 25 43 26 44 27 45
REMARK SMILES IDX 68 46 28 47 73 48 67 49 69 50 29 51 72 52 66 53 65 54 30 56
REMARK SMILES IDX 56 57 39 58 55 59 40 60 43 61 54 62 70 63 41 64 42 65 53 67
REMARK SMILES IDX 71 68 44 69 31 70 32 71 37 72 33 73 34 74 36 75 38 76 35 77
REMARK SMILES IDX 57 78 58 79 63 80 59 81 60 82 62 83 64 84 61 85 45 86 46 87
REMARK SMILES IDX 51 88 47 89 48 90 50 91 52 92 49 93
REMARK H PARENT 3 17 3 18 80 24 69 55 43 66
REMARK Flexibility Score: inf
ROOT
ATOM      1  O   UNL A   1      27.653  32.266  22.378  1.00  0.00    -0.377 OA
ENDROOT
BRANCH   1   2
ATOM      2  C   UNL A   1      27.930  31.201  21.498  1.00  0.00     0.188 C 
BRANCH   2   3
ATOM      3  C   UNL A   1      27.425  29.847  22.012  1.00  0.00     0.188 C 
BRANCH   3   4
ATOM      4  O   UNL A   1      28.196  29.393  23.120  1.00  0.00    -0.376 OA
BRANCH   4   5
ATOM      5  C   UNL A   1      29.227  28.442  22.867  1.00  0.00     0.202 C 
BRANCH   5   6
ATOM      6  C   UNL A   1      30.654  28.895  22.505  1.00  0.00     0.261 C 
BRANCH   6   7
ATOM      7  O   UNL A   1      31.555  27.799  22.302  1.00  0.00    -0.459 OA
BRANCH   7   8
ATOM      8  C   UNL A   1      32.841  27.797  22.754  1.00  0.00     0.368 C 
ATOM      9  O   UNL A   1      33.571  28.777  22.778  1.00  0.00    -0.245 OA
BRANCH   8  10
ATOM     10  C   UNL A   1      33.179  26.377  23.330  1.00  0.00     0.200 C 
ATOM     11  C   UNL A   1      31.801  25.680  23.671  1.00  0.00     0.081 C 
ATOM     12  C   UNL A   1      33.883  25.409  22.404  1.00  0.00     0.146 C 
ATOM     13  C   UNL A   1      31.518  24.175  23.641  1.00  0.00     0.013 C 
ATOM     14  C   UNL A   1      33.893  23.963  23.030  1.00  0.00     0.191 C 
ATOM     15  C   UNL A   1      32.506  23.372  22.862  1.00  0.00     0.065 C 
BRANCH  10  16
ATOM     16  N   UNL A   1      34.116  26.506  24.478  1.00  0.00    -0.332 N 
ATOM     17  H   UNL A   1      34.654  25.639  24.506  1.00  0.00     0.347 HD
ATOM     18  H   UNL A   1      34.594  27.381  24.265  1.00  0.00     0.347 HD
BRANCH  16  19
ATOM     19  C   UNL A   1      33.648  26.737  25.834  1.00  0.00     0.257 C 
ATOM     20  C   UNL A   1      33.699  28.243  26.122  1.00  0.00     0.071 C 
ENDBRANCH  16  19
ENDBRANCH  10  16
BRANCH  14  21
ATOM     21  N   UNL A   1      34.582  23.774  24.358  1.00  0.00    -0.330 N 
ATOM     22  C   UNL A   1      35.966  23.298  24.075  1.00  0.00     0.262 C 
ATOM     23  C   UNL A   1      34.206  23.041  25.666  1.00  0.00     0.187 C 
ATOM     24  H   UNL A   1      34.270  24.695  24.667  1.00  0.00     0.348 HD
ATOM     25  C   UNL A   1      35.947  21.831  24.409  1.00  0.00     0.067 C 
ATOM     26  C   UNL A   1      35.102  21.776  25.648  1.00  0.00     0.071 C 
BRANCH  23  27
ATOM     27  C   UNL A   1      32.890  22.649  26.553  1.00  0.00     0.041 C 
ATOM     28  C   UNL A   1      33.283  22.210  28.000  1.00  0.00     0.014 C 
ATOM     29  C   UNL A   1      31.785  23.664  26.885  1.00  0.00     0.014 C 
ENDBRANCH  23  27
ENDBRANCH  14  21
ENDBRANCH   8  10
ENDBRANCH   7   8
ENDBRANCH   6   7
ENDBRANCH   5   6
ENDBRANCH   4   5
ENDBRANCH   3   4
ENDBRANCH   2   3
ENDBRANCH   1   2
BRANCH   1  30
ATOM     30  C   UNL A   1      28.758  33.105  22.688  1.00  0.00     0.188 C 
BRANCH  30  31
ATOM     31  C   UNL A   1      29.581  32.962  24.003  1.00  0.00     0.188 C 
BRANCH  31  32
ATOM     32  O   UNL A   1      29.669  31.667  24.580  1.00  0.00    -0.376 OA
BRANCH  32  33
ATOM     33  C   UNL A   1      30.678  31.373  25.534  1.00  0.00     0.202 C 
BRANCH  33  34
ATOM     34  C   UNL A   1      31.271  32.519  26.372  1.00  0.00     0.261 C 
BRANCH  34  35
ATOM     35  O   UNL A   1      32.441  32.202  27.132  1.00  0.00    -0.460 OA
BRANCH  35  36
ATOM     36  C   UNL A   1      33.120  33.243  27.672  1.00  0.00     0.338 C 
ATOM     37  O   UNL A   1      32.723  34.371  27.840  1.00  0.00    -0.246 OA
BRANCH  36  38
ATOM     38  C   UNL A   1      34.379  32.691  28.225  1.00  0.00     0.060 A 
ATOM     39  C   UNL A   1      34.405  31.341  28.602  1.00  0.00     0.016 A 
ATOM     40  C   UNL A   1      35.537  33.470  28.294  1.00  0.00     0.016 A 
ATOM     41  C   UNL A   1      35.588  30.767  29.057  1.00  0.00     0.010 A 
ATOM     42  C   UNL A   1      36.712  32.906  28.796  1.00  0.00     0.010 A 
ATOM     43  C   UNL A   1      36.732  31.561  29.206  1.00  0.00    -0.014 A 
BRANCH  43  44
ATOM     44  C   UNL A   1      37.851  31.052  30.030  1.00  0.00     0.031 A 
ATOM     45  C   UNL A   1      38.792  30.071  29.388  1.00  0.00     0.074 A 
ATOM     46  C   UNL A   1      38.055  31.472  31.290  1.00  0.00     0.049 A 
ATOM     47  N   UNL A   1      39.823  29.452  29.897  1.00  0.00    -0.248 NA
ATOM     48  C   UNL A   1      38.529  29.747  27.976  1.00  0.00     0.031 C 
ATOM     49  C   UNL A   1      37.245  32.459  31.999  1.00  0.00     0.029 A 
ATOM     50  N   UNL A   1      39.016  31.105  32.198  1.00  0.00    -0.354 N 
ATOM     51  C   UNL A   1      40.326  28.661  28.872  1.00  0.00     0.074 A 
ATOM     52  C   UNL A   1      39.472  28.856  27.722  1.00  0.00     0.031 C 
ATOM     53  C   UNL A   1      37.732  32.606  33.243  1.00  0.00     0.029 A 
ATOM     54  C   UNL A   1      38.867  31.701  33.427  1.00  0.00     0.049 A 
ATOM     55  H   UNL A   1      39.743  30.475  31.991  1.00  0.00     0.167 HD
ATOM     56  C   UNL A   1      41.405  27.846  28.887  1.00  0.00     0.037 A 
ATOM     57  C   UNL A   1      39.554  31.511  34.571  1.00  0.00     0.037 A 
ATOM     58  C   UNL A   1      42.246  27.649  30.037  1.00  0.00     0.049 A 
ATOM     59  C   UNL A   1      40.705  30.536  34.587  1.00  0.00     0.074 A 
ATOM     60  C   UNL A   1      43.372  26.856  30.153  1.00  0.00     0.029 A 
ATOM     61  N   UNL A   1      42.041  28.242  31.274  1.00  0.00    -0.354 N 
ATOM     62  N   UNL A   1      41.189  29.808  33.609  1.00  0.00    -0.248 NA
ATOM     63  C   UNL A   1      41.406  30.359  35.867  1.00  0.00     0.031 C 
ATOM     64  C   UNL A   1      43.813  26.919  31.478  1.00  0.00     0.029 A 
ATOM     65  C   UNL A   1      43.003  27.806  32.169  1.00  0.00     0.049 A 
ATOM     66  H   UNL A   1      41.319  28.878  31.483  1.00  0.00     0.167 HD
ATOM     67  C   UNL A   1      42.267  29.113  34.146  1.00  0.00     0.074 A 
ATOM     68  C   UNL A   1      42.373  29.516  35.533  1.00  0.00     0.031 C 
ATOM     69  C   UNL A   1      43.098  28.224  33.546  1.00  0.00     0.037 A 
BRANCH  56  70
ATOM     70  C   UNL A   1      41.708  27.078  27.635  1.00  0.00     0.057 A 
ATOM     71  C   UNL A   1      42.460  27.625  26.588  1.00  0.00     0.134 A 
ATOM     72  C   UNL A   1      41.255  25.760  27.486  1.00  0.00     0.134 A 
ATOM     73  F   UNL A   1      42.905  28.888  26.657  1.00  0.00    -0.206 F 
ATOM     74  C   UNL A   1      42.733  26.897  25.428  1.00  0.00     0.040 A 
ATOM     75  C   UNL A   1      41.545  25.014  26.345  1.00  0.00     0.040 A 
ATOM     76  F   UNL A   1      40.526  25.178  28.450  1.00  0.00    -0.206 F 
ATOM     77  C   UNL A   1      42.282  25.583  25.308  1.00  0.00     0.006 A 
ENDBRANCH  56  70
BRANCH  57  78
ATOM     78  C   UNL A   1      39.164  32.240  35.806  1.00  0.00     0.057 A 
ATOM     79  C   UNL A   1      38.287  31.677  36.739  1.00  0.00     0.134 A 
ATOM     80  C   UNL A   1      39.636  33.533  36.067  1.00  0.00     0.134 A 
ATOM     81  F   UNL A   1      37.778  30.452  36.534  1.00  0.00    -0.206 F 
ATOM     82  C   UNL A   1      37.880  32.377  37.877  1.00  0.00     0.040 A 
ATOM     83  C   UNL A   1      39.260  34.233  37.213  1.00  0.00     0.040 A 
ATOM     84  F   UNL A   1      40.477  34.133  35.211  1.00  0.00    -0.206 F 
ATOM     85  C   UNL A   1      38.372  33.657  38.119  1.00  0.00     0.006 A 
ENDBRANCH  57  78
BRANCH  69  86
ATOM     86  C   UNL A   1      44.221  27.659  34.368  1.00  0.00     0.057 A 
ATOM     87  C   UNL A   1      44.123  26.419  35.012  1.00  0.00     0.134 A 
ATOM     88  C   UNL A   1      45.440  28.343  34.469  1.00  0.00     0.134 A 
ATOM     89  F   UNL A   1      42.982  25.716  34.962  1.00  0.00    -0.206 F 
ATOM     90  C   UNL A   1      45.186  25.895  35.750  1.00  0.00     0.040 A 
ATOM     91  C   UNL A   1      46.520  27.814  35.176  1.00  0.00     0.040 A 
ATOM     92  F   UNL A   1      45.609  29.529  33.863  1.00  0.00    -0.206 F 
ATOM     93  C   UNL A   1      46.392  26.589  35.826  1.00  0.00     0.006 A 
ENDBRANCH  69  86
ENDBRANCH  43  44
ENDBRANCH  36  38
ENDBRANCH  35  36
ENDBRANCH  34  35
ENDBRANCH  33  34
ENDBRANCH  32  33
ENDBRANCH  31  32
ENDBRANCH  30  31
ENDBRANCH   1  30
TORSDOF 24
ENDMDL
MODEL 3
REMARK VINA RESULT:      -9.2      2.707      4.692
REMARK SMILES CC[NH2+][C@]1(C(=O)OCCOCCOCCOCCOC(=O)c2ccc(-c3c4nc(c(-c5c(F)cccc5F)c5ccc([nH]5)c(-c5c(F)cccc5F)c5nc(c(-c6c(F)cccc6F)c6ccc3[nH]6)C=C5)C=C4)cc2)CCC[C@H]([N@@H+]2CCC[C@@H]2C(C)C)C1
REMARK SMILES IDX 13 1 12 2 11 3 10 4 9 5 8 6 7 7 5 8 6 9 4 10 76 11 88 12
REMARK SMILES IDX 77 13 79 14 78 15 3 16 2 19 1 20 80 21 81 22 84 23 82 25
REMARK SMILES IDX 83 26 85 27 86 28 87 29 14 30 15 31 16 32 17 33 18 34 19 35
REMARK SMILES IDX 20 36 21 37 22 38 23 39 75 40 24 41 74 42 25 43 26 44 27 45
REMARK SMILES IDX 68 46 28 47 73 48 67 49 69 50 29 51 72 52 66 53 65 54 30 56
REMARK SMILES IDX 56 57 39 58 55 59 40 60 43 61 54 62 70 63 41 64 42 65 53 67
REMARK SMILES IDX 71 68 44 69 31 70 32 71 37 72 33 73 34 74 36 75 38 76 35 77
REMARK SMILES IDX 57 78 58 79 63 80 59 81 60 82 62 83 64 84 61 85 45 86 46 87
REMARK SMILES IDX 51 88 47 89 48 90 50 91 52 92 49 93
REMARK H PARENT 3 17 3 18 80 24 69 55 43 66
REMARK Flexibility Score: inf
ROOT
ATOM      1  O   UNL A   1      27.945  32.780  22.498  1.00  0.00    -0.377 OA
ENDROOT
BRANCH   1   2
ATOM      2  C   UNL A   1      28.313  32.280  21.233  1.00  0.00     0.188 C 
BRANCH   2   3
ATOM      3  C   UNL A   1      28.063  30.775  21.084  1.00  0.00     0.188 C 
BRANCH   3   4
ATOM      4  O   UNL A   1      27.511  30.220  22.274  1.00  0.00    -0.376 OA
BRANCH   4   5
ATOM      5  C   UNL A   1      28.251  29.196  22.935  1.00  0.00     0.202 C 
BRANCH   5   6
ATOM      6  C   UNL A   1      29.689  28.852  22.504  1.00  0.00     0.261 C 
BRANCH   6   7
ATOM      7  O   UNL A   1      30.509  28.408  23.592  1.00  0.00    -0.459 OA
BRANCH   7   8
ATOM      8  C   UNL A   1      31.858  28.241  23.491  1.00  0.00     0.368 C 
ATOM      9  O   UNL A   1      32.634  29.089  23.075  1.00  0.00    -0.245 OA
BRANCH   8  10
ATOM     10  C   UNL A   1      32.248  26.845  24.092  1.00  0.00     0.200 C 
ATOM     11  C   UNL A   1      31.416  25.756  23.302  1.00  0.00     0.081 C 
ATOM     12  C   UNL A   1      33.690  26.411  23.945  1.00  0.00     0.146 C 
ATOM     13  C   UNL A   1      31.845  24.311  23.034  1.00  0.00     0.013 C 
ATOM     14  C   UNL A   1      33.847  24.894  24.341  1.00  0.00     0.191 C 
ATOM     15  C   UNL A   1      33.307  24.055  23.199  1.00  0.00     0.065 C 
BRANCH  10  16
ATOM     16  N   UNL A   1      32.033  26.849  25.564  1.00  0.00    -0.332 N 
ATOM     17  H   UNL A   1      31.030  26.964  25.705  1.00  0.00     0.347 HD
ATOM     18  H   UNL A   1      32.479  25.977  25.847  1.00  0.00     0.347 HD
BRANCH  16  19
ATOM     19  C   UNL A   1      32.679  27.817  26.435  1.00  0.00     0.257 C 
ATOM     20  C   UNL A   1      31.663  28.292  27.482  1.00  0.00     0.071 C 
ENDBRANCH  16  19
ENDBRANCH  10  16
BRANCH  14  21
ATOM     21  N   UNL A   1      33.480  24.490  25.746  1.00  0.00    -0.330 N 
ATOM     22  C   UNL A   1      34.628  23.716  26.300  1.00  0.00     0.262 C 
ATOM     23  C   UNL A   1      32.245  23.808  26.377  1.00  0.00     0.187 C 
ATOM     24  H   UNL A   1      33.186  25.444  25.958  1.00  0.00     0.348 HD
ATOM     25  C   UNL A   1      34.177  22.281  26.272  1.00  0.00     0.067 C 
ATOM     26  C   UNL A   1      32.737  22.370  26.685  1.00  0.00     0.071 C 
BRANCH  23  27
ATOM     27  C   UNL A   1      30.628  23.695  26.167  1.00  0.00     0.041 C 
ATOM     28  C   UNL A   1      30.008  22.579  27.068  1.00  0.00     0.014 C 
ATOM     29  C   UNL A   1      29.669  24.850  26.496  1.00  0.00     0.014 C 
ENDBRANCH  23  27
ENDBRANCH  14  21
ENDBRANCH   8  10
ENDBRANCH   7   8
ENDBRANCH   6   7
ENDBRANCH   5   6
ENDBRANCH   4   5
ENDBRANCH   3   4
ENDBRANCH   2   3
ENDBRANCH   1   2
BRANCH   1  30
ATOM     30  C   UNL A   1      28.882  33.660  23.104  1.00  0.00     0.188 C 
BRANCH  30  31
ATOM     31  C   UNL A   1      29.904  33.189  24.183  1.00  0.00     0.188 C 
BRANCH  31  32
ATOM     32  O   UNL A   1      29.891  31.813  24.537  1.00  0.00    -0.376 OA
BRANCH  32  33
ATOM     33  C   UNL A   1      30.797  31.313  25.508  1.00  0.00     0.202 C 
BRANCH  33  34
ATOM     34  C   UNL A   1      31.362  32.275  26.568  1.00  0.00     0.261 C 
BRANCH  34  35
ATOM     35  O   UNL A   1      32.638  31.930  27.116  1.00  0.00    -0.460 OA
BRANCH  35  36
ATOM     36  C   UNL A   1      33.350  32.931  27.687  1.00  0.00     0.338 C 
ATOM     37  O   UNL A   1      32.968  34.044  27.954  1.00  0.00    -0.246 OA
BRANCH  36  38
ATOM     38  C   UNL A   1      34.635  32.341  28.130  1.00  0.00     0.060 A 
ATOM     39  C   UNL A   1      34.699  30.955  28.326  1.00  0.00     0.016 A 
ATOM     40  C   UNL A   1      35.778  33.133  28.270  1.00  0.00     0.016 A 
ATOM     41  C   UNL A   1      35.907  30.355  28.672  1.00  0.00     0.010 A 
ATOM     42  C   UNL A   1      36.979  32.536  28.663  1.00  0.00     0.010 A 
ATOM     43  C   UNL A   1      37.038  31.150  28.893  1.00  0.00    -0.014 A 
BRANCH  43  44
ATOM     44  C   UNL A   1      38.191  30.566  29.614  1.00  0.00     0.031 A 
ATOM     45  C   UNL A   1      38.394  30.980  31.045  1.00  0.00     0.074 A 
ATOM     46  C   UNL A   1      39.009  29.669  29.039  1.00  0.00     0.049 A 
ATOM     47  N   UNL A   1      39.339  30.646  31.883  1.00  0.00    -0.248 NA
ATOM     48  C   UNL A   1      37.388  31.900  31.604  1.00  0.00     0.031 C 
ATOM     49  C   UNL A   1      38.881  29.150  27.680  1.00  0.00     0.029 A 
ATOM     50  N   UNL A   1      40.122  29.041  29.539  1.00  0.00    -0.354 N 
ATOM     51  C   UNL A   1      39.046  31.319  33.062  1.00  0.00     0.074 A 
ATOM     52  C   UNL A   1      37.854  32.101  32.825  1.00  0.00     0.031 C 
ATOM     53  C   UNL A   1      39.891  28.293  27.446  1.00  0.00     0.029 A 
ATOM     54  C   UNL A   1      40.752  28.230  28.627  1.00  0.00     0.049 A 
ATOM     55  H   UNL A   1      40.440  29.159  30.463  1.00  0.00     0.167 HD
ATOM     56  C   UNL A   1      39.711  31.285  34.239  1.00  0.00     0.037 A 
ATOM     57  C   UNL A   1      41.906  27.542  28.732  1.00  0.00     0.037 A 
ATOM     58  C   UNL A   1      40.901  30.511  34.466  1.00  0.00     0.049 A 
ATOM     59  C   UNL A   1      42.675  27.583  30.029  1.00  0.00     0.074 A 
ATOM     60  C   UNL A   1      41.643  30.397  35.627  1.00  0.00     0.029 A 
ATOM     61  N   UNL A   1      41.530  29.732  33.507  1.00  0.00    -0.354 N 
ATOM     62  N   UNL A   1      42.382  28.202  31.147  1.00  0.00    -0.248 NA
ATOM     63  C   UNL A   1      43.935  26.827  30.078  1.00  0.00     0.031 C 
ATOM     64  C   UNL A   1      42.757  29.598  35.353  1.00  0.00     0.029 A 
ATOM     65  C   UNL A   1      42.671  29.158  34.041  1.00  0.00     0.049 A 
ATOM     66  H   UNL A   1      41.212  29.605  32.584  1.00  0.00     0.167 HD
ATOM     67  C   UNL A   1      43.400  27.886  32.039  1.00  0.00     0.074 A 
ATOM     68  C   UNL A   1      44.312  27.009  31.336  1.00  0.00     0.031 C 
ATOM     69  C   UNL A   1      43.565  28.281  33.327  1.00  0.00     0.037 A 
BRANCH  56  70
ATOM     70  C   UNL A   1      39.186  32.141  35.353  1.00  0.00     0.057 A 
ATOM     71  C   UNL A   1      39.494  33.504  35.454  1.00  0.00     0.134 A 
ATOM     72  C   UNL A   1      38.341  31.596  36.328  1.00  0.00     0.134 A 
ATOM     73  F   UNL A   1      40.316  34.084  34.566  1.00  0.00    -0.206 F 
ATOM     74  C   UNL A   1      38.998  34.289  36.497  1.00  0.00     0.040 A 
ATOM     75  C   UNL A   1      37.816  32.376  37.358  1.00  0.00     0.040 A 
ATOM     76  F   UNL A   1      38.009  30.297  36.291  1.00  0.00    -0.206 F 
ATOM     77  C   UNL A   1      38.149  33.726  37.448  1.00  0.00     0.006 A 
ENDBRANCH  56  70
BRANCH  57  78
ATOM     78  C   UNL A   1      42.423  26.771  27.571  1.00  0.00     0.057 A 
ATOM     79  C   UNL A   1      42.044  25.443  27.349  1.00  0.00     0.134 A 
ATOM     80  C   UNL A   1      43.335  27.338  26.671  1.00  0.00     0.134 A 
ATOM     81  F   UNL A   1      41.194  24.833  28.190  1.00  0.00    -0.206 F 
ATOM     82  C   UNL A   1      42.564  24.700  26.287  1.00  0.00     0.040 A 
ATOM     83  C   UNL A   1      43.841  26.617  25.589  1.00  0.00     0.040 A 
ATOM     84  F   UNL A   1      43.743  28.606  26.828  1.00  0.00    -0.206 F 
ATOM     85  C   UNL A   1      43.462  25.290  25.400  1.00  0.00     0.006 A 
ENDBRANCH  57  78
BRANCH  69  86
ATOM     86  C   UNL A   1      44.749  27.737  34.075  1.00  0.00     0.057 A 
ATOM     87  C   UNL A   1      44.703  26.513  34.755  1.00  0.00     0.134 A 
ATOM     88  C   UNL A   1      45.970  28.424  34.067  1.00  0.00     0.134 A 
ATOM     89  F   UNL A   1      43.563  25.808  34.809  1.00  0.00    -0.206 F 
ATOM     90  C   UNL A   1      45.820  26.008  35.422  1.00  0.00     0.040 A 
ATOM     91  C   UNL A   1      47.103  27.913  34.702  1.00  0.00     0.040 A 
ATOM     92  F   UNL A   1      46.090  29.595  33.421  1.00  0.00    -0.206 F 
ATOM     93  C   UNL A   1      47.027  26.704  35.389  1.00  0.00     0.006 A 
ENDBRANCH  69  86
ENDBRANCH  43  44
ENDBRANCH  36  38
ENDBRANCH  35  36
ENDBRANCH  34  35
ENDBRANCH  33  34
ENDBRANCH  32  33
ENDBRANCH  31  32
ENDBRANCH  30  31
ENDBRANCH   1  30
TORSDOF 24
ENDMDL
