MODEL 1
REMARK VINA RESULT:     -10.8      0.000      0.000
REMARK SMILES Cc1cc([N+](=O)[O-])ccc1NC(=O)[C@@H]1[C@@H](C(=O)OCCOCCOCCOCCOC(=O)c2ccc(-c3c4nc(c(-c5c(F)cccc5F)c5ccc([nH]5)c(-c5c(F)cccc5F)c5nc(c(-c6c(F)cccc6F)c6ccc3[nH]6)C=C5)C=C4)cc2)[C@H]2C=C[C@@H]1C2
REMARK SMILES IDX 23 1 22 2 21 3 20 4 19 5 18 6 16 7 17 8 15 9 14 10 90 11
REMARK SMILES IDX 87 12 89 13 91 14 88 15 12 16 11 17 13 19 10 20 1 21 2 22
REMARK SMILES IDX 3 23 4 24 9 25 8 26 5 27 6 28 7 29 24 30 25 31 26 32 27 33
REMARK SMILES IDX 28 34 29 35 30 36 31 37 32 38 33 39 34 40 86 41 35 42 85 43
REMARK SMILES IDX 36 44 37 45 38 46 79 47 39 48 84 49 78 50 80 51 40 52 83 53
REMARK SMILES IDX 77 54 76 55 41 57 67 58 50 59 66 60 51 61 54 62 65 63 81 64
REMARK SMILES IDX 52 65 53 66 64 68 82 69 55 70 42 71 43 72 48 73 44 74 45 75
REMARK SMILES IDX 47 76 49 77 46 78 68 79 69 80 74 81 70 82 71 83 73 84 75 85
REMARK SMILES IDX 72 86 56 87 57 88 62 89 58 90 59 91 61 92 63 93 60 94
REMARK H PARENT 11 18 80 56 54 67
REMARK Flexibility Score: inf
ROOT
ATOM      1  C   UNL A   1      39.085  21.180  25.809  1.00  0.00     0.188 C 
ENDROOT
BRANCH   1   2
ATOM      2  C   UNL A   1      37.928  22.030  25.303  1.00  0.00     0.188 C 
BRANCH   2   3
ATOM      3  O   UNL A   1      37.611  23.273  25.922  1.00  0.00    -0.376 OA
BRANCH   3   4
ATOM      4  C   UNL A   1      36.214  23.620  25.813  1.00  0.00     0.202 C 
BRANCH   4   5
ATOM      5  C   UNL A   1      35.441  23.535  24.449  1.00  0.00     0.261 C 
BRANCH   5   6
ATOM      6  O   UNL A   1      34.530  22.455  24.164  1.00  0.00    -0.463 OA
BRANCH   6   7
ATOM      7  C   UNL A   1      33.397  22.922  23.688  1.00  0.00     0.310 C 
ATOM      8  O   UNL A   1      33.351  23.396  22.554  1.00  0.00    -0.252 OA
BRANCH   7   9
ATOM      9  C   UNL A   1      32.143  22.638  24.453  1.00  0.00     0.119 C 
ATOM     10  C   UNL A   1      31.649  24.082  24.712  1.00  0.00     0.100 C 
ATOM     11  C   UNL A   1      31.013  23.987  26.092  1.00  0.00     0.025 C 
ATOM     12  C   UNL A   1      31.964  21.965  25.822  1.00  0.00     0.027 C 
ATOM     13  C   UNL A   1      32.206  23.883  27.049  1.00  0.00    -0.027 C 
ATOM     14  C   UNL A   1      30.565  22.531  26.172  1.00  0.00     0.017 C 
ATOM     15  C   UNL A   1      32.759  22.671  26.881  1.00  0.00    -0.027 C 
BRANCH  10  16
ATOM     16  C   UNL A   1      30.921  24.529  23.457  1.00  0.00     0.228 C 
ATOM     17  N   UNL A   1      31.195  25.766  22.911  1.00  0.00    -0.326 N 
ATOM     18  H   UNL A   1      30.880  25.903  21.989  1.00  0.00     0.169 HD
ATOM     19  O   UNL A   1      30.148  23.778  22.857  1.00  0.00    -0.274 OA
BRANCH  17  20
ATOM     20  C   UNL A   1      31.866  26.864  23.496  1.00  0.00     0.044 A 
ATOM     21  C   UNL A   1      29.661  28.141  23.593  1.00  0.00     0.047 C 
ATOM     22  C   UNL A   1      31.096  27.924  23.982  1.00  0.00    -0.021 A 
ATOM     23  C   UNL A   1      31.689  28.812  24.903  1.00  0.00     0.091 A 
ATOM     24  C   UNL A   1      33.037  28.677  25.269  1.00  0.00     0.269 A 
ATOM     25  C   UNL A   1      33.255  26.903  23.711  1.00  0.00     0.033 A 
ATOM     26  C   UNL A   1      33.847  27.763  24.623  1.00  0.00     0.088 A 
BRANCH  24  27
ATOM     27  N   UNL A   1      33.609  29.488  26.342  1.00  0.00     0.062 N 
ATOM     28  O   UNL A   1      33.138  30.618  26.519  1.00  0.00    -0.258 OA
ATOM     29  O   UNL A   1      34.520  28.987  27.017  1.00  0.00    -0.258 OA
ENDBRANCH  24  27
ENDBRANCH  17  20
ENDBRANCH  10  16
ENDBRANCH   7   9
ENDBRANCH   6   7
ENDBRANCH   5   6
ENDBRANCH   4   5
ENDBRANCH   3   4
ENDBRANCH   2   3
ENDBRANCH   1   2
BRANCH   1  30
ATOM     30  O   UNL A   1      39.870  21.837  26.806  1.00  0.00    -0.377 OA
BRANCH  30  31
ATOM     31  C   UNL A   1      40.937  21.042  27.313  1.00  0.00     0.188 C 
BRANCH  31  32
ATOM     32  C   UNL A   1      41.295  19.913  26.366  1.00  0.00     0.188 C 
BRANCH  32  33
ATOM     33  O   UNL A   1      42.299  19.090  26.961  1.00  0.00    -0.376 OA
BRANCH  33  34
ATOM     34  C   UNL A   1      42.991  18.236  26.055  1.00  0.00     0.202 C 
BRANCH  34  35
ATOM     35  C   UNL A   1      43.793  18.996  24.991  1.00  0.00     0.261 C 
BRANCH  35  36
ATOM     36  O   UNL A   1      45.069  19.379  25.547  1.00  0.00    -0.460 OA
BRANCH  36  37
ATOM     37  C   UNL A   1      45.631  20.487  25.010  1.00  0.00     0.338 C 
ATOM     38  O   UNL A   1      46.796  20.565  24.602  1.00  0.00    -0.246 OA
BRANCH  37  39
ATOM     39  C   UNL A   1      44.768  21.675  25.240  1.00  0.00     0.060 A 
ATOM     40  C   UNL A   1      44.615  22.639  24.228  1.00  0.00     0.016 A 
ATOM     41  C   UNL A   1      44.415  21.990  26.549  1.00  0.00     0.016 A 
ATOM     42  C   UNL A   1      44.251  23.953  24.552  1.00  0.00     0.010 A 
ATOM     43  C   UNL A   1      44.194  23.312  26.876  1.00  0.00     0.010 A 
ATOM     44  C   UNL A   1      44.123  24.312  25.894  1.00  0.00    -0.014 A 
BRANCH  44  45
ATOM     45  C   UNL A   1      44.162  25.696  26.406  1.00  0.00     0.031 A 
ATOM     46  C   UNL A   1      42.869  26.464  26.596  1.00  0.00     0.074 A 
ATOM     47  C   UNL A   1      45.304  25.992  27.072  1.00  0.00     0.049 A 
ATOM     48  N   UNL A   1      42.722  27.666  27.060  1.00  0.00    -0.248 NA
ATOM     49  C   UNL A   1      41.575  25.914  26.176  1.00  0.00     0.031 C 
ATOM     50  C   UNL A   1      45.409  26.563  28.388  1.00  0.00     0.029 A 
ATOM     51  N   UNL A   1      46.622  25.654  26.849  1.00  0.00    -0.354 N 
ATOM     52  C   UNL A   1      41.367  27.876  27.351  1.00  0.00     0.074 A 
ATOM     53  C   UNL A   1      40.704  26.812  26.645  1.00  0.00     0.031 C 
ATOM     54  C   UNL A   1      46.657  26.836  28.762  1.00  0.00     0.029 A 
ATOM     55  C   UNL A   1      47.460  26.450  27.653  1.00  0.00     0.049 A 
ATOM     56  H   UNL A   1      46.930  24.959  26.222  1.00  0.00     0.167 HD
ATOM     57  C   UNL A   1      40.975  28.818  28.280  1.00  0.00     0.037 A 
ATOM     58  C   UNL A   1      48.380  27.265  27.094  1.00  0.00     0.037 A 
ATOM     59  C   UNL A   1      42.128  29.647  28.725  1.00  0.00     0.049 A 
ATOM     60  C   UNL A   1      47.879  28.705  27.123  1.00  0.00     0.074 A 
ATOM     61  C   UNL A   1      42.629  30.030  29.962  1.00  0.00     0.029 A 
ATOM     62  N   UNL A   1      43.105  30.047  27.801  1.00  0.00    -0.354 N 
ATOM     63  N   UNL A   1      46.614  29.042  27.313  1.00  0.00    -0.248 NA
ATOM     64  C   UNL A   1      48.750  29.879  27.113  1.00  0.00     0.031 C 
ATOM     65  C   UNL A   1      43.972  30.460  29.785  1.00  0.00     0.029 A 
ATOM     66  C   UNL A   1      44.261  30.462  28.431  1.00  0.00     0.049 A 
ATOM     67  H   UNL A   1      42.981  30.034  26.824  1.00  0.00     0.167 HD
ATOM     68  C   UNL A   1      46.500  30.402  27.449  1.00  0.00     0.074 A 
ATOM     69  C   UNL A   1      47.869  30.876  27.315  1.00  0.00     0.031 C 
ATOM     70  C   UNL A   1      45.342  31.093  27.689  1.00  0.00     0.037 A 
BRANCH  57  71
ATOM     71  C   UNL A   1      39.599  28.863  29.033  1.00  0.00     0.057 A 
ATOM     72  C   UNL A   1      38.442  29.417  28.423  1.00  0.00     0.134 A 
ATOM     73  C   UNL A   1      39.354  28.488  30.373  1.00  0.00     0.134 A 
ATOM     74  F   UNL A   1      38.424  29.759  27.130  1.00  0.00    -0.206 F 
ATOM     75  C   UNL A   1      37.219  29.648  29.092  1.00  0.00     0.040 A 
ATOM     76  C   UNL A   1      38.117  28.656  31.038  1.00  0.00     0.040 A 
ATOM     77  F   UNL A   1      40.292  27.956  31.157  1.00  0.00    -0.206 F 
ATOM     78  C   UNL A   1      37.048  29.263  30.409  1.00  0.00     0.006 A 
ENDBRANCH  57  71
BRANCH  58  79
ATOM     79  C   UNL A   1      49.278  26.384  26.265  1.00  0.00     0.057 A 
ATOM     80  C   UNL A   1      49.494  26.931  24.968  1.00  0.00     0.134 A 
ATOM     81  C   UNL A   1      50.413  25.807  26.867  1.00  0.00     0.134 A 
ATOM     82  F   UNL A   1      48.464  27.487  24.305  1.00  0.00    -0.206 F 
ATOM     83  C   UNL A   1      50.781  27.199  24.472  1.00  0.00     0.040 A 
ATOM     84  C   UNL A   1      51.710  26.045  26.356  1.00  0.00     0.040 A 
ATOM     85  F   UNL A   1      50.324  25.267  28.091  1.00  0.00    -0.206 F 
ATOM     86  C   UNL A   1      51.897  26.806  25.200  1.00  0.00     0.006 A 
ENDBRANCH  58  79
BRANCH  70  87
ATOM     87  C   UNL A   1      45.127  32.541  27.288  1.00  0.00     0.057 A 
ATOM     88  C   UNL A   1      44.278  32.911  26.239  1.00  0.00     0.134 A 
ATOM     89  C   UNL A   1      45.573  33.614  28.101  1.00  0.00     0.134 A 
ATOM     90  F   UNL A   1      43.684  31.997  25.460  1.00  0.00    -0.206 F 
ATOM     91  C   UNL A   1      43.941  34.243  25.978  1.00  0.00     0.040 A 
ATOM     92  C   UNL A   1      45.195  34.941  27.884  1.00  0.00     0.040 A 
ATOM     93  F   UNL A   1      46.360  33.432  29.170  1.00  0.00    -0.206 F 
ATOM     94  C   UNL A   1      44.386  35.262  26.810  1.00  0.00     0.006 A 
ENDBRANCH  70  87
ENDBRANCH  44  45
ENDBRANCH  37  39
ENDBRANCH  36  37
ENDBRANCH  35  36
ENDBRANCH  34  35
ENDBRANCH  33  34
ENDBRANCH  32  33
ENDBRANCH  31  32
ENDBRANCH  30  31
ENDBRANCH   1  30
TORSDOF 23
ENDMDL
MODEL 2
REMARK VINA RESULT:     -10.2      1.606      2.481
REMARK SMILES Cc1cc([N+](=O)[O-])ccc1NC(=O)[C@@H]1[C@@H](C(=O)OCCOCCOCCOCCOC(=O)c2ccc(-c3c4nc(c(-c5c(F)cccc5F)c5ccc([nH]5)c(-c5c(F)cccc5F)c5nc(c(-c6c(F)cccc6F)c6ccc3[nH]6)C=C5)C=C4)cc2)[C@H]2C=C[C@@H]1C2
REMARK SMILES IDX 23 1 22 2 21 3 20 4 19 5 18 6 16 7 17 8 15 9 14 10 90 11
REMARK SMILES IDX 87 12 89 13 91 14 88 15 12 16 11 17 13 19 10 20 1 21 2 22
REMARK SMILES IDX 3 23 4 24 9 25 8 26 5 27 6 28 7 29 24 30 25 31 26 32 27 33
REMARK SMILES IDX 28 34 29 35 30 36 31 37 32 38 33 39 34 40 86 41 35 42 85 43
REMARK SMILES IDX 36 44 37 45 38 46 79 47 39 48 84 49 78 50 80 51 40 52 83 53
REMARK SMILES IDX 77 54 76 55 41 57 67 58 50 59 66 60 51 61 54 62 65 63 81 64
REMARK SMILES IDX 52 65 53 66 64 68 82 69 55 70 42 71 43 72 48 73 44 74 45 75
REMARK SMILES IDX 47 76 49 77 46 78 68 79 69 80 74 81 70 82 71 83 73 84 75 85
REMARK SMILES IDX 72 86 56 87 57 88 62 89 58 90 59 91 61 92 63 93 60 94
REMARK H PARENT 11 18 80 56 54 67
REMARK Flexibility Score: inf
ROOT
ATOM      1  C   UNL A   1      39.190  21.845  26.500  1.00  0.00     0.188 C 
ENDROOT
BRANCH   1   2
ATOM      2  C   UNL A   1      38.637  23.205  26.096  1.00  0.00     0.188 C 
BRANCH   2   3
ATOM      3  O   UNL A   1      37.473  23.306  25.281  1.00  0.00    -0.376 OA
BRANCH   3   4
ATOM      4  C   UNL A   1      36.355  23.915  25.962  1.00  0.00     0.202 C 
BRANCH   4   5
ATOM      5  C   UNL A   1      34.940  24.033  25.294  1.00  0.00     0.261 C 
BRANCH   5   6
ATOM      6  O   UNL A   1      33.936  24.932  25.806  1.00  0.00    -0.463 OA
BRANCH   6   7
ATOM      7  C   UNL A   1      33.382  25.612  24.827  1.00  0.00     0.310 C 
ATOM      8  O   UNL A   1      32.662  25.043  24.009  1.00  0.00    -0.252 OA
BRANCH   7   9
ATOM      9  C   UNL A   1      33.452  27.105  24.881  1.00  0.00     0.119 C 
ATOM     10  C   UNL A   1      31.943  27.450  24.858  1.00  0.00     0.100 C 
ATOM     11  C   UNL A   1      31.895  28.740  24.051  1.00  0.00     0.025 C 
ATOM     12  C   UNL A   1      34.044  28.094  23.866  1.00  0.00     0.027 C 
ATOM     13  C   UNL A   1      32.141  28.290  22.607  1.00  0.00    -0.027 C 
ATOM     14  C   UNL A   1      33.266  29.361  24.302  1.00  0.00     0.017 C 
ATOM     15  C   UNL A   1      33.426  27.913  22.510  1.00  0.00    -0.027 C 
BRANCH  10  16
ATOM     16  C   UNL A   1      31.437  27.305  26.281  1.00  0.00     0.228 C 
ATOM     17  N   UNL A   1      31.789  28.239  27.233  1.00  0.00    -0.326 N 
ATOM     18  H   UNL A   1      31.253  28.229  28.058  1.00  0.00     0.169 HD
ATOM     19  O   UNL A   1      30.641  26.415  26.596  1.00  0.00    -0.274 OA
BRANCH  17  20
ATOM     20  C   UNL A   1      32.816  29.209  27.184  1.00  0.00     0.044 A 
ATOM     21  C   UNL A   1      31.092  30.980  26.557  1.00  0.00     0.047 C 
ATOM     22  C   UNL A   1      32.449  30.549  27.036  1.00  0.00    -0.021 A 
ATOM     23  C   UNL A   1      33.391  31.541  27.381  1.00  0.00     0.091 A 
ATOM     24  C   UNL A   1      34.686  31.193  27.795  1.00  0.00     0.269 A 
ATOM     25  C   UNL A   1      34.176  28.914  27.381  1.00  0.00     0.033 A 
ATOM     26  C   UNL A   1      35.108  29.878  27.733  1.00  0.00     0.088 A 
BRANCH  24  27
ATOM     27  N   UNL A   1      35.607  32.203  28.310  1.00  0.00     0.062 N 
ATOM     28  O   UNL A   1      35.888  32.161  29.514  1.00  0.00    -0.258 OA
ATOM     29  O   UNL A   1      36.062  33.030  27.505  1.00  0.00    -0.258 OA
ENDBRANCH  24  27
ENDBRANCH  17  20
ENDBRANCH  10  16
ENDBRANCH   7   9
ENDBRANCH   6   7
ENDBRANCH   5   6
ENDBRANCH   4   5
ENDBRANCH   3   4
ENDBRANCH   2   3
ENDBRANCH   1   2
BRANCH   1  30
ATOM     30  O   UNL A   1      40.547  21.903  26.947  1.00  0.00    -0.377 OA
BRANCH  30  31
ATOM     31  C   UNL A   1      41.116  20.626  27.219  1.00  0.00     0.188 C 
BRANCH  31  32
ATOM     32  C   UNL A   1      40.785  19.621  26.132  1.00  0.00     0.188 C 
BRANCH  32  33
ATOM     33  O   UNL A   1      41.955  19.349  25.359  1.00  0.00    -0.376 OA
BRANCH  33  34
ATOM     34  C   UNL A   1      42.867  18.429  25.951  1.00  0.00     0.202 C 
BRANCH  34  35
ATOM     35  C   UNL A   1      44.289  18.531  25.387  1.00  0.00     0.261 C 
BRANCH  35  36
ATOM     36  O   UNL A   1      44.344  19.622  24.443  1.00  0.00    -0.460 OA
BRANCH  36  37
ATOM     37  C   UNL A   1      45.143  20.657  24.793  1.00  0.00     0.338 C 
ATOM     38  O   UNL A   1      46.361  20.578  24.992  1.00  0.00    -0.246 OA
BRANCH  37  39
ATOM     39  C   UNL A   1      44.327  21.834  25.192  1.00  0.00     0.060 A 
ATOM     40  C   UNL A   1      44.086  22.868  24.269  1.00  0.00     0.016 A 
ATOM     41  C   UNL A   1      44.116  22.061  26.548  1.00  0.00     0.016 A 
ATOM     42  C   UNL A   1      43.780  24.159  24.718  1.00  0.00     0.010 A 
ATOM     43  C   UNL A   1      43.952  23.359  26.986  1.00  0.00     0.010 A 
ATOM     44  C   UNL A   1      43.797  24.425  26.088  1.00  0.00    -0.014 A 
BRANCH  44  45
ATOM     45  C   UNL A   1      43.911  25.770  26.686  1.00  0.00     0.031 A 
ATOM     46  C   UNL A   1      42.660  26.509  27.119  1.00  0.00     0.074 A 
ATOM     47  C   UNL A   1      45.139  26.031  27.195  1.00  0.00     0.049 A 
ATOM     48  N   UNL A   1      42.584  27.674  27.685  1.00  0.00    -0.248 NA
ATOM     49  C   UNL A   1      41.318  25.976  26.856  1.00  0.00     0.031 C 
ATOM     50  C   UNL A   1      45.437  26.508  28.518  1.00  0.00     0.029 A 
ATOM     51  N   UNL A   1      46.409  25.723  26.756  1.00  0.00    -0.354 N 
ATOM     52  C   UNL A   1      41.286  27.848  28.186  1.00  0.00     0.074 A 
ATOM     53  C   UNL A   1      40.526  26.829  27.512  1.00  0.00     0.031 C 
ATOM     54  C   UNL A   1      46.727  26.768  28.722  1.00  0.00     0.029 A 
ATOM     55  C   UNL A   1      47.357  26.470  27.483  1.00  0.00     0.049 A 
ATOM     56  H   UNL A   1      46.621  25.078  26.042  1.00  0.00     0.167 HD
ATOM     57  C   UNL A   1      41.036  28.717  29.229  1.00  0.00     0.037 A 
ATOM     58  C   UNL A   1      48.184  27.332  26.854  1.00  0.00     0.037 A 
ATOM     59  C   UNL A   1      42.242  29.525  29.556  1.00  0.00     0.049 A 
ATOM     60  C   UNL A   1      47.692  28.761  27.059  1.00  0.00     0.074 A 
ATOM     61  C   UNL A   1      42.921  29.826  30.730  1.00  0.00     0.029 A 
ATOM     62  N   UNL A   1      43.072  30.000  28.529  1.00  0.00    -0.354 N 
ATOM     63  N   UNL A   1      46.469  29.069  27.458  1.00  0.00    -0.248 NA
ATOM     64  C   UNL A   1      48.552  29.941  27.004  1.00  0.00     0.031 C 
ATOM     65  C   UNL A   1      44.223  30.281  30.387  1.00  0.00     0.029 A 
ATOM     66  C   UNL A   1      44.308  30.382  29.009  1.00  0.00     0.049 A 
ATOM     67  H   UNL A   1      42.804  30.055  27.583  1.00  0.00     0.167 HD
ATOM     68  C   UNL A   1      46.377  30.416  27.706  1.00  0.00     0.074 A 
ATOM     69  C   UNL A   1      47.710  30.912  27.405  1.00  0.00     0.031 C 
ATOM     70  C   UNL A   1      45.267  31.076  28.162  1.00  0.00     0.037 A 
BRANCH  57  71
ATOM     71  C   UNL A   1      39.786  28.694  30.178  1.00  0.00     0.057 A 
ATOM     72  C   UNL A   1      38.524  29.182  29.747  1.00  0.00     0.134 A 
ATOM     73  C   UNL A   1      39.764  28.316  31.539  1.00  0.00     0.134 A 
ATOM     74  F   UNL A   1      38.295  29.513  28.471  1.00  0.00    -0.206 F 
ATOM     75  C   UNL A   1      37.403  29.352  30.591  1.00  0.00     0.040 A 
ATOM     76  C   UNL A   1      38.632  28.423  32.380  1.00  0.00     0.040 A 
ATOM     77  F   UNL A   1      40.835  27.840  32.174  1.00  0.00    -0.206 F 
ATOM     78  C   UNL A   1      37.450  28.968  31.918  1.00  0.00     0.006 A 
ENDBRANCH  57  71
BRANCH  58  79
ATOM     79  C   UNL A   1      48.950  26.521  25.840  1.00  0.00     0.057 A 
ATOM     80  C   UNL A   1      48.761  27.023  24.520  1.00  0.00     0.134 A 
ATOM     81  C   UNL A   1      50.263  26.114  26.143  1.00  0.00     0.134 A 
ATOM     82  F   UNL A   1      47.536  27.419  24.131  1.00  0.00    -0.206 F 
ATOM     83  C   UNL A   1      49.839  27.415  23.707  1.00  0.00     0.040 A 
ATOM     84  C   UNL A   1      51.349  26.475  25.313  1.00  0.00     0.040 A 
ATOM     85  F   UNL A   1      50.553  25.630  27.360  1.00  0.00    -0.206 F 
ATOM     86  C   UNL A   1      51.142  27.194  24.133  1.00  0.00     0.006 A 
ENDBRANCH  58  79
BRANCH  70  87
ATOM     87  C   UNL A   1      44.995  32.546  27.903  1.00  0.00     0.057 A 
ATOM     88  C   UNL A   1      44.269  32.990  26.791  1.00  0.00     0.134 A 
ATOM     89  C   UNL A   1      45.241  33.536  28.887  1.00  0.00     0.134 A 
ATOM     90  F   UNL A   1      43.859  32.143  25.836  1.00  0.00    -0.206 F 
ATOM     91  C   UNL A   1      43.867  34.320  26.638  1.00  0.00     0.040 A 
ATOM     92  C   UNL A   1      44.793  34.853  28.771  1.00  0.00     0.040 A 
ATOM     93  F   UNL A   1      45.888  33.272  30.031  1.00  0.00    -0.206 F 
ATOM     94  C   UNL A   1      44.114  35.253  27.635  1.00  0.00     0.006 A 
ENDBRANCH  70  87
ENDBRANCH  44  45
ENDBRANCH  37  39
ENDBRANCH  36  37
ENDBRANCH  35  36
ENDBRANCH  34  35
ENDBRANCH  33  34
ENDBRANCH  32  33
ENDBRANCH  31  32
ENDBRANCH  30  31
ENDBRANCH   1  30
TORSDOF 23
ENDMDL
MODEL 3
REMARK VINA RESULT:     -10.2      4.480      7.614
REMARK SMILES Cc1cc([N+](=O)[O-])ccc1NC(=O)[C@@H]1[C@@H](C(=O)OCCOCCOCCOCCOC(=O)c2ccc(-c3c4nc(c(-c5c(F)cccc5F)c5ccc([nH]5)c(-c5c(F)cccc5F)c5nc(c(-c6c(F)cccc6F)c6ccc3[nH]6)C=C5)C=C4)cc2)[C@H]2C=C[C@@H]1C2
REMARK SMILES IDX 23 1 22 2 21 3 20 4 19 5 18 6 16 7 17 8 15 9 14 10 90 11
REMARK SMILES IDX 87 12 89 13 91 14 88 15 12 16 11 17 13 19 10 20 1 21 2 22
REMARK SMILES IDX 3 23 4 24 9 25 8 26 5 27 6 28 7 29 24 30 25 31 26 32 27 33
REMARK SMILES IDX 28 34 29 35 30 36 31 37 32 38 33 39 34 40 86 41 35 42 85 43
REMARK SMILES IDX 36 44 37 45 38 46 79 47 39 48 84 49 78 50 80 51 40 52 83 53
REMARK SMILES IDX 77 54 76 55 41 57 67 58 50 59 66 60 51 61 54 62 65 63 81 64
REMARK SMILES IDX 52 65 53 66 64 68 82 69 55 70 42 71 43 72 48 73 44 74 45 75
REMARK SMILES IDX 47 76 49 77 46 78 68 79 69 80 74 81 70 82 71 83 73 84 75 85
REMARK SMILES IDX 72 86 56 87 57 88 62 89 58 90 59 91 61 92 63 93 60 94
REMARK H PARENT 11 18 80 56 54 67
REMARK Flexibility Score: inf
ROOT
ATOM      1  C   UNL A   1      41.891  21.434  27.295  1.00  0.00     0.188 C 
ENDROOT
BRANCH   1   2
ATOM      2  C   UNL A   1      40.383  21.478  27.091  1.00  0.00     0.188 C 
BRANCH   2   3
ATOM      3  O   UNL A   1      39.824  21.510  25.781  1.00  0.00    -0.376 OA
BRANCH   3   4
ATOM      4  C   UNL A   1      38.506  22.098  25.742  1.00  0.00     0.202 C 
BRANCH   4   5
ATOM      5  C   UNL A   1      37.341  21.468  24.899  1.00  0.00     0.261 C 
BRANCH   5   6
ATOM      6  O   UNL A   1      36.449  22.285  24.117  1.00  0.00    -0.463 OA
BRANCH   6   7
ATOM      7  C   UNL A   1      35.448  22.713  24.854  1.00  0.00     0.310 C 
ATOM      8  O   UNL A   1      35.603  23.667  25.614  1.00  0.00    -0.252 OA
BRANCH   7   9
ATOM      9  C   UNL A   1      34.082  22.174  24.566  1.00  0.00     0.119 C 
ATOM     10  C   UNL A   1      33.279  23.496  24.488  1.00  0.00     0.100 C 
ATOM     11  C   UNL A   1      31.928  23.114  25.078  1.00  0.00     0.025 C 
ATOM     12  C   UNL A   1      33.182  21.278  25.429  1.00  0.00     0.027 C 
ATOM     13  C   UNL A   1      32.196  22.993  26.582  1.00  0.00    -0.027 C 
ATOM     14  C   UNL A   1      31.821  21.623  24.774  1.00  0.00     0.017 C 
ATOM     15  C   UNL A   1      32.939  21.892  26.777  1.00  0.00    -0.027 C 
BRANCH  10  16
ATOM     16  C   UNL A   1      33.483  24.053  23.091  1.00  0.00     0.228 C 
ATOM     17  N   UNL A   1      33.581  25.416  22.904  1.00  0.00    -0.326 N 
ATOM     18  H   UNL A   1      33.943  25.701  22.035  1.00  0.00     0.169 HD
ATOM     19  O   UNL A   1      33.651  23.311  22.119  1.00  0.00    -0.274 OA
BRANCH  17  20
ATOM     20  C   UNL A   1      33.232  26.459  23.792  1.00  0.00     0.044 A 
ATOM     21  C   UNL A   1      31.034  26.770  22.538  1.00  0.00     0.047 C 
ATOM     22  C   UNL A   1      31.937  26.979  23.720  1.00  0.00    -0.021 A 
ATOM     23  C   UNL A   1      31.449  27.710  24.823  1.00  0.00     0.091 A 
ATOM     24  C   UNL A   1      32.266  27.968  25.935  1.00  0.00     0.269 A 
ATOM     25  C   UNL A   1      34.077  26.929  24.812  1.00  0.00     0.033 A 
ATOM     26  C   UNL A   1      33.607  27.637  25.907  1.00  0.00     0.088 A 
BRANCH  24  27
ATOM     27  N   UNL A   1      31.718  28.578  27.145  1.00  0.00     0.062 N 
ATOM     28  O   UNL A   1      31.242  27.822  28.001  1.00  0.00    -0.258 OA
ATOM     29  O   UNL A   1      31.777  29.812  27.245  1.00  0.00    -0.258 OA
ENDBRANCH  24  27
ENDBRANCH  17  20
ENDBRANCH  10  16
ENDBRANCH   7   9
ENDBRANCH   6   7
ENDBRANCH   5   6
ENDBRANCH   4   5
ENDBRANCH   3   4
ENDBRANCH   2   3
ENDBRANCH   1   2
BRANCH   1  30
ATOM     30  O   UNL A   1      42.437  22.686  27.716  1.00  0.00    -0.377 OA
BRANCH  30  31
ATOM     31  C   UNL A   1      43.372  22.574  28.784  1.00  0.00     0.188 C 
BRANCH  31  32
ATOM     32  C   UNL A   1      44.268  23.795  28.876  1.00  0.00     0.188 C 
BRANCH  32  33
ATOM     33  O   UNL A   1      43.963  24.523  30.066  1.00  0.00    -0.376 OA
BRANCH  33  34
ATOM     34  C   UNL A   1      44.781  24.208  31.190  1.00  0.00     0.202 C 
BRANCH  34  35
ATOM     35  C   UNL A   1      45.297  25.445  31.935  1.00  0.00     0.261 C 
BRANCH  35  36
ATOM     36  O   UNL A   1      45.939  25.025  33.158  1.00  0.00    -0.460 OA
BRANCH  36  37
ATOM     37  C   UNL A   1      45.107  24.642  34.154  1.00  0.00     0.338 C 
ATOM     38  O   UNL A   1      44.954  23.478  34.543  1.00  0.00    -0.246 OA
BRANCH  37  39
ATOM     39  C   UNL A   1      44.186  25.751  34.520  1.00  0.00     0.060 A 
ATOM     40  C   UNL A   1      42.805  25.511  34.628  1.00  0.00     0.016 A 
ATOM     41  C   UNL A   1      44.650  27.058  34.405  1.00  0.00     0.016 A 
ATOM     42  C   UNL A   1      41.890  26.561  34.474  1.00  0.00     0.010 A 
ATOM     43  C   UNL A   1      43.746  28.060  34.117  1.00  0.00     0.010 A 
ATOM     44  C   UNL A   1      42.362  27.829  34.131  1.00  0.00    -0.014 A 
BRANCH  44  45
ATOM     45  C   UNL A   1      41.542  28.904  33.538  1.00  0.00     0.031 A 
ATOM     46  C   UNL A   1      41.008  30.017  34.419  1.00  0.00     0.074 A 
ATOM     47  C   UNL A   1      41.713  29.036  32.200  1.00  0.00     0.049 A 
ATOM     48  N   UNL A   1      40.305  31.044  34.058  1.00  0.00    -0.248 NA
ATOM     49  C   UNL A   1      41.184  29.999  35.876  1.00  0.00     0.031 C 
ATOM     50  C   UNL A   1      42.025  30.246  31.489  1.00  0.00     0.029 A 
ATOM     51  N   UNL A   1      41.880  28.111  31.192  1.00  0.00    -0.354 N 
ATOM     52  C   UNL A   1      40.281  31.968  35.113  1.00  0.00     0.074 A 
ATOM     53  C   UNL A   1      40.717  31.195  36.246  1.00  0.00     0.031 C 
ATOM     54  C   UNL A   1      42.045  30.106  30.165  1.00  0.00     0.029 A 
ATOM     55  C   UNL A   1      41.722  28.740  29.941  1.00  0.00     0.049 A 
ATOM     56  H   UNL A   1      42.080  27.156  31.325  1.00  0.00     0.167 HD
ATOM     57  C   UNL A   1      40.056  33.309  34.880  1.00  0.00     0.037 A 
ATOM     58  C   UNL A   1      40.750  28.345  29.090  1.00  0.00     0.037 A 
ATOM     59  C   UNL A   1      39.666  33.551  33.464  1.00  0.00     0.049 A 
ATOM     60  C   UNL A   1      39.592  29.337  29.134  1.00  0.00     0.074 A 
ATOM     61  C   UNL A   1      40.090  34.431  32.477  1.00  0.00     0.029 A 
ATOM     62  N   UNL A   1      38.818  32.650  32.804  1.00  0.00    -0.354 N 
ATOM     63  N   UNL A   1      39.409  30.213  30.108  1.00  0.00    -0.248 NA
ATOM     64  C   UNL A   1      38.651  29.551  28.036  1.00  0.00     0.031 C 
ATOM     65  C   UNL A   1      39.663  33.927  31.219  1.00  0.00     0.029 A 
ATOM     66  C   UNL A   1      38.872  32.811  31.434  1.00  0.00     0.049 A 
ATOM     67  H   UNL A   1      38.254  31.986  33.261  1.00  0.00     0.167 HD
ATOM     68  C   UNL A   1      38.385  31.068  29.790  1.00  0.00     0.074 A 
ATOM     69  C   UNL A   1      37.947  30.608  28.482  1.00  0.00     0.031 C 
ATOM     70  C   UNL A   1      37.945  32.117  30.554  1.00  0.00     0.037 A 
BRANCH  57  71
ATOM     71  C   UNL A   1      40.437  34.494  35.836  1.00  0.00     0.057 A 
ATOM     72  C   UNL A   1      41.726  35.089  35.798  1.00  0.00     0.134 A 
ATOM     73  C   UNL A   1      39.646  35.029  36.878  1.00  0.00     0.134 A 
ATOM     74  F   UNL A   1      42.608  34.794  34.836  1.00  0.00    -0.206 F 
ATOM     75  C   UNL A   1      42.197  36.036  36.734  1.00  0.00     0.040 A 
ATOM     76  C   UNL A   1      40.083  36.022  37.785  1.00  0.00     0.040 A 
ATOM     77  F   UNL A   1      38.401  34.620  37.122  1.00  0.00    -0.206 F 
ATOM     78  C   UNL A   1      41.373  36.513  37.736  1.00  0.00     0.006 A 
ENDBRANCH  57  71
BRANCH  58  79
ATOM     79  C   UNL A   1      40.994  26.884  28.817  1.00  0.00     0.057 A 
ATOM     80  C   UNL A   1      39.787  26.130  28.895  1.00  0.00     0.134 A 
ATOM     81  C   UNL A   1      41.860  26.520  27.768  1.00  0.00     0.134 A 
ATOM     82  F   UNL A   1      38.905  26.392  29.876  1.00  0.00    -0.206 F 
ATOM     83  C   UNL A   1      39.326  25.342  27.826  1.00  0.00     0.040 A 
ATOM     84  C   UNL A   1      41.414  25.699  26.706  1.00  0.00     0.040 A 
ATOM     85  F   UNL A   1      43.021  27.167  27.600  1.00  0.00    -0.206 F 
ATOM     86  C   UNL A   1      40.120  25.174  26.699  1.00  0.00     0.006 A 
ENDBRANCH  58  79
BRANCH  70  87
ATOM     87  C   UNL A   1      36.534  32.671  30.490  1.00  0.00     0.057 A 
ATOM     88  C   UNL A   1      35.582  32.418  31.485  1.00  0.00     0.134 A 
ATOM     89  C   UNL A   1      36.167  33.673  29.557  1.00  0.00     0.134 A 
ATOM     90  F   UNL A   1      35.836  31.584  32.504  1.00  0.00    -0.206 F 
ATOM     91  C   UNL A   1      34.343  33.064  31.523  1.00  0.00     0.040 A 
ATOM     92  C   UNL A   1      34.956  34.366  29.620  1.00  0.00     0.040 A 
ATOM     93  F   UNL A   1      36.976  34.066  28.563  1.00  0.00    -0.206 F 
ATOM     94  C   UNL A   1      34.032  34.052  30.599  1.00  0.00     0.006 A 
ENDBRANCH  70  87
ENDBRANCH  44  45
ENDBRANCH  37  39
ENDBRANCH  36  37
ENDBRANCH  35  36
ENDBRANCH  34  35
ENDBRANCH  33  34
ENDBRANCH  32  33
ENDBRANCH  31  32
ENDBRANCH  30  31
ENDBRANCH   1  30
TORSDOF 23
ENDMDL
