MODEL 1
REMARK VINA RESULT:     -10.1      0.000      0.000
REMARK SMILES C[C@@H](C(=O)OCCOCCOCCOCCOC(=O)c1ccc(-c2c3nc(c(-c4c(F)cccc4F)c4ccc([nH]4)c(-c4c(F)cccc4F)c4nc(c(-c5c(F)cccc5F)c5ccc2[nH]5)C=C4)C=C3)cc1)c1ccc(C[C@H]2CCCC2=O)c(Br)c1
REMARK SMILES IDX 10 1 9 2 8 3 7 4 6 5 5 6 3 7 4 8 2 9 1 10 74 11 75 12 87 13
REMARK SMILES IDX 76 14 85 15 77 16 86 17 78 18 79 19 80 20 83 21 81 22 82 23
REMARK SMILES IDX 84 24 11 25 12 26 13 27 14 28 15 29 16 30 17 31 18 32 19 33
REMARK SMILES IDX 20 34 21 35 73 36 22 37 72 38 23 39 24 40 25 41 66 42 26 43
REMARK SMILES IDX 71 44 65 45 67 46 27 47 70 48 64 49 63 50 28 52 54 53 37 54
REMARK SMILES IDX 53 55 38 56 41 57 52 58 68 59 39 60 40 61 51 63 69 64 42 65
REMARK SMILES IDX 29 66 30 67 35 68 31 69 32 70 34 71 36 72 33 73 55 74 56 75
REMARK SMILES IDX 61 76 57 77 58 78 60 79 62 80 59 81 43 82 44 83 49 84 45 85
REMARK SMILES IDX 46 86 48 87 50 88 47 89
REMARK H PARENT 67 51 41 62
REMARK Flexibility Score: inf
ROOT
ATOM      1  C   UNL A   1      33.583  35.760  29.005  1.00  0.00     0.188 C 
ENDROOT
BRANCH   1   2
ATOM      2  C   UNL A   1      34.398  34.695  28.255  1.00  0.00     0.188 C 
BRANCH   2   3
ATOM      3  O   UNL A   1      33.838  33.400  28.214  1.00  0.00    -0.376 OA
BRANCH   3   4
ATOM      4  C   UNL A   1      34.612  32.280  27.810  1.00  0.00     0.202 C 
BRANCH   4   5
ATOM      5  C   UNL A   1      34.133  30.812  27.759  1.00  0.00     0.261 C 
BRANCH   5   6
ATOM      6  O   UNL A   1      33.753  30.296  26.481  1.00  0.00    -0.463 OA
BRANCH   6   7
ATOM      7  C   UNL A   1      32.455  29.967  26.277  1.00  0.00     0.313 C 
ATOM      8  O   UNL A   1      31.556  30.186  27.081  1.00  0.00    -0.252 OA
BRANCH   7   9
ATOM      9  C   UNL A   1      32.209  29.382  24.877  1.00  0.00     0.126 C 
ATOM     10  C   UNL A   1      30.798  29.710  24.345  1.00  0.00     0.025 C 
BRANCH   9  11
ATOM     11  C   UNL A   1      32.649  27.917  24.719  1.00  0.00    -0.033 A 
ATOM     12  C   UNL A   1      33.652  27.545  23.815  1.00  0.00     0.005 A 
ATOM     13  C   UNL A   1      32.135  26.902  25.545  1.00  0.00     0.020 A 
ATOM     14  C   UNL A   1      34.119  26.222  23.747  1.00  0.00     0.005 A 
ATOM     15  C   UNL A   1      32.571  25.568  25.453  1.00  0.00     0.021 A 
ATOM     16  C   UNL A   1      33.589  25.206  24.562  1.00  0.00    -0.033 A 
ATOM     17  Br  UNL A   1      31.719  24.323  26.613  1.00  0.00    -0.051 Br
BRANCH  16  18
ATOM     18  C   UNL A   1      34.214  23.825  24.517  1.00  0.00     0.048 C 
BRANCH  18  19
ATOM     19  C   UNL A   1      35.719  23.681  24.770  1.00  0.00     0.060 C 
ATOM     20  C   UNL A   1      36.150  22.986  26.062  1.00  0.00     0.012 C 
ATOM     21  C   UNL A   1      36.407  22.853  23.713  1.00  0.00     0.136 C 
ATOM     22  C   UNL A   1      36.475  21.547  25.684  1.00  0.00     0.009 C 
ATOM     23  C   UNL A   1      37.034  21.605  24.269  1.00  0.00     0.076 C 
ATOM     24  O   UNL A   1      36.459  23.167  22.529  1.00  0.00    -0.299 OA
ENDBRANCH  18  19
ENDBRANCH  16  18
ENDBRANCH   9  11
ENDBRANCH   7   9
ENDBRANCH   6   7
ENDBRANCH   5   6
ENDBRANCH   4   5
ENDBRANCH   3   4
ENDBRANCH   2   3
ENDBRANCH   1   2
BRANCH   1  25
ATOM     25  O   UNL A   1      32.690  35.256  29.983  1.00  0.00    -0.377 OA
BRANCH  25  26
ATOM     26  C   UNL A   1      32.510  35.992  31.188  1.00  0.00     0.188 C 
BRANCH  26  27
ATOM     27  C   UNL A   1      33.710  36.529  32.001  1.00  0.00     0.188 C 
BRANCH  27  28
ATOM     28  O   UNL A   1      34.459  35.541  32.691  1.00  0.00    -0.376 OA
BRANCH  28  29
ATOM     29  C   UNL A   1      33.892  34.251  32.858  1.00  0.00     0.202 C 
BRANCH  29  30
ATOM     30  C   UNL A   1      34.525  33.095  32.068  1.00  0.00     0.261 C 
BRANCH  30  31
ATOM     31  O   UNL A   1      35.467  32.280  32.784  1.00  0.00    -0.460 OA
BRANCH  31  32
ATOM     32  C   UNL A   1      36.707  32.774  32.979  1.00  0.00     0.338 C 
ATOM     33  O   UNL A   1      37.045  33.626  33.783  1.00  0.00    -0.246 OA
BRANCH  32  34
ATOM     34  C   UNL A   1      37.646  31.962  32.178  1.00  0.00     0.060 A 
ATOM     35  C   UNL A   1      38.526  31.094  32.838  1.00  0.00     0.016 A 
ATOM     36  C   UNL A   1      37.657  32.057  30.785  1.00  0.00     0.016 A 
ATOM     37  C   UNL A   1      39.449  30.346  32.106  1.00  0.00     0.010 A 
ATOM     38  C   UNL A   1      38.598  31.325  30.055  1.00  0.00     0.010 A 
ATOM     39  C   UNL A   1      39.522  30.496  30.716  1.00  0.00    -0.014 A 
BRANCH  39  40
ATOM     40  C   UNL A   1      40.690  29.955  29.979  1.00  0.00     0.031 A 
ATOM     41  C   UNL A   1      41.853  30.873  29.716  1.00  0.00     0.074 A 
ATOM     42  C   UNL A   1      40.735  28.675  29.570  1.00  0.00     0.049 A 
ATOM     43  N   UNL A   1      42.954  30.653  29.044  1.00  0.00    -0.248 NA
ATOM     44  C   UNL A   1      41.755  32.226  30.286  1.00  0.00     0.031 C 
ATOM     45  C   UNL A   1      39.697  27.675  29.803  1.00  0.00     0.029 A 
ATOM     46  N   UNL A   1      41.699  28.004  28.859  1.00  0.00    -0.354 N 
ATOM     47  C   UNL A   1      43.674  31.839  29.107  1.00  0.00     0.074 A 
ATOM     48  C   UNL A   1      42.872  32.786  29.849  1.00  0.00     0.031 C 
ATOM     49  C   UNL A   1      40.072  26.518  29.229  1.00  0.00     0.029 A 
ATOM     50  C   UNL A   1      41.358  26.708  28.559  1.00  0.00     0.049 A 
ATOM     51  H   UNL A   1      42.553  28.413  28.590  1.00  0.00     0.167 HD
ATOM     52  C   UNL A   1      44.900  32.113  28.601  1.00  0.00     0.037 A 
ATOM     53  C   UNL A   1      41.999  25.793  27.806  1.00  0.00     0.037 A 
ATOM     54  C   UNL A   1      45.693  31.172  27.854  1.00  0.00     0.049 A 
ATOM     55  C   UNL A   1      43.324  26.147  27.178  1.00  0.00     0.074 A 
ATOM     56  C   UNL A   1      46.951  31.349  27.306  1.00  0.00     0.029 A 
ATOM     57  N   UNL A   1      45.299  29.879  27.545  1.00  0.00    -0.354 N 
ATOM     58  N   UNL A   1      44.008  27.263  27.257  1.00  0.00    -0.248 NA
ATOM     59  C   UNL A   1      43.967  25.110  26.357  1.00  0.00     0.031 C 
ATOM     60  C   UNL A   1      47.291  30.184  26.612  1.00  0.00     0.029 A 
ATOM     61  C   UNL A   1      46.277  29.257  26.787  1.00  0.00     0.049 A 
ATOM     62  H   UNL A   1      44.450  29.465  27.823  1.00  0.00     0.167 HD
ATOM     63  C   UNL A   1      45.173  27.052  26.526  1.00  0.00     0.074 A 
ATOM     64  C   UNL A   1      45.108  25.697  26.022  1.00  0.00     0.031 C 
ATOM     65  C   UNL A   1      46.204  27.903  26.296  1.00  0.00     0.037 A 
BRANCH  52  66
ATOM     66  C   UNL A   1      45.439  33.498  28.811  1.00  0.00     0.057 A 
ATOM     67  C   UNL A   1      45.114  34.560  27.955  1.00  0.00     0.134 A 
ATOM     68  C   UNL A   1      46.281  33.779  29.895  1.00  0.00     0.134 A 
ATOM     69  F   UNL A   1      44.327  34.358  26.888  1.00  0.00    -0.206 F 
ATOM     70  C   UNL A   1      45.630  35.843  28.154  1.00  0.00     0.040 A 
ATOM     71  C   UNL A   1      46.777  35.064  30.122  1.00  0.00     0.040 A 
ATOM     72  F   UNL A   1      46.630  32.811  30.755  1.00  0.00    -0.206 F 
ATOM     73  C   UNL A   1      46.459  36.099  29.244  1.00  0.00     0.006 A 
ENDBRANCH  52  66
BRANCH  53  74
ATOM     74  C   UNL A   1      41.392  24.455  27.582  1.00  0.00     0.057 A 
ATOM     75  C   UNL A   1      40.351  24.270  26.665  1.00  0.00     0.134 A 
ATOM     76  C   UNL A   1      41.822  23.332  28.300  1.00  0.00     0.134 A 
ATOM     77  F   UNL A   1      39.876  25.310  25.965  1.00  0.00    -0.206 F 
ATOM     78  C   UNL A   1      39.746  23.024  26.484  1.00  0.00     0.040 A 
ATOM     79  C   UNL A   1      41.247  22.075  28.108  1.00  0.00     0.040 A 
ATOM     80  F   UNL A   1      42.816  23.439  29.194  1.00  0.00    -0.206 F 
ATOM     81  C   UNL A   1      40.200  21.920  27.203  1.00  0.00     0.006 A 
ENDBRANCH  53  74
BRANCH  65  82
ATOM     82  C   UNL A   1      47.369  27.382  25.502  1.00  0.00     0.057 A 
ATOM     83  C   UNL A   1      47.464  27.553  24.116  1.00  0.00     0.134 A 
ATOM     84  C   UNL A   1      48.436  26.740  26.146  1.00  0.00     0.134 A 
ATOM     85  F   UNL A   1      46.473  28.151  23.436  1.00  0.00    -0.206 F 
ATOM     86  C   UNL A   1      48.563  27.082  23.394  1.00  0.00     0.040 A 
ATOM     87  C   UNL A   1      49.554  26.293  25.441  1.00  0.00     0.040 A 
ATOM     88  F   UNL A   1      48.419  26.553  27.475  1.00  0.00    -0.206 F 
ATOM     89  C   UNL A   1      49.616  26.456  24.058  1.00  0.00     0.006 A 
ENDBRANCH  65  82
ENDBRANCH  39  40
ENDBRANCH  32  34
ENDBRANCH  31  32
ENDBRANCH  30  31
ENDBRANCH  29  30
ENDBRANCH  28  29
ENDBRANCH  27  28
ENDBRANCH  26  27
ENDBRANCH  25  26
ENDBRANCH   1  25
TORSDOF 23
ENDMDL
MODEL 2
REMARK VINA RESULT:     -10.0      3.833      9.114
REMARK SMILES C[C@@H](C(=O)OCCOCCOCCOCCOC(=O)c1ccc(-c2c3nc(c(-c4c(F)cccc4F)c4ccc([nH]4)c(-c4c(F)cccc4F)c4nc(c(-c5c(F)cccc5F)c5ccc2[nH]5)C=C4)C=C3)cc1)c1ccc(C[C@H]2CCCC2=O)c(Br)c1
REMARK SMILES IDX 10 1 9 2 8 3 7 4 6 5 5 6 3 7 4 8 2 9 1 10 74 11 75 12 87 13
REMARK SMILES IDX 76 14 85 15 77 16 86 17 78 18 79 19 80 20 83 21 81 22 82 23
REMARK SMILES IDX 84 24 11 25 12 26 13 27 14 28 15 29 16 30 17 31 18 32 19 33
REMARK SMILES IDX 20 34 21 35 73 36 22 37 72 38 23 39 24 40 25 41 66 42 26 43
REMARK SMILES IDX 71 44 65 45 67 46 27 47 70 48 64 49 63 50 28 52 54 53 37 54
REMARK SMILES IDX 53 55 38 56 41 57 52 58 68 59 39 60 40 61 51 63 69 64 42 65
REMARK SMILES IDX 29 66 30 67 35 68 31 69 32 70 34 71 36 72 33 73 55 74 56 75
REMARK SMILES IDX 61 76 57 77 58 78 60 79 62 80 59 81 43 82 44 83 49 84 45 85
REMARK SMILES IDX 46 86 48 87 50 88 47 89
REMARK H PARENT 67 51 41 62
REMARK Flexibility Score: inf
ROOT
ATOM      1  C   UNL A   1      35.054  22.667  23.501  1.00  0.00     0.188 C 
ENDROOT
BRANCH   1   2
ATOM      2  C   UNL A   1      34.640  21.574  24.498  1.00  0.00     0.188 C 
BRANCH   2   3
ATOM      3  O   UNL A   1      33.445  20.884  24.202  1.00  0.00    -0.376 OA
BRANCH   3   4
ATOM      4  C   UNL A   1      32.193  21.347  24.686  1.00  0.00     0.202 C 
BRANCH   4   5
ATOM      5  C   UNL A   1      31.413  22.577  24.169  1.00  0.00     0.261 C 
BRANCH   5   6
ATOM      6  O   UNL A   1      30.644  23.308  25.126  1.00  0.00    -0.463 OA
BRANCH   6   7
ATOM      7  C   UNL A   1      31.297  24.090  26.018  1.00  0.00     0.313 C 
ATOM      8  O   UNL A   1      31.116  24.048  27.230  1.00  0.00    -0.252 OA
BRANCH   7   9
ATOM      9  C   UNL A   1      32.373  24.966  25.358  1.00  0.00     0.126 C 
ATOM     10  C   UNL A   1      33.726  24.888  26.095  1.00  0.00     0.025 C 
BRANCH   9  11
ATOM     11  C   UNL A   1      31.899  26.384  24.998  1.00  0.00    -0.033 A 
ATOM     12  C   UNL A   1      31.095  26.627  23.877  1.00  0.00     0.005 A 
ATOM     13  C   UNL A   1      32.167  27.483  25.833  1.00  0.00     0.020 A 
ATOM     14  C   UNL A   1      30.583  27.908  23.611  1.00  0.00     0.005 A 
ATOM     15  C   UNL A   1      31.690  28.775  25.548  1.00  0.00     0.021 A 
ATOM     16  C   UNL A   1      30.869  29.008  24.438  1.00  0.00    -0.033 A 
ATOM     17  Br  UNL A   1      32.204  30.147  26.762  1.00  0.00    -0.051 Br
BRANCH  16  18
ATOM     18  C   UNL A   1      30.194  30.337  24.155  1.00  0.00     0.048 C 
BRANCH  18  19
ATOM     19  C   UNL A   1      28.875  30.350  23.376  1.00  0.00     0.060 C 
ATOM     20  C   UNL A   1      27.845  31.413  23.759  1.00  0.00     0.012 C 
ATOM     21  C   UNL A   1      29.075  30.609  21.904  1.00  0.00     0.136 C 
ATOM     22  C   UNL A   1      27.999  32.540  22.746  1.00  0.00     0.009 C 
ATOM     23  C   UNL A   1      28.404  31.872  21.439  1.00  0.00     0.076 C 
ATOM     24  O   UNL A   1      29.708  29.867  21.161  1.00  0.00    -0.299 OA
ENDBRANCH  18  19
ENDBRANCH  16  18
ENDBRANCH   9  11
ENDBRANCH   7   9
ENDBRANCH   6   7
ENDBRANCH   5   6
ENDBRANCH   4   5
ENDBRANCH   3   4
ENDBRANCH   2   3
ENDBRANCH   1   2
BRANCH   1  25
ATOM     25  O   UNL A   1      36.427  23.020  23.531  1.00  0.00    -0.377 OA
BRANCH  25  26
ATOM     26  C   UNL A   1      36.960  23.590  24.721  1.00  0.00     0.188 C 
BRANCH  26  27
ATOM     27  C   UNL A   1      37.573  22.717  25.839  1.00  0.00     0.188 C 
BRANCH  27  28
ATOM     28  O   UNL A   1      38.579  21.812  25.412  1.00  0.00    -0.376 OA
BRANCH  28  29
ATOM     29  C   UNL A   1      38.198  20.496  25.045  1.00  0.00     0.202 C 
BRANCH  29  30
ATOM     30  C   UNL A   1      39.117  19.347  25.486  1.00  0.00     0.261 C 
BRANCH  30  31
ATOM     31  O   UNL A   1      40.034  19.642  26.552  1.00  0.00    -0.460 OA
BRANCH  31  32
ATOM     32  C   UNL A   1      41.354  19.583  26.281  1.00  0.00     0.338 C 
ATOM     33  O   UNL A   1      41.965  18.654  25.779  1.00  0.00    -0.246 OA
BRANCH  32  34
ATOM     34  C   UNL A   1      41.923  20.925  26.519  1.00  0.00     0.060 A 
ATOM     35  C   UNL A   1      42.247  21.303  27.829  1.00  0.00     0.016 A 
ATOM     36  C   UNL A   1      42.136  21.804  25.456  1.00  0.00     0.016 A 
ATOM     37  C   UNL A   1      42.748  22.579  28.085  1.00  0.00     0.010 A 
ATOM     38  C   UNL A   1      42.616  23.091  25.716  1.00  0.00     0.010 A 
ATOM     39  C   UNL A   1      42.889  23.496  27.035  1.00  0.00    -0.014 A 
BRANCH  39  40
ATOM     40  C   UNL A   1      43.115  24.930  27.338  1.00  0.00     0.031 A 
ATOM     41  C   UNL A   1      44.488  25.499  27.102  1.00  0.00     0.074 A 
ATOM     42  C   UNL A   1      42.126  25.720  27.791  1.00  0.00     0.049 A 
ATOM     43  N   UNL A   1      44.946  26.700  27.347  1.00  0.00    -0.248 NA
ATOM     44  C   UNL A   1      45.479  24.585  26.513  1.00  0.00     0.031 C 
ATOM     45  C   UNL A   1      40.745  25.302  28.017  1.00  0.00     0.029 A 
ATOM     46  N   UNL A   1      42.143  27.044  28.153  1.00  0.00    -0.354 N 
ATOM     47  C   UNL A   1      46.276  26.682  26.947  1.00  0.00     0.074 A 
ATOM     48  C   UNL A   1      46.562  25.344  26.480  1.00  0.00     0.031 C 
ATOM     49  C   UNL A   1      40.048  26.347  28.497  1.00  0.00     0.029 A 
ATOM     50  C   UNL A   1      40.942  27.495  28.645  1.00  0.00     0.049 A 
ATOM     51  H   UNL A   1      42.940  27.616  28.069  1.00  0.00     0.167 HD
ATOM     52  C   UNL A   1      47.178  27.692  26.959  1.00  0.00     0.037 A 
ATOM     53  C   UNL A   1      40.615  28.687  29.179  1.00  0.00     0.037 A 
ATOM     54  C   UNL A   1      46.893  29.021  27.434  1.00  0.00     0.049 A 
ATOM     55  C   UNL A   1      41.658  29.773  29.263  1.00  0.00     0.074 A 
ATOM     56  C   UNL A   1      47.736  30.118  27.480  1.00  0.00     0.029 A 
ATOM     57  N   UNL A   1      45.674  29.429  27.954  1.00  0.00    -0.354 N 
ATOM     58  N   UNL A   1      42.908  29.755  28.866  1.00  0.00    -0.248 NA
ATOM     59  C   UNL A   1      41.242  31.048  29.868  1.00  0.00     0.031 C 
ATOM     60  C   UNL A   1      47.044  31.173  28.084  1.00  0.00     0.029 A 
ATOM     61  C   UNL A   1      45.751  30.754  28.351  1.00  0.00     0.049 A 
ATOM     62  H   UNL A   1      44.873  28.862  28.028  1.00  0.00     0.167 HD
ATOM     63  C   UNL A   1      43.416  31.021  29.142  1.00  0.00     0.074 A 
ATOM     64  C   UNL A   1      42.336  31.785  29.728  1.00  0.00     0.031 C 
ATOM     65  C   UNL A   1      44.664  31.506  28.927  1.00  0.00     0.037 A 
BRANCH  52  66
ATOM     66  C   UNL A   1      48.565  27.385  26.474  1.00  0.00     0.057 A 
ATOM     67  C   UNL A   1      49.585  26.979  27.346  1.00  0.00     0.134 A 
ATOM     68  C   UNL A   1      48.881  27.478  25.112  1.00  0.00     0.134 A 
ATOM     69  F   UNL A   1      49.355  26.885  28.665  1.00  0.00    -0.206 F 
ATOM     70  C   UNL A   1      50.874  26.706  26.885  1.00  0.00     0.040 A 
ATOM     71  C   UNL A   1      50.158  27.177  24.636  1.00  0.00     0.040 A 
ATOM     72  F   UNL A   1      47.953  27.858  24.222  1.00  0.00    -0.206 F 
ATOM     73  C   UNL A   1      51.162  26.798  25.525  1.00  0.00     0.006 A 
ENDBRANCH  52  66
BRANCH  53  74
ATOM     74  C   UNL A   1      39.241  28.919  29.699  1.00  0.00     0.057 A 
ATOM     75  C   UNL A   1      38.220  29.402  28.873  1.00  0.00     0.134 A 
ATOM     76  C   UNL A   1      38.925  28.689  31.044  1.00  0.00     0.134 A 
ATOM     77  F   UNL A   1      38.465  29.668  27.582  1.00  0.00    -0.206 F 
ATOM     78  C   UNL A   1      36.941  29.665  29.367  1.00  0.00     0.040 A 
ATOM     79  C   UNL A   1      37.643  28.919  31.545  1.00  0.00     0.040 A 
ATOM     80  F   UNL A   1      39.858  28.227  31.890  1.00  0.00    -0.206 F 
ATOM     81  C   UNL A   1      36.648  29.417  30.707  1.00  0.00     0.006 A 
ENDBRANCH  53  74
BRANCH  65  82
ATOM     82  C   UNL A   1      44.920  32.944  29.283  1.00  0.00     0.057 A 
ATOM     83  C   UNL A   1      44.601  33.997  28.416  1.00  0.00     0.134 A 
ATOM     84  C   UNL A   1      45.453  33.281  30.537  1.00  0.00     0.134 A 
ATOM     85  F   UNL A   1      44.098  33.744  27.198  1.00  0.00    -0.206 F 
ATOM     86  C   UNL A   1      44.826  35.329  28.770  1.00  0.00     0.040 A 
ATOM     87  C   UNL A   1      45.652  34.609  30.914  1.00  0.00     0.040 A 
ATOM     88  F   UNL A   1      45.770  32.324  31.422  1.00  0.00    -0.206 F 
ATOM     89  C   UNL A   1      45.345  35.638  30.026  1.00  0.00     0.006 A 
ENDBRANCH  65  82
ENDBRANCH  39  40
ENDBRANCH  32  34
ENDBRANCH  31  32
ENDBRANCH  30  31
ENDBRANCH  29  30
ENDBRANCH  28  29
ENDBRANCH  27  28
ENDBRANCH  26  27
ENDBRANCH  25  26
ENDBRANCH   1  25
TORSDOF 23
ENDMDL
MODEL 3
REMARK VINA RESULT:      -9.9      3.536      8.533
REMARK SMILES C[C@@H](C(=O)OCCOCCOCCOCCOC(=O)c1ccc(-c2c3nc(c(-c4c(F)cccc4F)c4ccc([nH]4)c(-c4c(F)cccc4F)c4nc(c(-c5c(F)cccc5F)c5ccc2[nH]5)C=C4)C=C3)cc1)c1ccc(C[C@H]2CCCC2=O)c(Br)c1
REMARK SMILES IDX 10 1 9 2 8 3 7 4 6 5 5 6 3 7 4 8 2 9 1 10 74 11 75 12 87 13
REMARK SMILES IDX 76 14 85 15 77 16 86 17 78 18 79 19 80 20 83 21 81 22 82 23
REMARK SMILES IDX 84 24 11 25 12 26 13 27 14 28 15 29 16 30 17 31 18 32 19 33
REMARK SMILES IDX 20 34 21 35 73 36 22 37 72 38 23 39 24 40 25 41 66 42 26 43
REMARK SMILES IDX 71 44 65 45 67 46 27 47 70 48 64 49 63 50 28 52 54 53 37 54
REMARK SMILES IDX 53 55 38 56 41 57 52 58 68 59 39 60 40 61 51 63 69 64 42 65
REMARK SMILES IDX 29 66 30 67 35 68 31 69 32 70 34 71 36 72 33 73 55 74 56 75
REMARK SMILES IDX 61 76 57 77 58 78 60 79 62 80 59 81 43 82 44 83 49 84 45 85
REMARK SMILES IDX 46 86 48 87 50 88 47 89
REMARK H PARENT 67 51 41 62
REMARK Flexibility Score: inf
ROOT
ATOM      1  C   UNL A   1      35.080  24.754  25.559  1.00  0.00     0.188 C 
ENDROOT
BRANCH   1   2
ATOM      2  C   UNL A   1      34.320  26.025  25.152  1.00  0.00     0.188 C 
BRANCH   2   3
ATOM      3  O   UNL A   1      33.989  26.913  26.198  1.00  0.00    -0.376 OA
BRANCH   3   4
ATOM      4  C   UNL A   1      32.974  27.893  26.035  1.00  0.00     0.202 C 
BRANCH   4   5
ATOM      5  C   UNL A   1      31.505  27.624  25.637  1.00  0.00     0.261 C 
BRANCH   5   6
ATOM      6  O   UNL A   1      30.715  26.854  26.546  1.00  0.00    -0.463 OA
BRANCH   6   7
ATOM      7  C   UNL A   1      30.217  25.667  26.123  1.00  0.00     0.313 C 
ATOM      8  O   UNL A   1      29.403  25.001  26.753  1.00  0.00    -0.252 OA
BRANCH   7   9
ATOM      9  C   UNL A   1      30.702  25.294  24.713  1.00  0.00     0.126 C 
ATOM     10  C   UNL A   1      29.667  25.650  23.625  1.00  0.00     0.025 C 
BRANCH   9  11
ATOM     11  C   UNL A   1      31.311  23.886  24.609  1.00  0.00    -0.033 A 
ATOM     12  C   UNL A   1      31.237  23.141  23.425  1.00  0.00     0.005 A 
ATOM     13  C   UNL A   1      32.054  23.325  25.662  1.00  0.00     0.020 A 
ATOM     14  C   UNL A   1      31.881  21.898  23.304  1.00  0.00     0.005 A 
ATOM     15  C   UNL A   1      32.667  22.063  25.560  1.00  0.00     0.021 A 
ATOM     16  C   UNL A   1      32.608  21.333  24.366  1.00  0.00    -0.033 A 
ATOM     17  Br  UNL A   1      33.582  21.445  27.109  1.00  0.00    -0.051 Br
BRANCH  16  18
ATOM     18  C   UNL A   1      33.371  20.042  24.133  1.00  0.00     0.048 C 
BRANCH  18  19
ATOM     19  C   UNL A   1      32.586  18.754  23.863  1.00  0.00     0.060 C 
ATOM     20  C   UNL A   1      32.966  17.948  22.621  1.00  0.00     0.012 C 
ATOM     21  C   UNL A   1      32.744  17.738  24.968  1.00  0.00     0.136 C 
ATOM     22  C   UNL A   1      33.877  16.827  23.102  1.00  0.00     0.009 C 
ATOM     23  C   UNL A   1      33.389  16.464  24.497  1.00  0.00     0.076 C 
ATOM     24  O   UNL A   1      32.380  17.926  26.123  1.00  0.00    -0.299 OA
ENDBRANCH  18  19
ENDBRANCH  16  18
ENDBRANCH   9  11
ENDBRANCH   7   9
ENDBRANCH   6   7
ENDBRANCH   5   6
ENDBRANCH   4   5
ENDBRANCH   3   4
ENDBRANCH   2   3
ENDBRANCH   1   2
BRANCH   1  25
ATOM     25  O   UNL A   1      35.687  24.047  24.491  1.00  0.00    -0.377 OA
BRANCH  25  26
ATOM     26  C   UNL A   1      36.855  23.279  24.757  1.00  0.00     0.188 C 
BRANCH  26  27
ATOM     27  C   UNL A   1      37.024  21.841  24.218  1.00  0.00     0.188 C 
BRANCH  27  28
ATOM     28  O   UNL A   1      37.209  20.843  25.210  1.00  0.00    -0.376 OA
BRANCH  28  29
ATOM     29  C   UNL A   1      38.192  19.843  24.992  1.00  0.00     0.202 C 
BRANCH  29  30
ATOM     30  C   UNL A   1      39.476  19.922  25.831  1.00  0.00     0.261 C 
BRANCH  30  31
ATOM     31  O   UNL A   1      40.669  19.410  25.214  1.00  0.00    -0.460 OA
BRANCH  31  32
ATOM     32  C   UNL A   1      41.734  19.169  26.005  1.00  0.00     0.338 C 
ATOM     33  O   UNL A   1      42.229  18.086  26.268  1.00  0.00    -0.246 OA
BRANCH  32  34
ATOM     34  C   UNL A   1      42.336  20.470  26.358  1.00  0.00     0.060 A 
ATOM     35  C   UNL A   1      42.218  20.939  27.674  1.00  0.00     0.016 A 
ATOM     36  C   UNL A   1      43.015  21.223  25.398  1.00  0.00     0.016 A 
ATOM     37  C   UNL A   1      42.744  22.184  28.022  1.00  0.00     0.010 A 
ATOM     38  C   UNL A   1      43.520  22.480  25.742  1.00  0.00     0.010 A 
ATOM     39  C   UNL A   1      43.354  22.980  27.046  1.00  0.00    -0.014 A 
BRANCH  39  40
ATOM     40  C   UNL A   1      43.626  24.410  27.330  1.00  0.00     0.031 A 
ATOM     41  C   UNL A   1      45.046  24.898  27.228  1.00  0.00     0.074 A 
ATOM     42  C   UNL A   1      42.641  25.266  27.651  1.00  0.00     0.049 A 
ATOM     43  N   UNL A   1      45.542  26.081  27.486  1.00  0.00    -0.248 NA
ATOM     44  C   UNL A   1      46.042  23.913  26.776  1.00  0.00     0.031 C 
ATOM     45  C   UNL A   1      41.223  24.929  27.737  1.00  0.00     0.029 A 
ATOM     46  N   UNL A   1      42.693  26.599  27.974  1.00  0.00    -0.354 N 
ATOM     47  C   UNL A   1      46.904  25.979  27.234  1.00  0.00     0.074 A 
ATOM     48  C   UNL A   1      47.163  24.613  26.839  1.00  0.00     0.031 C 
ATOM     49  C   UNL A   1      40.538  26.025  28.109  1.00  0.00     0.029 A 
ATOM     50  C   UNL A   1      41.474  27.130  28.320  1.00  0.00     0.049 A 
ATOM     51  H   UNL A   1      43.525  27.126  27.960  1.00  0.00     0.167 HD
ATOM     52  C   UNL A   1      47.855  26.941  27.314  1.00  0.00     0.037 A 
ATOM     53  C   UNL A   1      41.158  28.355  28.780  1.00  0.00     0.037 A 
ATOM     54  C   UNL A   1      47.596  28.299  27.717  1.00  0.00     0.049 A 
ATOM     55  C   UNL A   1      42.245  29.387  28.945  1.00  0.00     0.074 A 
ATOM     56  C   UNL A   1      48.489  29.351  27.823  1.00  0.00     0.029 A 
ATOM     57  N   UNL A   1      46.353  28.788  28.090  1.00  0.00    -0.354 N 
ATOM     58  N   UNL A   1      43.528  29.290  28.688  1.00  0.00    -0.248 NA
ATOM     59  C   UNL A   1      41.839  30.702  29.465  1.00  0.00     0.031 C 
ATOM     60  C   UNL A   1      47.797  30.460  28.318  1.00  0.00     0.029 A 
ATOM     61  C   UNL A   1      46.461  30.120  28.454  1.00  0.00     0.049 A 
ATOM     62  H   UNL A   1      45.518  28.266  28.093  1.00  0.00     0.167 HD
ATOM     63  C   UNL A   1      44.073  30.536  28.980  1.00  0.00     0.074 A 
ATOM     64  C   UNL A   1      42.981  31.375  29.424  1.00  0.00     0.031 C 
ATOM     65  C   UNL A   1      45.363  30.947  28.888  1.00  0.00     0.037 A 
BRANCH  52  66
ATOM     66  C   UNL A   1      49.266  26.545  26.991  1.00  0.00     0.057 A 
ATOM     67  C   UNL A   1      49.820  26.737  25.718  1.00  0.00     0.134 A 
ATOM     68  C   UNL A   1      50.091  25.981  27.974  1.00  0.00     0.134 A 
ATOM     69  F   UNL A   1      49.082  27.257  24.726  1.00  0.00    -0.206 F 
ATOM     70  C   UNL A   1      51.131  26.355  25.426  1.00  0.00     0.040 A 
ATOM     71  C   UNL A   1      51.412  25.624  27.702  1.00  0.00     0.040 A 
ATOM     72  F   UNL A   1      49.626  25.772  29.215  1.00  0.00    -0.206 F 
ATOM     73  C   UNL A   1      51.934  25.803  26.423  1.00  0.00     0.006 A 
ENDBRANCH  52  66
BRANCH  53  74
ATOM     74  C   UNL A   1      39.752  28.677  29.141  1.00  0.00     0.057 A 
ATOM     75  C   UNL A   1      39.257  28.440  30.428  1.00  0.00     0.134 A 
ATOM     76  C   UNL A   1      38.862  29.205  28.198  1.00  0.00     0.134 A 
ATOM     77  F   UNL A   1      40.051  27.910  31.370  1.00  0.00    -0.206 F 
ATOM     78  C   UNL A   1      37.925  28.697  30.760  1.00  0.00     0.040 A 
ATOM     79  C   UNL A   1      37.537  29.496  28.523  1.00  0.00     0.040 A 
ATOM     80  F   UNL A   1      39.272  29.456  26.945  1.00  0.00    -0.206 F 
ATOM     81  C   UNL A   1      37.062  29.233  29.805  1.00  0.00     0.006 A 
ENDBRANCH  53  74
BRANCH  65  82
ATOM     82  C   UNL A   1      45.659  32.381  29.228  1.00  0.00     0.057 A 
ATOM     83  C   UNL A   1      46.037  32.780  30.516  1.00  0.00     0.134 A 
ATOM     84  C   UNL A   1      45.610  33.371  28.236  1.00  0.00     0.134 A 
ATOM     85  F   UNL A   1      46.096  31.885  31.515  1.00  0.00    -0.206 F 
ATOM     86  C   UNL A   1      46.330  34.113  30.813  1.00  0.00     0.040 A 
ATOM     87  C   UNL A   1      45.931  34.701  28.513  1.00  0.00     0.040 A 
ATOM     88  F   UNL A   1      45.268  33.059  26.977  1.00  0.00    -0.206 F 
ATOM     89  C   UNL A   1      46.284  35.077  29.807  1.00  0.00     0.006 A 
ENDBRANCH  65  82
ENDBRANCH  39  40
ENDBRANCH  32  34
ENDBRANCH  31  32
ENDBRANCH  30  31
ENDBRANCH  29  30
ENDBRANCH  28  29
ENDBRANCH  27  28
ENDBRANCH  26  27
ENDBRANCH  25  26
ENDBRANCH   1  25
TORSDOF 23
ENDMDL
