MODEL 1
REMARK VINA RESULT:      -7.1      0.000      0.000
REMARK SMILES CS(=O)(=O)c1ccc(/C=C(/C(=O)OCCOCCOCCOCCOC(=O)c2ccc(-c3c4nc(c(-c5c(F)cccc5F)c5ccc([nH]5)c(-c5c(F)cccc5F)c5nc(c(-c6c(F)cccc6F)c6ccc3[nH]6)C=C5)C=C4)cc2)c2cccc(-c3ccc(S(C)(=O)=O)cc3)c2)cc1
REMARK SMILES IDX 18 1 17 2 16 3 15 4 14 5 13 6 11 7 12 8 10 9 9 10 8 11 5 12
REMARK SMILES IDX 6 13 99 14 7 15 98 16 2 17 1 18 3 19 4 20 82 21 83 22 97 23
REMARK SMILES IDX 84 24 86 25 85 26 87 27 88 28 96 29 89 30 95 31 90 32 91 33
REMARK SMILES IDX 92 34 93 35 94 36 19 37 20 38 21 39 22 40 23 41 24 42 25 43
REMARK SMILES IDX 26 44 27 45 28 46 29 47 81 48 30 49 80 50 31 51 32 52 33 53
REMARK SMILES IDX 74 54 34 55 79 56 73 57 75 58 35 59 78 60 72 61 71 62 36 64
REMARK SMILES IDX 62 65 45 66 61 67 46 68 49 69 60 70 76 71 47 72 48 73 59 75
REMARK SMILES IDX 77 76 50 77 37 78 38 79 43 80 39 81 40 82 42 83 44 84 41 85
REMARK SMILES IDX 63 86 64 87 69 88 65 89 66 90 68 91 70 92 67 93 51 94 52 95
REMARK SMILES IDX 57 96 53 97 54 98 56 99 58 100 55 101
REMARK H PARENT 75 63 49 74
REMARK Flexibility Score: inf
ROOT
ATOM      1  C   UNL A   1      37.501  33.250  34.175  1.00  0.00     0.188 C 
ENDROOT
BRANCH   1   2
ATOM      2  C   UNL A   1      38.387  34.520  34.177  1.00  0.00     0.188 C 
BRANCH   2   3
ATOM      3  O   UNL A   1      38.408  35.202  35.420  1.00  0.00    -0.376 OA
BRANCH   3   4
ATOM      4  C   UNL A   1      39.638  35.239  36.121  1.00  0.00     0.202 C 
BRANCH   4   5
ATOM      5  C   UNL A   1      40.289  33.899  36.500  1.00  0.00     0.261 C 
BRANCH   5   6
ATOM      6  O   UNL A   1      40.796  33.119  35.407  1.00  0.00    -0.460 OA
BRANCH   6   7
ATOM      7  C   UNL A   1      41.766  32.220  35.696  1.00  0.00     0.338 C 
ATOM      8  O   UNL A   1      42.249  32.036  36.804  1.00  0.00    -0.246 OA
BRANCH   7   9
ATOM      9  C   UNL A   1      42.056  31.359  34.501  1.00  0.00     0.067 C 
ATOM     10  C   UNL A   1      42.920  30.320  34.636  1.00  0.00     0.024 C 
BRANCH  10  11
ATOM     11  C   UNL A   1      43.159  29.173  33.721  1.00  0.00    -0.025 A 
ATOM     12  C   UNL A   1      44.178  26.997  32.268  1.00  0.00     0.067 A 
ATOM     13  C   UNL A   1      43.228  26.781  33.260  1.00  0.00     0.021 A 
ATOM     14  C   UNL A   1      44.538  28.294  31.906  1.00  0.00     0.021 A 
ATOM     15  C   UNL A   1      42.682  27.872  33.937  1.00  0.00     0.009 A 
ATOM     16  C   UNL A   1      44.028  29.376  32.635  1.00  0.00     0.009 A 
BRANCH  12  17
ATOM     17  S   UNL A   1      45.005  25.598  31.555  1.00  0.00     0.175 S 
ATOM     18  C   UNL A   1      46.458  26.284  30.811  1.00  0.00     0.163 C 
ATOM     19  O   UNL A   1      44.149  25.103  30.495  1.00  0.00    -0.224 OA
ATOM     20  O   UNL A   1      45.433  24.736  32.641  1.00  0.00    -0.224 OA
ENDBRANCH  12  17
ENDBRANCH  10  11
BRANCH   9  21
ATOM     21  C   UNL A   1      41.284  31.626  33.271  1.00  0.00    -0.010 A 
ATOM     22  C   UNL A   1      40.021  31.066  33.025  1.00  0.00     0.009 A 
ATOM     23  C   UNL A   1      41.770  32.581  32.387  1.00  0.00     0.017 A 
ATOM     24  C   UNL A   1      39.265  31.456  31.919  1.00  0.00     0.001 A 
ATOM     25  C   UNL A   1      40.999  33.032  31.305  1.00  0.00    -0.018 A 
ATOM     26  C   UNL A   1      39.749  32.445  31.068  1.00  0.00     0.009 A 
BRANCH  25  27
ATOM     27  C   UNL A   1      41.499  34.173  30.541  1.00  0.00    -0.018 A 
ATOM     28  C   UNL A   1      42.753  34.736  30.830  1.00  0.00     0.010 A 
ATOM     29  C   UNL A   1      40.802  34.607  29.400  1.00  0.00     0.010 A 
ATOM     30  C   UNL A   1      43.312  35.686  29.978  1.00  0.00     0.021 A 
ATOM     31  C   UNL A   1      41.353  35.551  28.544  1.00  0.00     0.021 A 
ATOM     32  C   UNL A   1      42.605  36.084  28.841  1.00  0.00     0.067 A 
BRANCH  32  33
ATOM     33  S   UNL A   1      43.320  37.286  27.754  1.00  0.00     0.175 S 
ATOM     34  C   UNL A   1      41.916  38.260  27.284  1.00  0.00     0.163 C 
ATOM     35  O   UNL A   1      44.211  38.115  28.542  1.00  0.00    -0.224 OA
ATOM     36  O   UNL A   1      43.791  36.591  26.571  1.00  0.00    -0.224 OA
ENDBRANCH  32  33
ENDBRANCH  25  27
ENDBRANCH   9  21
ENDBRANCH   7   9
ENDBRANCH   6   7
ENDBRANCH   5   6
ENDBRANCH   4   5
ENDBRANCH   3   4
ENDBRANCH   2   3
ENDBRANCH   1   2
BRANCH   1  37
ATOM     37  O   UNL A   1      36.163  33.338  34.630  1.00  0.00    -0.377 OA
BRANCH  37  38
ATOM     38  C   UNL A   1      35.116  33.428  33.671  1.00  0.00     0.188 C 
BRANCH  38  39
ATOM     39  C   UNL A   1      35.440  33.490  32.159  1.00  0.00     0.188 C 
BRANCH  39  40
ATOM     40  O   UNL A   1      34.312  33.433  31.300  1.00  0.00    -0.376 OA
BRANCH  40  41
ATOM     41  C   UNL A   1      34.499  32.925  29.990  1.00  0.00     0.202 C 
BRANCH  41  42
ATOM     42  C   UNL A   1      35.505  31.780  29.821  1.00  0.00     0.261 C 
BRANCH  42  43
ATOM     43  O   UNL A   1      35.533  31.148  28.533  1.00  0.00    -0.460 OA
BRANCH  43  44
ATOM     44  C   UNL A   1      35.700  29.810  28.499  1.00  0.00     0.338 C 
ATOM     45  O   UNL A   1      34.840  28.959  28.347  1.00  0.00    -0.246 OA
BRANCH  44  46
ATOM     46  C   UNL A   1      37.154  29.549  28.481  1.00  0.00     0.060 A 
ATOM     47  C   UNL A   1      37.902  29.916  27.354  1.00  0.00     0.016 A 
ATOM     48  C   UNL A   1      37.777  28.979  29.593  1.00  0.00     0.016 A 
ATOM     49  C   UNL A   1      39.278  29.690  27.328  1.00  0.00     0.010 A 
ATOM     50  C   UNL A   1      39.149  28.727  29.554  1.00  0.00     0.010 A 
ATOM     51  C   UNL A   1      39.897  29.053  28.409  1.00  0.00    -0.014 A 
BRANCH  51  52
ATOM     52  C   UNL A   1      41.277  28.534  28.260  1.00  0.00     0.031 A 
ATOM     53  C   UNL A   1      42.416  29.506  28.390  1.00  0.00     0.074 A 
ATOM     54  C   UNL A   1      41.518  27.233  28.025  1.00  0.00     0.049 A 
ATOM     55  N   UNL A   1      43.700  29.309  28.250  1.00  0.00    -0.248 NA
ATOM     56  C   UNL A   1      42.049  30.894  28.718  1.00  0.00     0.031 C 
ATOM     57  C   UNL A   1      40.501  26.191  27.916  1.00  0.00     0.029 A 
ATOM     58  N   UNL A   1      42.705  26.576  27.824  1.00  0.00    -0.354 N 
ATOM     59  C   UNL A   1      44.293  30.547  28.460  1.00  0.00     0.074 A 
ATOM     60  C   UNL A   1      43.227  31.494  28.704  1.00  0.00     0.031 C 
ATOM     61  C   UNL A   1      41.110  25.021  27.650  1.00  0.00     0.029 A 
ATOM     62  C   UNL A   1      42.551  25.242  27.537  1.00  0.00     0.049 A 
ATOM     63  H   UNL A   1      43.583  27.018  27.879  1.00  0.00     0.167 HD
ATOM     64  C   UNL A   1      45.610  30.865  28.456  1.00  0.00     0.037 A 
ATOM     65  C   UNL A   1      43.469  24.316  27.197  1.00  0.00     0.037 A 
ATOM     66  C   UNL A   1      46.664  29.920  28.203  1.00  0.00     0.049 A 
ATOM     67  C   UNL A   1      44.922  24.705  27.125  1.00  0.00     0.074 A 
ATOM     68  C   UNL A   1      48.031  30.133  28.202  1.00  0.00     0.029 A 
ATOM     69  N   UNL A   1      46.468  28.584  27.887  1.00  0.00    -0.354 N 
ATOM     70  N   UNL A   1      45.481  25.869  27.359  1.00  0.00    -0.248 NA
ATOM     71  C   UNL A   1      45.874  23.651  26.746  1.00  0.00     0.031 C 
ATOM     72  C   UNL A   1      48.658  28.943  27.821  1.00  0.00     0.029 A 
ATOM     73  C   UNL A   1      47.686  27.968  27.653  1.00  0.00     0.049 A 
ATOM     74  H   UNL A   1      45.591  28.138  27.838  1.00  0.00     0.167 HD
ATOM     75  C   UNL A   1      46.847  25.680  27.183  1.00  0.00     0.074 A 
ATOM     76  C   UNL A   1      47.034  24.287  26.835  1.00  0.00     0.031 C 
ATOM     77  C   UNL A   1      47.857  26.579  27.304  1.00  0.00     0.037 A 
BRANCH  64  78
ATOM     78  C   UNL A   1      45.968  32.305  28.687  1.00  0.00     0.057 A 
ATOM     79  C   UNL A   1      46.296  32.799  29.959  1.00  0.00     0.134 A 
ATOM     80  C   UNL A   1      45.982  33.213  27.621  1.00  0.00     0.134 A 
ATOM     81  F   UNL A   1      46.286  31.989  31.028  1.00  0.00    -0.206 F 
ATOM     82  C   UNL A   1      46.587  34.149  30.165  1.00  0.00     0.040 A 
ATOM     83  C   UNL A   1      46.303  34.557  27.809  1.00  0.00     0.040 A 
ATOM     84  F   UNL A   1      45.680  32.808  26.378  1.00  0.00    -0.206 F 
ATOM     85  C   UNL A   1      46.597  35.031  29.086  1.00  0.00     0.006 A 
ENDBRANCH  64  78
BRANCH  65  86
ATOM     86  C   UNL A   1      43.035  22.930  26.885  1.00  0.00     0.057 A 
ATOM     87  C   UNL A   1      42.678  22.034  27.899  1.00  0.00     0.134 A 
ATOM     88  C   UNL A   1      42.966  22.470  25.564  1.00  0.00     0.134 A 
ATOM     89  F   UNL A   1      42.747  22.407  29.184  1.00  0.00    -0.206 F 
ATOM     90  C   UNL A   1      42.277  20.728  27.611  1.00  0.00     0.040 A 
ATOM     91  C   UNL A   1      42.541  21.175  25.261  1.00  0.00     0.040 A 
ATOM     92  F   UNL A   1      43.295  23.279  24.547  1.00  0.00    -0.206 F 
ATOM     93  C   UNL A   1      42.201  20.298  26.288  1.00  0.00     0.006 A 
ENDBRANCH  65  86
BRANCH  77  94
ATOM     94  C   UNL A   1      49.259  26.079  27.093  1.00  0.00     0.057 A 
ATOM     95  C   UNL A   1      49.848  26.027  25.823  1.00  0.00     0.134 A 
ATOM     96  C   UNL A   1      50.047  25.687  28.184  1.00  0.00     0.134 A 
ATOM     97  F   UNL A   1      49.149  26.377  24.733  1.00  0.00    -0.206 F 
ATOM     98  C   UNL A   1      51.159  25.579  25.645  1.00  0.00     0.040 A 
ATOM     99  C   UNL A   1      51.368  25.269  28.022  1.00  0.00     0.040 A 
ATOM    100  F   UNL A   1      49.550  25.724  29.430  1.00  0.00    -0.206 F 
ATOM    101  C   UNL A   1      51.925  25.207  26.748  1.00  0.00     0.006 A 
ENDBRANCH  77  94
ENDBRANCH  51  52
ENDBRANCH  44  46
ENDBRANCH  43  44
ENDBRANCH  42  43
ENDBRANCH  41  42
ENDBRANCH  40  41
ENDBRANCH  39  40
ENDBRANCH  38  39
ENDBRANCH  37  38
ENDBRANCH   1  37
TORSDOF 25
ENDMDL
MODEL 2
REMARK VINA RESULT:      -6.9      3.741     11.228
REMARK SMILES CS(=O)(=O)c1ccc(/C=C(/C(=O)OCCOCCOCCOCCOC(=O)c2ccc(-c3c4nc(c(-c5c(F)cccc5F)c5ccc([nH]5)c(-c5c(F)cccc5F)c5nc(c(-c6c(F)cccc6F)c6ccc3[nH]6)C=C5)C=C4)cc2)c2cccc(-c3ccc(S(C)(=O)=O)cc3)c2)cc1
REMARK SMILES IDX 18 1 17 2 16 3 15 4 14 5 13 6 11 7 12 8 10 9 9 10 8 11 5 12
REMARK SMILES IDX 6 13 99 14 7 15 98 16 2 17 1 18 3 19 4 20 82 21 83 22 97 23
REMARK SMILES IDX 84 24 86 25 85 26 87 27 88 28 96 29 89 30 95 31 90 32 91 33
REMARK SMILES IDX 92 34 93 35 94 36 19 37 20 38 21 39 22 40 23 41 24 42 25 43
REMARK SMILES IDX 26 44 27 45 28 46 29 47 81 48 30 49 80 50 31 51 32 52 33 53
REMARK SMILES IDX 74 54 34 55 79 56 73 57 75 58 35 59 78 60 72 61 71 62 36 64
REMARK SMILES IDX 62 65 45 66 61 67 46 68 49 69 60 70 76 71 47 72 48 73 59 75
REMARK SMILES IDX 77 76 50 77 37 78 38 79 43 80 39 81 40 82 42 83 44 84 41 85
REMARK SMILES IDX 63 86 64 87 69 88 65 89 66 90 68 91 70 92 67 93 51 94 52 95
REMARK SMILES IDX 57 96 53 97 54 98 56 99 58 100 55 101
REMARK H PARENT 75 63 49 74
REMARK Flexibility Score: inf
ROOT
ATOM      1  C   UNL A   1      47.014  27.844  23.629  1.00  0.00     0.188 C 
ENDROOT
BRANCH   1   2
ATOM      2  C   UNL A   1      46.261  27.429  24.916  1.00  0.00     0.188 C 
BRANCH   2   3
ATOM      3  O   UNL A   1      45.222  28.321  25.285  1.00  0.00    -0.376 OA
BRANCH   3   4
ATOM      4  C   UNL A   1      44.129  27.783  26.008  1.00  0.00     0.202 C 
BRANCH   4   5
ATOM      5  C   UNL A   1      44.210  27.794  27.544  1.00  0.00     0.261 C 
BRANCH   5   6
ATOM      6  O   UNL A   1      44.680  26.583  28.154  1.00  0.00    -0.460 OA
BRANCH   6   7
ATOM      7  C   UNL A   1      44.120  26.239  29.337  1.00  0.00     0.338 C 
ATOM      8  O   UNL A   1      44.731  25.834  30.315  1.00  0.00    -0.246 OA
BRANCH   7   9
ATOM      9  C   UNL A   1      42.657  26.579  29.344  1.00  0.00     0.067 C 
ATOM     10  C   UNL A   1      42.215  27.553  30.180  1.00  0.00     0.024 C 
BRANCH  10  11
ATOM     11  C   UNL A   1      40.909  28.264  30.184  1.00  0.00    -0.025 A 
ATOM     12  C   UNL A   1      38.426  29.430  29.586  1.00  0.00     0.067 A 
ATOM     13  C   UNL A   1      38.478  28.275  30.360  1.00  0.00     0.021 A 
ATOM     14  C   UNL A   1      39.599  30.081  29.208  1.00  0.00     0.021 A 
ATOM     15  C   UNL A   1      39.719  27.736  30.703  1.00  0.00     0.009 A 
ATOM     16  C   UNL A   1      40.835  29.494  29.508  1.00  0.00     0.009 A 
BRANCH  12  17
ATOM     17  S   UNL A   1      36.849  29.992  28.994  1.00  0.00     0.175 S 
ATOM     18  C   UNL A   1      37.055  31.741  28.806  1.00  0.00     0.163 C 
ATOM     19  O   UNL A   1      35.898  29.764  30.064  1.00  0.00    -0.224 OA
ATOM     20  O   UNL A   1      36.646  29.428  27.673  1.00  0.00    -0.224 OA
ENDBRANCH  12  17
ENDBRANCH  10  11
BRANCH   9  21
ATOM     21  C   UNL A   1      41.802  25.907  28.345  1.00  0.00    -0.010 A 
ATOM     22  C   UNL A   1      40.681  26.519  27.764  1.00  0.00     0.009 A 
ATOM     23  C   UNL A   1      42.209  24.670  27.861  1.00  0.00     0.017 A 
ATOM     24  C   UNL A   1      39.986  25.905  26.722  1.00  0.00     0.001 A 
ATOM     25  C   UNL A   1      41.561  24.065  26.773  1.00  0.00    -0.018 A 
ATOM     26  C   UNL A   1      40.433  24.685  26.220  1.00  0.00     0.009 A 
BRANCH  25  27
ATOM     27  C   UNL A   1      42.168  22.864  26.201  1.00  0.00    -0.018 A 
ATOM     28  C   UNL A   1      43.056  22.956  25.117  1.00  0.00     0.010 A 
ATOM     29  C   UNL A   1      41.996  21.625  26.840  1.00  0.00     0.010 A 
ATOM     30  C   UNL A   1      43.783  21.841  24.706  1.00  0.00     0.021 A 
ATOM     31  C   UNL A   1      42.719  20.509  26.439  1.00  0.00     0.021 A 
ATOM     32  C   UNL A   1      43.607  20.626  25.373  1.00  0.00     0.067 A 
BRANCH  32  33
ATOM     33  S   UNL A   1      44.538  19.211  24.854  1.00  0.00     0.175 S 
ATOM     34  C   UNL A   1      46.181  19.622  25.374  1.00  0.00     0.163 C 
ATOM     35  O   UNL A   1      44.080  18.077  25.632  1.00  0.00    -0.224 OA
ATOM     36  O   UNL A   1      44.528  19.180  23.404  1.00  0.00    -0.224 OA
ENDBRANCH  32  33
ENDBRANCH  25  27
ENDBRANCH   9  21
ENDBRANCH   7   9
ENDBRANCH   6   7
ENDBRANCH   5   6
ENDBRANCH   4   5
ENDBRANCH   3   4
ENDBRANCH   2   3
ENDBRANCH   1   2
BRANCH   1  37
ATOM     37  O   UNL A   1      47.979  26.966  23.077  1.00  0.00    -0.377 OA
BRANCH  37  38
ATOM     38  C   UNL A   1      48.861  27.458  22.075  1.00  0.00     0.188 C 
BRANCH  38  39
ATOM     39  C   UNL A   1      50.363  27.090  22.102  1.00  0.00     0.188 C 
BRANCH  39  40
ATOM     40  O   UNL A   1      50.986  27.197  23.373  1.00  0.00    -0.376 OA
BRANCH  40  41
ATOM     41  C   UNL A   1      52.381  27.446  23.411  1.00  0.00     0.202 C 
BRANCH  41  42
ATOM     42  C   UNL A   1      53.251  26.436  24.170  1.00  0.00     0.261 C 
BRANCH  42  43
ATOM     43  O   UNL A   1      52.550  25.486  24.987  1.00  0.00    -0.460 OA
BRANCH  43  44
ATOM     44  C   UNL A   1      52.803  25.499  26.312  1.00  0.00     0.338 C 
ATOM     45  O   UNL A   1      53.846  25.203  26.871  1.00  0.00    -0.246 OA
BRANCH  44  46
ATOM     46  C   UNL A   1      51.644  26.130  26.975  1.00  0.00     0.060 A 
ATOM     47  C   UNL A   1      51.862  27.142  27.922  1.00  0.00     0.016 A 
ATOM     48  C   UNL A   1      50.346  25.750  26.629  1.00  0.00     0.016 A 
ATOM     49  C   UNL A   1      50.778  27.759  28.544  1.00  0.00     0.010 A 
ATOM     50  C   UNL A   1      49.262  26.347  27.275  1.00  0.00     0.010 A 
ATOM     51  C   UNL A   1      49.477  27.330  28.257  1.00  0.00    -0.014 A 
BRANCH  51  52
ATOM     52  C   UNL A   1      48.357  27.754  29.130  1.00  0.00     0.031 A 
ATOM     53  C   UNL A   1      47.533  28.935  28.699  1.00  0.00     0.074 A 
ATOM     54  C   UNL A   1      48.071  27.106  30.271  1.00  0.00     0.049 A 
ATOM     55  N   UNL A   1      46.541  29.527  29.311  1.00  0.00    -0.248 NA
ATOM     56  C   UNL A   1      47.885  29.531  27.400  1.00  0.00     0.031 C 
ATOM     57  C   UNL A   1      48.772  25.928  30.774  1.00  0.00     0.029 A 
ATOM     58  N   UNL A   1      47.112  27.363  31.218  1.00  0.00    -0.354 N 
ATOM     59  C   UNL A   1      46.158  30.570  28.479  1.00  0.00     0.074 A 
ATOM     60  C   UNL A   1      47.045  30.552  27.336  1.00  0.00     0.031 C 
ATOM     61  C   UNL A   1      48.229  25.572  31.952  1.00  0.00     0.029 A 
ATOM     62  C   UNL A   1      47.168  26.518  32.298  1.00  0.00     0.049 A 
ATOM     63  H   UNL A   1      46.449  28.085  31.132  1.00  0.00     0.167 HD
ATOM     64  C   UNL A   1      45.153  31.462  28.650  1.00  0.00     0.037 A 
ATOM     65  C   UNL A   1      46.459  26.525  33.444  1.00  0.00     0.037 A 
ATOM     66  C   UNL A   1      44.281  31.481  29.794  1.00  0.00     0.049 A 
ATOM     67  C   UNL A   1      45.394  27.570  33.648  1.00  0.00     0.074 A 
ATOM     68  C   UNL A   1      43.215  32.325  30.051  1.00  0.00     0.029 A 
ATOM     69  N   UNL A   1      44.387  30.627  30.881  1.00  0.00    -0.354 N 
ATOM     70  N   UNL A   1      45.012  28.533  32.843  1.00  0.00    -0.248 NA
ATOM     71  C   UNL A   1      44.657  27.528  34.920  1.00  0.00     0.031 C 
ATOM     72  C   UNL A   1      42.719  32.024  31.323  1.00  0.00     0.029 A 
ATOM     73  C   UNL A   1      43.429  30.946  31.830  1.00  0.00     0.049 A 
ATOM     74  H   UNL A   1      45.045  29.900  30.967  1.00  0.00     0.167 HD
ATOM     75  C   UNL A   1      43.976  29.191  33.497  1.00  0.00     0.074 A 
ATOM     76  C   UNL A   1      43.781  28.510  34.759  1.00  0.00     0.031 C 
ATOM     77  C   UNL A   1      43.248  30.260  33.086  1.00  0.00     0.037 A 
BRANCH  64  78
ATOM     78  C   UNL A   1      44.982  32.514  27.591  1.00  0.00     0.057 A 
ATOM     79  C   UNL A   1      44.153  32.324  26.476  1.00  0.00     0.134 A 
ATOM     80  C   UNL A   1      45.662  33.734  27.688  1.00  0.00     0.134 A 
ATOM     81  F   UNL A   1      43.486  31.172  26.311  1.00  0.00    -0.206 F 
ATOM     82  C   UNL A   1      44.036  33.295  25.480  1.00  0.00     0.040 A 
ATOM     83  C   UNL A   1      45.528  34.725  26.716  1.00  0.00     0.040 A 
ATOM     84  F   UNL A   1      46.470  33.983  28.729  1.00  0.00    -0.206 F 
ATOM     85  C   UNL A   1      44.721  34.503  25.602  1.00  0.00     0.006 A 
ENDBRANCH  64  78
BRANCH  65  86
ATOM     86  C   UNL A   1      46.746  25.514  34.493  1.00  0.00     0.057 A 
ATOM     87  C   UNL A   1      47.683  25.758  35.503  1.00  0.00     0.134 A 
ATOM     88  C   UNL A   1      46.088  24.277  34.509  1.00  0.00     0.134 A 
ATOM     89  F   UNL A   1      48.364  26.913  35.527  1.00  0.00    -0.206 F 
ATOM     90  C   UNL A   1      47.961  24.807  36.487  1.00  0.00     0.040 A 
ATOM     91  C   UNL A   1      46.337  23.328  35.502  1.00  0.00     0.040 A 
ATOM     92  F   UNL A   1      45.180  23.981  33.568  1.00  0.00    -0.206 F 
ATOM     93  C   UNL A   1      47.281  23.591  36.492  1.00  0.00     0.006 A 
ENDBRANCH  65  86
BRANCH  77  94
ATOM     94  C   UNL A   1      42.149  30.740  33.992  1.00  0.00     0.057 A 
ATOM     95  C   UNL A   1      40.898  30.109  34.044  1.00  0.00     0.134 A 
ATOM     96  C   UNL A   1      42.361  31.821  34.858  1.00  0.00     0.134 A 
ATOM     97  F   UNL A   1      40.623  29.075  33.234  1.00  0.00    -0.206 F 
ATOM     98  C   UNL A   1      39.893  30.553  34.906  1.00  0.00     0.040 A 
ATOM     99  C   UNL A   1      41.375  32.252  35.746  1.00  0.00     0.040 A 
ATOM    100  F   UNL A   1      43.539  32.463  34.870  1.00  0.00    -0.206 F 
ATOM    101  C   UNL A   1      40.134  31.623  35.766  1.00  0.00     0.006 A 
ENDBRANCH  77  94
ENDBRANCH  51  52
ENDBRANCH  44  46
ENDBRANCH  43  44
ENDBRANCH  42  43
ENDBRANCH  41  42
ENDBRANCH  40  41
ENDBRANCH  39  40
ENDBRANCH  38  39
ENDBRANCH  37  38
ENDBRANCH   1  37
TORSDOF 25
ENDMDL
MODEL 3
REMARK VINA RESULT:      -6.7      4.189      9.152
REMARK SMILES CS(=O)(=O)c1ccc(/C=C(/C(=O)OCCOCCOCCOCCOC(=O)c2ccc(-c3c4nc(c(-c5c(F)cccc5F)c5ccc([nH]5)c(-c5c(F)cccc5F)c5nc(c(-c6c(F)cccc6F)c6ccc3[nH]6)C=C5)C=C4)cc2)c2cccc(-c3ccc(S(C)(=O)=O)cc3)c2)cc1
REMARK SMILES IDX 18 1 17 2 16 3 15 4 14 5 13 6 11 7 12 8 10 9 9 10 8 11 5 12
REMARK SMILES IDX 6 13 99 14 7 15 98 16 2 17 1 18 3 19 4 20 82 21 83 22 97 23
REMARK SMILES IDX 84 24 86 25 85 26 87 27 88 28 96 29 89 30 95 31 90 32 91 33
REMARK SMILES IDX 92 34 93 35 94 36 19 37 20 38 21 39 22 40 23 41 24 42 25 43
REMARK SMILES IDX 26 44 27 45 28 46 29 47 81 48 30 49 80 50 31 51 32 52 33 53
REMARK SMILES IDX 74 54 34 55 79 56 73 57 75 58 35 59 78 60 72 61 71 62 36 64
REMARK SMILES IDX 62 65 45 66 61 67 46 68 49 69 60 70 76 71 47 72 48 73 59 75
REMARK SMILES IDX 77 76 50 77 37 78 38 79 43 80 39 81 40 82 42 83 44 84 41 85
REMARK SMILES IDX 63 86 64 87 69 88 65 89 66 90 68 91 70 92 67 93 51 94 52 95
REMARK SMILES IDX 57 96 53 97 54 98 56 99 58 100 55 101
REMARK H PARENT 75 63 49 74
REMARK Flexibility Score: inf
ROOT
ATOM      1  C   UNL A   1      40.828  29.604  29.966  1.00  0.00     0.188 C 
ENDROOT
BRANCH   1   2
ATOM      2  C   UNL A   1      40.347  31.063  30.159  1.00  0.00     0.188 C 
BRANCH   2   3
ATOM      3  O   UNL A   1      38.947  31.185  30.349  1.00  0.00    -0.376 OA
BRANCH   3   4
ATOM      4  C   UNL A   1      38.299  32.280  29.728  1.00  0.00     0.202 C 
BRANCH   4   5
ATOM      5  C   UNL A   1      37.341  31.979  28.563  1.00  0.00     0.261 C 
BRANCH   5   6
ATOM      6  O   UNL A   1      37.249  30.603  28.168  1.00  0.00    -0.460 OA
BRANCH   6   7
ATOM      7  C   UNL A   1      36.192  29.902  28.640  1.00  0.00     0.338 C 
ATOM      8  O   UNL A   1      36.052  29.527  29.794  1.00  0.00    -0.246 OA
BRANCH   7   9
ATOM      9  C   UNL A   1      35.127  29.786  27.586  1.00  0.00     0.067 C 
ATOM     10  C   UNL A   1      34.997  28.614  26.913  1.00  0.00     0.024 C 
BRANCH  10  11
ATOM     11  C   UNL A   1      33.879  28.147  26.050  1.00  0.00    -0.025 A 
ATOM     12  C   UNL A   1      32.171  26.800  24.275  1.00  0.00     0.067 A 
ATOM     13  C   UNL A   1      31.933  26.738  25.645  1.00  0.00     0.021 A 
ATOM     14  C   UNL A   1      33.175  27.624  23.770  1.00  0.00     0.021 A 
ATOM     15  C   UNL A   1      32.751  27.459  26.516  1.00  0.00     0.009 A 
ATOM     16  C   UNL A   1      34.026  28.292  24.660  1.00  0.00     0.009 A 
BRANCH  12  17
ATOM     17  S   UNL A   1      31.253  25.729  23.198  1.00  0.00     0.175 S 
ATOM     18  C   UNL A   1      32.392  24.434  22.800  1.00  0.00     0.163 C 
ATOM     19  O   UNL A   1      30.989  26.482  21.987  1.00  0.00    -0.224 OA
ATOM     20  O   UNL A   1      30.173  25.144  23.971  1.00  0.00    -0.224 OA
ENDBRANCH  12  17
ENDBRANCH  10  11
BRANCH   9  21
ATOM     21  C   UNL A   1      34.204  30.927  27.429  1.00  0.00    -0.010 A 
ATOM     22  C   UNL A   1      33.095  30.900  26.569  1.00  0.00     0.009 A 
ATOM     23  C   UNL A   1      34.361  32.018  28.274  1.00  0.00     0.017 A 
ATOM     24  C   UNL A   1      32.168  31.942  26.558  1.00  0.00     0.001 A 
ATOM     25  C   UNL A   1      33.407  33.047  28.322  1.00  0.00    -0.018 A 
ATOM     26  C   UNL A   1      32.318  33.008  27.441  1.00  0.00     0.009 A 
BRANCH  25  27
ATOM     27  C   UNL A   1      33.545  34.055  29.371  1.00  0.00    -0.018 A 
ATOM     28  C   UNL A   1      32.889  35.292  29.267  1.00  0.00     0.010 A 
ATOM     29  C   UNL A   1      34.200  33.728  30.570  1.00  0.00     0.010 A 
ATOM     30  C   UNL A   1      32.858  36.167  30.351  1.00  0.00     0.021 A 
ATOM     31  C   UNL A   1      34.172  34.592  31.657  1.00  0.00     0.021 A 
ATOM     32  C   UNL A   1      33.501  35.807  31.538  1.00  0.00     0.067 A 
BRANCH  32  33
ATOM     33  S   UNL A   1      33.454  36.916  32.918  1.00  0.00     0.175 S 
ATOM     34  C   UNL A   1      33.951  38.453  32.191  1.00  0.00     0.163 C 
ATOM     35  O   UNL A   1      32.073  37.032  33.341  1.00  0.00    -0.224 OA
ATOM     36  O   UNL A   1      34.492  36.511  33.848  1.00  0.00    -0.224 OA
ENDBRANCH  32  33
ENDBRANCH  25  27
ENDBRANCH   9  21
ENDBRANCH   7   9
ENDBRANCH   6   7
ENDBRANCH   5   6
ENDBRANCH   4   5
ENDBRANCH   3   4
ENDBRANCH   2   3
ENDBRANCH   1   2
BRANCH   1  37
ATOM     37  O   UNL A   1      39.883  28.601  29.640  1.00  0.00    -0.377 OA
BRANCH  37  38
ATOM     38  C   UNL A   1      40.017  27.907  28.405  1.00  0.00     0.188 C 
BRANCH  38  39
ATOM     39  C   UNL A   1      39.648  26.408  28.303  1.00  0.00     0.188 C 
BRANCH  39  40
ATOM     40  O   UNL A   1      39.639  25.879  26.986  1.00  0.00    -0.376 OA
BRANCH  40  41
ATOM     41  C   UNL A   1      40.141  24.568  26.792  1.00  0.00     0.202 C 
BRANCH  41  42
ATOM     42  C   UNL A   1      41.018  23.983  27.907  1.00  0.00     0.261 C 
BRANCH  42  43
ATOM     43  O   UNL A   1      42.048  23.075  27.489  1.00  0.00    -0.460 OA
BRANCH  43  44
ATOM     44  C   UNL A   1      42.600  23.275  26.275  1.00  0.00     0.338 C 
ATOM     45  O   UNL A   1      42.336  22.694  25.236  1.00  0.00    -0.246 OA
BRANCH  44  46
ATOM     46  C   UNL A   1      43.458  24.473  26.374  1.00  0.00     0.060 A 
ATOM     47  C   UNL A   1      43.598  25.310  25.258  1.00  0.00     0.016 A 
ATOM     48  C   UNL A   1      44.087  24.787  27.580  1.00  0.00     0.016 A 
ATOM     49  C   UNL A   1      44.391  26.454  25.340  1.00  0.00     0.010 A 
ATOM     50  C   UNL A   1      44.905  25.916  27.652  1.00  0.00     0.010 A 
ATOM     51  C   UNL A   1      45.084  26.734  26.523  1.00  0.00    -0.014 A 
BRANCH  51  52
ATOM     52  C   UNL A   1      46.158  27.755  26.518  1.00  0.00     0.031 A 
ATOM     53  C   UNL A   1      45.761  29.199  26.653  1.00  0.00     0.074 A 
ATOM     54  C   UNL A   1      47.452  27.414  26.406  1.00  0.00     0.049 A 
ATOM     55  N   UNL A   1      46.505  30.273  26.624  1.00  0.00    -0.248 NA
ATOM     56  C   UNL A   1      44.325  29.461  26.841  1.00  0.00     0.031 C 
ATOM     57  C   UNL A   1      47.962  26.049  26.307  1.00  0.00     0.029 A 
ATOM     58  N   UNL A   1      48.573  28.203  26.346  1.00  0.00    -0.354 N 
ATOM     59  C   UNL A   1      45.627  31.339  26.777  1.00  0.00     0.074 A 
ATOM     60  C   UNL A   1      44.294  30.783  26.865  1.00  0.00     0.031 C 
ATOM     61  C   UNL A   1      49.300  26.097  26.180  1.00  0.00     0.029 A 
ATOM     62  C   UNL A   1      49.733  27.494  26.156  1.00  0.00     0.049 A 
ATOM     63  H   UNL A   1      48.548  29.183  26.430  1.00  0.00     0.167 HD
ATOM     64  C   UNL A   1      45.908  32.662  26.844  1.00  0.00     0.037 A 
ATOM     65  C   UNL A   1      50.993  27.928  25.959  1.00  0.00     0.037 A 
ATOM     66  C   UNL A   1      47.235  33.208  26.746  1.00  0.00     0.049 A 
ATOM     67  C   UNL A   1      51.276  29.407  25.964  1.00  0.00     0.074 A 
ATOM     68  C   UNL A   1      47.631  34.531  26.828  1.00  0.00     0.029 A 
ATOM     69  N   UNL A   1      48.382  32.460  26.525  1.00  0.00    -0.354 N 
ATOM     70  N   UNL A   1      50.449  30.409  26.144  1.00  0.00    -0.248 NA
ATOM     71  C   UNL A   1      52.670  29.817  25.741  1.00  0.00     0.031 C 
ATOM     72  C   UNL A   1      49.008  34.589  26.591  1.00  0.00     0.029 A 
ATOM     73  C   UNL A   1      49.483  33.297  26.430  1.00  0.00     0.049 A 
ATOM     74  H   UNL A   1      48.411  31.479  26.446  1.00  0.00     0.167 HD
ATOM     75  C   UNL A   1      51.223  31.562  26.084  1.00  0.00     0.074 A 
ATOM     76  C   UNL A   1      52.588  31.135  25.864  1.00  0.00     0.031 C 
ATOM     77  C   UNL A   1      50.838  32.858  26.207  1.00  0.00     0.037 A 
BRANCH  64  78
ATOM     78  C   UNL A   1      44.746  33.603  26.986  1.00  0.00     0.057 A 
ATOM     79  C   UNL A   1      44.234  33.976  28.237  1.00  0.00     0.134 A 
ATOM     80  C   UNL A   1      44.127  34.141  25.851  1.00  0.00     0.134 A 
ATOM     81  F   UNL A   1      44.768  33.485  29.366  1.00  0.00    -0.206 F 
ATOM     82  C   UNL A   1      43.128  34.820  28.351  1.00  0.00     0.040 A 
ATOM     83  C   UNL A   1      43.042  35.012  25.953  1.00  0.00     0.040 A 
ATOM     84  F   UNL A   1      44.566  33.828  24.622  1.00  0.00    -0.206 F 
ATOM     85  C   UNL A   1      42.532  35.345  27.206  1.00  0.00     0.006 A 
ENDBRANCH  64  78
BRANCH  65  86
ATOM     86  C   UNL A   1      52.082  26.944  25.728  1.00  0.00     0.057 A 
ATOM     87  C   UNL A   1      52.431  26.535  24.436  1.00  0.00     0.134 A 
ATOM     88  C   UNL A   1      52.800  26.391  26.796  1.00  0.00     0.134 A 
ATOM     89  F   UNL A   1      51.764  27.009  23.375  1.00  0.00    -0.206 F 
ATOM     90  C   UNL A   1      53.449  25.605  24.215  1.00  0.00     0.040 A 
ATOM     91  C   UNL A   1      53.838  25.481  26.587  1.00  0.00     0.040 A 
ATOM     92  F   UNL A   1      52.514  26.742  28.058  1.00  0.00    -0.206 F 
ATOM     93  C   UNL A   1      54.160  25.081  25.293  1.00  0.00     0.006 A 
ENDBRANCH  65  86
BRANCH  77  94
ATOM     94  C   UNL A   1      51.911  33.909  26.141  1.00  0.00     0.057 A 
ATOM     95  C   UNL A   1      52.546  34.397  27.290  1.00  0.00     0.134 A 
ATOM     96  C   UNL A   1      52.347  34.405  24.904  1.00  0.00     0.134 A 
ATOM     97  F   UNL A   1      52.171  33.974  28.507  1.00  0.00    -0.206 F 
ATOM     98  C   UNL A   1      53.556  35.359  27.212  1.00  0.00     0.040 A 
ATOM     99  C   UNL A   1      53.377  35.341  24.813  1.00  0.00     0.040 A 
ATOM    100  F   UNL A   1      51.791  33.971  23.763  1.00  0.00    -0.206 F 
ATOM    101  C   UNL A   1      53.979  35.827  25.970  1.00  0.00     0.006 A 
ENDBRANCH  77  94
ENDBRANCH  51  52
ENDBRANCH  44  46
ENDBRANCH  43  44
ENDBRANCH  42  43
ENDBRANCH  41  42
ENDBRANCH  40  41
ENDBRANCH  39  40
ENDBRANCH  38  39
ENDBRANCH  37  38
ENDBRANCH   1  37
TORSDOF 25
ENDMDL
