MODEL 1
REMARK VINA RESULT:      -9.4      0.000      0.000
REMARK SMILES Cc1ncnc(OCCC(=O)OCCOCCOCCOCCOC(=O)c2ccc(-c3c4nc(c(-c5c(F)cccc5F)c5ccc([nH]5)c(-c5c(F)cccc5F)c5nc(c(-c6c(F)cccc6F)c6ccc3[nH]6)C=C5)C=C4)cc2)c1C
REMARK SMILES IDX 17 1 16 2 15 3 14 4 13 5 12 6 10 7 11 8 9 9 8 10 7 11 6 12
REMARK SMILES IDX 1 13 2 14 3 15 81 16 4 17 82 18 5 19 18 20 19 21 20 22 21 23
REMARK SMILES IDX 22 24 23 25 24 26 25 27 26 28 27 29 28 30 80 31 29 32 79 33
REMARK SMILES IDX 30 34 31 35 32 36 73 37 33 38 78 39 72 40 74 41 34 42 77 43
REMARK SMILES IDX 71 44 70 45 35 47 61 48 44 49 60 50 45 51 48 52 59 53 75 54
REMARK SMILES IDX 46 55 47 56 58 58 76 59 49 60 36 61 37 62 42 63 38 64 39 65
REMARK SMILES IDX 41 66 43 67 40 68 62 69 63 70 68 71 64 72 65 73 67 74 69 75
REMARK SMILES IDX 66 76 50 77 51 78 56 79 52 80 53 81 55 82 57 83 54 84
REMARK H PARENT 74 46 48 57
REMARK Flexibility Score: inf
ROOT
ATOM      1  C   UNL A   1      40.784  19.974  26.552  1.00  0.00     0.188 C 
ENDROOT
BRANCH   1   2
ATOM      2  C   UNL A   1      40.468  21.400  27.029  1.00  0.00     0.188 C 
BRANCH   2   3
ATOM      3  O   UNL A   1      39.682  22.168  26.125  1.00  0.00    -0.376 OA
BRANCH   3   4
ATOM      4  C   UNL A   1      38.275  21.911  26.074  1.00  0.00     0.202 C 
BRANCH   4   5
ATOM      5  C   UNL A   1      37.547  22.116  24.735  1.00  0.00     0.261 C 
BRANCH   5   6
ATOM      6  O   UNL A   1      36.856  23.389  24.633  1.00  0.00    -0.463 OA
BRANCH   6   7
ATOM      7  C   UNL A   1      35.743  23.417  23.856  1.00  0.00     0.309 C 
ATOM      8  O   UNL A   1      35.745  23.194  22.649  1.00  0.00    -0.252 OA
BRANCH   7   9
ATOM      9  C   UNL A   1      34.487  23.841  24.589  1.00  0.00     0.164 C 
BRANCH   9  10
ATOM     10  C   UNL A   1      34.415  25.227  25.227  1.00  0.00     0.243 C 
BRANCH  10  11
ATOM     11  O   UNL A   1      34.046  26.266  24.332  1.00  0.00    -0.477 OA
BRANCH  11  12
ATOM     12  C   UNL A   1      33.073  27.193  24.488  1.00  0.00     0.219 A 
ATOM     13  C   UNL A   1      31.820  30.415  26.007  1.00  0.00     0.067 C 
ATOM     14  C   UNL A   1      31.929  29.125  25.234  1.00  0.00     0.047 A 
ATOM     15  N   UNL A   1      31.041  29.007  24.234  1.00  0.00    -0.241 NA
ATOM     16  C   UNL A   1      32.927  28.168  25.460  1.00  0.00     0.032 A 
ATOM     17  C   UNL A   1      31.160  27.926  23.465  1.00  0.00     0.226 A 
ATOM     18  C   UNL A   1      33.600  28.126  26.778  1.00  0.00     0.052 C 
ATOM     19  N   UNL A   1      32.166  27.051  23.506  1.00  0.00    -0.202 NA
ENDBRANCH  11  12
ENDBRANCH  10  11
ENDBRANCH   9  10
ENDBRANCH   7   9
ENDBRANCH   6   7
ENDBRANCH   5   6
ENDBRANCH   4   5
ENDBRANCH   3   4
ENDBRANCH   2   3
ENDBRANCH   1   2
BRANCH   1  20
ATOM     20  O   UNL A   1      42.113  19.532  26.824  1.00  0.00    -0.377 OA
BRANCH  20  21
ATOM     21  C   UNL A   1      42.614  18.499  25.979  1.00  0.00     0.188 C 
BRANCH  21  22
ATOM     22  C   UNL A   1      43.775  18.875  25.059  1.00  0.00     0.188 C 
BRANCH  22  23
ATOM     23  O   UNL A   1      44.563  19.939  25.565  1.00  0.00    -0.376 OA
BRANCH  23  24
ATOM     24  C   UNL A   1      44.463  21.152  24.825  1.00  0.00     0.202 C 
BRANCH  24  25
ATOM     25  C   UNL A   1      43.483  22.193  25.387  1.00  0.00     0.261 C 
BRANCH  25  26
ATOM     26  O   UNL A   1      43.333  23.417  24.632  1.00  0.00    -0.460 OA
BRANCH  26  27
ATOM     27  C   UNL A   1      44.135  24.443  24.946  1.00  0.00     0.338 C 
ATOM     28  O   UNL A   1      45.306  24.613  24.579  1.00  0.00    -0.246 OA
BRANCH  27  29
ATOM     29  C   UNL A   1      43.429  25.375  25.836  1.00  0.00     0.060 A 
ATOM     30  C   UNL A   1      43.917  26.671  26.036  1.00  0.00     0.016 A 
ATOM     31  C   UNL A   1      42.335  24.915  26.575  1.00  0.00     0.016 A 
ATOM     32  C   UNL A   1      43.332  27.494  27.010  1.00  0.00     0.010 A 
ATOM     33  C   UNL A   1      41.750  25.742  27.543  1.00  0.00     0.010 A 
ATOM     34  C   UNL A   1      42.267  27.025  27.797  1.00  0.00    -0.014 A 
BRANCH  34  35
ATOM     35  C   UNL A   1      41.779  27.807  28.970  1.00  0.00     0.031 A 
ATOM     36  C   UNL A   1      42.492  27.690  30.290  1.00  0.00     0.074 A 
ATOM     37  C   UNL A   1      40.720  28.635  28.881  1.00  0.00     0.049 A 
ATOM     38  N   UNL A   1      42.223  28.274  31.431  1.00  0.00    -0.248 NA
ATOM     39  C   UNL A   1      43.668  26.807  30.327  1.00  0.00     0.031 C 
ATOM     40  C   UNL A   1      39.966  28.894  27.663  1.00  0.00     0.029 A 
ATOM     41  N   UNL A   1      40.099  29.412  29.832  1.00  0.00    -0.354 N 
ATOM     42  C   UNL A   1      43.206  27.850  32.313  1.00  0.00     0.074 A 
ATOM     43  C   UNL A   1      44.047  26.918  31.592  1.00  0.00     0.031 C 
ATOM     44  C   UNL A   1      38.982  29.767  27.935  1.00  0.00     0.029 A 
ATOM     45  C   UNL A   1      39.006  30.099  29.356  1.00  0.00     0.049 A 
ATOM     46  H   UNL A   1      40.407  29.470  30.765  1.00  0.00     0.167 HD
ATOM     47  C   UNL A   1      43.408  28.220  33.600  1.00  0.00     0.037 A 
ATOM     48  C   UNL A   1      38.116  30.892  29.986  1.00  0.00     0.037 A 
ATOM     49  C   UNL A   1      42.573  29.135  34.333  1.00  0.00     0.049 A 
ATOM     50  C   UNL A   1      38.281  31.186  31.452  1.00  0.00     0.074 A 
ATOM     51  C   UNL A   1      42.718  29.568  35.641  1.00  0.00     0.029 A 
ATOM     52  N   UNL A   1      41.436  29.749  33.834  1.00  0.00    -0.354 N 
ATOM     53  N   UNL A   1      39.235  30.802  32.266  1.00  0.00    -0.248 NA
ATOM     54  C   UNL A   1      37.256  32.028  32.090  1.00  0.00     0.031 C 
ATOM     55  C   UNL A   1      41.641  30.403  35.949  1.00  0.00     0.029 A 
ATOM     56  C   UNL A   1      40.853  30.532  34.817  1.00  0.00     0.049 A 
ATOM     57  H   UNL A   1      41.093  29.644  32.918  1.00  0.00     0.167 HD
ATOM     58  C   UNL A   1      38.950  31.389  33.493  1.00  0.00     0.074 A 
ATOM     59  C   UNL A   1      37.731  32.149  33.323  1.00  0.00     0.031 C 
ATOM     60  C   UNL A   1      39.649  31.306  34.649  1.00  0.00     0.037 A 
BRANCH  47  61
ATOM     61  C   UNL A   1      44.591  27.633  34.309  1.00  0.00     0.057 A 
ATOM     62  C   UNL A   1      44.491  26.438  35.032  1.00  0.00     0.134 A 
ATOM     63  C   UNL A   1      45.854  28.232  34.215  1.00  0.00     0.134 A 
ATOM     64  F   UNL A   1      43.307  25.822  35.166  1.00  0.00    -0.206 F 
ATOM     65  C   UNL A   1      45.604  25.864  35.648  1.00  0.00     0.040 A 
ATOM     66  C   UNL A   1      46.978  27.655  34.806  1.00  0.00     0.040 A 
ATOM     67  F   UNL A   1      46.017  29.372  33.529  1.00  0.00    -0.206 F 
ATOM     68  C   UNL A   1      46.854  26.468  35.528  1.00  0.00     0.006 A 
ENDBRANCH  47  61
BRANCH  48  69
ATOM     69  C   UNL A   1      36.981  31.477  29.227  1.00  0.00     0.057 A 
ATOM     70  C   UNL A   1      35.834  30.728  28.943  1.00  0.00     0.134 A 
ATOM     71  C   UNL A   1      37.017  32.799  28.763  1.00  0.00     0.134 A 
ATOM     72  F   UNL A   1      35.750  29.448  29.337  1.00  0.00    -0.206 F 
ATOM     73  C   UNL A   1      34.768  31.266  28.219  1.00  0.00     0.040 A 
ATOM     74  C   UNL A   1      35.950  33.357  28.056  1.00  0.00     0.040 A 
ATOM     75  F   UNL A   1      38.087  33.572  29.000  1.00  0.00    -0.206 F 
ATOM     76  C   UNL A   1      34.823  32.587  27.778  1.00  0.00     0.006 A 
ENDBRANCH  48  69
BRANCH  60  77
ATOM     77  C   UNL A   1      39.157  32.083  35.835  1.00  0.00     0.057 A 
ATOM     78  C   UNL A   1      39.491  33.428  36.026  1.00  0.00     0.134 A 
ATOM     79  C   UNL A   1      38.250  31.507  36.735  1.00  0.00     0.134 A 
ATOM     80  F   UNL A   1      40.362  34.036  35.207  1.00  0.00    -0.206 F 
ATOM     81  C   UNL A   1      38.939  34.174  37.070  1.00  0.00     0.040 A 
ATOM     82  C   UNL A   1      37.674  32.248  37.767  1.00  0.00     0.040 A 
ATOM     83  F   UNL A   1      37.881  30.224  36.602  1.00  0.00    -0.206 F 
ATOM     84  C   UNL A   1      38.017  33.587  37.935  1.00  0.00     0.006 A 
ENDBRANCH  60  77
ENDBRANCH  34  35
ENDBRANCH  27  29
ENDBRANCH  26  27
ENDBRANCH  25  26
ENDBRANCH  24  25
ENDBRANCH  23  24
ENDBRANCH  22  23
ENDBRANCH  21  22
ENDBRANCH  20  21
ENDBRANCH   1  20
TORSDOF 23
ENDMDL
MODEL 2
REMARK VINA RESULT:      -9.0      1.380      2.063
REMARK SMILES Cc1ncnc(OCCC(=O)OCCOCCOCCOCCOC(=O)c2ccc(-c3c4nc(c(-c5c(F)cccc5F)c5ccc([nH]5)c(-c5c(F)cccc5F)c5nc(c(-c6c(F)cccc6F)c6ccc3[nH]6)C=C5)C=C4)cc2)c1C
REMARK SMILES IDX 17 1 16 2 15 3 14 4 13 5 12 6 10 7 11 8 9 9 8 10 7 11 6 12
REMARK SMILES IDX 1 13 2 14 3 15 81 16 4 17 82 18 5 19 18 20 19 21 20 22 21 23
REMARK SMILES IDX 22 24 23 25 24 26 25 27 26 28 27 29 28 30 80 31 29 32 79 33
REMARK SMILES IDX 30 34 31 35 32 36 73 37 33 38 78 39 72 40 74 41 34 42 77 43
REMARK SMILES IDX 71 44 70 45 35 47 61 48 44 49 60 50 45 51 48 52 59 53 75 54
REMARK SMILES IDX 46 55 47 56 58 58 76 59 49 60 36 61 37 62 42 63 38 64 39 65
REMARK SMILES IDX 41 66 43 67 40 68 62 69 63 70 68 71 64 72 65 73 67 74 69 75
REMARK SMILES IDX 66 76 50 77 51 78 56 79 52 80 53 81 55 82 57 83 54 84
REMARK H PARENT 74 46 48 57
REMARK Flexibility Score: inf
ROOT
ATOM      1  C   UNL A   1      39.141  21.785  25.880  1.00  0.00     0.188 C 
ENDROOT
BRANCH   1   2
ATOM      2  C   UNL A   1      38.594  23.164  26.284  1.00  0.00     0.188 C 
BRANCH   2   3
ATOM      3  O   UNL A   1      37.457  23.591  25.544  1.00  0.00    -0.376 OA
BRANCH   3   4
ATOM      4  C   UNL A   1      36.235  22.864  25.714  1.00  0.00     0.202 C 
BRANCH   4   5
ATOM      5  C   UNL A   1      35.124  23.501  26.566  1.00  0.00     0.261 C 
BRANCH   5   6
ATOM      6  O   UNL A   1      34.018  24.029  25.789  1.00  0.00    -0.463 OA
BRANCH   6   7
ATOM      7  C   UNL A   1      33.052  23.146  25.425  1.00  0.00     0.309 C 
ATOM      8  O   UNL A   1      32.939  22.682  24.295  1.00  0.00    -0.252 OA
BRANCH   7   9
ATOM      9  C   UNL A   1      32.050  22.840  26.520  1.00  0.00     0.164 C 
BRANCH   9  10
ATOM     10  C   UNL A   1      30.753  23.640  26.604  1.00  0.00     0.243 C 
BRANCH  10  11
ATOM     11  O   UNL A   1      30.928  25.010  26.933  1.00  0.00    -0.477 OA
BRANCH  11  12
ATOM     12  C   UNL A   1      30.855  26.080  26.109  1.00  0.00     0.219 A 
ATOM     13  C   UNL A   1      32.136  29.447  24.978  1.00  0.00     0.067 C 
ATOM     14  C   UNL A   1      31.341  28.174  25.121  1.00  0.00     0.047 A 
ATOM     15  N   UNL A   1      30.628  27.847  24.032  1.00  0.00    -0.241 NA
ATOM     16  C   UNL A   1      31.405  27.343  26.247  1.00  0.00     0.032 A 
ATOM     17  C   UNL A   1      29.984  26.682  24.078  1.00  0.00     0.226 A 
ATOM     18  C   UNL A   1      31.846  27.913  27.540  1.00  0.00     0.052 C 
ATOM     19  N   UNL A   1      30.112  25.761  25.034  1.00  0.00    -0.202 NA
ENDBRANCH  11  12
ENDBRANCH  10  11
ENDBRANCH   9  10
ENDBRANCH   7   9
ENDBRANCH   6   7
ENDBRANCH   5   6
ENDBRANCH   4   5
ENDBRANCH   3   4
ENDBRANCH   2   3
ENDBRANCH   1   2
BRANCH   1  20
ATOM     20  O   UNL A   1      40.074  21.219  26.799  1.00  0.00    -0.377 OA
BRANCH  20  21
ATOM     21  C   UNL A   1      40.705  20.010  26.384  1.00  0.00     0.188 C 
BRANCH  21  22
ATOM     22  C   UNL A   1      42.230  19.975  26.466  1.00  0.00     0.188 C 
BRANCH  22  23
ATOM     23  O   UNL A   1      42.812  21.265  26.549  1.00  0.00    -0.376 OA
BRANCH  23  24
ATOM     24  C   UNL A   1      43.641  21.610  25.443  1.00  0.00     0.202 C 
BRANCH  24  25
ATOM     25  C   UNL A   1      43.300  22.937  24.746  1.00  0.00     0.261 C 
BRANCH  25  26
ATOM     26  O   UNL A   1      44.279  23.995  24.849  1.00  0.00    -0.460 OA
BRANCH  26  27
ATOM     27  C   UNL A   1      44.851  24.198  26.044  1.00  0.00     0.338 C 
ATOM     28  O   UNL A   1      45.897  23.686  26.465  1.00  0.00    -0.246 OA
BRANCH  27  29
ATOM     29  C   UNL A   1      44.037  25.130  26.836  1.00  0.00     0.060 A 
ATOM     30  C   UNL A   1      44.318  26.500  26.827  1.00  0.00     0.016 A 
ATOM     31  C   UNL A   1      43.058  24.620  27.694  1.00  0.00     0.016 A 
ATOM     32  C   UNL A   1      43.643  27.357  27.710  1.00  0.00     0.010 A 
ATOM     33  C   UNL A   1      42.383  25.479  28.571  1.00  0.00     0.010 A 
ATOM     34  C   UNL A   1      42.695  26.849  28.615  1.00  0.00    -0.014 A 
BRANCH  34  35
ATOM     35  C   UNL A   1      42.130  27.709  29.695  1.00  0.00     0.031 A 
ATOM     36  C   UNL A   1      42.780  27.720  31.052  1.00  0.00     0.074 A 
ATOM     37  C   UNL A   1      41.057  28.496  29.488  1.00  0.00     0.049 A 
ATOM     38  N   UNL A   1      42.441  28.387  32.127  1.00  0.00    -0.248 NA
ATOM     39  C   UNL A   1      43.975  26.879  31.217  1.00  0.00     0.031 C 
ATOM     40  C   UNL A   1      40.357  28.633  28.219  1.00  0.00     0.029 A 
ATOM     41  N   UNL A   1      40.370  29.329  30.341  1.00  0.00    -0.354 N 
ATOM     42  C   UNL A   1      43.390  28.065  33.087  1.00  0.00     0.074 A 
ATOM     43  C   UNL A   1      44.289  27.103  32.485  1.00  0.00     0.031 C 
ATOM     44  C   UNL A   1      39.339  29.496  28.371  1.00  0.00     0.029 A 
ATOM     45  C   UNL A   1      39.285  29.942  29.760  1.00  0.00     0.049 A 
ATOM     46  H   UNL A   1      40.630  29.471  31.280  1.00  0.00     0.167 HD
ATOM     47  C   UNL A   1      43.518  28.545  34.347  1.00  0.00     0.037 A 
ATOM     48  C   UNL A   1      38.345  30.757  30.279  1.00  0.00     0.037 A 
ATOM     49  C   UNL A   1      42.624  29.491  34.962  1.00  0.00     0.049 A 
ATOM     50  C   UNL A   1      38.429  31.174  31.722  1.00  0.00     0.074 A 
ATOM     51  C   UNL A   1      42.694  30.032  36.234  1.00  0.00     0.029 A 
ATOM     52  N   UNL A   1      41.498  30.028  34.360  1.00  0.00    -0.354 N 
ATOM     53  N   UNL A   1      39.351  30.886  32.608  1.00  0.00    -0.248 NA
ATOM     54  C   UNL A   1      37.353  32.034  32.239  1.00  0.00     0.031 C 
ATOM     55  C   UNL A   1      41.582  30.858  36.421  1.00  0.00     0.029 A 
ATOM     56  C   UNL A   1      40.848  30.871  35.247  1.00  0.00     0.049 A 
ATOM     57  H   UNL A   1      41.204  29.839  33.440  1.00  0.00     0.167 HD
ATOM     58  C   UNL A   1      38.991  31.561  33.768  1.00  0.00     0.074 A 
ATOM     59  C   UNL A   1      37.763  32.270  33.479  1.00  0.00     0.031 C 
ATOM     60  C   UNL A   1      39.635  31.593  34.959  1.00  0.00     0.037 A 
BRANCH  47  61
ATOM     61  C   UNL A   1      44.679  28.052  35.157  1.00  0.00     0.057 A 
ATOM     62  C   UNL A   1      45.883  28.764  35.215  1.00  0.00     0.134 A 
ATOM     63  C   UNL A   1      44.571  26.892  35.934  1.00  0.00     0.134 A 
ATOM     64  F   UNL A   1      46.051  29.877  34.486  1.00  0.00    -0.206 F 
ATOM     65  C   UNL A   1      46.946  28.333  36.010  1.00  0.00     0.040 A 
ATOM     66  C   UNL A   1      45.618  26.464  36.751  1.00  0.00     0.040 A 
ATOM     67  F   UNL A   1      43.441  26.171  35.928  1.00  0.00    -0.206 F 
ATOM     68  C   UNL A   1      46.812  27.185  36.788  1.00  0.00     0.006 A 
ENDBRANCH  47  61
BRANCH  48  69
ATOM     69  C   UNL A   1      37.234  31.245  29.421  1.00  0.00     0.057 A 
ATOM     70  C   UNL A   1      36.125  30.439  29.140  1.00  0.00     0.134 A 
ATOM     71  C   UNL A   1      37.255  32.528  28.858  1.00  0.00     0.134 A 
ATOM     72  F   UNL A   1      36.058  29.191  29.628  1.00  0.00    -0.206 F 
ATOM     73  C   UNL A   1      35.083  30.885  28.324  1.00  0.00     0.040 A 
ATOM     74  C   UNL A   1      36.211  32.995  28.058  1.00  0.00     0.040 A 
ATOM     75  F   UNL A   1      38.289  33.351  29.087  1.00  0.00    -0.206 F 
ATOM     76  C   UNL A   1      35.122  32.170  27.786  1.00  0.00     0.006 A 
ENDBRANCH  48  69
BRANCH  60  77
ATOM     77  C   UNL A   1      39.064  32.449  36.052  1.00  0.00     0.057 A 
ATOM     78  C   UNL A   1      38.214  31.926  37.031  1.00  0.00     0.134 A 
ATOM     79  C   UNL A   1      39.460  33.788  36.186  1.00  0.00     0.134 A 
ATOM     80  F   UNL A   1      37.789  30.656  36.956  1.00  0.00    -0.206 F 
ATOM     81  C   UNL A   1      37.778  32.702  38.108  1.00  0.00     0.040 A 
ATOM     82  C   UNL A   1      39.050  34.566  37.268  1.00  0.00     0.040 A 
ATOM     83  F   UNL A   1      40.281  34.348  35.285  1.00  0.00    -0.206 F 
ATOM     84  C   UNL A   1      38.208  34.022  38.235  1.00  0.00     0.006 A 
ENDBRANCH  60  77
ENDBRANCH  34  35
ENDBRANCH  27  29
ENDBRANCH  26  27
ENDBRANCH  25  26
ENDBRANCH  24  25
ENDBRANCH  23  24
ENDBRANCH  22  23
ENDBRANCH  21  22
ENDBRANCH  20  21
ENDBRANCH   1  20
TORSDOF 23
ENDMDL
MODEL 3
REMARK VINA RESULT:      -9.0      3.678      9.341
REMARK SMILES Cc1ncnc(OCCC(=O)OCCOCCOCCOCCOC(=O)c2ccc(-c3c4nc(c(-c5c(F)cccc5F)c5ccc([nH]5)c(-c5c(F)cccc5F)c5nc(c(-c6c(F)cccc6F)c6ccc3[nH]6)C=C5)C=C4)cc2)c1C
REMARK SMILES IDX 17 1 16 2 15 3 14 4 13 5 12 6 10 7 11 8 9 9 8 10 7 11 6 12
REMARK SMILES IDX 1 13 2 14 3 15 81 16 4 17 82 18 5 19 18 20 19 21 20 22 21 23
REMARK SMILES IDX 22 24 23 25 24 26 25 27 26 28 27 29 28 30 80 31 29 32 79 33
REMARK SMILES IDX 30 34 31 35 32 36 73 37 33 38 78 39 72 40 74 41 34 42 77 43
REMARK SMILES IDX 71 44 70 45 35 47 61 48 44 49 60 50 45 51 48 52 59 53 75 54
REMARK SMILES IDX 46 55 47 56 58 58 76 59 49 60 36 61 37 62 42 63 38 64 39 65
REMARK SMILES IDX 41 66 43 67 40 68 62 69 63 70 68 71 64 72 65 73 67 74 69 75
REMARK SMILES IDX 66 76 50 77 51 78 56 79 52 80 53 81 55 82 57 83 54 84
REMARK H PARENT 74 46 48 57
REMARK Flexibility Score: inf
ROOT
ATOM      1  C   UNL A   1      31.969  26.442  22.994  1.00  0.00     0.188 C 
ENDROOT
BRANCH   1   2
ATOM      2  C   UNL A   1      32.786  26.458  24.296  1.00  0.00     0.188 C 
BRANCH   2   3
ATOM      3  O   UNL A   1      32.012  26.351  25.485  1.00  0.00    -0.376 OA
BRANCH   3   4
ATOM      4  C   UNL A   1      30.774  25.635  25.415  1.00  0.00     0.202 C 
BRANCH   4   5
ATOM      5  C   UNL A   1      30.711  24.229  26.035  1.00  0.00     0.261 C 
BRANCH   5   6
ATOM      6  O   UNL A   1      31.464  24.098  27.269  1.00  0.00    -0.463 OA
BRANCH   6   7
ATOM      7  C   UNL A   1      32.415  23.129  27.303  1.00  0.00     0.309 C 
ATOM      8  O   UNL A   1      32.593  22.378  28.256  1.00  0.00    -0.252 OA
BRANCH   7   9
ATOM      9  C   UNL A   1      33.317  23.104  26.085  1.00  0.00     0.164 C 
BRANCH   9  10
ATOM     10  C   UNL A   1      34.497  24.068  25.998  1.00  0.00     0.243 C 
BRANCH  10  11
ATOM     11  O   UNL A   1      35.530  23.654  25.115  1.00  0.00    -0.477 OA
BRANCH  11  12
ATOM     12  C   UNL A   1      36.557  22.813  25.373  1.00  0.00     0.219 A 
ATOM     13  C   UNL A   1      38.303  19.505  24.855  1.00  0.00     0.067 C 
ATOM     14  C   UNL A   1      37.932  20.888  25.327  1.00  0.00     0.047 A 
ATOM     15  N   UNL A   1      38.958  21.586  25.841  1.00  0.00    -0.241 NA
ATOM     16  C   UNL A   1      36.659  21.448  25.161  1.00  0.00     0.032 A 
ATOM     17  C   UNL A   1      38.698  22.847  26.185  1.00  0.00     0.226 A 
ATOM     18  C   UNL A   1      35.495  20.552  24.986  1.00  0.00     0.052 C 
ATOM     19  N   UNL A   1      37.571  23.508  25.920  1.00  0.00    -0.202 NA
ENDBRANCH  11  12
ENDBRANCH  10  11
ENDBRANCH   9  10
ENDBRANCH   7   9
ENDBRANCH   6   7
ENDBRANCH   5   6
ENDBRANCH   4   5
ENDBRANCH   3   4
ENDBRANCH   2   3
ENDBRANCH   1   2
BRANCH   1  20
ATOM     20  O   UNL A   1      31.668  27.731  22.462  1.00  0.00    -0.377 OA
BRANCH  20  21
ATOM     21  C   UNL A   1      30.463  28.333  22.927  1.00  0.00     0.188 C 
BRANCH  21  22
ATOM     22  C   UNL A   1      30.614  29.620  23.737  1.00  0.00     0.188 C 
BRANCH  22  23
ATOM     23  O   UNL A   1      31.032  29.390  25.072  1.00  0.00    -0.376 OA
BRANCH  23  24
ATOM     24  C   UNL A   1      32.312  29.927  25.390  1.00  0.00     0.202 C 
BRANCH  24  25
ATOM     25  C   UNL A   1      32.420  30.620  26.757  1.00  0.00     0.261 C 
BRANCH  25  26
ATOM     26  O   UNL A   1      33.478  30.168  27.632  1.00  0.00    -0.460 OA
BRANCH  26  27
ATOM     27  C   UNL A   1      34.469  31.028  27.905  1.00  0.00     0.338 C 
ATOM     28  O   UNL A   1      34.402  32.265  27.912  1.00  0.00    -0.246 OA
BRANCH  27  29
ATOM     29  C   UNL A   1      35.708  30.290  28.190  1.00  0.00     0.060 A 
ATOM     30  C   UNL A   1      35.942  29.764  29.465  1.00  0.00     0.016 A 
ATOM     31  C   UNL A   1      36.702  30.224  27.210  1.00  0.00     0.016 A 
ATOM     32  C   UNL A   1      37.192  29.206  29.771  1.00  0.00     0.010 A 
ATOM     33  C   UNL A   1      37.949  29.662  27.518  1.00  0.00     0.010 A 
ATOM     34  C   UNL A   1      38.219  29.183  28.812  1.00  0.00    -0.014 A 
BRANCH  34  35
ATOM     35  C   UNL A   1      39.609  28.789  29.187  1.00  0.00     0.031 A 
ATOM     36  C   UNL A   1      40.433  29.706  30.049  1.00  0.00     0.074 A 
ATOM     37  C   UNL A   1      40.147  27.621  28.788  1.00  0.00     0.049 A 
ATOM     38  N   UNL A   1      41.662  29.557  30.477  1.00  0.00    -0.248 NA
ATOM     39  C   UNL A   1      39.786  30.950  30.494  1.00  0.00     0.031 C 
ATOM     40  C   UNL A   1      39.457  26.611  28.001  1.00  0.00     0.029 A 
ATOM     41  N   UNL A   1      41.399  27.088  28.994  1.00  0.00    -0.354 N 
ATOM     42  C   UNL A   1      41.927  30.671  31.260  1.00  0.00     0.074 A 
ATOM     43  C   UNL A   1      40.752  31.515  31.205  1.00  0.00     0.031 C 
ATOM     44  C   UNL A   1      40.289  25.578  27.786  1.00  0.00     0.029 A 
ATOM     45  C   UNL A   1      41.588  25.870  28.383  1.00  0.00     0.049 A 
ATOM     46  H   UNL A   1      42.095  27.537  29.527  1.00  0.00     0.167 HD
ATOM     47  C   UNL A   1      43.038  30.957  31.980  1.00  0.00     0.037 A 
ATOM     48  C   UNL A   1      42.679  25.083  28.297  1.00  0.00     0.037 A 
ATOM     49  C   UNL A   1      44.218  30.134  32.033  1.00  0.00     0.049 A 
ATOM     50  C   UNL A   1      43.949  25.484  28.996  1.00  0.00     0.074 A 
ATOM     51  C   UNL A   1      45.383  30.352  32.750  1.00  0.00     0.029 A 
ATOM     52  N   UNL A   1      44.391  28.947  31.341  1.00  0.00    -0.354 N 
ATOM     53  N   UNL A   1      44.174  26.525  29.759  1.00  0.00    -0.248 NA
ATOM     54  C   UNL A   1      45.115  24.600  28.834  1.00  0.00     0.031 C 
ATOM     55  C   UNL A   1      46.280  29.324  32.451  1.00  0.00     0.029 A 
ATOM     56  C   UNL A   1      45.655  28.438  31.589  1.00  0.00     0.049 A 
ATOM     57  H   UNL A   1      43.717  28.528  30.759  1.00  0.00     0.167 HD
ATOM     58  C   UNL A   1      45.486  26.400  30.200  1.00  0.00     0.074 A 
ATOM     59  C   UNL A   1      46.013  25.185  29.616  1.00  0.00     0.031 C 
ATOM     60  C   UNL A   1      46.180  27.220  31.025  1.00  0.00     0.037 A 
BRANCH  47  61
ATOM     61  C   UNL A   1      43.033  32.224  32.782  1.00  0.00     0.057 A 
ATOM     62  C   UNL A   1      42.629  32.238  34.123  1.00  0.00     0.134 A 
ATOM     63  C   UNL A   1      43.494  33.424  32.229  1.00  0.00     0.134 A 
ATOM     64  F   UNL A   1      42.169  31.121  34.706  1.00  0.00    -0.206 F 
ATOM     65  C   UNL A   1      42.674  33.407  34.884  1.00  0.00     0.040 A 
ATOM     66  C   UNL A   1      43.566  34.594  32.987  1.00  0.00     0.040 A 
ATOM     67  F   UNL A   1      43.903  33.474  30.953  1.00  0.00    -0.206 F 
ATOM     68  C   UNL A   1      43.152  34.587  34.319  1.00  0.00     0.006 A 
ENDBRANCH  47  61
BRANCH  48  69
ATOM     69  C   UNL A   1      42.618  23.818  27.518  1.00  0.00     0.057 A 
ATOM     70  C   UNL A   1      42.846  23.805  26.137  1.00  0.00     0.134 A 
ATOM     71  C   UNL A   1      42.328  22.594  28.134  1.00  0.00     0.134 A 
ATOM     72  F   UNL A   1      43.102  24.948  25.485  1.00  0.00    -0.206 F 
ATOM     73  C   UNL A   1      42.777  22.624  25.396  1.00  0.00     0.040 A 
ATOM     74  C   UNL A   1      42.277  21.403  27.409  1.00  0.00     0.040 A 
ATOM     75  F   UNL A   1      42.099  22.537  29.454  1.00  0.00    -0.206 F 
ATOM     76  C   UNL A   1      42.498  21.416  26.034  1.00  0.00     0.006 A 
ENDBRANCH  48  69
BRANCH  60  77
ATOM     77  C   UNL A   1      47.581  26.833  31.397  1.00  0.00     0.057 A 
ATOM     78  C   UNL A   1      47.849  25.954  32.452  1.00  0.00     0.134 A 
ATOM     79  C   UNL A   1      48.667  27.262  30.620  1.00  0.00     0.134 A 
ATOM     80  F   UNL A   1      46.857  25.515  33.240  1.00  0.00    -0.206 F 
ATOM     81  C   UNL A   1      49.147  25.512  32.719  1.00  0.00     0.040 A 
ATOM     82  C   UNL A   1      49.964  26.810  30.863  1.00  0.00     0.040 A 
ATOM     83  F   UNL A   1      48.477  28.099  29.588  1.00  0.00    -0.206 F 
ATOM     84  C   UNL A   1      50.206  25.930  31.915  1.00  0.00     0.006 A 
ENDBRANCH  60  77
ENDBRANCH  34  35
ENDBRANCH  27  29
ENDBRANCH  26  27
ENDBRANCH  25  26
ENDBRANCH  24  25
ENDBRANCH  23  24
ENDBRANCH  22  23
ENDBRANCH  21  22
ENDBRANCH  20  21
ENDBRANCH   1  20
TORSDOF 23
ENDMDL
