MODEL 1
REMARK VINA RESULT:     -10.9      0.000      0.000
REMARK SMILES C[C@H]1OCC[C@@H]1C(=O)Nc1sc2c(c1C(=O)OCCOCCOCCOCCOC(=O)c1ccc(-c3c4nc(c(-c5c(F)cccc5F)c5ccc([nH]5)c(-c5c(F)cccc5F)c5nc(c(-c6c(F)cccc6F)c6ccc3[nH]6)C=C5)C=C4)cc1)CCC2
REMARK SMILES IDX 23 1 22 2 21 3 20 4 19 5 18 6 17 7 15 8 16 9 14 10 10 11
REMARK SMILES IDX 11 12 12 13 13 14 88 15 86 16 87 17 9 18 7 19 8 20 6 22 1 23
REMARK SMILES IDX 2 24 3 25 4 26 5 27 24 28 25 29 26 30 27 31 28 32 29 33
REMARK SMILES IDX 30 34 31 35 32 36 33 37 85 38 34 39 84 40 35 41 36 42 37 43
REMARK SMILES IDX 78 44 38 45 83 46 77 47 79 48 39 49 82 50 76 51 75 52 40 54
REMARK SMILES IDX 66 55 49 56 65 57 50 58 53 59 64 60 80 61 51 62 52 63 63 65
REMARK SMILES IDX 81 66 54 67 41 68 42 69 47 70 43 71 44 72 46 73 48 74 45 75
REMARK SMILES IDX 67 76 68 77 73 78 69 79 70 80 72 81 74 82 71 83 55 84 56 85
REMARK SMILES IDX 61 86 57 87 58 88 60 89 62 90 59 91
REMARK H PARENT 9 21 79 53 53 64
REMARK Flexibility Score: inf
ROOT
ATOM      1  O   UNL A   1      36.938  22.110  24.541  1.00  0.00    -0.377 OA
ENDROOT
BRANCH   1   2
ATOM      2  C   UNL A   1      35.916  22.603  25.403  1.00  0.00     0.188 C 
BRANCH   2   3
ATOM      3  C   UNL A   1      34.549  22.145  24.923  1.00  0.00     0.188 C 
BRANCH   3   4
ATOM      4  O   UNL A   1      34.353  22.408  23.538  1.00  0.00    -0.376 OA
BRANCH   4   5
ATOM      5  C   UNL A   1      34.404  23.791  23.163  1.00  0.00     0.202 C 
BRANCH   5   6
ATOM      6  C   UNL A   1      33.454  24.165  22.010  1.00  0.00     0.261 C 
BRANCH   6   7
ATOM      7  O   UNL A   1      32.172  24.696  22.443  1.00  0.00    -0.460 OA
BRANCH   7   8
ATOM      8  C   UNL A   1      32.009  26.054  22.268  1.00  0.00     0.341 C 
ATOM      9  O   UNL A   1      32.807  26.763  21.676  1.00  0.00    -0.246 OA
BRANCH   8  10
ATOM     10  C   UNL A   1      30.773  26.600  22.849  1.00  0.00     0.098 A 
ATOM     11  C   UNL A   1      30.020  25.962  23.838  1.00  0.00     0.110 A 
ATOM     12  S   UNL A   1      28.486  26.678  24.128  1.00  0.00    -0.122 S 
ATOM     13  C   UNL A   1      28.956  28.010  23.251  1.00  0.00     0.011 A 
ATOM     14  C   UNL A   1      30.163  27.874  22.613  1.00  0.00    -0.017 A 
ATOM     15  C   UNL A   1      28.327  29.340  23.126  1.00  0.00     0.047 C 
ATOM     16  C   UNL A   1      30.522  29.146  21.931  1.00  0.00     0.038 C 
ATOM     17  C   UNL A   1      29.531  30.166  22.593  1.00  0.00     0.010 C 
BRANCH  11  18
ATOM     18  N   UNL A   1      30.255  24.856  24.632  1.00  0.00    -0.317 N 
ATOM     19  C   UNL A   1      30.514  25.006  25.979  1.00  0.00     0.230 C 
ATOM     20  O   UNL A   1      29.892  24.280  26.765  1.00  0.00    -0.274 OA
ATOM     21  H   UNL A   1      30.240  23.956  24.234  1.00  0.00     0.170 HD
BRANCH  19  22
ATOM     22  C   UNL A   1      31.610  25.925  26.531  1.00  0.00     0.110 C 
ATOM     23  C   UNL A   1      31.580  28.203  27.624  1.00  0.00     0.039 C 
ATOM     24  C   UNL A   1      31.440  27.428  26.316  1.00  0.00     0.127 C 
ATOM     25  O   UNL A   1      32.531  27.903  25.501  1.00  0.00    -0.378 OA
ATOM     26  C   UNL A   1      33.364  26.804  25.157  1.00  0.00     0.161 C 
ATOM     27  C   UNL A   1      33.021  25.685  26.104  1.00  0.00     0.044 C 
ENDBRANCH  19  22
ENDBRANCH  11  18
ENDBRANCH   8  10
ENDBRANCH   7   8
ENDBRANCH   6   7
ENDBRANCH   5   6
ENDBRANCH   4   5
ENDBRANCH   3   4
ENDBRANCH   2   3
ENDBRANCH   1   2
BRANCH   1  28
ATOM     28  C   UNL A   1      37.747  21.062  25.062  1.00  0.00     0.188 C 
BRANCH  28  29
ATOM     29  C   UNL A   1      39.064  21.455  25.749  1.00  0.00     0.188 C 
BRANCH  29  30
ATOM     30  O   UNL A   1      39.982  20.446  26.180  1.00  0.00    -0.376 OA
BRANCH  30  31
ATOM     31  C   UNL A   1      41.220  20.767  26.816  1.00  0.00     0.202 C 
BRANCH  31  32
ATOM     32  C   UNL A   1      42.440  19.979  26.365  1.00  0.00     0.261 C 
BRANCH  32  33
ATOM     33  O   UNL A   1      42.989  20.636  25.240  1.00  0.00    -0.460 OA
BRANCH  33  34
ATOM     34  C   UNL A   1      44.265  20.263  25.002  1.00  0.00     0.338 C 
ATOM     35  O   UNL A   1      44.760  19.167  25.189  1.00  0.00    -0.246 OA
BRANCH  34  36
ATOM     36  C   UNL A   1      45.009  21.443  24.484  1.00  0.00     0.060 A 
ATOM     37  C   UNL A   1      45.964  21.813  25.424  1.00  0.00     0.016 A 
ATOM     38  C   UNL A   1      44.173  22.385  23.870  1.00  0.00     0.016 A 
ATOM     39  C   UNL A   1      45.625  22.893  26.190  1.00  0.00     0.010 A 
ATOM     40  C   UNL A   1      43.823  23.470  24.628  1.00  0.00     0.010 A 
ATOM     41  C   UNL A   1      44.489  23.642  25.836  1.00  0.00    -0.014 A 
BRANCH  41  42
ATOM     42  C   UNL A   1      44.213  24.783  26.663  1.00  0.00     0.031 A 
ATOM     43  C   UNL A   1      45.347  25.725  26.599  1.00  0.00     0.074 A 
ATOM     44  C   UNL A   1      43.078  24.976  27.348  1.00  0.00     0.049 A 
ATOM     45  N   UNL A   1      46.213  25.969  27.521  1.00  0.00    -0.248 NA
ATOM     46  C   UNL A   1      45.716  26.225  25.261  1.00  0.00     0.031 C 
ATOM     47  C   UNL A   1      41.804  24.267  27.261  1.00  0.00     0.029 A 
ATOM     48  N   UNL A   1      42.827  25.963  28.241  1.00  0.00    -0.354 N 
ATOM     49  C   UNL A   1      47.135  26.820  26.928  1.00  0.00     0.074 A 
ATOM     50  C   UNL A   1      46.911  26.753  25.512  1.00  0.00     0.031 C 
ATOM     51  C   UNL A   1      40.854  24.997  27.898  1.00  0.00     0.029 A 
ATOM     52  C   UNL A   1      41.486  26.146  28.531  1.00  0.00     0.049 A 
ATOM     53  H   UNL A   1      43.538  26.505  28.650  1.00  0.00     0.167 HD
ATOM     54  C   UNL A   1      47.811  27.729  27.674  1.00  0.00     0.037 A 
ATOM     55  C   UNL A   1      40.978  27.237  29.156  1.00  0.00     0.037 A 
ATOM     56  C   UNL A   1      47.853  27.328  29.060  1.00  0.00     0.049 A 
ATOM     57  C   UNL A   1      42.110  27.926  29.840  1.00  0.00     0.074 A 
ATOM     58  C   UNL A   1      48.347  26.222  29.728  1.00  0.00     0.029 A 
ATOM     59  N   UNL A   1      46.975  27.927  29.933  1.00  0.00    -0.354 N 
ATOM     60  N   UNL A   1      42.730  27.451  30.884  1.00  0.00    -0.248 NA
ATOM     61  C   UNL A   1      42.854  28.925  29.081  1.00  0.00     0.031 C 
ATOM     62  C   UNL A   1      47.402  25.956  30.764  1.00  0.00     0.029 A 
ATOM     63  C   UNL A   1      46.415  26.939  30.703  1.00  0.00     0.049 A 
ATOM     64  H   UNL A   1      46.783  28.890  29.994  1.00  0.00     0.167 HD
ATOM     65  C   UNL A   1      44.068  27.761  30.681  1.00  0.00     0.074 A 
ATOM     66  C   UNL A   1      44.073  28.740  29.597  1.00  0.00     0.031 C 
ATOM     67  C   UNL A   1      45.061  26.984  31.207  1.00  0.00     0.037 A 
BRANCH  54  68
ATOM     68  C   UNL A   1      48.031  29.147  27.207  1.00  0.00     0.057 A 
ATOM     69  C   UNL A   1      49.331  29.674  27.258  1.00  0.00     0.134 A 
ATOM     70  C   UNL A   1      47.011  30.101  26.989  1.00  0.00     0.134 A 
ATOM     71  F   UNL A   1      50.391  28.875  27.458  1.00  0.00    -0.206 F 
ATOM     72  C   UNL A   1      49.584  31.049  27.195  1.00  0.00     0.040 A 
ATOM     73  C   UNL A   1      47.258  31.469  26.875  1.00  0.00     0.040 A 
ATOM     74  F   UNL A   1      45.710  29.795  26.968  1.00  0.00    -0.206 F 
ATOM     75  C   UNL A   1      48.544  31.952  27.015  1.00  0.00     0.006 A 
ENDBRANCH  54  68
BRANCH  55  76
ATOM     76  C   UNL A   1      39.678  27.909  28.934  1.00  0.00     0.057 A 
ATOM     77  C   UNL A   1      38.758  28.046  29.984  1.00  0.00     0.134 A 
ATOM     78  C   UNL A   1      39.422  28.680  27.788  1.00  0.00     0.134 A 
ATOM     79  F   UNL A   1      38.934  27.379  31.135  1.00  0.00    -0.206 F 
ATOM     80  C   UNL A   1      37.669  28.924  29.913  1.00  0.00     0.040 A 
ATOM     81  C   UNL A   1      38.333  29.553  27.700  1.00  0.00     0.040 A 
ATOM     82  F   UNL A   1      40.268  28.687  26.747  1.00  0.00    -0.206 F 
ATOM     83  C   UNL A   1      37.461  29.691  28.772  1.00  0.00     0.006 A 
ENDBRANCH  55  76
BRANCH  67  84
ATOM     84  C   UNL A   1      44.669  25.933  32.209  1.00  0.00     0.057 A 
ATOM     85  C   UNL A   1      44.434  24.587  31.885  1.00  0.00     0.134 A 
ATOM     86  C   UNL A   1      44.660  26.266  33.568  1.00  0.00     0.134 A 
ATOM     87  F   UNL A   1      44.526  24.151  30.623  1.00  0.00    -0.206 F 
ATOM     88  C   UNL A   1      44.147  23.632  32.867  1.00  0.00     0.040 A 
ATOM     89  C   UNL A   1      44.412  25.314  34.559  1.00  0.00     0.040 A 
ATOM     90  F   UNL A   1      44.934  27.521  33.959  1.00  0.00    -0.206 F 
ATOM     91  C   UNL A   1      44.141  23.994  34.210  1.00  0.00     0.006 A 
ENDBRANCH  67  84
ENDBRANCH  41  42
ENDBRANCH  34  36
ENDBRANCH  33  34
ENDBRANCH  32  33
ENDBRANCH  31  32
ENDBRANCH  30  31
ENDBRANCH  29  30
ENDBRANCH  28  29
ENDBRANCH   1  28
TORSDOF 22
ENDMDL
MODEL 2
REMARK VINA RESULT:     -10.8      1.360      2.493
REMARK SMILES C[C@H]1OCC[C@@H]1C(=O)Nc1sc2c(c1C(=O)OCCOCCOCCOCCOC(=O)c1ccc(-c3c4nc(c(-c5c(F)cccc5F)c5ccc([nH]5)c(-c5c(F)cccc5F)c5nc(c(-c6c(F)cccc6F)c6ccc3[nH]6)C=C5)C=C4)cc1)CCC2
REMARK SMILES IDX 23 1 22 2 21 3 20 4 19 5 18 6 17 7 15 8 16 9 14 10 10 11
REMARK SMILES IDX 11 12 12 13 13 14 88 15 86 16 87 17 9 18 7 19 8 20 6 22 1 23
REMARK SMILES IDX 2 24 3 25 4 26 5 27 24 28 25 29 26 30 27 31 28 32 29 33
REMARK SMILES IDX 30 34 31 35 32 36 33 37 85 38 34 39 84 40 35 41 36 42 37 43
REMARK SMILES IDX 78 44 38 45 83 46 77 47 79 48 39 49 82 50 76 51 75 52 40 54
REMARK SMILES IDX 66 55 49 56 65 57 50 58 53 59 64 60 80 61 51 62 52 63 63 65
REMARK SMILES IDX 81 66 54 67 41 68 42 69 47 70 43 71 44 72 46 73 48 74 45 75
REMARK SMILES IDX 67 76 68 77 73 78 69 79 70 80 72 81 74 82 71 83 55 84 56 85
REMARK SMILES IDX 61 86 57 87 58 88 60 89 62 90 59 91
REMARK H PARENT 9 21 79 53 53 64
REMARK Flexibility Score: inf
ROOT
ATOM      1  O   UNL A   1      38.690  21.681  25.938  1.00  0.00    -0.377 OA
ENDROOT
BRANCH   1   2
ATOM      2  C   UNL A   1      37.689  21.245  25.024  1.00  0.00     0.188 C 
BRANCH   2   3
ATOM      3  C   UNL A   1      36.332  21.193  25.705  1.00  0.00     0.188 C 
BRANCH   3   4
ATOM      4  O   UNL A   1      35.311  21.783  24.907  1.00  0.00    -0.376 OA
BRANCH   4   5
ATOM      5  C   UNL A   1      35.734  22.254  23.621  1.00  0.00     0.202 C 
BRANCH   5   6
ATOM      6  C   UNL A   1      35.448  23.748  23.374  1.00  0.00     0.261 C 
BRANCH   6   7
ATOM      7  O   UNL A   1      34.387  24.000  22.412  1.00  0.00    -0.460 OA
BRANCH   7   8
ATOM      8  C   UNL A   1      33.680  25.168  22.610  1.00  0.00     0.341 C 
ATOM      9  O   UNL A   1      33.541  26.030  21.757  1.00  0.00    -0.246 OA
BRANCH   8  10
ATOM     10  C   UNL A   1      33.083  25.300  23.947  1.00  0.00     0.098 A 
ATOM     11  C   UNL A   1      32.997  26.500  24.655  1.00  0.00     0.110 A 
ATOM     12  S   UNL A   1      32.517  26.320  26.294  1.00  0.00    -0.122 S 
ATOM     13  C   UNL A   1      32.067  24.751  25.976  1.00  0.00     0.011 A 
ATOM     14  C   UNL A   1      32.410  24.304  24.725  1.00  0.00    -0.017 A 
ATOM     15  C   UNL A   1      31.282  23.801  26.790  1.00  0.00     0.047 C 
ATOM     16  C   UNL A   1      31.890  22.926  24.520  1.00  0.00     0.038 C 
ATOM     17  C   UNL A   1      30.857  22.785  25.693  1.00  0.00     0.010 C 
BRANCH  11  18
ATOM     18  N   UNL A   1      33.231  27.817  24.306  1.00  0.00    -0.317 N 
ATOM     19  C   UNL A   1      32.298  28.792  24.595  1.00  0.00     0.230 C 
ATOM     20  O   UNL A   1      32.705  29.834  25.125  1.00  0.00    -0.274 OA
ATOM     21  H   UNL A   1      34.067  28.061  23.847  1.00  0.00     0.170 HD
BRANCH  19  22
ATOM     22  C   UNL A   1      30.825  28.700  24.181  1.00  0.00     0.110 C 
ATOM     23  C   UNL A   1      29.300  26.771  23.600  1.00  0.00     0.039 C 
ATOM     24  C   UNL A   1      30.454  27.654  23.132  1.00  0.00     0.127 C 
ATOM     25  O   UNL A   1      29.935  28.331  21.968  1.00  0.00    -0.378 OA
ATOM     26  C   UNL A   1      29.980  29.734  22.192  1.00  0.00     0.161 C 
ATOM     27  C   UNL A   1      30.150  29.934  23.674  1.00  0.00     0.044 C 
ENDBRANCH  19  22
ENDBRANCH  11  18
ENDBRANCH   8  10
ENDBRANCH   7   8
ENDBRANCH   6   7
ENDBRANCH   5   6
ENDBRANCH   4   5
ENDBRANCH   3   4
ENDBRANCH   2   3
ENDBRANCH   1   2
BRANCH   1  28
ATOM     28  C   UNL A   1      39.800  20.808  26.117  1.00  0.00     0.188 C 
BRANCH  28  29
ATOM     29  C   UNL A   1      41.130  21.433  26.567  1.00  0.00     0.188 C 
BRANCH  29  30
ATOM     30  O   UNL A   1      42.300  20.620  26.701  1.00  0.00    -0.376 OA
BRANCH  30  31
ATOM     31  C   UNL A   1      42.426  19.357  26.045  1.00  0.00     0.202 C 
BRANCH  31  32
ATOM     32  C   UNL A   1      43.735  19.097  25.317  1.00  0.00     0.261 C 
BRANCH  32  33
ATOM     33  O   UNL A   1      44.015  20.227  24.513  1.00  0.00    -0.460 OA
BRANCH  33  34
ATOM     34  C   UNL A   1      45.217  20.772  24.798  1.00  0.00     0.338 C 
ATOM     35  O   UNL A   1      46.078  20.319  25.529  1.00  0.00    -0.246 OA
BRANCH  34  36
ATOM     36  C   UNL A   1      45.325  22.071  24.079  1.00  0.00     0.060 A 
ATOM     37  C   UNL A   1      46.377  22.795  24.626  1.00  0.00     0.016 A 
ATOM     38  C   UNL A   1      44.076  22.657  23.827  1.00  0.00     0.016 A 
ATOM     39  C   UNL A   1      46.003  23.786  25.490  1.00  0.00     0.010 A 
ATOM     40  C   UNL A   1      43.689  23.648  24.688  1.00  0.00     0.010 A 
ATOM     41  C   UNL A   1      44.641  24.121  25.583  1.00  0.00    -0.014 A 
BRANCH  41  42
ATOM     42  C   UNL A   1      44.324  25.194  26.483  1.00  0.00     0.031 A 
ATOM     43  C   UNL A   1      45.386  26.216  26.426  1.00  0.00     0.074 A 
ATOM     44  C   UNL A   1      43.210  25.269  27.224  1.00  0.00     0.049 A 
ATOM     45  N   UNL A   1      46.274  26.472  27.325  1.00  0.00    -0.248 NA
ATOM     46  C   UNL A   1      45.661  26.811  25.105  1.00  0.00     0.031 C 
ATOM     47  C   UNL A   1      41.985  24.477  27.149  1.00  0.00     0.029 A 
ATOM     48  N   UNL A   1      42.931  26.187  28.181  1.00  0.00    -0.354 N 
ATOM     49  C   UNL A   1      47.108  27.417  26.744  1.00  0.00     0.074 A 
ATOM     50  C   UNL A   1      46.826  27.409  25.337  1.00  0.00     0.031 C 
ATOM     51  C   UNL A   1      41.017  25.103  27.863  1.00  0.00     0.029 A 
ATOM     52  C   UNL A   1      41.595  26.258  28.535  1.00  0.00     0.049 A 
ATOM     53  H   UNL A   1      43.621  26.756  28.590  1.00  0.00     0.167 HD
ATOM     54  C   UNL A   1      47.752  28.330  27.512  1.00  0.00     0.037 A 
ATOM     55  C   UNL A   1      41.042  27.276  29.240  1.00  0.00     0.037 A 
ATOM     56  C   UNL A   1      47.883  27.860  28.870  1.00  0.00     0.049 A 
ATOM     57  C   UNL A   1      42.152  28.006  29.915  1.00  0.00     0.074 A 
ATOM     58  C   UNL A   1      48.481  26.758  29.454  1.00  0.00     0.029 A 
ATOM     59  N   UNL A   1      47.006  28.348  29.809  1.00  0.00    -0.354 N 
ATOM     60  N   UNL A   1      42.849  27.522  30.904  1.00  0.00    -0.248 NA
ATOM     61  C   UNL A   1      42.792  29.094  29.183  1.00  0.00     0.031 C 
ATOM     62  C   UNL A   1      47.604  26.371  30.511  1.00  0.00     0.029 A 
ATOM     63  C   UNL A   1      46.550  27.283  30.545  1.00  0.00     0.049 A 
ATOM     64  H   UNL A   1      46.751  29.291  29.932  1.00  0.00     0.167 HD
ATOM     65  C   UNL A   1      44.153  27.936  30.665  1.00  0.00     0.074 A 
ATOM     66  C   UNL A   1      44.042  28.969  29.638  1.00  0.00     0.031 C 
ATOM     67  C   UNL A   1      45.220  27.205  31.105  1.00  0.00     0.037 A 
BRANCH  54  68
ATOM     68  C   UNL A   1      47.853  29.783  27.116  1.00  0.00     0.057 A 
ATOM     69  C   UNL A   1      49.101  30.419  27.217  1.00  0.00     0.134 A 
ATOM     70  C   UNL A   1      46.756  30.653  26.924  1.00  0.00     0.134 A 
ATOM     71  F   UNL A   1      50.224  29.707  27.400  1.00  0.00    -0.206 F 
ATOM     72  C   UNL A   1      49.232  31.812  27.224  1.00  0.00     0.040 A 
ATOM     73  C   UNL A   1      46.884  32.042  26.879  1.00  0.00     0.040 A 
ATOM     74  F   UNL A   1      45.488  30.237  26.863  1.00  0.00    -0.206 F 
ATOM     75  C   UNL A   1      48.119  32.628  27.067  1.00  0.00     0.006 A 
ENDBRANCH  54  68
BRANCH  55  76
ATOM     76  C   UNL A   1      39.690  27.865  29.109  1.00  0.00     0.057 A 
ATOM     77  C   UNL A   1      38.864  28.010  30.233  1.00  0.00     0.134 A 
ATOM     78  C   UNL A   1      39.285  28.556  27.954  1.00  0.00     0.134 A 
ATOM     79  F   UNL A   1      39.184  27.419  31.394  1.00  0.00    -0.206 F 
ATOM     80  C   UNL A   1      37.724  28.824  30.222  1.00  0.00     0.040 A 
ATOM     81  C   UNL A   1      38.144  29.364  27.927  1.00  0.00     0.040 A 
ATOM     82  F   UNL A   1      40.030  28.550  26.839  1.00  0.00    -0.206 F 
ATOM     83  C   UNL A   1      37.368  29.515  29.068  1.00  0.00     0.006 A 
ENDBRANCH  55  76
BRANCH  67  84
ATOM     84  C   UNL A   1      44.946  26.077  32.062  1.00  0.00     0.057 A 
ATOM     85  C   UNL A   1      44.558  24.788  31.666  1.00  0.00     0.134 A 
ATOM     86  C   UNL A   1      45.213  26.266  33.422  1.00  0.00     0.134 A 
ATOM     87  F   UNL A   1      44.382  24.481  30.374  1.00  0.00    -0.206 F 
ATOM     88  C   UNL A   1      44.390  23.751  32.591  1.00  0.00     0.040 A 
ATOM     89  C   UNL A   1      45.086  25.230  34.350  1.00  0.00     0.040 A 
ATOM     90  F   UNL A   1      45.646  27.456  33.868  1.00  0.00    -0.206 F 
ATOM     91  C   UNL A   1      44.660  23.970  33.938  1.00  0.00     0.006 A 
ENDBRANCH  67  84
ENDBRANCH  41  42
ENDBRANCH  34  36
ENDBRANCH  33  34
ENDBRANCH  32  33
ENDBRANCH  31  32
ENDBRANCH  30  31
ENDBRANCH  29  30
ENDBRANCH  28  29
ENDBRANCH   1  28
TORSDOF 22
ENDMDL
MODEL 3
REMARK VINA RESULT:     -10.8      4.792     10.039
REMARK SMILES C[C@H]1OCC[C@@H]1C(=O)Nc1sc2c(c1C(=O)OCCOCCOCCOCCOC(=O)c1ccc(-c3c4nc(c(-c5c(F)cccc5F)c5ccc([nH]5)c(-c5c(F)cccc5F)c5nc(c(-c6c(F)cccc6F)c6ccc3[nH]6)C=C5)C=C4)cc1)CCC2
REMARK SMILES IDX 23 1 22 2 21 3 20 4 19 5 18 6 17 7 15 8 16 9 14 10 10 11
REMARK SMILES IDX 11 12 12 13 13 14 88 15 86 16 87 17 9 18 7 19 8 20 6 22 1 23
REMARK SMILES IDX 2 24 3 25 4 26 5 27 24 28 25 29 26 30 27 31 28 32 29 33
REMARK SMILES IDX 30 34 31 35 32 36 33 37 85 38 34 39 84 40 35 41 36 42 37 43
REMARK SMILES IDX 78 44 38 45 83 46 77 47 79 48 39 49 82 50 76 51 75 52 40 54
REMARK SMILES IDX 66 55 49 56 65 57 50 58 53 59 64 60 80 61 51 62 52 63 63 65
REMARK SMILES IDX 81 66 54 67 41 68 42 69 47 70 43 71 44 72 46 73 48 74 45 75
REMARK SMILES IDX 67 76 68 77 73 78 69 79 70 80 72 81 74 82 71 83 55 84 56 85
REMARK SMILES IDX 61 86 57 87 58 88 60 89 62 90 59 91
REMARK H PARENT 9 21 79 53 53 64
REMARK Flexibility Score: inf
ROOT
ATOM      1  O   UNL A   1      33.994  34.293  28.011  1.00  0.00    -0.377 OA
ENDROOT
BRANCH   1   2
ATOM      2  C   UNL A   1      35.028  33.314  28.064  1.00  0.00     0.188 C 
BRANCH   2   3
ATOM      3  C   UNL A   1      34.442  31.933  28.301  1.00  0.00     0.188 C 
BRANCH   3   4
ATOM      4  O   UNL A   1      34.417  31.153  27.112  1.00  0.00    -0.376 OA
BRANCH   4   5
ATOM      5  C   UNL A   1      33.372  30.173  27.042  1.00  0.00     0.202 C 
BRANCH   5   6
ATOM      6  C   UNL A   1      33.818  28.750  27.426  1.00  0.00     0.261 C 
BRANCH   6   7
ATOM      7  O   UNL A   1      33.244  27.702  26.597  1.00  0.00    -0.460 OA
BRANCH   7   8
ATOM      8  C   UNL A   1      31.904  27.453  26.808  1.00  0.00     0.341 C 
ATOM      9  O   UNL A   1      31.387  27.416  27.914  1.00  0.00    -0.246 OA
BRANCH   8  10
ATOM     10  C   UNL A   1      31.122  27.241  25.581  1.00  0.00     0.098 A 
ATOM     11  C   UNL A   1      30.504  26.036  25.241  1.00  0.00     0.110 A 
ATOM     12  S   UNL A   1      29.903  25.981  23.633  1.00  0.00    -0.122 S 
ATOM     13  C   UNL A   1      30.110  27.626  23.513  1.00  0.00     0.011 A 
ATOM     14  C   UNL A   1      30.762  28.196  24.577  1.00  0.00    -0.017 A 
ATOM     15  C   UNL A   1      29.625  28.576  22.492  1.00  0.00     0.047 C 
ATOM     16  C   UNL A   1      30.819  29.672  24.405  1.00  0.00     0.038 C 
ATOM     17  C   UNL A   1      29.759  29.913  23.274  1.00  0.00     0.010 C 
BRANCH  11  18
ATOM     18  N   UNL A   1      30.283  24.863  25.937  1.00  0.00    -0.317 N 
ATOM     19  C   UNL A   1      31.347  24.117  26.404  1.00  0.00     0.230 C 
ATOM     20  O   UNL A   1      31.303  23.731  27.579  1.00  0.00    -0.274 OA
ATOM     21  H   UNL A   1      29.362  24.557  26.101  1.00  0.00     0.170 HD
BRANCH  19  22
ATOM     22  C   UNL A   1      32.501  23.644  25.513  1.00  0.00     0.110 C 
ATOM     23  C   UNL A   1      32.843  21.620  24.040  1.00  0.00     0.039 C 
ATOM     24  C   UNL A   1      32.789  22.145  25.473  1.00  0.00     0.127 C 
ATOM     25  O   UNL A   1      34.117  21.915  25.987  1.00  0.00    -0.378 OA
ATOM     26  C   UNL A   1      34.681  23.159  26.381  1.00  0.00     0.161 C 
ATOM     27  C   UNL A   1      33.856  24.237  25.730  1.00  0.00     0.044 C 
ENDBRANCH  19  22
ENDBRANCH  11  18
ENDBRANCH   8  10
ENDBRANCH   7   8
ENDBRANCH   6   7
ENDBRANCH   5   6
ENDBRANCH   4   5
ENDBRANCH   3   4
ENDBRANCH   2   3
ENDBRANCH   1   2
BRANCH   1  28
ATOM     28  C   UNL A   1      34.385  35.635  28.280  1.00  0.00     0.188 C 
BRANCH  28  29
ATOM     29  C   UNL A   1      33.364  36.547  28.977  1.00  0.00     0.188 C 
BRANCH  29  30
ATOM     30  O   UNL A   1      32.448  36.004  29.933  1.00  0.00    -0.376 OA
BRANCH  30  31
ATOM     31  C   UNL A   1      32.297  36.560  31.240  1.00  0.00     0.202 C 
BRANCH  31  32
ATOM     32  C   UNL A   1      32.408  35.591  32.407  1.00  0.00     0.261 C 
BRANCH  32  33
ATOM     33  O   UNL A   1      33.555  34.790  32.197  1.00  0.00    -0.460 OA
BRANCH  33  34
ATOM     34  C   UNL A   1      34.591  35.170  32.975  1.00  0.00     0.338 C 
ATOM     35  O   UNL A   1      35.181  36.233  32.951  1.00  0.00    -0.246 OA
BRANCH  34  36
ATOM     36  C   UNL A   1      34.936  34.040  33.880  1.00  0.00     0.060 A 
ATOM     37  C   UNL A   1      36.142  34.325  34.508  1.00  0.00     0.016 A 
ATOM     38  C   UNL A   1      34.680  32.786  33.306  1.00  0.00     0.016 A 
ATOM     39  C   UNL A   1      37.227  33.682  33.984  1.00  0.00     0.010 A 
ATOM     40  C   UNL A   1      35.759  32.134  32.774  1.00  0.00     0.010 A 
ATOM     41  C   UNL A   1      37.016  32.664  33.038  1.00  0.00    -0.014 A 
BRANCH  41  42
ATOM     42  C   UNL A   1      38.199  32.006  32.556  1.00  0.00     0.031 A 
ATOM     43  C   UNL A   1      39.140  31.802  33.674  1.00  0.00     0.074 A 
ATOM     44  C   UNL A   1      38.391  31.604  31.292  1.00  0.00     0.049 A 
ATOM     45  N   UNL A   1      40.249  32.422  33.885  1.00  0.00    -0.248 NA
ATOM     46  C   UNL A   1      38.640  31.028  34.825  1.00  0.00     0.031 C 
ATOM     47  C   UNL A   1      37.436  31.499  30.192  1.00  0.00     0.029 A 
ATOM     48  N   UNL A   1      39.534  31.106  30.764  1.00  0.00    -0.354 N 
ATOM     49  C   UNL A   1      40.687  31.960  35.119  1.00  0.00     0.074 A 
ATOM     50  C   UNL A   1      39.570  31.303  35.735  1.00  0.00     0.031 C 
ATOM     51  C   UNL A   1      37.990  30.753  29.204  1.00  0.00     0.029 A 
ATOM     52  C   UNL A   1      39.368  30.444  29.560  1.00  0.00     0.049 A 
ATOM     53  H   UNL A   1      40.410  31.205  31.200  1.00  0.00     0.167 HD
ATOM     54  C   UNL A   1      42.012  31.905  35.401  1.00  0.00     0.037 A 
ATOM     55  C   UNL A   1      40.295  29.628  28.998  1.00  0.00     0.037 A 
ATOM     56  C   UNL A   1      42.755  32.821  34.569  1.00  0.00     0.049 A 
ATOM     57  C   UNL A   1      41.605  29.934  29.641  1.00  0.00     0.074 A 
ATOM     58  C   UNL A   1      42.722  34.191  34.378  1.00  0.00     0.029 A 
ATOM     59  N   UNL A   1      43.420  32.310  33.480  1.00  0.00    -0.354 N 
ATOM     60  N   UNL A   1      42.270  31.040  29.453  1.00  0.00    -0.248 NA
ATOM     61  C   UNL A   1      41.953  29.203  30.854  1.00  0.00     0.031 C 
ATOM     62  C   UNL A   1      42.947  34.382  32.983  1.00  0.00     0.029 A 
ATOM     63  C   UNL A   1      43.153  33.127  32.409  1.00  0.00     0.049 A 
ATOM     64  H   UNL A   1      43.985  31.505  33.470  1.00  0.00     0.167 HD
ATOM     65  C   UNL A   1      42.798  31.359  30.697  1.00  0.00     0.074 A 
ATOM     66  C   UNL A   1      42.640  30.150  31.500  1.00  0.00     0.031 C 
ATOM     67  C   UNL A   1      43.048  32.656  31.047  1.00  0.00     0.037 A 
BRANCH  54  68
ATOM     68  C   UNL A   1      42.634  30.724  36.106  1.00  0.00     0.057 A 
ATOM     69  C   UNL A   1      43.529  30.969  37.159  1.00  0.00     0.134 A 
ATOM     70  C   UNL A   1      42.627  29.394  35.628  1.00  0.00     0.134 A 
ATOM     71  F   UNL A   1      43.634  32.191  37.704  1.00  0.00    -0.206 F 
ATOM     72  C   UNL A   1      44.415  29.994  37.630  1.00  0.00     0.040 A 
ATOM     73  C   UNL A   1      43.471  28.401  36.127  1.00  0.00     0.040 A 
ATOM     74  F   UNL A   1      41.883  28.986  34.596  1.00  0.00    -0.206 F 
ATOM     75  C   UNL A   1      44.396  28.708  37.105  1.00  0.00     0.006 A 
ENDBRANCH  54  68
BRANCH  55  76
ATOM     76  C   UNL A   1      40.084  28.394  28.209  1.00  0.00     0.057 A 
ATOM     77  C   UNL A   1      40.716  28.225  26.969  1.00  0.00     0.134 A 
ATOM     78  C   UNL A   1      39.503  27.242  28.766  1.00  0.00     0.134 A 
ATOM     79  F   UNL A   1      41.332  29.256  26.372  1.00  0.00    -0.206 F 
ATOM     80  C   UNL A   1      40.798  26.977  26.336  1.00  0.00     0.040 A 
ATOM     81  C   UNL A   1      39.568  25.993  28.140  1.00  0.00     0.040 A 
ATOM     82  F   UNL A   1      38.932  27.264  29.979  1.00  0.00    -0.206 F 
ATOM     83  C   UNL A   1      40.233  25.853  26.929  1.00  0.00     0.006 A 
ENDBRANCH  55  76
BRANCH  67  84
ATOM     84  C   UNL A   1      42.966  33.699  29.967  1.00  0.00     0.057 A 
ATOM     85  C   UNL A   1      44.003  33.979  29.064  1.00  0.00     0.134 A 
ATOM     86  C   UNL A   1      41.748  34.352  29.750  1.00  0.00     0.134 A 
ATOM     87  F   UNL A   1      45.172  33.327  29.125  1.00  0.00    -0.206 F 
ATOM     88  C   UNL A   1      43.849  34.906  28.027  1.00  0.00     0.040 A 
ATOM     89  C   UNL A   1      41.569  35.251  28.697  1.00  0.00     0.040 A 
ATOM     90  F   UNL A   1      40.691  34.092  30.536  1.00  0.00    -0.206 F 
ATOM     91  C   UNL A   1      42.626  35.541  27.838  1.00  0.00     0.006 A 
ENDBRANCH  67  84
ENDBRANCH  41  42
ENDBRANCH  34  36
ENDBRANCH  33  34
ENDBRANCH  32  33
ENDBRANCH  31  32
ENDBRANCH  30  31
ENDBRANCH  29  30
ENDBRANCH  28  29
ENDBRANCH   1  28
TORSDOF 22
ENDMDL
