MODEL 1
REMARK VINA RESULT:     -10.7      0.000      0.000
REMARK SMILES O=C(OCCOCCOCCOCCOC(=O)[C@@H]1CCCC[C@H]1C(=O)Nc1cccc(-c2nnc(-c3ccccc3)o2)c1)c1ccc(-c2c3nc(c(-c4c(F)cccc4F)c4ccc([nH]4)c(-c4c(F)cccc4F)c4nc(c(-c5c(F)cccc5F)c5ccc2[nH]5)C=C4)C=C3)cc1
REMARK SMILES IDX 10 1 9 2 8 3 7 4 6 5 5 6 4 7 3 8 2 9 1 10 44 11 45 12 97 13
REMARK SMILES IDX 46 14 96 15 47 16 48 17 49 18 90 19 50 20 95 21 89 22 91 23
REMARK SMILES IDX 51 24 94 25 88 26 87 27 52 29 78 30 61 31 77 32 62 33 65 34
REMARK SMILES IDX 76 35 92 36 63 37 64 38 75 40 93 41 66 42 53 43 54 44 59 45
REMARK SMILES IDX 55 46 56 47 58 48 60 49 57 50 79 51 80 52 85 53 81 54 82 55
REMARK SMILES IDX 84 56 86 57 83 58 67 59 68 60 73 61 69 62 70 63 72 64 74 65
REMARK SMILES IDX 71 66 11 67 12 68 13 69 14 70 15 71 16 72 17 73 18 74 19 75
REMARK SMILES IDX 23 76 20 77 22 78 21 79 24 80 25 81 26 82 27 84 28 85 43 86
REMARK SMILES IDX 29 87 31 88 30 89 32 90 33 91 42 92 34 93 35 94 36 95 37 96
REMARK SMILES IDX 41 97 38 98 40 99 39 100
REMARK H PARENT 91 28 65 39 26 83
REMARK Flexibility Score: inf
ROOT
ATOM      1  C   UNL A   1      39.910  22.453  26.901  1.00  0.00     0.188 C 
ENDROOT
BRANCH   1   2
ATOM      2  O   UNL A   1      40.358  21.349  27.668  1.00  0.00    -0.377 OA
BRANCH   2   3
ATOM      3  C   UNL A   1      41.155  20.288  27.138  1.00  0.00     0.188 C 
BRANCH   3   4
ATOM      4  C   UNL A   1      42.646  20.502  26.966  1.00  0.00     0.188 C 
BRANCH   4   5
ATOM      5  O   UNL A   1      42.955  20.864  25.634  1.00  0.00    -0.376 OA
BRANCH   5   6
ATOM      6  C   UNL A   1      42.814  22.222  25.280  1.00  0.00     0.202 C 
BRANCH   6   7
ATOM      7  C   UNL A   1      44.039  22.673  24.488  1.00  0.00     0.261 C 
BRANCH   7   8
ATOM      8  O   UNL A   1      44.268  24.083  24.670  1.00  0.00    -0.460 OA
BRANCH   8   9
ATOM      9  C   UNL A   1      44.814  24.702  25.741  1.00  0.00     0.338 C 
ATOM     10  O   UNL A   1      46.012  24.526  25.978  1.00  0.00    -0.246 OA
BRANCH   9  11
ATOM     11  C   UNL A   1      44.085  25.681  26.604  1.00  0.00     0.060 A 
ATOM     12  C   UNL A   1      44.159  27.076  26.514  1.00  0.00     0.016 A 
ATOM     13  C   UNL A   1      43.180  25.129  27.526  1.00  0.00     0.016 A 
ATOM     14  C   UNL A   1      43.378  27.902  27.308  1.00  0.00     0.010 A 
ATOM     15  C   UNL A   1      42.412  25.947  28.356  1.00  0.00     0.010 A 
ATOM     16  C   UNL A   1      42.537  27.338  28.258  1.00  0.00    -0.014 A 
BRANCH  16  17
ATOM     17  C   UNL A   1      42.017  28.213  29.315  1.00  0.00     0.031 A 
ATOM     18  C   UNL A   1      42.824  28.300  30.570  1.00  0.00     0.074 A 
ATOM     19  C   UNL A   1      40.926  28.965  29.108  1.00  0.00     0.049 A 
ATOM     20  N   UNL A   1      42.534  28.858  31.711  1.00  0.00    -0.248 NA
ATOM     21  C   UNL A   1      44.154  27.664  30.529  1.00  0.00     0.031 C 
ATOM     22  C   UNL A   1      40.185  29.053  27.850  1.00  0.00     0.029 A 
ATOM     23  N   UNL A   1      40.257  29.800  29.958  1.00  0.00    -0.354 N 
ATOM     24  C   UNL A   1      43.621  28.597  32.535  1.00  0.00     0.074 A 
ATOM     25  C   UNL A   1      44.580  27.840  31.767  1.00  0.00     0.031 C 
ATOM     26  C   UNL A   1      39.142  29.883  28.019  1.00  0.00     0.029 A 
ATOM     27  C   UNL A   1      39.111  30.322  29.410  1.00  0.00     0.049 A 
ATOM     28  H   UNL A   1      40.564  30.007  30.870  1.00  0.00     0.167 HD
ATOM     29  C   UNL A   1      43.781  28.950  33.831  1.00  0.00     0.037 A 
ATOM     30  C   UNL A   1      38.130  31.025  30.004  1.00  0.00     0.037 A 
ATOM     31  C   UNL A   1      42.789  29.698  34.551  1.00  0.00     0.049 A 
ATOM     32  C   UNL A   1      38.273  31.326  31.473  1.00  0.00     0.074 A 
ATOM     33  C   UNL A   1      42.779  30.076  35.879  1.00  0.00     0.029 A 
ATOM     34  N   UNL A   1      41.613  30.177  33.982  1.00  0.00    -0.354 N 
ATOM     35  N   UNL A   1      39.257  31.011  32.286  1.00  0.00    -0.248 NA
ATOM     36  C   UNL A   1      37.177  32.060  32.111  1.00  0.00     0.031 C 
ATOM     37  C   UNL A   1      41.573  30.741  36.123  1.00  0.00     0.029 A 
ATOM     38  C   UNL A   1      40.861  30.836  34.934  1.00  0.00     0.049 A 
ATOM     39  H   UNL A   1      41.356  30.064  33.039  1.00  0.00     0.167 HD
ATOM     40  C   UNL A   1      38.914  31.532  33.525  1.00  0.00     0.074 A 
ATOM     41  C   UNL A   1      37.629  32.186  33.352  1.00  0.00     0.031 C 
ATOM     42  C   UNL A   1      39.594  31.485  34.699  1.00  0.00     0.037 A 
BRANCH  29  43
ATOM     43  C   UNL A   1      45.006  28.436  34.527  1.00  0.00     0.057 A 
ATOM     44  C   UNL A   1      45.031  27.208  35.203  1.00  0.00     0.134 A 
ATOM     45  C   UNL A   1      46.159  29.229  34.596  1.00  0.00     0.134 A 
ATOM     46  F   UNL A   1      43.950  26.413  35.209  1.00  0.00    -0.206 F 
ATOM     47  C   UNL A   1      46.139  26.809  35.957  1.00  0.00     0.040 A 
ATOM     48  C   UNL A   1      47.282  28.828  35.321  1.00  0.00     0.040 A 
ATOM     49  F   UNL A   1      46.204  30.421  33.982  1.00  0.00    -0.206 F 
ATOM     50  C   UNL A   1      47.269  27.621  36.016  1.00  0.00     0.006 A 
ENDBRANCH  29  43
BRANCH  30  51
ATOM     51  C   UNL A   1      36.931  31.431  29.227  1.00  0.00     0.057 A 
ATOM     52  C   UNL A   1      36.798  32.721  28.706  1.00  0.00     0.134 A 
ATOM     53  C   UNL A   1      35.897  30.522  28.958  1.00  0.00     0.134 A 
ATOM     54  F   UNL A   1      37.743  33.644  28.941  1.00  0.00    -0.206 F 
ATOM     55  C   UNL A   1      35.683  33.097  27.953  1.00  0.00     0.040 A 
ATOM     56  C   UNL A   1      34.788  30.876  28.185  1.00  0.00     0.040 A 
ATOM     57  F   UNL A   1      35.959  29.266  29.425  1.00  0.00    -0.206 F 
ATOM     58  C   UNL A   1      34.678  32.170  27.683  1.00  0.00     0.006 A 
ENDBRANCH  30  51
BRANCH  42  59
ATOM     59  C   UNL A   1      38.989  32.209  35.864  1.00  0.00     0.057 A 
ATOM     60  C   UNL A   1      38.203  31.554  36.818  1.00  0.00     0.134 A 
ATOM     61  C   UNL A   1      39.279  33.563  36.072  1.00  0.00     0.134 A 
ATOM     62  F   UNL A   1      37.884  30.260  36.665  1.00  0.00    -0.206 F 
ATOM     63  C   UNL A   1      37.715  32.228  37.936  1.00  0.00     0.040 A 
ATOM     64  C   UNL A   1      38.822  34.239  37.201  1.00  0.00     0.040 A 
ATOM     65  F   UNL A   1      40.039  34.240  35.197  1.00  0.00    -0.206 F 
ATOM     66  C   UNL A   1      38.034  33.571  38.136  1.00  0.00     0.006 A 
ENDBRANCH  42  59
ENDBRANCH  16  17
ENDBRANCH   9  11
ENDBRANCH   8   9
ENDBRANCH   7   8
ENDBRANCH   6   7
ENDBRANCH   5   6
ENDBRANCH   4   5
ENDBRANCH   3   4
ENDBRANCH   2   3
ENDBRANCH   1   2
BRANCH   1  67
ATOM     67  C   UNL A   1      38.619  22.212  26.123  1.00  0.00     0.188 C 
BRANCH  67  68
ATOM     68  O   UNL A   1      38.588  21.046  25.320  1.00  0.00    -0.376 OA
BRANCH  68  69
ATOM     69  C   UNL A   1      37.449  20.833  24.492  1.00  0.00     0.202 C 
BRANCH  69  70
ATOM     70  C   UNL A   1      36.342  19.849  24.956  1.00  0.00     0.261 C 
BRANCH  70  71
ATOM     71  O   UNL A   1      35.219  20.405  25.712  1.00  0.00    -0.463 OA
BRANCH  71  72
ATOM     72  C   UNL A   1      34.001  20.357  25.116  1.00  0.00     0.309 C 
ATOM     73  O   UNL A   1      33.287  19.351  25.161  1.00  0.00    -0.252 OA
BRANCH  72  74
ATOM     74  C   UNL A   1      33.529  21.559  24.269  1.00  0.00     0.111 C 
ATOM     75  C   UNL A   1      32.692  20.905  23.148  1.00  0.00     0.016 C 
ATOM     76  C   UNL A   1      34.419  22.732  23.767  1.00  0.00     0.093 C 
ATOM     77  C   UNL A   1      31.936  21.936  22.332  1.00  0.00     0.001 C 
ATOM     78  C   UNL A   1      33.755  23.586  22.647  1.00  0.00     0.014 C 
ATOM     79  C   UNL A   1      32.935  22.826  21.627  1.00  0.00     0.001 C 
BRANCH  76  80
ATOM     80  C   UNL A   1      34.998  23.868  24.669  1.00  0.00     0.228 C 
ATOM     81  O   UNL A   1      36.224  24.089  24.582  1.00  0.00    -0.274 OA
ATOM     82  N   UNL A   1      34.340  24.870  25.324  1.00  0.00    -0.326 N 
ATOM     83  H   UNL A   1      34.942  25.469  25.823  1.00  0.00     0.169 HD
BRANCH  82  84
ATOM     84  C   UNL A   1      32.996  25.223  25.432  1.00  0.00     0.041 A 
ATOM     85  C   UNL A   1      32.155  24.385  26.170  1.00  0.00     0.026 A 
ATOM     86  C   UNL A   1      32.471  26.368  24.864  1.00  0.00     0.040 A 
ATOM     87  C   UNL A   1      30.867  24.805  26.505  1.00  0.00     0.003 A 
ATOM     88  C   UNL A   1      31.237  26.864  25.296  1.00  0.00     0.041 A 
ATOM     89  C   UNL A   1      30.433  26.074  26.123  1.00  0.00     0.014 A 
BRANCH  88  90
ATOM     90  C   UNL A   1      30.927  28.260  25.066  1.00  0.00     0.248 A 
ATOM     91  N   UNL A   1      31.430  29.315  25.673  1.00  0.00    -0.107 NA
ATOM     92  O   UNL A   1      30.158  28.577  23.979  1.00  0.00    -0.416 OA
ATOM     93  N   UNL A   1      31.017  30.410  24.950  1.00  0.00    -0.107 NA
ATOM     94  C   UNL A   1      30.255  29.947  23.980  1.00  0.00     0.248 A 
BRANCH  94  95
ATOM     95  C   UNL A   1      29.495  30.675  22.982  1.00  0.00     0.039 A 
ATOM     96  C   UNL A   1      29.290  32.054  23.121  1.00  0.00     0.014 A 
ATOM     97  C   UNL A   1      28.879  29.997  21.922  1.00  0.00     0.014 A 
ATOM     98  C   UNL A   1      28.469  32.741  22.224  1.00  0.00     0.001 A 
ATOM     99  C   UNL A   1      28.046  30.681  21.035  1.00  0.00     0.001 A 
ATOM    100  C   UNL A   1      27.838  32.051  21.189  1.00  0.00     0.000 A 
ENDBRANCH  94  95
ENDBRANCH  88  90
ENDBRANCH  82  84
ENDBRANCH  76  80
ENDBRANCH  72  74
ENDBRANCH  71  72
ENDBRANCH  70  71
ENDBRANCH  69  70
ENDBRANCH  68  69
ENDBRANCH  67  68
ENDBRANCH   1  67
TORSDOF 24
ENDMDL
MODEL 2
REMARK VINA RESULT:     -10.6      5.739      9.675
REMARK SMILES O=C(OCCOCCOCCOCCOC(=O)[C@@H]1CCCC[C@H]1C(=O)Nc1cccc(-c2nnc(-c3ccccc3)o2)c1)c1ccc(-c2c3nc(c(-c4c(F)cccc4F)c4ccc([nH]4)c(-c4c(F)cccc4F)c4nc(c(-c5c(F)cccc5F)c5ccc2[nH]5)C=C4)C=C3)cc1
REMARK SMILES IDX 10 1 9 2 8 3 7 4 6 5 5 6 4 7 3 8 2 9 1 10 44 11 45 12 97 13
REMARK SMILES IDX 46 14 96 15 47 16 48 17 49 18 90 19 50 20 95 21 89 22 91 23
REMARK SMILES IDX 51 24 94 25 88 26 87 27 52 29 78 30 61 31 77 32 62 33 65 34
REMARK SMILES IDX 76 35 92 36 63 37 64 38 75 40 93 41 66 42 53 43 54 44 59 45
REMARK SMILES IDX 55 46 56 47 58 48 60 49 57 50 79 51 80 52 85 53 81 54 82 55
REMARK SMILES IDX 84 56 86 57 83 58 67 59 68 60 73 61 69 62 70 63 72 64 74 65
REMARK SMILES IDX 71 66 11 67 12 68 13 69 14 70 15 71 16 72 17 73 18 74 19 75
REMARK SMILES IDX 23 76 20 77 22 78 21 79 24 80 25 81 26 82 27 84 28 85 43 86
REMARK SMILES IDX 29 87 31 88 30 89 32 90 33 91 42 92 34 93 35 94 36 95 37 96
REMARK SMILES IDX 41 97 38 98 40 99 39 100
REMARK H PARENT 91 28 65 39 26 83
REMARK Flexibility Score: inf
ROOT
ATOM      1  C   UNL A   1      37.171  21.834  24.247  1.00  0.00     0.188 C 
ENDROOT
BRANCH   1   2
ATOM      2  O   UNL A   1      37.652  21.618  25.563  1.00  0.00    -0.377 OA
BRANCH   2   3
ATOM      3  C   UNL A   1      39.007  21.844  25.957  1.00  0.00     0.188 C 
BRANCH   3   4
ATOM      4  C   UNL A   1      39.914  20.651  26.189  1.00  0.00     0.188 C 
BRANCH   4   5
ATOM      5  O   UNL A   1      40.657  20.807  27.382  1.00  0.00    -0.376 OA
BRANCH   5   6
ATOM      6  C   UNL A   1      40.764  22.108  27.917  1.00  0.00     0.202 C 
BRANCH   6   7
ATOM      7  C   UNL A   1      42.197  22.353  28.383  1.00  0.00     0.261 C 
BRANCH   7   8
ATOM      8  O   UNL A   1      43.129  22.082  27.320  1.00  0.00    -0.460 OA
BRANCH   8   9
ATOM      9  C   UNL A   1      43.327  22.797  26.189  1.00  0.00     0.338 C 
ATOM     10  O   UNL A   1      42.892  22.352  25.123  1.00  0.00    -0.246 OA
BRANCH   9  11
ATOM     11  C   UNL A   1      43.950  24.156  26.156  1.00  0.00     0.060 A 
ATOM     12  C   UNL A   1      43.782  25.116  25.152  1.00  0.00     0.016 A 
ATOM     13  C   UNL A   1      44.697  24.515  27.291  1.00  0.00     0.016 A 
ATOM     14  C   UNL A   1      44.336  26.384  25.252  1.00  0.00     0.010 A 
ATOM     15  C   UNL A   1      45.289  25.774  27.390  1.00  0.00     0.010 A 
ATOM     16  C   UNL A   1      45.125  26.697  26.351  1.00  0.00    -0.014 A 
BRANCH  16  17
ATOM     17  C   UNL A   1      45.987  27.881  26.257  1.00  0.00     0.031 A 
ATOM     18  C   UNL A   1      47.434  27.635  25.970  1.00  0.00     0.074 A 
ATOM     19  C   UNL A   1      45.468  29.115  26.326  1.00  0.00     0.049 A 
ATOM     20  N   UNL A   1      48.439  28.463  25.988  1.00  0.00    -0.248 NA
ATOM     21  C   UNL A   1      47.795  26.252  25.608  1.00  0.00     0.031 C 
ATOM     22  C   UNL A   1      44.043  29.429  26.439  1.00  0.00     0.029 A 
ATOM     23  N   UNL A   1      46.085  30.334  26.308  1.00  0.00    -0.354 N 
ATOM     24  C   UNL A   1      49.556  27.691  25.691  1.00  0.00     0.074 A 
ATOM     25  C   UNL A   1      49.108  26.335  25.489  1.00  0.00     0.031 C 
ATOM     26  C   UNL A   1      43.898  30.763  26.506  1.00  0.00     0.029 A 
ATOM     27  C   UNL A   1      45.220  31.381  26.508  1.00  0.00     0.049 A 
ATOM     28  H   UNL A   1      47.052  30.450  26.166  1.00  0.00     0.167 HD
ATOM     29  C   UNL A   1      50.844  28.094  25.617  1.00  0.00     0.037 A 
ATOM     30  C   UNL A   1      45.493  32.680  26.725  1.00  0.00     0.037 A 
ATOM     31  C   UNL A   1      51.236  29.458  25.837  1.00  0.00     0.049 A 
ATOM     32  C   UNL A   1      46.940  33.098  26.740  1.00  0.00     0.074 A 
ATOM     33  C   UNL A   1      52.503  30.007  25.857  1.00  0.00     0.029 A 
ATOM     34  N   UNL A   1      50.340  30.494  26.082  1.00  0.00    -0.354 N 
ATOM     35  N   UNL A   1      48.012  32.363  26.545  1.00  0.00    -0.248 NA
ATOM     36  C   UNL A   1      47.221  34.510  27.017  1.00  0.00     0.031 C 
ATOM     37  C   UNL A   1      52.374  31.366  26.166  1.00  0.00     0.029 A 
ATOM     38  C   UNL A   1      51.024  31.678  26.271  1.00  0.00     0.049 A 
ATOM     39  H   UNL A   1      49.361  30.396  26.116  1.00  0.00     0.167 HD
ATOM     40  C   UNL A   1      49.094  33.226  26.647  1.00  0.00     0.074 A 
ATOM     41  C   UNL A   1      48.543  34.541  26.919  1.00  0.00     0.031 C 
ATOM     42  C   UNL A   1      50.420  32.965  26.522  1.00  0.00     0.037 A 
BRANCH  29  43
ATOM     43  C   UNL A   1      51.876  27.028  25.395  1.00  0.00     0.057 A 
ATOM     44  C   UNL A   1      52.337  26.678  24.118  1.00  0.00     0.134 A 
ATOM     45  C   UNL A   1      52.353  26.277  26.477  1.00  0.00     0.134 A 
ATOM     46  F   UNL A   1      51.894  27.331  23.033  1.00  0.00    -0.206 F 
ATOM     47  C   UNL A   1      53.197  25.593  23.922  1.00  0.00     0.040 A 
ATOM     48  C   UNL A   1      53.236  25.211  26.297  1.00  0.00     0.040 A 
ATOM     49  F   UNL A   1      51.948  26.549  27.727  1.00  0.00    -0.206 F 
ATOM     50  C   UNL A   1      53.649  24.857  25.015  1.00  0.00     0.006 A 
ENDBRANCH  29  43
BRANCH  30  51
ATOM     51  C   UNL A   1      44.390  33.637  26.995  1.00  0.00     0.057 A 
ATOM     52  C   UNL A   1      43.912  33.857  28.290  1.00  0.00     0.134 A 
ATOM     53  C   UNL A   1      43.806  34.383  25.961  1.00  0.00     0.134 A 
ATOM     54  F   UNL A   1      44.415  33.163  29.322  1.00  0.00    -0.206 F 
ATOM     55  C   UNL A   1      42.891  34.775  28.549  1.00  0.00     0.040 A 
ATOM     56  C   UNL A   1      42.804  35.325  26.208  1.00  0.00     0.040 A 
ATOM     57  F   UNL A   1      44.217  34.225  24.694  1.00  0.00    -0.206 F 
ATOM     58  C   UNL A   1      42.341  35.519  27.507  1.00  0.00     0.006 A 
ENDBRANCH  30  51
BRANCH  42  59
ATOM     59  C   UNL A   1      51.355  34.132  26.617  1.00  0.00     0.057 A 
ATOM     60  C   UNL A   1      51.898  34.550  27.837  1.00  0.00     0.134 A 
ATOM     61  C   UNL A   1      51.780  34.784  25.453  1.00  0.00     0.134 A 
ATOM     62  F   UNL A   1      51.520  33.969  28.986  1.00  0.00    -0.206 F 
ATOM     63  C   UNL A   1      52.827  35.589  27.895  1.00  0.00     0.040 A 
ATOM     64  C   UNL A   1      52.728  35.803  25.496  1.00  0.00     0.040 A 
ATOM     65  F   UNL A   1      51.302  34.418  24.254  1.00  0.00    -0.206 F 
ATOM     66  C   UNL A   1      53.253  36.210  26.722  1.00  0.00     0.006 A 
ENDBRANCH  42  59
ENDBRANCH  16  17
ENDBRANCH   9  11
ENDBRANCH   8   9
ENDBRANCH   7   8
ENDBRANCH   6   7
ENDBRANCH   5   6
ENDBRANCH   4   5
ENDBRANCH   3   4
ENDBRANCH   2   3
ENDBRANCH   1   2
BRANCH   1  67
ATOM     67  C   UNL A   1      35.748  22.379  24.164  1.00  0.00     0.188 C 
BRANCH  67  68
ATOM     68  O   UNL A   1      34.717  21.472  24.512  1.00  0.00    -0.376 OA
BRANCH  68  69
ATOM     69  C   UNL A   1      33.803  21.859  25.533  1.00  0.00     0.202 C 
BRANCH  69  70
ATOM     70  C   UNL A   1      32.866  23.075  25.298  1.00  0.00     0.261 C 
BRANCH  70  71
ATOM     71  O   UNL A   1      33.084  24.263  26.124  1.00  0.00    -0.463 OA
BRANCH  71  72
ATOM     72  C   UNL A   1      33.913  25.211  25.619  1.00  0.00     0.309 C 
ATOM     73  O   UNL A   1      35.142  25.124  25.705  1.00  0.00    -0.252 OA
BRANCH  72  74
ATOM     74  C   UNL A   1      33.307  26.492  25.005  1.00  0.00     0.111 C 
ATOM     75  C   UNL A   1      33.737  26.422  23.523  1.00  0.00     0.016 C 
ATOM     76  C   UNL A   1      33.396  27.925  25.603  1.00  0.00     0.093 C 
ATOM     77  C   UNL A   1      33.043  27.476  22.682  1.00  0.00     0.001 C 
ATOM     78  C   UNL A   1      33.017  29.049  24.594  1.00  0.00     0.014 C 
ATOM     79  C   UNL A   1      33.472  28.843  23.165  1.00  0.00     0.001 C 
BRANCH  76  80
ATOM     80  C   UNL A   1      32.622  28.420  26.866  1.00  0.00     0.228 C 
ATOM     81  O   UNL A   1      31.852  27.603  27.413  1.00  0.00    -0.274 OA
ATOM     82  N   UNL A   1      32.866  29.506  27.657  1.00  0.00    -0.326 N 
ATOM     83  H   UNL A   1      32.230  29.595  28.404  1.00  0.00     0.169 HD
BRANCH  82  84
ATOM     84  C   UNL A   1      33.827  30.515  27.629  1.00  0.00     0.041 A 
ATOM     85  C   UNL A   1      33.385  31.841  27.613  1.00  0.00     0.026 A 
ATOM     86  C   UNL A   1      35.185  30.262  27.640  1.00  0.00     0.040 A 
ATOM     87  C   UNL A   1      34.290  32.884  27.819  1.00  0.00     0.003 A 
ATOM     88  C   UNL A   1      36.087  31.275  27.978  1.00  0.00     0.041 A 
ATOM     89  C   UNL A   1      35.631  32.594  28.068  1.00  0.00     0.014 A 
BRANCH  88  90
ATOM     90  C   UNL A   1      37.407  30.907  28.446  1.00  0.00     0.248 A 
ATOM     91  N   UNL A   1      38.134  31.497  29.372  1.00  0.00    -0.107 NA
ATOM     92  O   UNL A   1      37.925  29.710  28.033  1.00  0.00    -0.416 OA
ATOM     93  N   UNL A   1      39.186  30.650  29.634  1.00  0.00    -0.107 NA
ATOM     94  C   UNL A   1      39.048  29.624  28.818  1.00  0.00     0.248 A 
BRANCH  94  95
ATOM     95  C   UNL A   1      39.925  28.488  28.616  1.00  0.00     0.039 A 
ATOM     96  C   UNL A   1      41.048  28.310  29.434  1.00  0.00     0.014 A 
ATOM     97  C   UNL A   1      39.714  27.607  27.546  1.00  0.00     0.014 A 
ATOM     98  C   UNL A   1      41.955  27.280  29.176  1.00  0.00     0.001 A 
ATOM     99  C   UNL A   1      40.629  26.588  27.279  1.00  0.00     0.001 A 
ATOM    100  C   UNL A   1      41.751  26.427  28.092  1.00  0.00     0.000 A 
ENDBRANCH  94  95
ENDBRANCH  88  90
ENDBRANCH  82  84
ENDBRANCH  76  80
ENDBRANCH  72  74
ENDBRANCH  71  72
ENDBRANCH  70  71
ENDBRANCH  69  70
ENDBRANCH  68  69
ENDBRANCH  67  68
ENDBRANCH   1  67
TORSDOF 24
ENDMDL
MODEL 3
REMARK VINA RESULT:     -10.3      3.588      8.981
REMARK SMILES O=C(OCCOCCOCCOCCOC(=O)[C@@H]1CCCC[C@H]1C(=O)Nc1cccc(-c2nnc(-c3ccccc3)o2)c1)c1ccc(-c2c3nc(c(-c4c(F)cccc4F)c4ccc([nH]4)c(-c4c(F)cccc4F)c4nc(c(-c5c(F)cccc5F)c5ccc2[nH]5)C=C4)C=C3)cc1
REMARK SMILES IDX 10 1 9 2 8 3 7 4 6 5 5 6 4 7 3 8 2 9 1 10 44 11 45 12 97 13
REMARK SMILES IDX 46 14 96 15 47 16 48 17 49 18 90 19 50 20 95 21 89 22 91 23
REMARK SMILES IDX 51 24 94 25 88 26 87 27 52 29 78 30 61 31 77 32 62 33 65 34
REMARK SMILES IDX 76 35 92 36 63 37 64 38 75 40 93 41 66 42 53 43 54 44 59 45
REMARK SMILES IDX 55 46 56 47 58 48 60 49 57 50 79 51 80 52 85 53 81 54 82 55
REMARK SMILES IDX 84 56 86 57 83 58 67 59 68 60 73 61 69 62 70 63 72 64 74 65
REMARK SMILES IDX 71 66 11 67 12 68 13 69 14 70 15 71 16 72 17 73 18 74 19 75
REMARK SMILES IDX 23 76 20 77 22 78 21 79 24 80 25 81 26 82 27 84 28 85 43 86
REMARK SMILES IDX 29 87 31 88 30 89 32 90 33 91 42 92 34 93 35 94 36 95 37 96
REMARK SMILES IDX 41 97 38 98 40 99 39 100
REMARK H PARENT 91 28 65 39 26 83
REMARK Flexibility Score: inf
ROOT
ATOM      1  C   UNL A   1      34.944  23.429  23.760  1.00  0.00     0.188 C 
ENDROOT
BRANCH   1   2
ATOM      2  O   UNL A   1      36.014  23.263  24.674  1.00  0.00    -0.377 OA
BRANCH   2   3
ATOM      3  C   UNL A   1      36.889  22.133  24.671  1.00  0.00     0.188 C 
BRANCH   3   4
ATOM      4  C   UNL A   1      36.472  20.877  25.411  1.00  0.00     0.188 C 
BRANCH   4   5
ATOM      5  O   UNL A   1      36.835  19.719  24.684  1.00  0.00    -0.376 OA
BRANCH   5   6
ATOM      6  C   UNL A   1      37.891  18.936  25.193  1.00  0.00     0.202 C 
BRANCH   6   7
ATOM      7  C   UNL A   1      39.150  19.792  25.313  1.00  0.00     0.261 C 
BRANCH   7   8
ATOM      8  O   UNL A   1      40.287  18.976  25.652  1.00  0.00    -0.460 OA
BRANCH   8   9
ATOM      9  C   UNL A   1      41.514  19.388  26.045  1.00  0.00     0.338 C 
ATOM     10  O   UNL A   1      42.446  18.579  26.016  1.00  0.00    -0.246 OA
BRANCH   9  11
ATOM     11  C   UNL A   1      41.846  20.798  26.415  1.00  0.00     0.060 A 
ATOM     12  C   UNL A   1      42.191  21.824  25.528  1.00  0.00     0.016 A 
ATOM     13  C   UNL A   1      41.707  21.123  27.775  1.00  0.00     0.016 A 
ATOM     14  C   UNL A   1      42.402  23.125  25.962  1.00  0.00     0.010 A 
ATOM     15  C   UNL A   1      41.948  22.419  28.231  1.00  0.00     0.010 A 
ATOM     16  C   UNL A   1      42.322  23.412  27.318  1.00  0.00    -0.014 A 
BRANCH  16  17
ATOM     17  C   UNL A   1      42.903  24.677  27.783  1.00  0.00     0.031 A 
ATOM     18  C   UNL A   1      41.947  25.707  28.291  1.00  0.00     0.074 A 
ATOM     19  C   UNL A   1      44.233  24.841  27.837  1.00  0.00     0.049 A 
ATOM     20  N   UNL A   1      42.156  26.953  28.611  1.00  0.00    -0.248 NA
ATOM     21  C   UNL A   1      40.551  25.264  28.462  1.00  0.00     0.031 C 
ATOM     22  C   UNL A   1      45.227  23.818  27.513  1.00  0.00     0.029 A 
ATOM     23  N   UNL A   1      44.973  25.936  28.188  1.00  0.00    -0.354 N 
ATOM     24  C   UNL A   1      40.912  27.453  28.972  1.00  0.00     0.074 A 
ATOM     25  C   UNL A   1      39.955  26.381  28.841  1.00  0.00     0.031 C 
ATOM     26  C   UNL A   1      46.454  24.345  27.658  1.00  0.00     0.029 A 
ATOM     27  C   UNL A   1      46.322  25.753  28.017  1.00  0.00     0.049 A 
ATOM     28  H   UNL A   1      44.578  26.771  28.529  1.00  0.00     0.167 HD
ATOM     29  C   UNL A   1      40.607  28.712  29.359  1.00  0.00     0.037 A 
ATOM     30  C   UNL A   1      47.318  26.654  28.089  1.00  0.00     0.037 A 
ATOM     31  C   UNL A   1      41.599  29.745  29.464  1.00  0.00     0.049 A 
ATOM     32  C   UNL A   1      46.952  28.076  28.424  1.00  0.00     0.074 A 
ATOM     33  C   UNL A   1      41.436  31.079  29.782  1.00  0.00     0.029 A 
ATOM     34  N   UNL A   1      42.957  29.542  29.241  1.00  0.00    -0.354 N 
ATOM     35  N   UNL A   1      45.767  28.583  28.685  1.00  0.00    -0.248 NA
ATOM     36  C   UNL A   1      48.045  29.053  28.461  1.00  0.00     0.031 C 
ATOM     37  C   UNL A   1      42.691  31.692  29.701  1.00  0.00     0.029 A 
ATOM     38  C   UNL A   1      43.646  30.728  29.399  1.00  0.00     0.049 A 
ATOM     39  H   UNL A   1      43.368  28.679  29.006  1.00  0.00     0.167 HD
ATOM     40  C   UNL A   1      45.973  29.930  28.945  1.00  0.00     0.074 A 
ATOM     41  C   UNL A   1      47.401  30.158  28.812  1.00  0.00     0.031 C 
ATOM     42  C   UNL A   1      45.074  30.893  29.271  1.00  0.00     0.037 A 
BRANCH  29  43
ATOM     43  C   UNL A   1      39.155  29.021  29.580  1.00  0.00     0.057 A 
ATOM     44  C   UNL A   1      38.338  29.564  28.579  1.00  0.00     0.134 A 
ATOM     45  C   UNL A   1      38.587  28.851  30.849  1.00  0.00     0.134 A 
ATOM     46  F   UNL A   1      38.827  29.787  27.349  1.00  0.00    -0.206 F 
ATOM     47  C   UNL A   1      37.026  29.968  28.843  1.00  0.00     0.040 A 
ATOM     48  C   UNL A   1      37.269  29.223  31.118  1.00  0.00     0.040 A 
ATOM     49  F   UNL A   1      39.313  28.347  31.859  1.00  0.00    -0.206 F 
ATOM     50  C   UNL A   1      36.489  29.797  30.117  1.00  0.00     0.006 A 
ENDBRANCH  29  43
BRANCH  30  51
ATOM     51  C   UNL A   1      48.714  26.246  27.790  1.00  0.00     0.057 A 
ATOM     52  C   UNL A   1      49.543  25.698  28.773  1.00  0.00     0.134 A 
ATOM     53  C   UNL A   1      49.247  26.367  26.498  1.00  0.00     0.134 A 
ATOM     54  F   UNL A   1      49.102  25.571  30.034  1.00  0.00    -0.206 F 
ATOM     55  C   UNL A   1      50.848  25.290  28.488  1.00  0.00     0.040 A 
ATOM     56  C   UNL A   1      50.541  25.938  26.192  1.00  0.00     0.040 A 
ATOM     57  F   UNL A   1      48.507  26.883  25.505  1.00  0.00    -0.206 F 
ATOM     58  C   UNL A   1      51.348  25.401  27.192  1.00  0.00     0.006 A 
ENDBRANCH  30  51
BRANCH  42  59
ATOM     59  C   UNL A   1      45.616  32.259  29.564  1.00  0.00     0.057 A 
ATOM     60  C   UNL A   1      45.738  33.237  28.571  1.00  0.00     0.134 A 
ATOM     61  C   UNL A   1      45.935  32.617  30.879  1.00  0.00     0.134 A 
ATOM     62  F   UNL A   1      45.457  32.948  27.291  1.00  0.00    -0.206 F 
ATOM     63  C   UNL A   1      46.171  34.527  28.878  1.00  0.00     0.040 A 
ATOM     64  C   UNL A   1      46.340  33.910  31.202  1.00  0.00     0.040 A 
ATOM     65  F   UNL A   1      45.825  31.724  31.875  1.00  0.00    -0.206 F 
ATOM     66  C   UNL A   1      46.462  34.869  30.198  1.00  0.00     0.006 A 
ENDBRANCH  42  59
ENDBRANCH  16  17
ENDBRANCH   9  11
ENDBRANCH   8   9
ENDBRANCH   7   8
ENDBRANCH   6   7
ENDBRANCH   5   6
ENDBRANCH   4   5
ENDBRANCH   3   4
ENDBRANCH   2   3
ENDBRANCH   1   2
BRANCH   1  67
ATOM     67  C   UNL A   1      33.741  22.523  24.007  1.00  0.00     0.188 C 
BRANCH  67  68
ATOM     68  O   UNL A   1      32.578  22.820  23.256  1.00  0.00    -0.376 OA
BRANCH  68  69
ATOM     69  C   UNL A   1      32.295  24.186  22.972  1.00  0.00     0.202 C 
BRANCH  69  70
ATOM     70  C   UNL A   1      33.156  24.940  21.922  1.00  0.00     0.261 C 
BRANCH  70  71
ATOM     71  O   UNL A   1      32.803  26.331  21.635  1.00  0.00    -0.463 OA
BRANCH  71  72
ATOM     72  C   UNL A   1      32.996  27.227  22.635  1.00  0.00     0.309 C 
ATOM     73  O   UNL A   1      34.119  27.483  23.079  1.00  0.00    -0.252 OA
BRANCH  72  74
ATOM     74  C   UNL A   1      31.770  27.876  23.314  1.00  0.00     0.111 C 
ATOM     75  C   UNL A   1      30.914  28.364  22.125  1.00  0.00     0.016 C 
ATOM     76  C   UNL A   1      31.806  28.882  24.499  1.00  0.00     0.093 C 
ATOM     77  C   UNL A   1      29.541  28.828  22.570  1.00  0.00     0.001 C 
ATOM     78  C   UNL A   1      30.461  29.634  24.723  1.00  0.00     0.014 C 
ATOM     79  C   UNL A   1      29.703  30.030  23.474  1.00  0.00     0.001 C 
BRANCH  76  80
ATOM     80  C   UNL A   1      32.163  28.517  25.975  1.00  0.00     0.228 C 
ATOM     81  O   UNL A   1      32.420  27.319  26.216  1.00  0.00    -0.274 OA
ATOM     82  N   UNL A   1      32.536  29.338  27.001  1.00  0.00    -0.326 N 
ATOM     83  H   UNL A   1      32.716  28.856  27.840  1.00  0.00     0.169 HD
BRANCH  82  84
ATOM     84  C   UNL A   1      32.717  30.716  27.109  1.00  0.00     0.041 A 
ATOM     85  C   UNL A   1      31.751  31.551  26.539  1.00  0.00     0.026 A 
ATOM     86  C   UNL A   1      33.790  31.285  27.767  1.00  0.00     0.040 A 
ATOM     87  C   UNL A   1      31.757  32.919  26.814  1.00  0.00     0.003 A 
ATOM     88  C   UNL A   1      33.740  32.626  28.163  1.00  0.00     0.041 A 
ATOM     89  C   UNL A   1      32.714  33.444  27.681  1.00  0.00     0.014 A 
BRANCH  88  90
ATOM     90  C   UNL A   1      34.611  33.071  29.232  1.00  0.00     0.248 A 
ATOM     91  N   UNL A   1      34.338  33.166  30.516  1.00  0.00    -0.107 NA
ATOM     92  O   UNL A   1      35.937  33.256  28.946  1.00  0.00    -0.416 OA
ATOM     93  N   UNL A   1      35.537  33.392  31.150  1.00  0.00    -0.107 NA
ATOM     94  C   UNL A   1      36.450  33.464  30.203  1.00  0.00     0.248 A 
BRANCH  94  95
ATOM     95  C   UNL A   1      37.862  33.772  30.309  1.00  0.00     0.039 A 
ATOM     96  C   UNL A   1      38.512  33.683  31.547  1.00  0.00     0.014 A 
ATOM     97  C   UNL A   1      38.572  34.252  29.200  1.00  0.00     0.014 A 
ATOM     98  C   UNL A   1      39.843  34.083  31.678  1.00  0.00     0.001 A 
ATOM     99  C   UNL A   1      39.898  34.666  29.335  1.00  0.00     0.001 A 
ATOM    100  C   UNL A   1      40.531  34.585  30.574  1.00  0.00     0.000 A 
ENDBRANCH  94  95
ENDBRANCH  88  90
ENDBRANCH  82  84
ENDBRANCH  76  80
ENDBRANCH  72  74
ENDBRANCH  71  72
ENDBRANCH  70  71
ENDBRANCH  69  70
ENDBRANCH  68  69
ENDBRANCH  67  68
ENDBRANCH   1  67
TORSDOF 24
ENDMDL
