MODEL 1
REMARK VINA RESULT:     -11.3      0.000      0.000
REMARK SMILES Cc1ccccc1[C@@H]1[NH2+][C@H](C(=O)OCCOCCOCCOCCOC(=O)c2ccc(-c3c4nc(c(-c5c(F)cccc5F)c5ccc([nH]5)c(-c5c(F)cccc5F)c5nc(c(-c6c(F)cccc6F)c6ccc3[nH]6)C=C5)C=C4)cc2)CC2=c3ccccc3=N[C@@H]21
REMARK SMILES IDX 20 1 19 2 18 3 17 4 16 5 15 6 14 7 13 8 11 9 12 10 10 11
REMARK SMILES IDX 8 12 9 13 91 14 83 17 90 18 82 19 84 20 89 21 85 22 88 23
REMARK SMILES IDX 86 24 87 25 7 26 1 27 2 28 3 29 4 30 6 31 5 32 21 33 22 34
REMARK SMILES IDX 23 35 24 36 25 37 26 38 27 39 28 40 29 41 81 42 30 43 80 44
REMARK SMILES IDX 31 45 32 46 33 47 74 48 34 49 79 50 73 51 75 52 35 53 78 54
REMARK SMILES IDX 72 55 71 56 36 58 62 59 45 60 61 61 46 62 49 63 60 64 76 65
REMARK SMILES IDX 47 66 48 67 59 69 77 70 50 71 37 72 38 73 43 74 39 75 40 76
REMARK SMILES IDX 42 77 44 78 41 79 63 80 64 81 69 82 65 83 66 84 68 85 70 86
REMARK SMILES IDX 67 87 51 88 52 89 57 90 53 91 54 92 56 93 58 94 55 95
REMARK H PARENT 9 15 9 16 75 57 49 68
REMARK Flexibility Score: inf
ROOT
ATOM      1  C   UNL A   1      45.189  25.772  30.920  1.00  0.00     0.188 C 
ENDROOT
BRANCH   1   2
ATOM      2  O   UNL A   1      44.332  25.949  32.102  1.00  0.00    -0.377 OA
BRANCH   2   3
ATOM      3  C   UNL A   1      43.948  27.225  32.875  1.00  0.00     0.188 C 
BRANCH   3   4
ATOM      4  C   UNL A   1      42.330  28.009  33.446  1.00  0.00     0.188 C 
BRANCH   4   5
ATOM      5  O   UNL A   1      41.200  27.708  34.958  1.00  0.00    -0.376 OA
BRANCH   5   6
ATOM      6  C   UNL A   1      41.358  26.595  36.564  1.00  0.00     0.202 C 
BRANCH   6   7
ATOM      7  C   UNL A   1      41.754  24.747  36.172  1.00  0.00     0.261 C 
BRANCH   7   8
ATOM      8  O   UNL A   1      43.560  24.206  36.176  1.00  0.00    -0.459 OA
BRANCH   8   9
ATOM      9  C   UNL A   1      44.973  24.240  35.465  1.00  0.00     0.365 C 
ATOM     10  O   UNL A   1      45.487  25.364  35.327  1.00  0.00    -0.245 OA
BRANCH   9  11
ATOM     11  C   UNL A   1      46.009  22.815  34.798  1.00  0.00     0.298 C 
ATOM     12  C   UNL A   1      48.904  22.741  34.342  1.00  0.00     0.243 C 
ATOM     13  N   UNL A   1      47.488  22.950  34.859  1.00  0.00    -0.326 N 
ATOM     14  C   UNL A   1      48.725  21.047  34.867  1.00  0.00     0.196 C 
ATOM     15  H   UNL A   1      47.525  23.966  34.940  1.00  0.00     0.347 HD
ATOM     16  H   UNL A   1      47.523  22.000  35.231  1.00  0.00     0.347 HD
ATOM     17  C   UNL A   1      47.220  20.610  35.445  1.00  0.00    -0.024 C 
ATOM     18  N   UNL A   1      49.558  20.565  35.983  1.00  0.00    -0.270 NA
ATOM     19  C   UNL A   1      45.880  21.288  35.015  1.00  0.00     0.111 C 
ATOM     20  C   UNL A   1      47.327  19.953  36.603  1.00  0.00     0.002 A 
ATOM     21  C   UNL A   1      48.773  20.000  36.863  1.00  0.00     0.066 A 
ATOM     22  C   UNL A   1      46.374  19.595  37.623  1.00  0.00     0.010 A 
ATOM     23  C   UNL A   1      49.154  19.496  38.227  1.00  0.00     0.028 A 
ATOM     24  C   UNL A   1      46.806  19.305  38.862  1.00  0.00     0.001 A 
ATOM     25  C   UNL A   1      48.218  19.253  39.159  1.00  0.00     0.002 A 
BRANCH  12  26
ATOM     26  C   UNL A   1      50.047  24.312  33.872  1.00  0.00     0.015 A 
ATOM     27  C   UNL A   1      52.753  23.525  34.741  1.00  0.00     0.045 C 
ATOM     28  C   UNL A   1      51.963  24.450  33.784  1.00  0.00    -0.042 A 
ATOM     29  C   UNL A   1      52.861  25.519  32.271  1.00  0.00     0.004 A 
ATOM     30  C   UNL A   1      51.862  26.112  30.895  1.00  0.00     0.000 A 
ATOM     31  C   UNL A   1      49.272  25.138  32.405  1.00  0.00     0.010 A 
ATOM     32  C   UNL A   1      50.124  25.906  30.986  1.00  0.00     0.001 A 
ENDBRANCH  12  26
ENDBRANCH   9  11
ENDBRANCH   8   9
ENDBRANCH   7   8
ENDBRANCH   6   7
ENDBRANCH   5   6
ENDBRANCH   4   5
ENDBRANCH   3   4
ENDBRANCH   2   3
ENDBRANCH   1   2
BRANCH   1  33
ATOM     33  C   UNL A   1      44.627  25.035  29.710  1.00  0.00     0.188 C 
BRANCH  33  34
ATOM     34  O   UNL A   1      44.483  23.681  29.936  1.00  0.00    -0.376 OA
BRANCH  34  35
ATOM     35  C   UNL A   1      43.247  23.059  29.664  1.00  0.00     0.202 C 
BRANCH  35  36
ATOM     36  C   UNL A   1      43.051  23.650  28.293  1.00  0.00     0.261 C 
BRANCH  36  37
ATOM     37  O   UNL A   1      42.414  22.537  27.499  1.00  0.00    -0.460 OA
BRANCH  37  38
ATOM     38  C   UNL A   1      41.290  22.802  26.749  1.00  0.00     0.338 C 
ATOM     39  O   UNL A   1      40.957  22.097  25.799  1.00  0.00    -0.246 OA
BRANCH  38  40
ATOM     40  C   UNL A   1      40.586  24.178  26.973  1.00  0.00     0.060 A 
ATOM     41  C   UNL A   1      41.261  25.255  25.853  1.00  0.00     0.016 A 
ATOM     42  C   UNL A   1      39.733  24.761  28.423  1.00  0.00     0.016 A 
ATOM     43  C   UNL A   1      41.291  27.009  26.212  1.00  0.00     0.010 A 
ATOM     44  C   UNL A   1      39.685  26.503  28.935  1.00  0.00     0.010 A 
ATOM     45  C   UNL A   1      40.506  27.822  27.925  1.00  0.00    -0.014 A 
BRANCH  45  46
ATOM     46  C   UNL A   1      40.737  29.287  29.274  1.00  0.00     0.031 A 
ATOM     47  C   UNL A   1      39.363  30.101  29.240  1.00  0.00     0.074 A 
ATOM     48  C   UNL A   1      42.335  29.724  30.044  1.00  0.00     0.049 A 
ATOM     49  N   UNL A   1      39.194  31.067  30.059  1.00  0.00    -0.248 NA
ATOM     50  C   UNL A   1      38.247  30.111  28.280  1.00  0.00     0.031 C 
ATOM     51  C   UNL A   1      43.280  30.781  31.048  1.00  0.00     0.029 A 
ATOM     52  N   UNL A   1      43.792  29.238  29.586  1.00  0.00    -0.354 N 
ATOM     53  C   UNL A   1      38.191  31.885  29.747  1.00  0.00     0.074 A 
ATOM     54  C   UNL A   1      37.503  31.153  28.714  1.00  0.00     0.031 C 
ATOM     55  C   UNL A   1      44.622  30.693  30.934  1.00  0.00     0.029 A 
ATOM     56  C   UNL A   1      44.981  29.841  29.835  1.00  0.00     0.049 A 
ATOM     57  H   UNL A   1      43.827  28.404  29.065  1.00  0.00     0.167 HD
ATOM     58  C   UNL A   1      38.113  32.915  30.626  1.00  0.00     0.037 A 
ATOM     59  C   UNL A   1      45.871  30.072  28.823  1.00  0.00     0.037 A 
ATOM     60  C   UNL A   1      39.507  33.380  31.109  1.00  0.00     0.049 A 
ATOM     61  C   UNL A   1      45.466  31.627  28.637  1.00  0.00     0.074 A 
ATOM     62  C   UNL A   1      40.175  33.383  32.327  1.00  0.00     0.029 A 
ATOM     63  N   UNL A   1      40.550  33.708  30.178  1.00  0.00    -0.354 N 
ATOM     64  N   UNL A   1      44.236  32.129  28.792  1.00  0.00    -0.248 NA
ATOM     65  C   UNL A   1      46.447  32.688  28.828  1.00  0.00     0.031 C 
ATOM     66  C   UNL A   1      41.602  33.609  32.105  1.00  0.00     0.029 A 
ATOM     67  C   UNL A   1      41.884  33.735  30.729  1.00  0.00     0.049 A 
ATOM     68  H   UNL A   1      40.366  33.900  29.231  1.00  0.00     0.167 HD
ATOM     69  C   UNL A   1      44.231  33.432  29.359  1.00  0.00     0.074 A 
ATOM     70  C   UNL A   1      45.687  33.713  29.280  1.00  0.00     0.031 C 
ATOM     71  C   UNL A   1      43.162  34.213  29.929  1.00  0.00     0.037 A 
BRANCH  58  72
ATOM     72  C   UNL A   1      36.758  33.161  31.274  1.00  0.00     0.057 A 
ATOM     73  C   UNL A   1      36.448  32.594  32.515  1.00  0.00     0.134 A 
ATOM     74  C   UNL A   1      35.667  33.850  30.671  1.00  0.00     0.134 A 
ATOM     75  F   UNL A   1      37.337  31.841  33.174  1.00  0.00    -0.206 F 
ATOM     76  C   UNL A   1      35.195  32.759  33.136  1.00  0.00     0.040 A 
ATOM     77  C   UNL A   1      34.432  34.062  31.299  1.00  0.00     0.040 A 
ATOM     78  F   UNL A   1      35.701  34.316  29.417  1.00  0.00    -0.206 F 
ATOM     79  C   UNL A   1      34.193  33.519  32.544  1.00  0.00     0.006 A 
ENDBRANCH  58  72
BRANCH  59  80
ATOM     80  C   UNL A   1      46.207  28.817  27.848  1.00  0.00     0.057 A 
ATOM     81  C   UNL A   1      45.669  28.741  26.516  1.00  0.00     0.134 A 
ATOM     82  C   UNL A   1      47.208  27.850  27.965  1.00  0.00     0.134 A 
ATOM     83  F   UNL A   1      44.345  28.762  26.359  1.00  0.00    -0.206 F 
ATOM     84  C   UNL A   1      46.321  28.255  25.344  1.00  0.00     0.040 A 
ATOM     85  C   UNL A   1      47.799  27.176  26.815  1.00  0.00     0.040 A 
ATOM     86  F   UNL A   1      47.761  27.606  29.156  1.00  0.00    -0.206 F 
ATOM     87  C   UNL A   1      47.442  27.482  25.493  1.00  0.00     0.006 A 
ENDBRANCH  59  80
BRANCH  71  88
ATOM     88  C   UNL A   1      43.082  35.734  29.654  1.00  0.00     0.057 A 
ATOM     89  C   UNL A   1      43.822  36.712  30.323  1.00  0.00     0.134 A 
ATOM     90  C   UNL A   1      42.404  36.233  28.501  1.00  0.00     0.134 A 
ATOM     91  F   UNL A   1      44.573  36.450  31.395  1.00  0.00    -0.206 F 
ATOM     92  C   UNL A   1      43.888  38.042  29.891  1.00  0.00     0.040 A 
ATOM     93  C   UNL A   1      42.557  37.523  28.000  1.00  0.00     0.040 A 
ATOM     94  F   UNL A   1      41.560  35.509  27.758  1.00  0.00    -0.206 F 
ATOM     95  C   UNL A   1      43.291  38.444  28.707  1.00  0.00     0.006 A 
ENDBRANCH  71  88
ENDBRANCH  45  46
ENDBRANCH  38  40
ENDBRANCH  37  38
ENDBRANCH  36  37
ENDBRANCH  35  36
ENDBRANCH  34  35
ENDBRANCH  33  34
ENDBRANCH   1  33
TORSDOF 21
ENDMDL
MODEL 2
REMARK VINA RESULT:     -11.2      4.948     13.086
REMARK SMILES Cc1ccccc1[C@@H]1[NH2+][C@H](C(=O)OCCOCCOCCOCCOC(=O)c2ccc(-c3c4nc(c(-c5c(F)cccc5F)c5ccc([nH]5)c(-c5c(F)cccc5F)c5nc(c(-c6c(F)cccc6F)c6ccc3[nH]6)C=C5)C=C4)cc2)CC2=c3ccccc3=N[C@@H]21
REMARK SMILES IDX 20 1 19 2 18 3 17 4 16 5 15 6 14 7 13 8 11 9 12 10 10 11
REMARK SMILES IDX 8 12 9 13 91 14 83 17 90 18 82 19 84 20 89 21 85 22 88 23
REMARK SMILES IDX 86 24 87 25 7 26 1 27 2 28 3 29 4 30 6 31 5 32 21 33 22 34
REMARK SMILES IDX 23 35 24 36 25 37 26 38 27 39 28 40 29 41 81 42 30 43 80 44
REMARK SMILES IDX 31 45 32 46 33 47 74 48 34 49 79 50 73 51 75 52 35 53 78 54
REMARK SMILES IDX 72 55 71 56 36 58 62 59 45 60 61 61 46 62 49 63 60 64 76 65
REMARK SMILES IDX 47 66 48 67 59 69 77 70 50 71 37 72 38 73 43 74 39 75 40 76
REMARK SMILES IDX 42 77 44 78 41 79 63 80 64 81 69 82 65 83 66 84 68 85 70 86
REMARK SMILES IDX 67 87 51 88 52 89 57 90 53 91 54 92 56 93 58 94 55 95
REMARK H PARENT 9 15 9 16 75 57 49 68
REMARK Flexibility Score: inf
ROOT
ATOM      1  C   UNL A   1      36.356  31.603  32.586  1.00  0.00     0.188 C 
ENDROOT
BRANCH   1   2
ATOM      2  O   UNL A   1      36.481  30.258  32.005  1.00  0.00    -0.377 OA
BRANCH   2   3
ATOM      3  C   UNL A   1      37.473  29.122  32.320  1.00  0.00     0.188 C 
BRANCH   3   4
ATOM      4  C   UNL A   1      38.746  28.144  31.331  1.00  0.00     0.188 C 
BRANCH   4   5
ATOM      5  O   UNL A   1      38.594  26.757  30.025  1.00  0.00    -0.376 OA
BRANCH   5   6
ATOM      6  C   UNL A   1      39.117  26.609  28.141  1.00  0.00     0.202 C 
BRANCH   6   7
ATOM      7  C   UNL A   1      39.519  24.800  27.604  1.00  0.00     0.261 C 
BRANCH   7   8
ATOM      8  O   UNL A   1      38.108  23.735  26.946  1.00  0.00    -0.459 OA
BRANCH   8   9
ATOM      9  C   UNL A   1      36.842  23.617  26.006  1.00  0.00     0.365 C 
ATOM     10  O   UNL A   1      37.013  23.940  24.817  1.00  0.00    -0.245 OA
BRANCH   9  11
ATOM     11  C   UNL A   1      35.094  23.045  26.421  1.00  0.00     0.298 C 
ATOM     12  C   UNL A   1      32.584  23.803  25.110  1.00  0.00     0.243 C 
ATOM     13  N   UNL A   1      34.008  23.406  25.473  1.00  0.00    -0.326 N 
ATOM     14  C   UNL A   1      32.145  22.109  25.455  1.00  0.00     0.196 C 
ATOM     15  H   UNL A   1      34.482  24.186  25.018  1.00  0.00     0.347 HD
ATOM     16  H   UNL A   1      33.685  22.440  25.532  1.00  0.00     0.347 HD
ATOM     17  C   UNL A   1      33.364  21.142  26.063  1.00  0.00    -0.024 C 
ATOM     18  N   UNL A   1      31.699  21.257  24.339  1.00  0.00    -0.270 NA
ATOM     19  C   UNL A   1      34.573  21.669  26.900  1.00  0.00     0.111 C 
ATOM     20  C   UNL A   1      33.428  19.985  25.400  1.00  0.00     0.002 A 
ATOM     21  C   UNL A   1      32.405  20.157  24.359  1.00  0.00     0.066 A 
ATOM     22  C   UNL A   1      34.419  18.939  25.338  1.00  0.00     0.010 A 
ATOM     23  C   UNL A   1      32.404  19.060  23.331  1.00  0.00     0.028 A 
ATOM     24  C   UNL A   1      34.428  18.095  24.292  1.00  0.00     0.001 A 
ATOM     25  C   UNL A   1      33.400  18.161  23.281  1.00  0.00     0.002 A 
BRANCH  12  26
ATOM     26  C   UNL A   1      32.222  25.552  24.215  1.00  0.00     0.015 A 
ATOM     27  C   UNL A   1      29.400  26.125  24.854  1.00  0.00     0.045 C 
ATOM     28  C   UNL A   1      30.749  26.766  24.447  1.00  0.00    -0.042 A 
ATOM     29  C   UNL A   1      31.070  28.799  24.474  1.00  0.00     0.004 A 
ATOM     30  C   UNL A   1      32.758  29.426  24.529  1.00  0.00     0.000 A 
ATOM     31  C   UNL A   1      33.823  26.482  24.157  1.00  0.00     0.010 A 
ATOM     32  C   UNL A   1      34.072  28.277  24.380  1.00  0.00     0.001 A 
ENDBRANCH  12  26
ENDBRANCH   9  11
ENDBRANCH   8   9
ENDBRANCH   7   8
ENDBRANCH   6   7
ENDBRANCH   5   6
ENDBRANCH   4   5
ENDBRANCH   3   4
ENDBRANCH   2   3
ENDBRANCH   1   2
BRANCH   1  33
ATOM     33  C   UNL A   1      37.104  31.917  33.875  1.00  0.00     0.188 C 
BRANCH  33  34
ATOM     34  O   UNL A   1      36.767  33.150  34.396  1.00  0.00    -0.376 OA
BRANCH  34  35
ATOM     35  C   UNL A   1      37.177  33.488  35.703  1.00  0.00     0.202 C 
BRANCH  35  36
ATOM     36  C   UNL A   1      38.281  34.431  35.302  1.00  0.00     0.261 C 
BRANCH  36  37
ATOM     37  O   UNL A   1      39.206  34.444  36.494  1.00  0.00    -0.460 OA
BRANCH  37  38
ATOM     38  C   UNL A   1      40.554  34.236  36.304  1.00  0.00     0.338 C 
ATOM     39  O   UNL A   1      41.300  35.123  35.895  1.00  0.00    -0.246 OA
BRANCH  38  40
ATOM     40  C   UNL A   1      41.069  32.764  36.372  1.00  0.00     0.060 A 
ATOM     41  C   UNL A   1      42.761  32.843  36.340  1.00  0.00     0.016 A 
ATOM     42  C   UNL A   1      40.202  31.268  35.953  1.00  0.00     0.016 A 
ATOM     43  C   UNL A   1      43.704  31.463  35.696  1.00  0.00     0.010 A 
ATOM     44  C   UNL A   1      41.008  29.789  35.271  1.00  0.00     0.010 A 
ATOM     45  C   UNL A   1      42.841  29.733  35.007  1.00  0.00    -0.014 A 
BRANCH  45  46
ATOM     46  C   UNL A   1      43.015  28.267  33.650  1.00  0.00     0.031 A 
ATOM     47  C   UNL A   1      44.035  27.222  34.300  1.00  0.00     0.074 A 
ATOM     48  C   UNL A   1      42.393  28.381  31.938  1.00  0.00     0.049 A 
ATOM     49  N   UNL A   1      44.288  26.135  33.679  1.00  0.00    -0.248 NA
ATOM     50  C   UNL A   1      44.960  27.327  35.440  1.00  0.00     0.031 C 
ATOM     51  C   UNL A   1      42.271  27.719  30.336  1.00  0.00     0.029 A 
ATOM     52  N   UNL A   1      41.891  29.700  31.178  1.00  0.00    -0.354 N 
ATOM     53  C   UNL A   1      45.372  25.493  34.109  1.00  0.00     0.074 A 
ATOM     54  C   UNL A   1      45.674  26.184  35.338  1.00  0.00     0.031 C 
ATOM     55  C   UNL A   1      41.883  28.561  29.355  1.00  0.00     0.029 A 
ATOM     56  C   UNL A   1      41.830  29.912  29.840  1.00  0.00     0.049 A 
ATOM     57  H   UNL A   1      41.591  30.442  31.751  1.00  0.00     0.167 HD
ATOM     58  C   UNL A   1      45.609  24.385  33.365  1.00  0.00     0.037 A 
ATOM     59  C   UNL A   1      42.361  31.045  29.288  1.00  0.00     0.037 A 
ATOM     60  C   UNL A   1      45.243  24.590  31.876  1.00  0.00     0.049 A 
ATOM     61  C   UNL A   1      43.732  30.334  28.808  1.00  0.00     0.074 A 
ATOM     62  C   UNL A   1      44.299  24.048  31.012  1.00  0.00     0.029 A 
ATOM     63  N   UNL A   1      45.749  25.706  31.129  1.00  0.00    -0.354 N 
ATOM     64  N   UNL A   1      44.366  29.354  29.462  1.00  0.00    -0.248 NA
ATOM     65  C   UNL A   1      44.103  30.291  27.399  1.00  0.00     0.031 C 
ATOM     66  C   UNL A   1      44.182  24.888  29.821  1.00  0.00     0.029 A 
ATOM     67  C   UNL A   1      45.039  26.006  29.908  1.00  0.00     0.049 A 
ATOM     68  H   UNL A   1      46.527  26.229  31.428  1.00  0.00     0.167 HD
ATOM     69  C   UNL A   1      44.971  28.404  28.596  1.00  0.00     0.074 A 
ATOM     70  C   UNL A   1      44.798  29.132  27.314  1.00  0.00     0.031 C 
ATOM     71  C   UNL A   1      45.506  27.091  28.856  1.00  0.00     0.037 A 
BRANCH  58  72
ATOM     72  C   UNL A   1      45.788  23.077  34.122  1.00  0.00     0.057 A 
ATOM     73  C   UNL A   1      44.686  22.264  34.412  1.00  0.00     0.134 A 
ATOM     74  C   UNL A   1      47.005  22.618  34.702  1.00  0.00     0.134 A 
ATOM     75  F   UNL A   1      43.453  22.602  34.014  1.00  0.00    -0.206 F 
ATOM     76  C   UNL A   1      44.794  21.067  35.145  1.00  0.00     0.040 A 
ATOM     77  C   UNL A   1      47.135  21.404  35.391  1.00  0.00     0.040 A 
ATOM     78  F   UNL A   1      48.135  23.334  34.689  1.00  0.00    -0.206 F 
ATOM     79  C   UNL A   1      46.024  20.617  35.610  1.00  0.00     0.006 A 
ENDBRANCH  58  72
BRANCH  59  80
ATOM     80  C   UNL A   1      41.944  32.455  29.979  1.00  0.00     0.057 A 
ATOM     81  C   UNL A   1      40.841  32.540  30.898  1.00  0.00     0.134 A 
ATOM     82  C   UNL A   1      42.672  33.645  30.065  1.00  0.00     0.134 A 
ATOM     83  F   UNL A   1      39.632  32.163  30.481  1.00  0.00    -0.206 F 
ATOM     84  C   UNL A   1      40.756  33.335  32.080  1.00  0.00     0.040 A 
ATOM     85  C   UNL A   1      42.507  34.598  31.157  1.00  0.00     0.040 A 
ATOM     86  F   UNL A   1      43.659  33.886  29.200  1.00  0.00    -0.206 F 
ATOM     87  C   UNL A   1      41.638  34.371  32.236  1.00  0.00     0.006 A 
ENDBRANCH  59  80
BRANCH  71  88
ATOM     88  C   UNL A   1      46.811  26.635  28.162  1.00  0.00     0.057 A 
ATOM     89  C   UNL A   1      46.915  25.566  27.267  1.00  0.00     0.134 A 
ATOM     90  C   UNL A   1      47.985  27.447  28.205  1.00  0.00     0.134 A 
ATOM     91  F   UNL A   1      45.915  24.714  27.033  1.00  0.00    -0.206 F 
ATOM     92  C   UNL A   1      48.058  25.332  26.494  1.00  0.00     0.040 A 
ATOM     93  C   UNL A   1      49.078  27.290  27.357  1.00  0.00     0.040 A 
ATOM     94  F   UNL A   1      48.157  28.467  29.052  1.00  0.00    -0.206 F 
ATOM     95  C   UNL A   1      49.126  26.215  26.503  1.00  0.00     0.006 A 
ENDBRANCH  71  88
ENDBRANCH  45  46
ENDBRANCH  38  40
ENDBRANCH  37  38
ENDBRANCH  36  37
ENDBRANCH  35  36
ENDBRANCH  34  35
ENDBRANCH  33  34
ENDBRANCH   1  33
TORSDOF 21
ENDMDL
MODEL 3
REMARK VINA RESULT:     -10.8      5.184     14.343
REMARK SMILES Cc1ccccc1[C@@H]1[NH2+][C@H](C(=O)OCCOCCOCCOCCOC(=O)c2ccc(-c3c4nc(c(-c5c(F)cccc5F)c5ccc([nH]5)c(-c5c(F)cccc5F)c5nc(c(-c6c(F)cccc6F)c6ccc3[nH]6)C=C5)C=C4)cc2)CC2=c3ccccc3=N[C@@H]21
REMARK SMILES IDX 20 1 19 2 18 3 17 4 16 5 15 6 14 7 13 8 11 9 12 10 10 11
REMARK SMILES IDX 8 12 9 13 91 14 83 17 90 18 82 19 84 20 89 21 85 22 88 23
REMARK SMILES IDX 86 24 87 25 7 26 1 27 2 28 3 29 4 30 6 31 5 32 21 33 22 34
REMARK SMILES IDX 23 35 24 36 25 37 26 38 27 39 28 40 29 41 81 42 30 43 80 44
REMARK SMILES IDX 31 45 32 46 33 47 74 48 34 49 79 50 73 51 75 52 35 53 78 54
REMARK SMILES IDX 72 55 71 56 36 58 62 59 45 60 61 61 46 62 49 63 60 64 76 65
REMARK SMILES IDX 47 66 48 67 59 69 77 70 50 71 37 72 38 73 43 74 39 75 40 76
REMARK SMILES IDX 42 77 44 78 41 79 63 80 64 81 69 82 65 83 66 84 68 85 70 86
REMARK SMILES IDX 67 87 51 88 52 89 57 90 53 91 54 92 56 93 58 94 55 95
REMARK H PARENT 9 15 9 16 75 57 49 68
REMARK Flexibility Score: inf
ROOT
ATOM      1  C   UNL A   1      38.451  29.749  28.056  1.00  0.00     0.188 C 
ENDROOT
BRANCH   1   2
ATOM      2  O   UNL A   1      39.492  28.772  28.409  1.00  0.00    -0.377 OA
BRANCH   2   3
ATOM      3  C   UNL A   1      39.884  27.443  27.735  1.00  0.00     0.188 C 
BRANCH   3   4
ATOM      4  C   UNL A   1      39.828  25.623  28.228  1.00  0.00     0.188 C 
BRANCH   4   5
ATOM      5  O   UNL A   1      41.056  24.176  28.007  1.00  0.00    -0.376 OA
BRANCH   5   6
ATOM      6  C   UNL A   1      41.474  22.972  26.517  1.00  0.00     0.202 C 
BRANCH   6   7
ATOM      7  C   UNL A   1      40.225  21.511  26.348  1.00  0.00     0.261 C 
BRANCH   7   8
ATOM      8  O   UNL A   1      38.532  21.873  25.600  1.00  0.00    -0.459 OA
BRANCH   8   9
ATOM      9  C   UNL A   1      37.245  22.792  25.576  1.00  0.00     0.365 C 
ATOM     10  O   UNL A   1      37.410  23.951  25.156  1.00  0.00    -0.245 OA
BRANCH   9  11
ATOM     11  C   UNL A   1      35.476  22.386  26.084  1.00  0.00     0.298 C 
ATOM     12  C   UNL A   1      32.986  23.516  25.029  1.00  0.00     0.243 C 
ATOM     13  N   UNL A   1      34.375  22.937  25.252  1.00  0.00    -0.326 N 
ATOM     14  C   UNL A   1      32.378  21.859  25.288  1.00  0.00     0.196 C 
ATOM     15  H   UNL A   1      34.904  23.693  24.817  1.00  0.00     0.347 HD
ATOM     16  H   UNL A   1      33.948  22.011  25.268  1.00  0.00     0.347 HD
ATOM     17  C   UNL A   1      33.516  20.719  25.731  1.00  0.00    -0.024 C 
ATOM     18  N   UNL A   1      31.760  21.151  24.153  1.00  0.00    -0.270 NA
ATOM     19  C   UNL A   1      34.834  21.043  26.506  1.00  0.00     0.111 C 
ATOM     20  C   UNL A   1      33.400  19.617  24.985  1.00  0.00     0.002 A 
ATOM     21  C   UNL A   1      32.334  19.982  24.042  1.00  0.00     0.066 A 
ATOM     22  C   UNL A   1      34.256  18.477  24.773  1.00  0.00     0.010 A 
ATOM     23  C   UNL A   1      32.134  18.976  22.943  1.00  0.00     0.028 A 
ATOM     24  C   UNL A   1      34.095  17.721  23.674  1.00  0.00     0.001 A 
ATOM     25  C   UNL A   1      33.013  17.978  22.753  1.00  0.00     0.002 A 
BRANCH  12  26
ATOM     26  C   UNL A   1      32.767  25.358  24.289  1.00  0.00     0.015 A 
ATOM     27  C   UNL A   1      29.919  25.507  23.538  1.00  0.00     0.045 C 
ATOM     28  C   UNL A   1      31.160  26.348  23.919  1.00  0.00    -0.042 A 
ATOM     29  C   UNL A   1      31.056  28.360  24.344  1.00  0.00     0.004 A 
ATOM     30  C   UNL A   1      32.381  29.133  25.288  1.00  0.00     0.000 A 
ATOM     31  C   UNL A   1      34.014  26.441  25.129  1.00  0.00     0.010 A 
ATOM     32  C   UNL A   1      33.799  28.175  25.660  1.00  0.00     0.001 A 
ENDBRANCH  12  26
ENDBRANCH   9  11
ENDBRANCH   8   9
ENDBRANCH   7   8
ENDBRANCH   6   7
ENDBRANCH   5   6
ENDBRANCH   4   5
ENDBRANCH   3   4
ENDBRANCH   2   3
ENDBRANCH   1   2
BRANCH   1  33
ATOM     33  C   UNL A   1      37.608  30.357  29.170  1.00  0.00     0.188 C 
BRANCH  33  34
ATOM     34  O   UNL A   1      38.191  30.213  30.413  1.00  0.00    -0.376 OA
BRANCH  34  35
ATOM     35  C   UNL A   1      38.161  31.290  31.323  1.00  0.00     0.202 C 
BRANCH  35  36
ATOM     36  C   UNL A   1      39.514  31.041  31.935  1.00  0.00     0.261 C 
BRANCH  36  37
ATOM     37  O   UNL A   1      39.297  29.850  32.835  1.00  0.00    -0.460 OA
BRANCH  37  38
ATOM     38  C   UNL A   1      40.208  28.817  32.818  1.00  0.00     0.338 C 
ATOM     39  O   UNL A   1      40.037  27.784  33.462  1.00  0.00    -0.246 OA
BRANCH  38  40
ATOM     40  C   UNL A   1      41.597  29.097  32.161  1.00  0.00     0.060 A 
ATOM     41  C   UNL A   1      41.769  27.980  30.899  1.00  0.00     0.016 A 
ATOM     42  C   UNL A   1      43.006  29.926  32.865  1.00  0.00     0.016 A 
ATOM     43  C   UNL A   1      43.405  27.472  30.377  1.00  0.00     0.010 A 
ATOM     44  C   UNL A   1      44.728  29.516  32.457  1.00  0.00     0.010 A 
ATOM     45  C   UNL A   1      45.132  28.204  31.212  1.00  0.00    -0.014 A 
BRANCH  45  46
ATOM     46  C   UNL A   1      47.015  27.730  31.712  1.00  0.00     0.031 A 
ATOM     47  C   UNL A   1      47.689  27.230  30.353  1.00  0.00     0.074 A 
ATOM     48  C   UNL A   1      47.610  27.588  33.432  1.00  0.00     0.049 A 
ATOM     49  N   UNL A   1      48.929  26.921  30.352  1.00  0.00    -0.248 NA
ATOM     50  C   UNL A   1      47.116  26.835  29.055  1.00  0.00     0.031 C 
ATOM     51  C   UNL A   1      48.861  27.159  34.559  1.00  0.00     0.029 A 
ATOM     52  N   UNL A   1      46.717  27.533  34.762  1.00  0.00    -0.354 N 
ATOM     53  C   UNL A   1      49.321  26.213  29.295  1.00  0.00     0.074 A 
ATOM     54  C   UNL A   1      48.189  26.326  28.410  1.00  0.00     0.031 C 
ATOM     55  C   UNL A   1      48.491  26.986  35.845  1.00  0.00     0.029 A 
ATOM     56  C   UNL A   1      47.061  27.020  35.969  1.00  0.00     0.049 A 
ATOM     57  H   UNL A   1      45.814  27.919  34.694  1.00  0.00     0.167 HD
ATOM     58  C   UNL A   1      50.630  25.873  29.396  1.00  0.00     0.037 A 
ATOM     59  C   UNL A   1      46.234  26.144  36.616  1.00  0.00     0.037 A 
ATOM     60  C   UNL A   1      51.047  25.575  30.856  1.00  0.00     0.049 A 
ATOM     61  C   UNL A   1      47.048  24.823  36.160  1.00  0.00     0.074 A 
ATOM     62  C   UNL A   1      51.909  26.166  31.772  1.00  0.00     0.029 A 
ATOM     63  N   UNL A   1      50.314  24.646  31.668  1.00  0.00    -0.354 N 
ATOM     64  N   UNL A   1      47.670  24.664  34.987  1.00  0.00    -0.248 NA
ATOM     65  C   UNL A   1      47.645  23.930  37.146  1.00  0.00     0.031 C 
ATOM     66  C   UNL A   1      51.620  25.664  33.114  1.00  0.00     0.029 A 
ATOM     67  C   UNL A   1      50.543  24.753  33.089  1.00  0.00     0.049 A 
ATOM     68  H   UNL A   1      49.698  23.983  31.282  1.00  0.00     0.167 HD
ATOM     69  C   UNL A   1      48.874  23.917  35.089  1.00  0.00     0.074 A 
ATOM     70  C   UNL A   1      48.725  23.448  36.489  1.00  0.00     0.031 C 
ATOM     71  C   UNL A   1      49.961  23.742  34.158  1.00  0.00     0.037 A 
BRANCH  58  72
ATOM     72  C   UNL A   1      51.520  26.217  28.211  1.00  0.00     0.057 A 
ATOM     73  C   UNL A   1      51.459  25.465  27.032  1.00  0.00     0.134 A 
ATOM     74  C   UNL A   1      52.547  27.203  28.208  1.00  0.00     0.134 A 
ATOM     75  F   UNL A   1      50.606  24.441  26.907  1.00  0.00    -0.206 F 
ATOM     76  C   UNL A   1      52.290  25.718  25.924  1.00  0.00     0.040 A 
ATOM     77  C   UNL A   1      53.347  27.497  27.095  1.00  0.00     0.040 A 
ATOM     78  F   UNL A   1      52.883  27.911  29.293  1.00  0.00    -0.206 F 
ATOM     79  C   UNL A   1      53.215  26.755  25.940  1.00  0.00     0.006 A 
ENDBRANCH  58  72
BRANCH  59  80
ATOM     80  C   UNL A   1      44.674  26.579  36.748  1.00  0.00     0.057 A 
ATOM     81  C   UNL A   1      44.297  27.944  37.001  1.00  0.00     0.134 A 
ATOM     82  C   UNL A   1      43.526  25.877  36.372  1.00  0.00     0.134 A 
ATOM     83  F   UNL A   1      44.760  28.541  38.099  1.00  0.00    -0.206 F 
ATOM     84  C   UNL A   1      43.184  28.652  36.458  1.00  0.00     0.040 A 
ATOM     85  C   UNL A   1      42.287  26.536  35.975  1.00  0.00     0.040 A 
ATOM     86  F   UNL A   1      43.573  24.550  36.232  1.00  0.00    -0.206 F 
ATOM     87  C   UNL A   1      42.165  27.932  35.892  1.00  0.00     0.006 A 
ENDBRANCH  59  80
BRANCH  71  88
ATOM     88  C   UNL A   1      50.630  22.355  34.001  1.00  0.00     0.057 A 
ATOM     89  C   UNL A   1      52.001  22.107  34.108  1.00  0.00     0.134 A 
ATOM     90  C   UNL A   1      49.844  21.164  33.973  1.00  0.00     0.134 A 
ATOM     91  F   UNL A   1      52.911  23.079  34.203  1.00  0.00    -0.206 F 
ATOM     92  C   UNL A   1      52.535  20.815  34.186  1.00  0.00     0.040 A 
ATOM     93  C   UNL A   1      50.356  19.883  34.167  1.00  0.00     0.040 A 
ATOM     94  F   UNL A   1      48.522  21.145  33.780  1.00  0.00    -0.206 F 
ATOM     95  C   UNL A   1      51.714  19.701  34.258  1.00  0.00     0.006 A 
ENDBRANCH  71  88
ENDBRANCH  45  46
ENDBRANCH  38  40
ENDBRANCH  37  38
ENDBRANCH  36  37
ENDBRANCH  35  36
ENDBRANCH  34  35
ENDBRANCH  33  34
ENDBRANCH   1  33
TORSDOF 21
ENDMDL
