MODEL 1
REMARK VINA RESULT:     -10.3      0.000      0.000
REMARK SMILES Cc1ccccc1NC(=S)NN1C(=O)CS[C@H]1c1ccccc1C(=O)OCCOCCOCCOCCOC(=O)c1ccc(-c2c3nc(c(-c4c(F)cccc4F)c4ccc([nH]4)c(-c4c(F)cccc4F)c4nc(c(-c5c(F)cccc5F)c5ccc2[nH]5)C=C4)C=C3)cc1
REMARK SMILES IDX 30 1 29 2 28 3 27 4 26 5 24 6 25 7 23 8 18 9 19 10 20 11
REMARK SMILES IDX 22 12 21 13 17 14 12 15 13 16 14 17 15 18 16 19 11 20 9 22
REMARK SMILES IDX 10 23 8 24 7 26 1 27 2 28 3 29 4 30 6 31 5 32 31 33 32 34
REMARK SMILES IDX 33 35 34 36 35 37 36 38 37 39 38 40 39 41 40 42 41 43 42 44
REMARK SMILES IDX 94 45 43 46 93 47 44 48 45 49 46 50 87 51 47 52 92 53 86 54
REMARK SMILES IDX 88 55 48 56 91 57 85 58 84 59 49 61 75 62 58 63 74 64 59 65
REMARK SMILES IDX 62 66 73 67 89 68 60 69 61 70 72 72 90 73 63 74 50 75 51 76
REMARK SMILES IDX 56 77 52 78 53 79 55 80 57 81 54 82 76 83 77 84 82 85 78 86
REMARK SMILES IDX 79 87 81 88 83 89 80 90 64 91 65 92 70 93 66 94 67 95 69 96
REMARK SMILES IDX 71 97 68 98
REMARK H PARENT 11 21 8 25 88 60 62 71
REMARK Flexibility Score: inf
ROOT
ATOM      1  C   UNL A   1      39.875  25.785  28.354  1.00  0.00     0.188 C 
ENDROOT
BRANCH   1   2
ATOM      2  O   UNL A   1      38.949  25.031  27.607  1.00  0.00    -0.376 OA
BRANCH   2   3
ATOM      3  C   UNL A   1      39.275  23.666  27.207  1.00  0.00     0.202 C 
BRANCH   3   4
ATOM      4  C   UNL A   1      38.387  22.893  25.802  1.00  0.00     0.261 C 
BRANCH   4   5
ATOM      5  O   UNL A   1      36.623  23.126  25.220  1.00  0.00    -0.460 OA
BRANCH   5   6
ATOM      6  C   UNL A   1      35.806  23.420  23.849  1.00  0.00     0.338 C 
ATOM      7  O   UNL A   1      36.386  23.260  22.772  1.00  0.00    -0.246 OA
BRANCH   6   8
ATOM      8  C   UNL A   1      34.289  24.230  23.665  1.00  0.00     0.066 A 
ATOM      9  C   UNL A   1      33.135  23.421  23.639  1.00  0.00     0.001 A 
ATOM     10  C   UNL A   1      31.829  23.798  23.250  1.00  0.00     0.008 A 
ATOM     11  C   UNL A   1      31.654  25.021  22.664  1.00  0.00     0.000 A 
ATOM     12  C   UNL A   1      34.036  25.525  23.179  1.00  0.00     0.016 A 
ATOM     13  C   UNL A   1      32.755  25.878  22.621  1.00  0.00     0.001 A 
BRANCH   9  14
ATOM     14  C   UNL A   1      33.404  22.002  23.573  1.00  0.00     0.197 C 
ATOM     15  N   UNL A   1      33.508  21.503  24.925  1.00  0.00    -0.236 N 
ATOM     16  C   UNL A   1      33.273  20.063  24.703  1.00  0.00     0.252 C 
ATOM     17  O   UNL A   1      34.101  19.182  24.972  1.00  0.00    -0.272 OA
ATOM     18  C   UNL A   1      32.152  19.771  23.707  1.00  0.00     0.174 C 
ATOM     19  S   UNL A   1      32.247  21.103  22.527  1.00  0.00    -0.120 SA
BRANCH  15  20
ATOM     20  N   UNL A   1      33.059  22.647  26.320  1.00  0.00    -0.270 N 
ATOM     21  H   UNL A   1      33.705  22.537  27.055  1.00  0.00     0.191 HD
BRANCH  20  22
ATOM     22  C   UNL A   1      31.881  23.850  26.764  1.00  0.00     0.189 C 
ATOM     23  S   UNL A   1      30.287  23.151  26.742  1.00  0.00    -0.039 S 
BRANCH  22  24
ATOM     24  N   UNL A   1      31.969  25.522  26.758  1.00  0.00    -0.331 N 
ATOM     25  H   UNL A   1      32.178  25.603  27.717  1.00  0.00     0.169 HD
BRANCH  24  26
ATOM     26  C   UNL A   1      31.994  27.285  26.436  1.00  0.00     0.043 A 
ATOM     27  C   UNL A   1      30.792  28.251  24.099  1.00  0.00     0.046 C 
ATOM     28  C   UNL A   1      31.333  28.305  25.531  1.00  0.00    -0.028 A 
ATOM     29  C   UNL A   1      31.449  29.805  25.685  1.00  0.00     0.005 A 
ATOM     30  C   UNL A   1      32.328  30.431  26.504  1.00  0.00     0.000 A 
ATOM     31  C   UNL A   1      32.791  28.124  27.137  1.00  0.00     0.026 A 
ATOM     32  C   UNL A   1      33.063  29.552  27.192  1.00  0.00     0.002 A 
ENDBRANCH  24  26
ENDBRANCH  22  24
ENDBRANCH  20  22
ENDBRANCH  15  20
ENDBRANCH   9  14
ENDBRANCH   6   8
ENDBRANCH   5   6
ENDBRANCH   4   5
ENDBRANCH   3   4
ENDBRANCH   2   3
ENDBRANCH   1   2
BRANCH   1  33
ATOM     33  C   UNL A   1      39.546  27.236  28.030  1.00  0.00     0.188 C 
BRANCH  33  34
ATOM     34  O   UNL A   1      39.633  28.122  29.132  1.00  0.00    -0.377 OA
BRANCH  34  35
ATOM     35  C   UNL A   1      40.807  27.929  29.914  1.00  0.00     0.188 C 
BRANCH  35  36
ATOM     36  C   UNL A   1      41.684  29.173  29.951  1.00  0.00     0.188 C 
BRANCH  36  37
ATOM     37  O   UNL A   1      41.137  30.339  29.353  1.00  0.00    -0.376 OA
BRANCH  37  38
ATOM     38  C   UNL A   1      40.829  31.411  30.240  1.00  0.00     0.202 C 
BRANCH  38  39
ATOM     39  C   UNL A   1      42.053  32.072  30.896  1.00  0.00     0.261 C 
BRANCH  39  40
ATOM     40  O   UNL A   1      42.920  32.589  29.868  1.00  0.00    -0.460 OA
BRANCH  40  41
ATOM     41  C   UNL A   1      42.792  33.919  29.614  1.00  0.00     0.338 C 
ATOM     42  O   UNL A   1      41.833  34.609  29.899  1.00  0.00    -0.246 OA
BRANCH  41  43
ATOM     43  C   UNL A   1      43.821  34.315  28.606  1.00  0.00     0.060 A 
ATOM     44  C   UNL A   1      43.742  33.733  27.339  1.00  0.00     0.016 A 
ATOM     45  C   UNL A   1      45.037  34.829  29.066  1.00  0.00     0.016 A 
ATOM     46  C   UNL A   1      44.922  33.460  26.660  1.00  0.00     0.010 A 
ATOM     47  C   UNL A   1      46.210  34.394  28.477  1.00  0.00     0.010 A 
ATOM     48  C   UNL A   1      46.162  33.638  27.315  1.00  0.00    -0.014 A 
BRANCH  48  49
ATOM     49  C   UNL A   1      47.365  32.900  26.840  1.00  0.00     0.031 A 
ATOM     50  C   UNL A   1      48.531  33.859  26.115  1.00  0.00     0.074 A 
ATOM     51  C   UNL A   1      47.203  31.536  27.109  1.00  0.00     0.049 A 
ATOM     52  N   UNL A   1      49.689  33.537  25.601  1.00  0.00    -0.248 NA
ATOM     53  C   UNL A   1      48.414  35.314  25.923  1.00  0.00     0.031 C 
ATOM     54  C   UNL A   1      46.676  30.961  28.385  1.00  0.00     0.029 A 
ATOM     55  N   UNL A   1      47.555  30.349  26.506  1.00  0.00    -0.354 N 
ATOM     56  C   UNL A   1      50.473  34.552  25.068  1.00  0.00     0.074 A 
ATOM     57  C   UNL A   1      49.565  35.665  25.308  1.00  0.00     0.031 C 
ATOM     58  C   UNL A   1      47.047  29.664  28.527  1.00  0.00     0.029 A 
ATOM     59  C   UNL A   1      47.666  29.183  27.290  1.00  0.00     0.049 A 
ATOM     60  H   UNL A   1      47.727  30.314  25.538  1.00  0.00     0.167 HD
ATOM     61  C   UNL A   1      51.785  34.350  24.588  1.00  0.00     0.037 A 
ATOM     62  C   UNL A   1      48.065  27.874  26.991  1.00  0.00     0.037 A 
ATOM     63  C   UNL A   1      52.391  32.877  24.486  1.00  0.00     0.049 A 
ATOM     64  C   UNL A   1      49.514  27.427  26.108  1.00  0.00     0.074 A 
ATOM     65  C   UNL A   1      53.557  32.342  25.043  1.00  0.00     0.029 A 
ATOM     66  N   UNL A   1      51.882  31.699  23.818  1.00  0.00    -0.354 N 
ATOM     67  N   UNL A   1      50.672  28.126  26.057  1.00  0.00    -0.248 NA
ATOM     68  C   UNL A   1      49.660  26.333  25.132  1.00  0.00     0.031 C 
ATOM     69  C   UNL A   1      53.536  30.920  25.007  1.00  0.00     0.029 A 
ATOM     70  C   UNL A   1      52.383  30.444  24.404  1.00  0.00     0.049 A 
ATOM     71  H   UNL A   1      51.264  31.733  23.052  1.00  0.00     0.167 HD
ATOM     72  C   UNL A   1      51.319  28.008  24.771  1.00  0.00     0.074 A 
ATOM     73  C   UNL A   1      50.759  26.689  24.405  1.00  0.00     0.031 C 
ATOM     74  C   UNL A   1      52.037  28.987  23.971  1.00  0.00     0.037 A 
BRANCH  61  75
ATOM     75  C   UNL A   1      52.832  35.558  24.697  1.00  0.00     0.057 A 
ATOM     76  C   UNL A   1      53.060  36.218  25.928  1.00  0.00     0.134 A 
ATOM     77  C   UNL A   1      53.426  36.260  23.629  1.00  0.00     0.134 A 
ATOM     78  F   UNL A   1      52.887  35.586  27.098  1.00  0.00    -0.206 F 
ATOM     79  C   UNL A   1      53.525  37.547  26.038  1.00  0.00     0.040 A 
ATOM     80  C   UNL A   1      53.932  37.573  23.718  1.00  0.00     0.040 A 
ATOM     81  F   UNL A   1      53.662  35.703  22.444  1.00  0.00    -0.206 F 
ATOM     82  C   UNL A   1      53.917  38.255  24.917  1.00  0.00     0.006 A 
ENDBRANCH  61  75
BRANCH  62  83
ATOM     83  C   UNL A   1      46.687  27.137  27.047  1.00  0.00     0.057 A 
ATOM     84  C   UNL A   1      46.043  26.911  25.809  1.00  0.00     0.134 A 
ATOM     85  C   UNL A   1      46.635  26.016  27.931  1.00  0.00     0.134 A 
ATOM     86  F   UNL A   1      45.991  27.890  24.896  1.00  0.00    -0.206 F 
ATOM     87  C   UNL A   1      45.690  25.610  25.369  1.00  0.00     0.040 A 
ATOM     88  C   UNL A   1      46.317  24.713  27.490  1.00  0.00     0.040 A 
ATOM     89  F   UNL A   1      47.166  26.107  29.159  1.00  0.00    -0.206 F 
ATOM     90  C   UNL A   1      45.904  24.498  26.182  1.00  0.00     0.006 A 
ENDBRANCH  62  83
BRANCH  74  91
ATOM     91  C   UNL A   1      52.654  28.720  22.550  1.00  0.00     0.057 A 
ATOM     92  C   UNL A   1      53.958  28.295  22.282  1.00  0.00     0.134 A 
ATOM     93  C   UNL A   1      51.841  28.780  21.370  1.00  0.00     0.134 A 
ATOM     94  F   UNL A   1      54.836  28.056  23.263  1.00  0.00    -0.206 F 
ATOM     95  C   UNL A   1      54.422  28.027  20.971  1.00  0.00     0.040 A 
ATOM     96  C   UNL A   1      52.269  28.447  20.080  1.00  0.00     0.040 A 
ATOM     97  F   UNL A   1      50.563  29.170  21.374  1.00  0.00    -0.206 F 
ATOM     98  C   UNL A   1      53.577  28.091  19.868  1.00  0.00     0.006 A 
ENDBRANCH  74  91
ENDBRANCH  48  49
ENDBRANCH  41  43
ENDBRANCH  40  41
ENDBRANCH  39  40
ENDBRANCH  38  39
ENDBRANCH  37  38
ENDBRANCH  36  37
ENDBRANCH  35  36
ENDBRANCH  34  35
ENDBRANCH  33  34
ENDBRANCH   1  33
TORSDOF 25
ENDMDL
MODEL 2
REMARK VINA RESULT:     -10.2      8.490     12.801
REMARK SMILES Cc1ccccc1NC(=S)NN1C(=O)CS[C@H]1c1ccccc1C(=O)OCCOCCOCCOCCOC(=O)c1ccc(-c2c3nc(c(-c4c(F)cccc4F)c4ccc([nH]4)c(-c4c(F)cccc4F)c4nc(c(-c5c(F)cccc5F)c5ccc2[nH]5)C=C4)C=C3)cc1
REMARK SMILES IDX 30 1 29 2 28 3 27 4 26 5 24 6 25 7 23 8 18 9 19 10 20 11
REMARK SMILES IDX 22 12 21 13 17 14 12 15 13 16 14 17 15 18 16 19 11 20 9 22
REMARK SMILES IDX 10 23 8 24 7 26 1 27 2 28 3 29 4 30 6 31 5 32 31 33 32 34
REMARK SMILES IDX 33 35 34 36 35 37 36 38 37 39 38 40 39 41 40 42 41 43 42 44
REMARK SMILES IDX 94 45 43 46 93 47 44 48 45 49 46 50 87 51 47 52 92 53 86 54
REMARK SMILES IDX 88 55 48 56 91 57 85 58 84 59 49 61 75 62 58 63 74 64 59 65
REMARK SMILES IDX 62 66 73 67 89 68 60 69 61 70 72 72 90 73 63 74 50 75 51 76
REMARK SMILES IDX 56 77 52 78 53 79 55 80 57 81 54 82 76 83 77 84 82 85 78 86
REMARK SMILES IDX 79 87 81 88 83 89 80 90 64 91 65 92 70 93 66 94 67 95 69 96
REMARK SMILES IDX 71 97 68 98
REMARK H PARENT 11 21 8 25 88 60 62 71
REMARK Flexibility Score: inf
ROOT
ATOM      1  C   UNL A   1      39.504  26.216  28.465  1.00  0.00     0.188 C 
ENDROOT
BRANCH   1   2
ATOM      2  O   UNL A   1      38.960  25.484  27.392  1.00  0.00    -0.376 OA
BRANCH   2   3
ATOM      3  C   UNL A   1      39.282  24.070  27.236  1.00  0.00     0.202 C 
BRANCH   3   4
ATOM      4  C   UNL A   1      38.320  23.041  26.064  1.00  0.00     0.261 C 
BRANCH   4   5
ATOM      5  O   UNL A   1      36.557  23.232  25.463  1.00  0.00    -0.460 OA
BRANCH   5   6
ATOM      6  C   UNL A   1      35.748  23.491  24.080  1.00  0.00     0.338 C 
ATOM      7  O   UNL A   1      36.340  23.326  23.011  1.00  0.00    -0.246 OA
BRANCH   6   8
ATOM      8  C   UNL A   1      34.219  24.273  23.871  1.00  0.00     0.066 A 
ATOM      9  C   UNL A   1      33.089  23.438  23.746  1.00  0.00     0.001 A 
ATOM     10  C   UNL A   1      31.792  23.804  23.318  1.00  0.00     0.008 A 
ATOM     11  C   UNL A   1      31.610  25.053  22.794  1.00  0.00     0.000 A 
ATOM     12  C   UNL A   1      33.952  25.586  23.447  1.00  0.00     0.016 A 
ATOM     13  C   UNL A   1      32.688  25.938  22.850  1.00  0.00     0.001 A 
BRANCH   9  14
ATOM     14  C   UNL A   1      33.400  22.032  23.614  1.00  0.00     0.197 C 
ATOM     15  N   UNL A   1      33.464  21.461  24.940  1.00  0.00    -0.236 N 
ATOM     16  C   UNL A   1      33.279  20.030  24.631  1.00  0.00     0.252 C 
ATOM     17  O   UNL A   1      34.119  19.158  24.884  1.00  0.00    -0.272 OA
ATOM     18  C   UNL A   1      32.207  19.765  23.574  1.00  0.00     0.174 C 
ATOM     19  S   UNL A   1      32.312  21.164  22.473  1.00  0.00    -0.120 SA
BRANCH  15  20
ATOM     20  N   UNL A   1      32.928  22.514  26.376  1.00  0.00    -0.270 N 
ATOM     21  H   UNL A   1      33.474  22.294  27.165  1.00  0.00     0.191 HD
BRANCH  20  22
ATOM     22  C   UNL A   1      31.786  23.761  26.794  1.00  0.00     0.189 C 
ATOM     23  S   UNL A   1      30.174  23.105  26.802  1.00  0.00    -0.039 S 
BRANCH  22  24
ATOM     24  N   UNL A   1      31.919  25.428  26.741  1.00  0.00    -0.331 N 
ATOM     25  H   UNL A   1      31.800  25.558  27.709  1.00  0.00     0.169 HD
BRANCH  24  26
ATOM     26  C   UNL A   1      32.100  27.172  26.365  1.00  0.00     0.043 A 
ATOM     27  C   UNL A   1      30.576  28.274  24.290  1.00  0.00     0.046 C 
ATOM     28  C   UNL A   1      31.402  28.264  25.581  1.00  0.00    -0.028 A 
ATOM     29  C   UNL A   1      31.735  29.737  25.660  1.00  0.00     0.005 A 
ATOM     30  C   UNL A   1      32.836  30.247  26.264  1.00  0.00     0.000 A 
ATOM     31  C   UNL A   1      33.123  27.903  26.862  1.00  0.00     0.026 A 
ATOM     32  C   UNL A   1      33.579  29.283  26.816  1.00  0.00     0.002 A 
ENDBRANCH  24  26
ENDBRANCH  22  24
ENDBRANCH  20  22
ENDBRANCH  15  20
ENDBRANCH   9  14
ENDBRANCH   6   8
ENDBRANCH   5   6
ENDBRANCH   4   5
ENDBRANCH   3   4
ENDBRANCH   2   3
ENDBRANCH   1   2
BRANCH   1  33
ATOM     33  C   UNL A   1      39.012  27.641  28.254  1.00  0.00     0.188 C 
BRANCH  33  34
ATOM     34  O   UNL A   1      38.244  28.166  29.322  1.00  0.00    -0.377 OA
BRANCH  34  35
ATOM     35  C   UNL A   1      38.988  28.314  30.527  1.00  0.00     0.188 C 
BRANCH  35  36
ATOM     36  C   UNL A   1      38.259  29.169  31.553  1.00  0.00     0.188 C 
BRANCH  36  37
ATOM     37  O   UNL A   1      38.495  30.568  31.479  1.00  0.00    -0.376 OA
BRANCH  37  38
ATOM     38  C   UNL A   1      37.455  31.348  30.896  1.00  0.00     0.202 C 
BRANCH  38  39
ATOM     39  C   UNL A   1      36.047  31.044  31.437  1.00  0.00     0.261 C 
BRANCH  39  40
ATOM     40  O   UNL A   1      35.941  31.540  32.785  1.00  0.00    -0.460 OA
BRANCH  40  41
ATOM     41  C   UNL A   1      35.338  32.753  32.913  1.00  0.00     0.338 C 
ATOM     42  O   UNL A   1      34.431  33.174  32.223  1.00  0.00    -0.246 OA
BRANCH  41  43
ATOM     43  C   UNL A   1      36.201  33.629  33.763  1.00  0.00     0.060 A 
ATOM     44  C   UNL A   1      37.357  34.155  33.181  1.00  0.00     0.016 A 
ATOM     45  C   UNL A   1      36.110  33.503  35.152  1.00  0.00     0.016 A 
ATOM     46  C   UNL A   1      38.483  34.320  33.977  1.00  0.00     0.010 A 
ATOM     47  C   UNL A   1      37.275  33.493  35.898  1.00  0.00     0.010 A 
ATOM     48  C   UNL A   1      38.482  33.822  35.299  1.00  0.00    -0.014 A 
BRANCH  48  49
ATOM     49  C   UNL A   1      39.773  33.519  35.979  1.00  0.00     0.031 A 
ATOM     50  C   UNL A   1      40.443  32.038  35.578  1.00  0.00     0.074 A 
ATOM     51  C   UNL A   1      40.103  34.580  36.830  1.00  0.00     0.049 A 
ATOM     52  N   UNL A   1      41.551  31.475  35.983  1.00  0.00    -0.248 NA
ATOM     53  C   UNL A   1      39.835  31.070  34.651  1.00  0.00     0.031 C 
ATOM     54  C   UNL A   1      39.989  36.033  36.489  1.00  0.00     0.029 A 
ATOM     55  N   UNL A   1      40.724  34.728  38.050  1.00  0.00    -0.354 N 
ATOM     56  C   UNL A   1      41.875  30.225  35.472  1.00  0.00     0.074 A 
ATOM     57  C   UNL A   1      40.703  30.036  34.629  1.00  0.00     0.031 C 
ATOM     58  C   UNL A   1      40.775  36.787  37.296  1.00  0.00     0.029 A 
ATOM     59  C   UNL A   1      41.322  35.962  38.375  1.00  0.00     0.049 A 
ATOM     60  H   UNL A   1      40.749  33.981  38.690  1.00  0.00     0.167 HD
ATOM     61  C   UNL A   1      43.094  29.567  35.744  1.00  0.00     0.037 A 
ATOM     62  C   UNL A   1      42.072  36.391  39.478  1.00  0.00     0.037 A 
ATOM     63  C   UNL A   1      44.121  30.170  36.807  1.00  0.00     0.049 A 
ATOM     64  C   UNL A   1      43.437  35.536  40.176  1.00  0.00     0.074 A 
ATOM     65  C   UNL A   1      45.466  30.520  36.661  1.00  0.00     0.029 A 
ATOM     66  N   UNL A   1      43.924  30.544  38.191  1.00  0.00    -0.354 N 
ATOM     67  N   UNL A   1      44.285  34.708  39.524  1.00  0.00    -0.248 NA
ATOM     68  C   UNL A   1      43.779  35.421  41.605  1.00  0.00     0.031 C 
ATOM     69  C   UNL A   1      45.901  31.345  37.735  1.00  0.00     0.029 A 
ATOM     70  C   UNL A   1      44.885  31.559  38.654  1.00  0.00     0.049 A 
ATOM     71  H   UNL A   1      43.220  30.160  38.763  1.00  0.00     0.167 HD
ATOM     72  C   UNL A   1      44.734  33.621  40.364  1.00  0.00     0.074 A 
ATOM     73  C   UNL A   1      44.581  34.317  41.660  1.00  0.00     0.031 C 
ATOM     74  C   UNL A   1      44.967  32.218  40.064  1.00  0.00     0.037 A 
BRANCH  61  75
ATOM     75  C   UNL A   1      43.699  28.589  34.627  1.00  0.00     0.057 A 
ATOM     76  C   UNL A   1      44.101  29.084  33.364  1.00  0.00     0.134 A 
ATOM     77  C   UNL A   1      43.670  27.180  34.633  1.00  0.00     0.134 A 
ATOM     78  F   UNL A   1      44.518  30.350  33.214  1.00  0.00    -0.206 F 
ATOM     79  C   UNL A   1      44.148  28.304  32.188  1.00  0.00     0.040 A 
ATOM     80  C   UNL A   1      43.751  26.374  33.479  1.00  0.00     0.040 A 
ATOM     81  F   UNL A   1      43.667  26.465  35.755  1.00  0.00    -0.206 F 
ATOM     82  C   UNL A   1      43.919  26.942  32.233  1.00  0.00     0.006 A 
ENDBRANCH  61  75
BRANCH  62  83
ATOM     83  C   UNL A   1      41.032  37.317  40.188  1.00  0.00     0.057 A 
ATOM     84  C   UNL A   1      40.250  36.723  41.205  1.00  0.00     0.134 A 
ATOM     85  C   UNL A   1      41.510  38.620  40.523  1.00  0.00     0.134 A 
ATOM     86  F   UNL A   1      39.713  35.510  41.011  1.00  0.00    -0.206 F 
ATOM     87  C   UNL A   1      40.235  37.221  42.532  1.00  0.00     0.040 A 
ATOM     88  C   UNL A   1      41.527  39.108  41.848  1.00  0.00     0.040 A 
ATOM     89  F   UNL A   1      42.226  39.320  39.630  1.00  0.00    -0.206 F 
ATOM     90  C   UNL A   1      40.943  38.373  42.871  1.00  0.00     0.006 A 
ENDBRANCH  62  83
BRANCH  74  91
ATOM     91  C   UNL A   1      45.415  31.130  41.107  1.00  0.00     0.057 A 
ATOM     92  C   UNL A   1      44.576  30.414  41.966  1.00  0.00     0.134 A 
ATOM     93  C   UNL A   1      46.777  30.684  41.169  1.00  0.00     0.134 A 
ATOM     94  F   UNL A   1      43.250  30.595  41.967  1.00  0.00    -0.206 F 
ATOM     95  C   UNL A   1      45.055  29.411  42.843  1.00  0.00     0.040 A 
ATOM     96  C   UNL A   1      47.247  29.644  41.979  1.00  0.00     0.040 A 
ATOM     97  F   UNL A   1      47.763  31.225  40.449  1.00  0.00    -0.206 F 
ATOM     98  C   UNL A   1      46.387  29.014  42.845  1.00  0.00     0.006 A 
ENDBRANCH  74  91
ENDBRANCH  48  49
ENDBRANCH  41  43
ENDBRANCH  40  41
ENDBRANCH  39  40
ENDBRANCH  38  39
ENDBRANCH  37  38
ENDBRANCH  36  37
ENDBRANCH  35  36
ENDBRANCH  34  35
ENDBRANCH  33  34
ENDBRANCH   1  33
TORSDOF 25
ENDMDL
MODEL 3
REMARK VINA RESULT:     -10.0      6.829     13.231
REMARK SMILES Cc1ccccc1NC(=S)NN1C(=O)CS[C@H]1c1ccccc1C(=O)OCCOCCOCCOCCOC(=O)c1ccc(-c2c3nc(c(-c4c(F)cccc4F)c4ccc([nH]4)c(-c4c(F)cccc4F)c4nc(c(-c5c(F)cccc5F)c5ccc2[nH]5)C=C4)C=C3)cc1
REMARK SMILES IDX 30 1 29 2 28 3 27 4 26 5 24 6 25 7 23 8 18 9 19 10 20 11
REMARK SMILES IDX 22 12 21 13 17 14 12 15 13 16 14 17 15 18 16 19 11 20 9 22
REMARK SMILES IDX 10 23 8 24 7 26 1 27 2 28 3 29 4 30 6 31 5 32 31 33 32 34
REMARK SMILES IDX 33 35 34 36 35 37 36 38 37 39 38 40 39 41 40 42 41 43 42 44
REMARK SMILES IDX 94 45 43 46 93 47 44 48 45 49 46 50 87 51 47 52 92 53 86 54
REMARK SMILES IDX 88 55 48 56 91 57 85 58 84 59 49 61 75 62 58 63 74 64 59 65
REMARK SMILES IDX 62 66 73 67 89 68 60 69 61 70 72 72 90 73 63 74 50 75 51 76
REMARK SMILES IDX 56 77 52 78 53 79 55 80 57 81 54 82 76 83 77 84 82 85 78 86
REMARK SMILES IDX 79 87 81 88 83 89 80 90 64 91 65 92 70 93 66 94 67 95 69 96
REMARK SMILES IDX 71 97 68 98
REMARK H PARENT 11 21 8 25 88 60 62 71
REMARK Flexibility Score: inf
ROOT
ATOM      1  C   UNL A   1      40.246  28.215  32.560  1.00  0.00     0.188 C 
ENDROOT
BRANCH   1   2
ATOM      2  O   UNL A   1      40.947  28.159  31.340  1.00  0.00    -0.376 OA
BRANCH   2   3
ATOM      3  C   UNL A   1      42.274  28.757  31.233  1.00  0.00     0.202 C 
BRANCH   3   4
ATOM      4  C   UNL A   1      43.760  27.746  31.591  1.00  0.00     0.261 C 
BRANCH   4   5
ATOM      5  O   UNL A   1      44.577  26.407  30.569  1.00  0.00    -0.460 OA
BRANCH   5   6
ATOM      6  C   UNL A   1      44.185  25.291  29.458  1.00  0.00     0.338 C 
ATOM      7  O   UNL A   1      45.005  24.409  29.195  1.00  0.00    -0.246 OA
BRANCH   6   8
ATOM      8  C   UNL A   1      42.867  25.319  28.339  1.00  0.00     0.066 A 
ATOM      9  C   UNL A   1      42.780  26.439  27.486  1.00  0.00     0.001 A 
ATOM     10  C   UNL A   1      41.684  26.823  26.680  1.00  0.00     0.008 A 
ATOM     11  C   UNL A   1      40.497  26.166  26.843  1.00  0.00     0.000 A 
ATOM     12  C   UNL A   1      41.665  24.591  28.375  1.00  0.00     0.016 A 
ATOM     13  C   UNL A   1      40.484  25.059  27.693  1.00  0.00     0.001 A 
BRANCH   9  14
ATOM     14  C   UNL A   1      43.703  27.505  27.808  1.00  0.00     0.197 C 
ATOM     15  N   UNL A   1      44.925  27.276  27.072  1.00  0.00    -0.236 N 
ATOM     16  C   UNL A   1      45.517  28.627  27.098  1.00  0.00     0.252 C 
ATOM     17  O   UNL A   1      46.608  28.890  27.622  1.00  0.00    -0.272 OA
ATOM     18  C   UNL A   1      44.503  29.745  26.857  1.00  0.00     0.174 C 
ATOM     19  S   UNL A   1      42.997  29.147  27.600  1.00  0.00    -0.120 SA
BRANCH  15  20
ATOM     20  N   UNL A   1      44.942  25.922  25.797  1.00  0.00    -0.270 N 
ATOM     21  H   UNL A   1      44.724  26.301  24.915  1.00  0.00     0.191 HD
BRANCH  20  22
ATOM     22  C   UNL A   1      45.216  24.210  25.637  1.00  0.00     0.189 C 
ATOM     23  S   UNL A   1      46.565  23.924  24.576  1.00  0.00    -0.039 S 
BRANCH  22  24
ATOM     24  N   UNL A   1      44.206  22.909  25.937  1.00  0.00    -0.331 N 
ATOM     25  H   UNL A   1      44.544  22.742  26.846  1.00  0.00     0.169 HD
BRANCH  24  26
ATOM     26  C   UNL A   1      43.014  21.570  25.957  1.00  0.00     0.043 A 
ATOM     27  C   UNL A   1      43.794  19.048  25.024  1.00  0.00     0.046 C 
ATOM     28  C   UNL A   1      42.965  20.063  25.820  1.00  0.00    -0.028 A 
ATOM     29  C   UNL A   1      41.756  19.203  26.113  1.00  0.00     0.005 A 
ATOM     30  C   UNL A   1      40.504  19.678  26.319  1.00  0.00     0.000 A 
ATOM     31  C   UNL A   1      41.695  21.797  26.156  1.00  0.00     0.026 A 
ATOM     32  C   UNL A   1      40.475  21.013  26.266  1.00  0.00     0.002 A 
ENDBRANCH  24  26
ENDBRANCH  22  24
ENDBRANCH  20  22
ENDBRANCH  15  20
ENDBRANCH   9  14
ENDBRANCH   6   8
ENDBRANCH   5   6
ENDBRANCH   4   5
ENDBRANCH   3   4
ENDBRANCH   2   3
ENDBRANCH   1   2
BRANCH   1  33
ATOM     33  C   UNL A   1      38.814  27.843  32.204  1.00  0.00     0.188 C 
BRANCH  33  34
ATOM     34  O   UNL A   1      37.832  28.367  33.079  1.00  0.00    -0.377 OA
BRANCH  34  35
ATOM     35  C   UNL A   1      37.078  29.429  32.504  1.00  0.00     0.188 C 
BRANCH  35  36
ATOM     36  C   UNL A   1      37.315  30.754  33.214  1.00  0.00     0.188 C 
BRANCH  36  37
ATOM     37  O   UNL A   1      36.405  31.800  32.901  1.00  0.00    -0.376 OA
BRANCH  37  38
ATOM     38  C   UNL A   1      35.519  31.554  31.812  1.00  0.00     0.202 C 
BRANCH  38  39
ATOM     39  C   UNL A   1      34.773  32.798  31.301  1.00  0.00     0.261 C 
BRANCH  39  40
ATOM     40  O   UNL A   1      35.334  33.200  30.036  1.00  0.00    -0.460 OA
BRANCH  40  41
ATOM     41  C   UNL A   1      35.908  32.202  29.312  1.00  0.00     0.338 C 
ATOM     42  O   UNL A   1      35.431  31.103  29.112  1.00  0.00    -0.246 OA
BRANCH  41  43
ATOM     43  C   UNL A   1      37.357  32.517  29.128  1.00  0.00     0.060 A 
ATOM     44  C   UNL A   1      38.284  31.685  29.759  1.00  0.00     0.016 A 
ATOM     45  C   UNL A   1      37.712  33.823  28.776  1.00  0.00     0.016 A 
ATOM     46  C   UNL A   1      39.460  32.247  30.239  1.00  0.00     0.010 A 
ATOM     47  C   UNL A   1      38.789  34.415  29.411  1.00  0.00     0.010 A 
ATOM     48  C   UNL A   1      39.624  33.651  30.213  1.00  0.00    -0.014 A 
BRANCH  48  49
ATOM     49  C   UNL A   1      40.585  34.303  31.145  1.00  0.00     0.031 A 
ATOM     50  C   UNL A   1      39.990  34.568  32.688  1.00  0.00     0.074 A 
ATOM     51  C   UNL A   1      41.782  34.559  30.467  1.00  0.00     0.049 A 
ATOM     52  N   UNL A   1      40.563  35.106  33.733  1.00  0.00    -0.248 NA
ATOM     53  C   UNL A   1      38.630  34.221  33.129  1.00  0.00     0.031 C 
ATOM     54  C   UNL A   1      42.474  33.608  29.541  1.00  0.00     0.029 A 
ATOM     55  N   UNL A   1      42.753  35.535  30.484  1.00  0.00    -0.354 N 
ATOM     56  C   UNL A   1      39.830  35.192  34.910  1.00  0.00     0.074 A 
ATOM     57  C   UNL A   1      38.588  34.608  34.423  1.00  0.00     0.031 C 
ATOM     58  C   UNL A   1      43.783  33.932  29.398  1.00  0.00     0.029 A 
ATOM     59  C   UNL A   1      44.050  35.227  30.028  1.00  0.00     0.049 A 
ATOM     60  H   UNL A   1      42.544  36.440  30.811  1.00  0.00     0.167 HD
ATOM     61  C   UNL A   1      40.371  35.647  36.131  1.00  0.00     0.037 A 
ATOM     62  C   UNL A   1      45.242  35.963  29.989  1.00  0.00     0.037 A 
ATOM     63  C   UNL A   1      41.848  36.250  36.187  1.00  0.00     0.049 A 
ATOM     64  C   UNL A   1      45.920  36.875  31.325  1.00  0.00     0.074 A 
ATOM     65  C   UNL A   1      42.947  35.869  36.963  1.00  0.00     0.029 A 
ATOM     66  N   UNL A   1      42.449  37.326  35.431  1.00  0.00    -0.354 N 
ATOM     67  N   UNL A   1      45.760  36.610  32.643  1.00  0.00    -0.248 NA
ATOM     68  C   UNL A   1      46.611  38.175  31.257  1.00  0.00     0.031 C 
ATOM     69  C   UNL A   1      44.153  36.423  36.451  1.00  0.00     0.029 A 
ATOM     70  C   UNL A   1      43.915  37.215  35.338  1.00  0.00     0.049 A 
ATOM     71  H   UNL A   1      41.932  38.057  35.019  1.00  0.00     0.167 HD
ATOM     72  C   UNL A   1      45.710  37.817  33.436  1.00  0.00     0.074 A 
ATOM     73  C   UNL A   1      46.508  38.666  32.526  1.00  0.00     0.031 C 
ATOM     74  C   UNL A   1      44.896  38.167  34.589  1.00  0.00     0.037 A 
BRANCH  61  75
ATOM     75  C   UNL A   1      39.779  35.052  37.496  1.00  0.00     0.057 A 
ATOM     76  C   UNL A   1      39.555  35.883  38.619  1.00  0.00     0.134 A 
ATOM     77  C   UNL A   1      39.659  33.690  37.842  1.00  0.00     0.134 A 
ATOM     78  F   UNL A   1      39.290  37.190  38.475  1.00  0.00    -0.206 F 
ATOM     79  C   UNL A   1      39.541  35.421  39.954  1.00  0.00     0.040 A 
ATOM     80  C   UNL A   1      39.607  33.203  39.164  1.00  0.00     0.040 A 
ATOM     81  F   UNL A   1      39.479  32.731  36.938  1.00  0.00    -0.206 F 
ATOM     82  C   UNL A   1      39.621  34.071  40.236  1.00  0.00     0.006 A 
ENDBRANCH  61  75
BRANCH  62  83
ATOM     83  C   UNL A   1      45.349  36.249  28.455  1.00  0.00     0.057 A 
ATOM     84  C   UNL A   1      44.854  37.496  28.010  1.00  0.00     0.134 A 
ATOM     85  C   UNL A   1      46.593  35.881  27.856  1.00  0.00     0.134 A 
ATOM     86  F   UNL A   1      43.681  37.950  28.470  1.00  0.00    -0.206 F 
ATOM     87  C   UNL A   1      45.668  38.426  27.315  1.00  0.00     0.040 A 
ATOM     88  C   UNL A   1      47.422  36.810  27.191  1.00  0.00     0.040 A 
ATOM     89  F   UNL A   1      47.154  34.699  28.151  1.00  0.00    -0.206 F 
ATOM     90  C   UNL A   1      46.984  38.111  26.976  1.00  0.00     0.006 A 
ENDBRANCH  62  83
BRANCH  74  91
ATOM     91  C   UNL A   1      44.919  39.554  35.327  1.00  0.00     0.057 A 
ATOM     92  C   UNL A   1      45.706  39.890  36.431  1.00  0.00     0.134 A 
ATOM     93  C   UNL A   1      44.182  40.674  34.815  1.00  0.00     0.134 A 
ATOM     94  F   UNL A   1      46.561  39.017  36.978  1.00  0.00    -0.206 F 
ATOM     95  C   UNL A   1      45.706  41.184  37.008  1.00  0.00     0.040 A 
ATOM     96  C   UNL A   1      44.231  41.974  35.332  1.00  0.00     0.040 A 
ATOM     97  F   UNL A   1      43.352  40.596  33.771  1.00  0.00    -0.206 F 
ATOM     98  C   UNL A   1      44.978  42.232  36.455  1.00  0.00     0.006 A 
ENDBRANCH  74  91
ENDBRANCH  48  49
ENDBRANCH  41  43
ENDBRANCH  40  41
ENDBRANCH  39  40
ENDBRANCH  38  39
ENDBRANCH  37  38
ENDBRANCH  36  37
ENDBRANCH  35  36
ENDBRANCH  34  35
ENDBRANCH  33  34
ENDBRANCH   1  33
TORSDOF 25
ENDMDL
