MODEL 1
REMARK VINA RESULT:      -9.3      0.000      0.000
REMARK SMILES Cc1cc(C(=O)OCCOCCOCCOCCOC(=O)c2ccc(-c3c4nc(c(-c5c(F)cccc5F)c5ccc([nH]5)c(-c5c(F)cccc5F)c5nc(c(-c6c(F)cccc6F)c6ccc3[nH]6)C=C5)C=C4)cc2)ccc1NCCCC(=O)NC1CC1
REMARK SMILES IDX 11 1 10 2 9 3 8 4 7 5 5 6 6 7 4 8 1 9 2 10 3 11 78 12 77 13
REMARK SMILES IDX 76 14 79 15 80 17 81 18 82 19 83 20 84 21 85 22 86 24 87 25
REMARK SMILES IDX 88 26 12 27 13 28 14 29 15 30 16 31 17 32 18 33 19 34 20 35
REMARK SMILES IDX 21 36 22 37 23 38 75 39 24 40 74 41 25 42 26 43 27 44 68 45
REMARK SMILES IDX 28 46 73 47 67 48 69 49 29 50 72 51 66 52 65 53 30 55 56 56
REMARK SMILES IDX 39 57 55 58 40 59 43 60 54 61 70 62 41 63 42 64 53 66 71 67
REMARK SMILES IDX 44 68 31 69 32 70 37 71 33 72 34 73 36 74 38 75 35 76 57 77
REMARK SMILES IDX 58 78 63 79 59 80 60 81 62 82 64 83 61 84 45 85 46 86 51 87
REMARK SMILES IDX 47 88 48 89 50 90 52 91 49 92
REMARK H PARENT 79 16 85 23 69 54 43 65
REMARK Flexibility Score: inf
ROOT
ATOM      1  C   UNL A   1      30.386  25.364  24.471  1.00  0.00     0.188 C 
ENDROOT
BRANCH   1   2
ATOM      2  O   UNL A   1      30.478  25.010  25.852  1.00  0.00    -0.376 OA
BRANCH   2   3
ATOM      3  C   UNL A   1      31.796  24.707  26.319  1.00  0.00     0.202 C 
BRANCH   3   4
ATOM      4  C   UNL A   1      32.201  23.234  26.289  1.00  0.00     0.261 C 
BRANCH   4   5
ATOM      5  O   UNL A   1      33.622  23.132  26.363  1.00  0.00    -0.460 OA
BRANCH   5   6
ATOM      6  C   UNL A   1      34.185  22.439  25.361  1.00  0.00     0.338 C 
ATOM      7  O   UNL A   1      33.663  22.088  24.320  1.00  0.00    -0.246 OA
BRANCH   6   8
ATOM      8  C   UNL A   1      35.642  22.480  25.569  1.00  0.00     0.060 A 
ATOM      9  C   UNL A   1      38.278  19.917  24.854  1.00  0.00     0.046 C 
ATOM     10  C   UNL A   1      37.673  21.201  25.355  1.00  0.00    -0.027 A 
ATOM     11  C   UNL A   1      36.291  21.294  25.255  1.00  0.00     0.021 A 
ATOM     12  C   UNL A   1      38.412  22.302  25.838  1.00  0.00     0.037 A 
ATOM     13  C   UNL A   1      37.771  23.534  25.991  1.00  0.00     0.027 A 
ATOM     14  C   UNL A   1      36.382  23.621  25.880  1.00  0.00     0.018 A 
BRANCH  12  15
ATOM     15  N   UNL A   1      39.737  22.105  26.146  1.00  0.00    -0.385 N 
ATOM     16  H   UNL A   1      40.331  21.916  25.384  1.00  0.00     0.160 HD
BRANCH  15  17
ATOM     17  C   UNL A   1      40.370  22.140  27.443  1.00  0.00     0.113 C 
BRANCH  17  18
ATOM     18  C   UNL A   1      41.812  22.643  27.295  1.00  0.00     0.031 C 
BRANCH  18  19
ATOM     19  C   UNL A   1      42.835  21.687  26.671  1.00  0.00     0.102 C 
BRANCH  19  20
ATOM     20  C   UNL A   1      43.284  21.909  25.246  1.00  0.00     0.220 C 
ATOM     21  O   UNL A   1      42.892  22.907  24.634  1.00  0.00    -0.275 OA
ATOM     22  N   UNL A   1      44.194  21.112  24.622  1.00  0.00    -0.353 N 
ATOM     23  H   UNL A   1      44.585  21.510  23.812  1.00  0.00     0.163 HD
BRANCH  22  24
ATOM     24  C   UNL A   1      44.684  19.811  24.922  1.00  0.00     0.082 C 
ATOM     25  C   UNL A   1      45.628  19.178  23.919  1.00  0.00     0.027 C 
ATOM     26  C   UNL A   1      46.096  19.478  25.304  1.00  0.00     0.027 C 
ENDBRANCH  22  24
ENDBRANCH  19  20
ENDBRANCH  18  19
ENDBRANCH  17  18
ENDBRANCH  15  17
ENDBRANCH  12  15
ENDBRANCH   6   8
ENDBRANCH   5   6
ENDBRANCH   4   5
ENDBRANCH   3   4
ENDBRANCH   2   3
ENDBRANCH   1   2
BRANCH   1  27
ATOM     27  C   UNL A   1      29.420  26.509  24.170  1.00  0.00     0.188 C 
BRANCH  27  28
ATOM     28  O   UNL A   1      30.046  27.771  23.907  1.00  0.00    -0.377 OA
BRANCH  28  29
ATOM     29  C   UNL A   1      31.470  27.770  23.791  1.00  0.00     0.188 C 
BRANCH  29  30
ATOM     30  C   UNL A   1      32.136  28.955  24.490  1.00  0.00     0.188 C 
BRANCH  30  31
ATOM     31  O   UNL A   1      31.514  29.183  25.755  1.00  0.00    -0.376 OA
BRANCH  31  32
ATOM     32  C   UNL A   1      31.947  30.356  26.446  1.00  0.00     0.202 C 
BRANCH  32  33
ATOM     33  C   UNL A   1      33.458  30.413  26.704  1.00  0.00     0.261 C 
BRANCH  33  34
ATOM     34  O   UNL A   1      33.720  31.288  27.814  1.00  0.00    -0.460 OA
BRANCH  34  35
ATOM     35  C   UNL A   1      35.010  31.701  27.922  1.00  0.00     0.338 C 
ATOM     36  O   UNL A   1      35.435  32.798  27.602  1.00  0.00    -0.246 OA
BRANCH  35  37
ATOM     37  C   UNL A   1      35.880  30.531  28.226  1.00  0.00     0.060 A 
ATOM     38  C   UNL A   1      35.828  29.945  29.500  1.00  0.00     0.016 A 
ATOM     39  C   UNL A   1      36.938  30.230  27.372  1.00  0.00     0.016 A 
ATOM     40  C   UNL A   1      36.921  29.209  29.978  1.00  0.00     0.010 A 
ATOM     41  C   UNL A   1      38.044  29.575  27.880  1.00  0.00     0.010 A 
ATOM     42  C   UNL A   1      38.083  29.124  29.206  1.00  0.00    -0.014 A 
BRANCH  42  43
ATOM     43  C   UNL A   1      39.431  28.852  29.751  1.00  0.00     0.031 A 
ATOM     44  C   UNL A   1      40.201  27.617  29.378  1.00  0.00     0.074 A 
ATOM     45  C   UNL A   1      40.113  29.918  30.254  1.00  0.00     0.049 A 
ATOM     46  N   UNL A   1      41.368  27.314  29.851  1.00  0.00    -0.248 NA
ATOM     47  C   UNL A   1      39.740  26.605  28.421  1.00  0.00     0.031 C 
ATOM     48  C   UNL A   1      41.564  30.076  30.311  1.00  0.00     0.029 A 
ATOM     49  N   UNL A   1      39.658  31.097  30.856  1.00  0.00    -0.354 N 
ATOM     50  C   UNL A   1      41.954  26.418  28.978  1.00  0.00     0.074 A 
ATOM     51  C   UNL A   1      40.851  25.882  28.224  1.00  0.00     0.031 C 
ATOM     52  C   UNL A   1      41.888  31.158  31.029  1.00  0.00     0.029 A 
ATOM     53  C   UNL A   1      40.679  31.576  31.690  1.00  0.00     0.049 A 
ATOM     54  H   UNL A   1      38.779  31.516  30.719  1.00  0.00     0.167 HD
ATOM     55  C   UNL A   1      43.317  26.384  28.854  1.00  0.00     0.037 A 
ATOM     56  C   UNL A   1      40.587  31.690  33.047  1.00  0.00     0.037 A 
ATOM     57  C   UNL A   1      43.999  27.202  29.872  1.00  0.00     0.049 A 
ATOM     58  C   UNL A   1      41.589  30.776  33.730  1.00  0.00     0.074 A 
ATOM     59  C   UNL A   1      45.019  28.137  29.840  1.00  0.00     0.029 A 
ATOM     60  N   UNL A   1      43.547  27.189  31.193  1.00  0.00    -0.354 N 
ATOM     61  N   UNL A   1      42.091  29.725  33.125  1.00  0.00    -0.248 NA
ATOM     62  C   UNL A   1      42.199  30.985  35.041  1.00  0.00     0.031 C 
ATOM     63  C   UNL A   1      45.058  28.798  31.100  1.00  0.00     0.029 A 
ATOM     64  C   UNL A   1      44.153  28.171  31.943  1.00  0.00     0.049 A 
ATOM     65  H   UNL A   1      42.880  26.557  31.544  1.00  0.00     0.167 HD
ATOM     66  C   UNL A   1      43.122  29.214  33.855  1.00  0.00     0.074 A 
ATOM     67  C   UNL A   1      43.105  29.986  35.084  1.00  0.00     0.031 C 
ATOM     68  C   UNL A   1      43.948  28.238  33.382  1.00  0.00     0.037 A 
BRANCH  55  69
ATOM     69  C   UNL A   1      44.073  25.781  27.669  1.00  0.00     0.057 A 
ATOM     70  C   UNL A   1      44.974  24.711  27.862  1.00  0.00     0.134 A 
ATOM     71  C   UNL A   1      44.057  26.280  26.349  1.00  0.00     0.134 A 
ATOM     72  F   UNL A   1      45.109  24.123  29.059  1.00  0.00    -0.206 F 
ATOM     73  C   UNL A   1      45.784  24.188  26.836  1.00  0.00     0.040 A 
ATOM     74  C   UNL A   1      44.810  25.720  25.301  1.00  0.00     0.040 A 
ATOM     75  F   UNL A   1      43.357  27.371  26.012  1.00  0.00    -0.206 F 
ATOM     76  C   UNL A   1      45.689  24.679  25.543  1.00  0.00     0.006 A 
ENDBRANCH  55  69
BRANCH  56  77
ATOM     77  C   UNL A   1      39.263  32.194  33.494  1.00  0.00     0.057 A 
ATOM     78  C   UNL A   1      39.040  33.563  33.249  1.00  0.00     0.134 A 
ATOM     79  C   UNL A   1      38.139  31.359  33.491  1.00  0.00     0.134 A 
ATOM     80  F   UNL A   1      40.070  34.424  33.281  1.00  0.00    -0.206 F 
ATOM     81  C   UNL A   1      37.809  34.037  32.789  1.00  0.00     0.040 A 
ATOM     82  C   UNL A   1      36.894  31.829  33.041  1.00  0.00     0.040 A 
ATOM     83  F   UNL A   1      38.272  30.039  33.683  1.00  0.00    -0.206 F 
ATOM     84  C   UNL A   1      36.747  33.154  32.628  1.00  0.00     0.006 A 
ENDBRANCH  56  77
BRANCH  68  85
ATOM     85  C   UNL A   1      44.673  27.233  34.240  1.00  0.00     0.057 A 
ATOM     86  C   UNL A   1      44.111  25.999  34.593  1.00  0.00     0.134 A 
ATOM     87  C   UNL A   1      46.061  27.359  34.491  1.00  0.00     0.134 A 
ATOM     88  F   UNL A   1      42.825  25.717  34.343  1.00  0.00    -0.206 F 
ATOM     89  C   UNL A   1      44.870  24.966  35.153  1.00  0.00     0.040 A 
ATOM     90  C   UNL A   1      46.834  26.318  35.005  1.00  0.00     0.040 A 
ATOM     91  F   UNL A   1      46.739  28.479  34.204  1.00  0.00    -0.206 F 
ATOM     92  C   UNL A   1      46.238  25.114  35.340  1.00  0.00     0.006 A 
ENDBRANCH  68  85
ENDBRANCH  42  43
ENDBRANCH  35  37
ENDBRANCH  34  35
ENDBRANCH  33  34
ENDBRANCH  32  33
ENDBRANCH  31  32
ENDBRANCH  30  31
ENDBRANCH  29  30
ENDBRANCH  28  29
ENDBRANCH  27  28
ENDBRANCH   1  27
TORSDOF 26
ENDMDL
MODEL 2
REMARK VINA RESULT:      -9.1      2.073      3.283
REMARK SMILES Cc1cc(C(=O)OCCOCCOCCOCCOC(=O)c2ccc(-c3c4nc(c(-c5c(F)cccc5F)c5ccc([nH]5)c(-c5c(F)cccc5F)c5nc(c(-c6c(F)cccc6F)c6ccc3[nH]6)C=C5)C=C4)cc2)ccc1NCCCC(=O)NC1CC1
REMARK SMILES IDX 11 1 10 2 9 3 8 4 7 5 5 6 6 7 4 8 1 9 2 10 3 11 78 12 77 13
REMARK SMILES IDX 76 14 79 15 80 17 81 18 82 19 83 20 84 21 85 22 86 24 87 25
REMARK SMILES IDX 88 26 12 27 13 28 14 29 15 30 16 31 17 32 18 33 19 34 20 35
REMARK SMILES IDX 21 36 22 37 23 38 75 39 24 40 74 41 25 42 26 43 27 44 68 45
REMARK SMILES IDX 28 46 73 47 67 48 69 49 29 50 72 51 66 52 65 53 30 55 56 56
REMARK SMILES IDX 39 57 55 58 40 59 43 60 54 61 70 62 41 63 42 64 53 66 71 67
REMARK SMILES IDX 44 68 31 69 32 70 37 71 33 72 34 73 36 74 38 75 35 76 57 77
REMARK SMILES IDX 58 78 63 79 59 80 60 81 62 82 64 83 61 84 45 85 46 86 51 87
REMARK SMILES IDX 47 88 48 89 50 90 52 91 49 92
REMARK H PARENT 79 16 85 23 69 54 43 65
REMARK Flexibility Score: inf
ROOT
ATOM      1  C   UNL A   1      31.607  27.833  23.925  1.00  0.00     0.188 C 
ENDROOT
BRANCH   1   2
ATOM      2  O   UNL A   1      31.584  26.411  23.793  1.00  0.00    -0.376 OA
BRANCH   2   3
ATOM      3  C   UNL A   1      31.942  25.912  22.501  1.00  0.00     0.202 C 
BRANCH   3   4
ATOM      4  C   UNL A   1      33.407  25.525  22.308  1.00  0.00     0.261 C 
BRANCH   4   5
ATOM      5  O   UNL A   1      33.482  24.222  21.732  1.00  0.00    -0.460 OA
BRANCH   5   6
ATOM      6  C   UNL A   1      33.192  23.221  22.577  1.00  0.00     0.338 C 
ATOM      7  O   UNL A   1      32.246  22.459  22.523  1.00  0.00    -0.246 OA
BRANCH   6   8
ATOM      8  C   UNL A   1      34.400  22.967  23.379  1.00  0.00     0.060 A 
ATOM      9  C   UNL A   1      34.772  21.779  26.912  1.00  0.00     0.046 C 
ATOM     10  C   UNL A   1      35.180  22.289  25.556  1.00  0.00    -0.027 A 
ATOM     11  C   UNL A   1      34.139  22.607  24.694  1.00  0.00     0.021 A 
ATOM     12  C   UNL A   1      36.514  22.392  25.106  1.00  0.00     0.037 A 
ATOM     13  C   UNL A   1      36.756  22.592  23.744  1.00  0.00     0.027 A 
ATOM     14  C   UNL A   1      35.702  22.902  22.882  1.00  0.00     0.018 A 
BRANCH  12  15
ATOM     15  N   UNL A   1      37.520  22.301  26.038  1.00  0.00    -0.385 N 
ATOM     16  H   UNL A   1      37.389  22.822  26.863  1.00  0.00     0.160 HD
BRANCH  15  17
ATOM     17  C   UNL A   1      38.744  21.540  25.963  1.00  0.00     0.113 C 
BRANCH  17  18
ATOM     18  C   UNL A   1      39.815  22.209  26.835  1.00  0.00     0.031 C 
BRANCH  18  19
ATOM     19  C   UNL A   1      41.048  21.376  27.208  1.00  0.00     0.102 C 
BRANCH  19  20
ATOM     20  C   UNL A   1      41.822  20.672  26.119  1.00  0.00     0.220 C 
ATOM     21  O   UNL A   1      41.522  19.514  25.811  1.00  0.00    -0.275 OA
ATOM     22  N   UNL A   1      42.782  21.286  25.375  1.00  0.00    -0.353 N 
ATOM     23  H   UNL A   1      43.015  20.806  24.549  1.00  0.00     0.163 HD
BRANCH  22  24
ATOM     24  C   UNL A   1      43.510  22.491  25.569  1.00  0.00     0.082 C 
ATOM     25  C   UNL A   1      45.004  22.447  25.318  1.00  0.00     0.027 C 
ATOM     26  C   UNL A   1      44.130  23.321  24.483  1.00  0.00     0.027 C 
ENDBRANCH  22  24
ENDBRANCH  19  20
ENDBRANCH  18  19
ENDBRANCH  17  18
ENDBRANCH  15  17
ENDBRANCH  12  15
ENDBRANCH   6   8
ENDBRANCH   5   6
ENDBRANCH   4   5
ENDBRANCH   3   4
ENDBRANCH   2   3
ENDBRANCH   1   2
BRANCH   1  27
ATOM     27  C   UNL A   1      32.989  28.426  24.198  1.00  0.00     0.188 C 
BRANCH  27  28
ATOM     28  O   UNL A   1      32.977  29.716  24.824  1.00  0.00    -0.377 OA
BRANCH  28  29
ATOM     29  C   UNL A   1      32.005  29.923  25.850  1.00  0.00     0.188 C 
BRANCH  29  30
ATOM     30  C   UNL A   1      32.530  29.621  27.253  1.00  0.00     0.188 C 
BRANCH  30  31
ATOM     31  O   UNL A   1      33.552  30.557  27.599  1.00  0.00    -0.376 OA
BRANCH  31  32
ATOM     32  C   UNL A   1      33.199  31.932  27.443  1.00  0.00     0.202 C 
BRANCH  32  33
ATOM     33  C   UNL A   1      34.081  32.903  28.238  1.00  0.00     0.261 C 
BRANCH  33  34
ATOM     34  O   UNL A   1      34.097  32.509  29.622  1.00  0.00    -0.460 OA
BRANCH  34  35
ATOM     35  C   UNL A   1      34.289  33.526  30.501  1.00  0.00     0.338 C 
ATOM     36  O   UNL A   1      33.643  34.559  30.546  1.00  0.00    -0.246 OA
BRANCH  35  37
ATOM     37  C   UNL A   1      35.577  33.323  31.220  1.00  0.00     0.060 A 
ATOM     38  C   UNL A   1      36.767  33.807  30.654  1.00  0.00     0.016 A 
ATOM     39  C   UNL A   1      35.636  32.405  32.265  1.00  0.00     0.016 A 
ATOM     40  C   UNL A   1      37.996  33.237  31.012  1.00  0.00     0.010 A 
ATOM     41  C   UNL A   1      36.841  31.791  32.551  1.00  0.00     0.010 A 
ATOM     42  C   UNL A   1      38.019  32.141  31.879  1.00  0.00    -0.014 A 
BRANCH  42  43
ATOM     43  C   UNL A   1      39.113  31.148  31.942  1.00  0.00     0.031 A 
ATOM     44  C   UNL A   1      39.121  29.923  31.072  1.00  0.00     0.074 A 
ATOM     45  C   UNL A   1      40.288  31.567  32.487  1.00  0.00     0.049 A 
ATOM     46  N   UNL A   1      40.035  29.007  31.110  1.00  0.00    -0.248 NA
ATOM     47  C   UNL A   1      38.107  29.615  30.058  1.00  0.00     0.031 C 
ATOM     48  C   UNL A   1      41.623  31.061  32.178  1.00  0.00     0.029 A 
ATOM     49  N   UNL A   1      40.553  32.530  33.468  1.00  0.00    -0.354 N 
ATOM     50  C   UNL A   1      39.990  28.319  29.914  1.00  0.00     0.074 A 
ATOM     51  C   UNL A   1      38.683  28.608  29.385  1.00  0.00     0.031 C 
ATOM     52  C   UNL A   1      42.524  31.571  33.025  1.00  0.00     0.029 A 
ATOM     53  C   UNL A   1      41.771  32.200  34.078  1.00  0.00     0.049 A 
ATOM     54  H   UNL A   1      39.985  33.303  33.690  1.00  0.00     0.167 HD
ATOM     55  C   UNL A   1      41.132  27.753  29.412  1.00  0.00     0.037 A 
ATOM     56  C   UNL A   1      41.916  31.855  35.392  1.00  0.00     0.037 A 
ATOM     57  C   UNL A   1      42.249  27.785  30.372  1.00  0.00     0.049 A 
ATOM     58  C   UNL A   1      42.413  30.425  35.516  1.00  0.00     0.074 A 
ATOM     59  C   UNL A   1      43.584  28.140  30.295  1.00  0.00     0.029 A 
ATOM     60  N   UNL A   1      42.017  27.499  31.720  1.00  0.00    -0.354 N 
ATOM     61  N   UNL A   1      42.252  29.549  34.553  1.00  0.00    -0.248 NA
ATOM     62  C   UNL A   1      43.204  29.877  36.616  1.00  0.00     0.031 C 
ATOM     63  C   UNL A   1      44.099  28.229  31.619  1.00  0.00     0.029 A 
ATOM     64  C   UNL A   1      43.116  27.795  32.494  1.00  0.00     0.049 A 
ATOM     65  H   UNL A   1      41.174  27.133  32.071  1.00  0.00     0.167 HD
ATOM     66  C   UNL A   1      42.979  28.427  34.815  1.00  0.00     0.074 A 
ATOM     67  C   UNL A   1      43.497  28.643  36.153  1.00  0.00     0.031 C 
ATOM     68  C   UNL A   1      43.150  27.429  33.902  1.00  0.00     0.037 A 
BRANCH  55  69
ATOM     69  C   UNL A   1      41.339  27.348  27.952  1.00  0.00     0.057 A 
ATOM     70  C   UNL A   1      41.132  26.013  27.542  1.00  0.00     0.134 A 
ATOM     71  C   UNL A   1      41.854  28.182  26.936  1.00  0.00     0.134 A 
ATOM     72  F   UNL A   1      40.646  25.093  28.387  1.00  0.00    -0.206 F 
ATOM     73  C   UNL A   1      41.414  25.551  26.243  1.00  0.00     0.040 A 
ATOM     74  C   UNL A   1      42.074  27.748  25.616  1.00  0.00     0.040 A 
ATOM     75  F   UNL A   1      42.228  29.444  27.177  1.00  0.00    -0.206 F 
ATOM     76  C   UNL A   1      41.868  26.424  25.266  1.00  0.00     0.006 A 
ENDBRANCH  55  69
BRANCH  56  77
ATOM     77  C   UNL A   1      41.080  32.681  36.299  1.00  0.00     0.057 A 
ATOM     78  C   UNL A   1      41.524  34.007  36.466  1.00  0.00     0.134 A 
ATOM     79  C   UNL A   1      39.702  32.456  36.410  1.00  0.00     0.134 A 
ATOM     80  F   UNL A   1      42.837  34.284  36.415  1.00  0.00    -0.206 F 
ATOM     81  C   UNL A   1      40.633  35.082  36.499  1.00  0.00     0.040 A 
ATOM     82  C   UNL A   1      38.799  33.530  36.455  1.00  0.00     0.040 A 
ATOM     83  F   UNL A   1      39.198  31.227  36.231  1.00  0.00    -0.206 F 
ATOM     84  C   UNL A   1      39.264  34.846  36.434  1.00  0.00     0.006 A 
ENDBRANCH  56  77
BRANCH  68  85
ATOM     85  C   UNL A   1      43.386  25.980  34.244  1.00  0.00     0.057 A 
ATOM     86  C   UNL A   1      44.641  25.370  34.112  1.00  0.00     0.134 A 
ATOM     87  C   UNL A   1      42.430  25.244  34.983  1.00  0.00     0.134 A 
ATOM     88  F   UNL A   1      45.661  25.989  33.502  1.00  0.00    -0.206 F 
ATOM     89  C   UNL A   1      44.925  24.121  34.674  1.00  0.00     0.040 A 
ATOM     90  C   UNL A   1      42.719  24.019  35.586  1.00  0.00     0.040 A 
ATOM     91  F   UNL A   1      41.187  25.699  35.195  1.00  0.00    -0.206 F 
ATOM     92  C   UNL A   1      43.972  23.452  35.431  1.00  0.00     0.006 A 
ENDBRANCH  68  85
ENDBRANCH  42  43
ENDBRANCH  35  37
ENDBRANCH  34  35
ENDBRANCH  33  34
ENDBRANCH  32  33
ENDBRANCH  31  32
ENDBRANCH  30  31
ENDBRANCH  29  30
ENDBRANCH  28  29
ENDBRANCH  27  28
ENDBRANCH   1  27
TORSDOF 26
ENDMDL
MODEL 3
REMARK VINA RESULT:      -8.8      3.321      9.728
REMARK SMILES Cc1cc(C(=O)OCCOCCOCCOCCOC(=O)c2ccc(-c3c4nc(c(-c5c(F)cccc5F)c5ccc([nH]5)c(-c5c(F)cccc5F)c5nc(c(-c6c(F)cccc6F)c6ccc3[nH]6)C=C5)C=C4)cc2)ccc1NCCCC(=O)NC1CC1
REMARK SMILES IDX 11 1 10 2 9 3 8 4 7 5 5 6 6 7 4 8 1 9 2 10 3 11 78 12 77 13
REMARK SMILES IDX 76 14 79 15 80 17 81 18 82 19 83 20 84 21 85 22 86 24 87 25
REMARK SMILES IDX 88 26 12 27 13 28 14 29 15 30 16 31 17 32 18 33 19 34 20 35
REMARK SMILES IDX 21 36 22 37 23 38 75 39 24 40 74 41 25 42 26 43 27 44 68 45
REMARK SMILES IDX 28 46 73 47 67 48 69 49 29 50 72 51 66 52 65 53 30 55 56 56
REMARK SMILES IDX 39 57 55 58 40 59 43 60 54 61 70 62 41 63 42 64 53 66 71 67
REMARK SMILES IDX 44 68 31 69 32 70 37 71 33 72 34 73 36 74 38 75 35 76 57 77
REMARK SMILES IDX 58 78 63 79 59 80 60 81 62 82 64 83 61 84 45 85 46 86 51 87
REMARK SMILES IDX 47 88 48 89 50 90 52 91 49 92
REMARK H PARENT 79 16 85 23 69 54 43 65
REMARK Flexibility Score: inf
ROOT
ATOM      1  C   UNL A   1      37.711  21.565  24.986  1.00  0.00     0.188 C 
ENDROOT
BRANCH   1   2
ATOM      2  O   UNL A   1      36.685  20.696  25.470  1.00  0.00    -0.376 OA
BRANCH   2   3
ATOM      3  C   UNL A   1      36.438  19.537  24.669  1.00  0.00     0.202 C 
BRANCH   3   4
ATOM      4  C   UNL A   1      35.000  19.021  24.652  1.00  0.00     0.261 C 
BRANCH   4   5
ATOM      5  O   UNL A   1      34.123  20.046  25.115  1.00  0.00    -0.460 OA
BRANCH   5   6
ATOM      6  C   UNL A   1      32.824  19.828  24.858  1.00  0.00     0.338 C 
ATOM      7  O   UNL A   1      32.164  18.852  25.158  1.00  0.00    -0.246 OA
BRANCH   6   8
ATOM      8  C   UNL A   1      32.237  21.120  24.465  1.00  0.00     0.060 A 
ATOM      9  C   UNL A   1      31.100  24.014  26.553  1.00  0.00     0.046 C 
ATOM     10  C   UNL A   1      31.338  23.186  25.320  1.00  0.00    -0.027 A 
ATOM     11  C   UNL A   1      31.861  21.918  25.537  1.00  0.00     0.021 A 
ATOM     12  C   UNL A   1      31.132  23.638  23.998  1.00  0.00     0.037 A 
ATOM     13  C   UNL A   1      31.664  22.899  22.939  1.00  0.00     0.027 A 
ATOM     14  C   UNL A   1      32.196  21.629  23.167  1.00  0.00     0.018 A 
BRANCH  12  15
ATOM     15  N   UNL A   1      30.402  24.789  23.815  1.00  0.00    -0.385 N 
ATOM     16  H   UNL A   1      29.443  24.726  24.028  1.00  0.00     0.160 HD
BRANCH  15  17
ATOM     17  C   UNL A   1      30.861  26.075  23.349  1.00  0.00     0.113 C 
BRANCH  17  18
ATOM     18  C   UNL A   1      30.991  27.033  24.541  1.00  0.00     0.031 C 
BRANCH  18  19
ATOM     19  C   UNL A   1      31.489  28.455  24.257  1.00  0.00     0.102 C 
BRANCH  19  20
ATOM     20  C   UNL A   1      31.856  28.843  22.844  1.00  0.00     0.220 C 
ATOM     21  O   UNL A   1      32.961  28.525  22.394  1.00  0.00    -0.275 OA
ATOM     22  N   UNL A   1      30.984  29.445  21.991  1.00  0.00    -0.353 N 
ATOM     23  H   UNL A   1      31.257  29.405  21.046  1.00  0.00     0.163 HD
BRANCH  22  24
ATOM     24  C   UNL A   1      29.752  30.121  22.207  1.00  0.00     0.082 C 
ATOM     25  C   UNL A   1      28.492  29.280  22.215  1.00  0.00     0.027 C 
ATOM     26  C   UNL A   1      28.907  30.020  23.442  1.00  0.00     0.027 C 
ENDBRANCH  22  24
ENDBRANCH  19  20
ENDBRANCH  18  19
ENDBRANCH  17  18
ENDBRANCH  15  17
ENDBRANCH  12  15
ENDBRANCH   6   8
ENDBRANCH   5   6
ENDBRANCH   4   5
ENDBRANCH   3   4
ENDBRANCH   2   3
ENDBRANCH   1   2
BRANCH   1  27
ATOM     27  C   UNL A   1      38.748  21.972  26.032  1.00  0.00     0.188 C 
BRANCH  27  28
ATOM     28  O   UNL A   1      39.764  20.993  26.284  1.00  0.00    -0.377 OA
BRANCH  28  29
ATOM     29  C   UNL A   1      40.815  21.373  27.176  1.00  0.00     0.188 C 
BRANCH  29  30
ATOM     30  C   UNL A   1      41.176  22.855  27.090  1.00  0.00     0.188 C 
BRANCH  30  31
ATOM     31  O   UNL A   1      42.386  23.016  26.347  1.00  0.00    -0.376 OA
BRANCH  31  32
ATOM     32  C   UNL A   1      42.981  24.313  26.425  1.00  0.00     0.202 C 
BRANCH  32  33
ATOM     33  C   UNL A   1      42.448  25.183  27.570  1.00  0.00     0.261 C 
BRANCH  33  34
ATOM     34  O   UNL A   1      42.018  26.452  27.046  1.00  0.00    -0.460 OA
BRANCH  34  35
ATOM     35  C   UNL A   1      40.672  26.626  27.008  1.00  0.00     0.338 C 
ATOM     36  O   UNL A   1      39.869  25.860  26.504  1.00  0.00    -0.246 OA
BRANCH  35  37
ATOM     37  C   UNL A   1      40.341  28.019  27.421  1.00  0.00     0.060 A 
ATOM     38  C   UNL A   1      41.365  28.865  27.873  1.00  0.00     0.016 A 
ATOM     39  C   UNL A   1      39.012  28.364  27.649  1.00  0.00     0.016 A 
ATOM     40  C   UNL A   1      41.060  29.952  28.704  1.00  0.00     0.010 A 
ATOM     41  C   UNL A   1      38.727  29.385  28.535  1.00  0.00     0.010 A 
ATOM     42  C   UNL A   1      39.744  30.142  29.133  1.00  0.00    -0.014 A 
BRANCH  42  43
ATOM     43  C   UNL A   1      39.361  30.877  30.357  1.00  0.00     0.031 A 
ATOM     44  C   UNL A   1      38.659  32.205  30.297  1.00  0.00     0.074 A 
ATOM     45  C   UNL A   1      39.283  30.151  31.506  1.00  0.00     0.049 A 
ATOM     46  N   UNL A   1      38.332  32.904  31.336  1.00  0.00    -0.248 NA
ATOM     47  C   UNL A   1      38.241  32.870  29.059  1.00  0.00     0.031 C 
ATOM     48  C   UNL A   1      38.430  30.430  32.659  1.00  0.00     0.029 A 
ATOM     49  N   UNL A   1      39.974  29.005  31.916  1.00  0.00    -0.354 N 
ATOM     50  C   UNL A   1      37.332  33.778  30.955  1.00  0.00     0.074 A 
ATOM     51  C   UNL A   1      37.442  33.842  29.521  1.00  0.00     0.031 C 
ATOM     52  C   UNL A   1      38.739  29.620  33.677  1.00  0.00     0.029 A 
ATOM     53  C   UNL A   1      39.980  28.984  33.319  1.00  0.00     0.049 A 
ATOM     54  H   UNL A   1      40.383  28.333  31.325  1.00  0.00     0.167 HD
ATOM     55  C   UNL A   1      36.400  34.184  31.872  1.00  0.00     0.037 A 
ATOM     56  C   UNL A   1      41.100  29.070  34.094  1.00  0.00     0.037 A 
ATOM     57  C   UNL A   1      36.741  33.775  33.245  1.00  0.00     0.049 A 
ATOM     58  C   UNL A   1      41.071  30.333  34.936  1.00  0.00     0.074 A 
ATOM     59  C   UNL A   1      36.041  33.183  34.283  1.00  0.00     0.029 A 
ATOM     60  N   UNL A   1      38.060  33.872  33.694  1.00  0.00    -0.354 N 
ATOM     61  N   UNL A   1      40.343  31.372  34.602  1.00  0.00    -0.248 NA
ATOM     62  C   UNL A   1      41.720  30.525  36.231  1.00  0.00     0.031 C 
ATOM     63  C   UNL A   1      36.976  32.776  35.276  1.00  0.00     0.029 A 
ATOM     64  C   UNL A   1      38.228  33.242  34.906  1.00  0.00     0.049 A 
ATOM     65  H   UNL A   1      38.779  34.332  33.205  1.00  0.00     0.167 HD
ATOM     66  C   UNL A   1      40.312  32.270  35.625  1.00  0.00     0.074 A 
ATOM     67  C   UNL A   1      41.251  31.737  36.596  1.00  0.00     0.031 C 
ATOM     68  C   UNL A   1      39.484  33.353  35.632  1.00  0.00     0.037 A 
BRANCH  55  69
ATOM     69  C   UNL A   1      35.034  34.779  31.526  1.00  0.00     0.057 A 
ATOM     70  C   UNL A   1      34.336  34.353  30.375  1.00  0.00     0.134 A 
ATOM     71  C   UNL A   1      34.412  35.850  32.204  1.00  0.00     0.134 A 
ATOM     72  F   UNL A   1      34.793  33.344  29.619  1.00  0.00    -0.206 F 
ATOM     73  C   UNL A   1      33.133  34.939  29.939  1.00  0.00     0.040 A 
ATOM     74  C   UNL A   1      33.176  36.397  31.817  1.00  0.00     0.040 A 
ATOM     75  F   UNL A   1      34.993  36.465  33.242  1.00  0.00    -0.206 F 
ATOM     76  C   UNL A   1      32.537  35.953  30.672  1.00  0.00     0.006 A 
ENDBRANCH  55  69
BRANCH  56  77
ATOM     77  C   UNL A   1      42.238  28.284  33.552  1.00  0.00     0.057 A 
ATOM     78  C   UNL A   1      43.264  29.056  32.972  1.00  0.00     0.134 A 
ATOM     79  C   UNL A   1      42.613  27.067  34.134  1.00  0.00     0.134 A 
ATOM     80  F   UNL A   1      42.966  30.213  32.360  1.00  0.00    -0.206 F 
ATOM     81  C   UNL A   1      44.614  28.754  33.173  1.00  0.00     0.040 A 
ATOM     82  C   UNL A   1      43.967  26.749  34.329  1.00  0.00     0.040 A 
ATOM     83  F   UNL A   1      41.699  26.291  34.734  1.00  0.00    -0.206 F 
ATOM     84  C   UNL A   1      44.967  27.626  33.905  1.00  0.00     0.006 A 
ENDBRANCH  56  77
BRANCH  68  85
ATOM     85  C   UNL A   1      39.768  34.651  36.345  1.00  0.00     0.057 A 
ATOM     86  C   UNL A   1      39.202  34.966  37.587  1.00  0.00     0.134 A 
ATOM     87  C   UNL A   1      40.838  35.484  35.939  1.00  0.00     0.134 A 
ATOM     88  F   UNL A   1      38.232  34.215  38.127  1.00  0.00    -0.206 F 
ATOM     89  C   UNL A   1      39.664  36.031  38.369  1.00  0.00     0.040 A 
ATOM     90  C   UNL A   1      41.336  36.518  36.733  1.00  0.00     0.040 A 
ATOM     91  F   UNL A   1      41.480  35.304  34.776  1.00  0.00    -0.206 F 
ATOM     92  C   UNL A   1      40.747  36.795  37.954  1.00  0.00     0.006 A 
ENDBRANCH  68  85
ENDBRANCH  42  43
ENDBRANCH  35  37
ENDBRANCH  34  35
ENDBRANCH  33  34
ENDBRANCH  32  33
ENDBRANCH  31  32
ENDBRANCH  30  31
ENDBRANCH  29  30
ENDBRANCH  28  29
ENDBRANCH  27  28
ENDBRANCH   1  27
TORSDOF 26
ENDMDL
