MODEL 1
REMARK VINA RESULT:     -10.9      0.000      0.000
REMARK SMILES Cc1ccc(C(=O)N2CCCC[C@@H]2C(=O)OCCOCCOCCOCCOC(=O)c2ccc(-c3c4nc(c(-c5c(F)cccc5F)c5ccc([nH]5)c(-c5c(F)cccc5F)c5nc(c(-c6c(F)cccc6F)c6ccc3[nH]6)C=C5)C=C4)cc2)cc1S(=O)(=O)N1CCCCC1
REMARK SMILES IDX 21 1 20 2 19 3 18 4 17 5 16 6 14 7 15 8 13 9 8 10 9 11 10 12
REMARK SMILES IDX 12 13 11 14 6 15 7 16 5 17 1 18 2 19 3 20 86 21 4 22 85 23
REMARK SMILES IDX 87 24 88 25 89 26 90 27 91 28 95 29 92 30 94 31 93 32 22 33
REMARK SMILES IDX 23 34 24 35 25 36 26 37 27 38 28 39 29 40 30 41 31 42 32 43
REMARK SMILES IDX 84 44 33 45 83 46 34 47 35 48 36 49 77 50 37 51 82 52 76 53
REMARK SMILES IDX 78 54 38 55 81 56 75 57 74 58 39 60 65 61 48 62 64 63 49 64
REMARK SMILES IDX 52 65 63 66 79 67 50 68 51 69 62 71 80 72 53 73 40 74 41 75
REMARK SMILES IDX 46 76 42 77 43 78 45 79 47 80 44 81 66 82 67 83 72 84 68 85
REMARK SMILES IDX 69 86 71 87 73 88 70 89 54 90 55 91 60 92 56 93 57 94 59 95
REMARK SMILES IDX 61 96 58 97
REMARK H PARENT 78 59 52 70
REMARK Flexibility Score: inf
ROOT
ATOM      1  C   UNL A   1      38.032  29.285  29.469  1.00  0.00     0.188 C 
ENDROOT
BRANCH   1   2
ATOM      2  C   UNL A   1      39.461  29.708  29.909  1.00  0.00     0.188 C 
BRANCH   2   3
ATOM      3  O   UNL A   1      40.908  29.460  29.006  1.00  0.00    -0.376 OA
BRANCH   3   4
ATOM      4  C   UNL A   1      41.853  27.949  28.731  1.00  0.00     0.202 C 
BRANCH   4   5
ATOM      5  C   UNL A   1      41.349  26.146  29.043  1.00  0.00     0.261 C 
BRANCH   5   6
ATOM      6  O   UNL A   1      40.093  25.213  28.091  1.00  0.00    -0.462 OA
BRANCH   6   7
ATOM      7  C   UNL A   1      39.573  24.772  26.645  1.00  0.00     0.328 C 
ATOM      8  O   UNL A   1      40.094  25.079  25.555  1.00  0.00    -0.250 OA
BRANCH   7   9
ATOM      9  C   UNL A   1      38.464  23.578  26.502  1.00  0.00     0.195 C 
ATOM     10  N   UNL A   1      38.870  22.177  26.390  1.00  0.00    -0.325 N 
ATOM     11  C   UNL A   1      37.881  21.199  25.946  1.00  0.00     0.121 C 
ATOM     12  C   UNL A   1      37.473  21.481  24.525  1.00  0.00     0.022 C 
ATOM     13  C   UNL A   1      37.397  23.958  25.353  1.00  0.00     0.037 C 
ATOM     14  C   UNL A   1      36.795  22.836  24.467  1.00  0.00     0.005 C 
BRANCH  10  15
ATOM     15  C   UNL A   1      40.041  21.677  26.960  1.00  0.00     0.254 C 
ATOM     16  O   UNL A   1      40.373  22.121  28.060  1.00  0.00    -0.269 OA
BRANCH  15  17
ATOM     17  C   UNL A   1      40.971  20.896  26.021  1.00  0.00     0.041 A 
ATOM     18  C   UNL A   1      45.849  19.327  25.084  1.00  0.00     0.046 C 
ATOM     19  C   UNL A   1      44.497  19.926  25.241  1.00  0.00    -0.031 A 
ATOM     20  C   UNL A   1      43.276  18.797  25.531  1.00  0.00     0.005 A 
ATOM     21  C   UNL A   1      44.030  21.623  25.216  1.00  0.00     0.086 A 
ATOM     22  C   UNL A   1      41.628  19.226  25.868  1.00  0.00     0.014 A 
ATOM     23  C   UNL A   1      42.030  22.094  25.584  1.00  0.00     0.035 A 
BRANCH  21  24
ATOM     24  S   UNL A   1      45.598  22.778  24.765  1.00  0.00     0.243 S 
ATOM     25  O   UNL A   1      46.900  22.251  25.139  1.00  0.00    -0.207 OA
ATOM     26  O   UNL A   1      45.377  23.249  23.413  1.00  0.00    -0.207 OA
BRANCH  24  27
ATOM     27  N   UNL A   1      45.462  24.098  25.813  1.00  0.00    -0.198 NA
ATOM     28  C   UNL A   1      45.662  23.657  27.194  1.00  0.00     0.102 C 
ATOM     29  C   UNL A   1      44.534  25.188  25.475  1.00  0.00     0.102 C 
ATOM     30  C   UNL A   1      45.135  24.609  28.230  1.00  0.00     0.017 C 
ATOM     31  C   UNL A   1      44.283  26.206  26.576  1.00  0.00     0.017 C 
ATOM     32  C   UNL A   1      45.220  26.044  27.752  1.00  0.00     0.003 C 
ENDBRANCH  24  27
ENDBRANCH  21  24
ENDBRANCH  15  17
ENDBRANCH  10  15
ENDBRANCH   7   9
ENDBRANCH   6   7
ENDBRANCH   5   6
ENDBRANCH   4   5
ENDBRANCH   3   4
ENDBRANCH   2   3
ENDBRANCH   1   2
BRANCH   1  33
ATOM     33  O   UNL A   1      37.395  29.984  28.425  1.00  0.00    -0.377 OA
BRANCH  33  34
ATOM     34  C   UNL A   1      36.121  30.417  28.832  1.00  0.00     0.188 C 
BRANCH  34  35
ATOM     35  C   UNL A   1      35.466  31.328  27.790  1.00  0.00     0.188 C 
BRANCH  35  36
ATOM     36  O   UNL A   1      34.662  32.379  28.271  1.00  0.00    -0.376 OA
BRANCH  36  37
ATOM     37  C   UNL A   1      34.356  32.636  29.625  1.00  0.00     0.202 C 
BRANCH  37  38
ATOM     38  C   UNL A   1      34.656  34.098  29.871  1.00  0.00     0.261 C 
BRANCH  38  39
ATOM     39  O   UNL A   1      35.878  34.247  30.660  1.00  0.00    -0.460 OA
BRANCH  39  40
ATOM     40  C   UNL A   1      36.249  33.195  31.453  1.00  0.00     0.338 C 
ATOM     41  O   UNL A   1      35.618  32.795  32.419  1.00  0.00    -0.246 OA
BRANCH  40  42
ATOM     42  C   UNL A   1      37.658  32.766  31.126  1.00  0.00     0.060 A 
ATOM     43  C   UNL A   1      38.384  32.058  32.069  1.00  0.00     0.016 A 
ATOM     44  C   UNL A   1      38.372  33.416  30.123  1.00  0.00     0.016 A 
ATOM     45  C   UNL A   1      39.769  32.275  32.165  1.00  0.00     0.010 A 
ATOM     46  C   UNL A   1      39.700  33.796  30.374  1.00  0.00     0.010 A 
ATOM     47  C   UNL A   1      40.392  33.384  31.534  1.00  0.00    -0.014 A 
BRANCH  47  48
ATOM     48  C   UNL A   1      41.777  34.369  31.910  1.00  0.00     0.031 A 
ATOM     49  C   UNL A   1      41.081  35.040  33.379  1.00  0.00     0.074 A 
ATOM     50  C   UNL A   1      43.215  34.738  31.060  1.00  0.00     0.049 A 
ATOM     51  N   UNL A   1      41.587  35.941  34.177  1.00  0.00    -0.248 NA
ATOM     52  C   UNL A   1      39.703  34.769  33.848  1.00  0.00     0.031 C 
ATOM     53  C   UNL A   1      44.695  34.980  31.292  1.00  0.00     0.029 A 
ATOM     54  N   UNL A   1      43.484  35.334  29.692  1.00  0.00    -0.354 N 
ATOM     55  C   UNL A   1      41.015  35.833  35.402  1.00  0.00     0.074 A 
ATOM     56  C   UNL A   1      39.726  35.281  35.083  1.00  0.00     0.031 C 
ATOM     57  C   UNL A   1      45.253  36.030  30.659  1.00  0.00     0.029 A 
ATOM     58  C   UNL A   1      44.323  36.444  29.699  1.00  0.00     0.049 A 
ATOM     59  H   UNL A   1      43.095  34.967  28.866  1.00  0.00     0.167 HD
ATOM     60  C   UNL A   1      41.781  36.087  36.510  1.00  0.00     0.037 A 
ATOM     61  C   UNL A   1      44.508  37.514  28.890  1.00  0.00     0.037 A 
ATOM     62  C   UNL A   1      42.952  37.106  36.234  1.00  0.00     0.049 A 
ATOM     63  C   UNL A   1      44.784  38.836  29.733  1.00  0.00     0.074 A 
ATOM     64  C   UNL A   1      44.472  37.748  36.951  1.00  0.00     0.029 A 
ATOM     65  N   UNL A   1      42.640  38.174  34.742  1.00  0.00    -0.354 N 
ATOM     66  N   UNL A   1      44.600  38.888  31.039  1.00  0.00    -0.248 NA
ATOM     67  C   UNL A   1      45.233  40.159  29.306  1.00  0.00     0.031 C 
ATOM     68  C   UNL A   1      45.115  39.369  35.989  1.00  0.00     0.029 A 
ATOM     69  C   UNL A   1      44.017  39.644  34.519  1.00  0.00     0.049 A 
ATOM     70  H   UNL A   1      41.885  38.038  34.125  1.00  0.00     0.167 HD
ATOM     71  C   UNL A   1      44.782  40.168  31.671  1.00  0.00     0.074 A 
ATOM     72  C   UNL A   1      45.257  40.887  30.461  1.00  0.00     0.031 C 
ATOM     73  C   UNL A   1      44.451  40.590  33.065  1.00  0.00     0.037 A 
BRANCH  60  74
ATOM     74  C   UNL A   1      41.304  35.570  37.893  1.00  0.00     0.057 A 
ATOM     75  C   UNL A   1      41.049  36.455  38.942  1.00  0.00     0.134 A 
ATOM     76  C   UNL A   1      40.880  34.248  38.194  1.00  0.00     0.134 A 
ATOM     77  F   UNL A   1      41.702  37.621  39.017  1.00  0.00    -0.206 F 
ATOM     78  C   UNL A   1      40.118  36.162  39.964  1.00  0.00     0.040 A 
ATOM     79  C   UNL A   1      39.945  33.934  39.190  1.00  0.00     0.040 A 
ATOM     80  F   UNL A   1      41.402  33.166  37.614  1.00  0.00    -0.206 F 
ATOM     81  C   UNL A   1      39.488  34.924  40.031  1.00  0.00     0.006 A 
ENDBRANCH  60  74
BRANCH  61  82
ATOM     82  C   UNL A   1      44.122  37.073  27.483  1.00  0.00     0.057 A 
ATOM     83  C   UNL A   1      45.068  36.179  26.880  1.00  0.00     0.134 A 
ATOM     84  C   UNL A   1      42.787  36.807  27.133  1.00  0.00     0.134 A 
ATOM     85  F   UNL A   1      46.375  36.318  27.157  1.00  0.00    -0.206 F 
ATOM     86  C   UNL A   1      44.697  34.977  26.238  1.00  0.00     0.040 A 
ATOM     87  C   UNL A   1      42.409  35.621  26.448  1.00  0.00     0.040 A 
ATOM     88  F   UNL A   1      41.799  37.557  27.641  1.00  0.00    -0.206 F 
ATOM     89  C   UNL A   1      43.357  34.669  26.070  1.00  0.00     0.006 A 
ENDBRANCH  61  82
BRANCH  73  90
ATOM     90  C   UNL A   1      44.062  42.075  33.237  1.00  0.00     0.057 A 
ATOM     91  C   UNL A   1      44.994  43.096  33.528  1.00  0.00     0.134 A 
ATOM     92  C   UNL A   1      42.826  42.540  32.757  1.00  0.00     0.134 A 
ATOM     93  F   UNL A   1      46.261  42.838  33.873  1.00  0.00    -0.206 F 
ATOM     94  C   UNL A   1      44.713  44.458  33.371  1.00  0.00     0.040 A 
ATOM     95  C   UNL A   1      42.571  43.896  32.501  1.00  0.00     0.040 A 
ATOM     96  F   UNL A   1      41.837  41.700  32.431  1.00  0.00    -0.206 F 
ATOM     97  C   UNL A   1      43.515  44.862  32.809  1.00  0.00     0.006 A 
ENDBRANCH  73  90
ENDBRANCH  47  48
ENDBRANCH  40  42
ENDBRANCH  39  40
ENDBRANCH  38  39
ENDBRANCH  37  38
ENDBRANCH  36  37
ENDBRANCH  35  36
ENDBRANCH  34  35
ENDBRANCH  33  34
ENDBRANCH   1  33
TORSDOF 24
ENDMDL
MODEL 2
REMARK VINA RESULT:     -10.5      4.876     12.715
REMARK SMILES Cc1ccc(C(=O)N2CCCC[C@@H]2C(=O)OCCOCCOCCOCCOC(=O)c2ccc(-c3c4nc(c(-c5c(F)cccc5F)c5ccc([nH]5)c(-c5c(F)cccc5F)c5nc(c(-c6c(F)cccc6F)c6ccc3[nH]6)C=C5)C=C4)cc2)cc1S(=O)(=O)N1CCCCC1
REMARK SMILES IDX 21 1 20 2 19 3 18 4 17 5 16 6 14 7 15 8 13 9 8 10 9 11 10 12
REMARK SMILES IDX 12 13 11 14 6 15 7 16 5 17 1 18 2 19 3 20 86 21 4 22 85 23
REMARK SMILES IDX 87 24 88 25 89 26 90 27 91 28 95 29 92 30 94 31 93 32 22 33
REMARK SMILES IDX 23 34 24 35 25 36 26 37 27 38 28 39 29 40 30 41 31 42 32 43
REMARK SMILES IDX 84 44 33 45 83 46 34 47 35 48 36 49 77 50 37 51 82 52 76 53
REMARK SMILES IDX 78 54 38 55 81 56 75 57 74 58 39 60 65 61 48 62 64 63 49 64
REMARK SMILES IDX 52 65 63 66 79 67 50 68 51 69 62 71 80 72 53 73 40 74 41 75
REMARK SMILES IDX 46 76 42 77 43 78 45 79 47 80 44 81 66 82 67 83 72 84 68 85
REMARK SMILES IDX 69 86 71 87 73 88 70 89 54 90 55 91 60 92 56 93 57 94 59 95
REMARK SMILES IDX 61 96 58 97
REMARK H PARENT 78 59 52 70
REMARK Flexibility Score: inf
ROOT
ATOM      1  C   UNL A   1      34.378  34.344  30.512  1.00  0.00     0.188 C 
ENDROOT
BRANCH   1   2
ATOM      2  C   UNL A   1      35.487  34.236  29.429  1.00  0.00     0.188 C 
BRANCH   2   3
ATOM      3  O   UNL A   1      37.121  33.763  29.704  1.00  0.00    -0.376 OA
BRANCH   3   4
ATOM      4  C   UNL A   1      38.431  34.608  30.610  1.00  0.00     0.202 C 
BRANCH   4   5
ATOM      5  C   UNL A   1      39.067  34.294  32.370  1.00  0.00     0.261 C 
BRANCH   5   6
ATOM      6  O   UNL A   1      40.703  34.804  33.016  1.00  0.00    -0.462 OA
BRANCH   6   7
ATOM      7  C   UNL A   1      41.522  35.401  34.253  1.00  0.00     0.328 C 
ATOM      8  O   UNL A   1      41.083  35.568  35.408  1.00  0.00    -0.250 OA
BRANCH   7   9
ATOM      9  C   UNL A   1      43.149  35.542  34.168  1.00  0.00     0.195 C 
ATOM     10  N   UNL A   1      44.021  34.827  35.100  1.00  0.00    -0.325 N 
ATOM     11  C   UNL A   1      45.421  35.231  35.192  1.00  0.00     0.121 C 
ATOM     12  C   UNL A   1      45.524  36.630  35.737  1.00  0.00     0.022 C 
ATOM     13  C   UNL A   1      43.558  37.100  34.082  1.00  0.00     0.037 C 
ATOM     14  C   UNL A   1      44.863  37.587  34.765  1.00  0.00     0.005 C 
BRANCH  10  15
ATOM     15  C   UNL A   1      43.676  33.606  35.680  1.00  0.00     0.254 C 
ATOM     16  O   UNL A   1      43.740  33.521  36.907  1.00  0.00    -0.269 OA
BRANCH  15  17
ATOM     17  C   UNL A   1      43.589  32.406  34.728  1.00  0.00     0.041 A 
ATOM     18  C   UNL A   1      41.029  28.039  33.495  1.00  0.00     0.046 C 
ATOM     19  C   UNL A   1      41.875  29.174  33.952  1.00  0.00    -0.031 A 
ATOM     20  C   UNL A   1      41.933  30.466  32.868  1.00  0.00     0.005 A 
ATOM     21  C   UNL A   1      42.754  29.357  35.466  1.00  0.00     0.086 A 
ATOM     22  C   UNL A   1      42.747  31.965  33.198  1.00  0.00     0.014 A 
ATOM     23  C   UNL A   1      43.755  31.157  35.806  1.00  0.00     0.035 A 
BRANCH  21  24
ATOM     24  S   UNL A   1      42.633  27.686  36.557  1.00  0.00     0.243 S 
ATOM     25  O   UNL A   1      43.613  27.554  37.623  1.00  0.00    -0.207 OA
ATOM     26  O   UNL A   1      41.227  27.497  36.851  1.00  0.00    -0.207 OA
BRANCH  24  27
ATOM     27  N   UNL A   1      43.123  26.460  35.503  1.00  0.00    -0.198 NA
ATOM     28  C   UNL A   1      42.234  25.305  35.638  1.00  0.00     0.102 C 
ATOM     29  C   UNL A   1      44.555  26.304  35.202  1.00  0.00     0.102 C 
ATOM     30  C   UNL A   1      42.804  24.019  35.110  1.00  0.00     0.017 C 
ATOM     31  C   UNL A   1      44.937  25.036  34.454  1.00  0.00     0.017 C 
ATOM     32  C   UNL A   1      43.738  24.270  33.943  1.00  0.00     0.003 C 
ENDBRANCH  24  27
ENDBRANCH  21  24
ENDBRANCH  15  17
ENDBRANCH  10  15
ENDBRANCH   7   9
ENDBRANCH   6   7
ENDBRANCH   5   6
ENDBRANCH   4   5
ENDBRANCH   3   4
ENDBRANCH   2   3
ENDBRANCH   1   2
BRANCH   1  33
ATOM     33  O   UNL A   1      34.036  33.206  31.267  1.00  0.00    -0.377 OA
BRANCH  33  34
ATOM     34  C   UNL A   1      34.491  33.340  32.590  1.00  0.00     0.188 C 
BRANCH  34  35
ATOM     35  C   UNL A   1      35.801  32.583  32.825  1.00  0.00     0.188 C 
BRANCH  35  36
ATOM     36  O   UNL A   1      35.865  31.253  32.365  1.00  0.00    -0.376 OA
BRANCH  36  37
ATOM     37  C   UNL A   1      36.723  30.765  31.356  1.00  0.00     0.202 C 
BRANCH  37  38
ATOM     38  C   UNL A   1      35.858  30.472  30.151  1.00  0.00     0.261 C 
BRANCH  38  39
ATOM     39  O   UNL A   1      36.675  30.359  28.944  1.00  0.00    -0.460 OA
BRANCH  39  40
ATOM     40  C   UNL A   1      38.030  30.259  29.108  1.00  0.00     0.338 C 
ATOM     41  O   UNL A   1      38.821  31.176  28.939  1.00  0.00    -0.246 OA
BRANCH  40  42
ATOM     42  C   UNL A   1      38.432  28.816  29.274  1.00  0.00     0.060 A 
ATOM     43  C   UNL A   1      38.846  28.368  30.517  1.00  0.00     0.016 A 
ATOM     44  C   UNL A   1      38.808  28.062  28.165  1.00  0.00     0.016 A 
ATOM     45  C   UNL A   1      39.855  27.393  30.589  1.00  0.00     0.010 A 
ATOM     46  C   UNL A   1      39.962  27.267  28.244  1.00  0.00     0.010 A 
ATOM     47  C   UNL A   1      40.651  27.064  29.460  1.00  0.00    -0.014 A 
BRANCH  47  48
ATOM     48  C   UNL A   1      42.293  26.524  29.253  1.00  0.00     0.031 A 
ATOM     49  C   UNL A   1      42.972  28.145  29.207  1.00  0.00     0.074 A 
ATOM     50  C   UNL A   1      42.992  24.988  28.970  1.00  0.00     0.049 A 
ATOM     51  N   UNL A   1      44.213  28.498  29.008  1.00  0.00    -0.248 NA
ATOM     52  C   UNL A   1      42.167  29.387  29.242  1.00  0.00     0.031 C 
ATOM     53  C   UNL A   1      44.212  24.162  29.331  1.00  0.00     0.029 A 
ATOM     54  N   UNL A   1      42.782  23.938  27.897  1.00  0.00    -0.354 N 
ATOM     55  C   UNL A   1      44.418  29.738  29.521  1.00  0.00     0.074 A 
ATOM     56  C   UNL A   1      43.107  30.320  29.429  1.00  0.00     0.031 C 
ATOM     57  C   UNL A   1      44.824  23.499  28.330  1.00  0.00     0.029 A 
ATOM     58  C   UNL A   1      43.943  23.538  27.244  1.00  0.00     0.049 A 
ATOM     59  H   UNL A   1      41.895  23.569  27.680  1.00  0.00     0.167 HD
ATOM     60  C   UNL A   1      45.636  30.023  30.081  1.00  0.00     0.037 A 
ATOM     61  C   UNL A   1      44.230  23.014  26.029  1.00  0.00     0.037 A 
ATOM     62  C   UNL A   1      46.817  29.180  29.465  1.00  0.00     0.049 A 
ATOM     63  C   UNL A   1      45.575  23.626  25.437  1.00  0.00     0.074 A 
ATOM     64  C   UNL A   1      48.536  28.730  29.745  1.00  0.00     0.029 A 
ATOM     65  N   UNL A   1      46.422  28.522  27.769  1.00  0.00    -0.354 N 
ATOM     66  N   UNL A   1      46.164  24.678  25.974  1.00  0.00    -0.248 NA
ATOM     67  C   UNL A   1      46.373  23.226  24.280  1.00  0.00     0.031 C 
ATOM     68  C   UNL A   1      49.345  27.869  28.142  1.00  0.00     0.029 A 
ATOM     69  C   UNL A   1      48.012  27.645  26.870  1.00  0.00     0.049 A 
ATOM     70  H   UNL A   1      45.532  28.591  27.353  1.00  0.00     0.167 HD
ATOM     71  C   UNL A   1      47.316  25.200  25.287  1.00  0.00     0.074 A 
ATOM     72  C   UNL A   1      47.390  24.137  24.252  1.00  0.00     0.031 C 
ATOM     73  C   UNL A   1      48.058  26.475  25.518  1.00  0.00     0.037 A 
BRANCH  60  74
ATOM     74  C   UNL A   1      45.761  31.242  31.034  1.00  0.00     0.057 A 
ATOM     75  C   UNL A   1      46.129  31.076  32.370  1.00  0.00     0.134 A 
ATOM     76  C   UNL A   1      45.736  32.610  30.654  1.00  0.00     0.134 A 
ATOM     77  F   UNL A   1      45.843  29.936  33.013  1.00  0.00    -0.206 F 
ATOM     78  C   UNL A   1      46.795  32.086  33.099  1.00  0.00     0.040 A 
ATOM     79  C   UNL A   1      46.403  33.628  31.349  1.00  0.00     0.040 A 
ATOM     80  F   UNL A   1      44.998  33.072  29.642  1.00  0.00    -0.206 F 
ATOM     81  C   UNL A   1      47.019  33.343  32.547  1.00  0.00     0.006 A 
ENDBRANCH  60  74
BRANCH  61  82
ATOM     82  C   UNL A   1      43.002  22.224  25.590  1.00  0.00     0.057 A 
ATOM     83  C   UNL A   1      43.105  20.816  25.838  1.00  0.00     0.134 A 
ATOM     84  C   UNL A   1      41.702  22.735  25.746  1.00  0.00     0.134 A 
ATOM     85  F   UNL A   1      44.303  20.215  25.743  1.00  0.00    -0.206 F 
ATOM     86  C   UNL A   1      42.084  20.061  26.457  1.00  0.00     0.040 A 
ATOM     87  C   UNL A   1      40.656  21.969  26.329  1.00  0.00     0.040 A 
ATOM     88  F   UNL A   1      41.468  24.042  25.561  1.00  0.00    -0.206 F 
ATOM     89  C   UNL A   1      40.869  20.658  26.755  1.00  0.00     0.006 A 
ENDBRANCH  61  82
BRANCH  73  90
ATOM     90  C   UNL A   1      48.709  27.104  24.267  1.00  0.00     0.057 A 
ATOM     91  C   UNL A   1      50.051  26.879  23.890  1.00  0.00     0.134 A 
ATOM     92  C   UNL A   1      47.903  27.638  23.246  1.00  0.00     0.134 A 
ATOM     93  F   UNL A   1      50.930  26.259  24.688  1.00  0.00    -0.206 F 
ATOM     94  C   UNL A   1      50.550  27.174  22.616  1.00  0.00     0.040 A 
ATOM     95  C   UNL A   1      48.369  27.842  21.939  1.00  0.00     0.040 A 
ATOM     96  F   UNL A   1      46.607  27.905  23.441  1.00  0.00    -0.206 F 
ATOM     97  C   UNL A   1      49.697  27.612  21.618  1.00  0.00     0.006 A 
ENDBRANCH  73  90
ENDBRANCH  47  48
ENDBRANCH  40  42
ENDBRANCH  39  40
ENDBRANCH  38  39
ENDBRANCH  37  38
ENDBRANCH  36  37
ENDBRANCH  35  36
ENDBRANCH  34  35
ENDBRANCH  33  34
ENDBRANCH   1  33
TORSDOF 24
ENDMDL
MODEL 3
REMARK VINA RESULT:      -9.9      2.409      5.203
REMARK SMILES Cc1ccc(C(=O)N2CCCC[C@@H]2C(=O)OCCOCCOCCOCCOC(=O)c2ccc(-c3c4nc(c(-c5c(F)cccc5F)c5ccc([nH]5)c(-c5c(F)cccc5F)c5nc(c(-c6c(F)cccc6F)c6ccc3[nH]6)C=C5)C=C4)cc2)cc1S(=O)(=O)N1CCCCC1
REMARK SMILES IDX 21 1 20 2 19 3 18 4 17 5 16 6 14 7 15 8 13 9 8 10 9 11 10 12
REMARK SMILES IDX 12 13 11 14 6 15 7 16 5 17 1 18 2 19 3 20 86 21 4 22 85 23
REMARK SMILES IDX 87 24 88 25 89 26 90 27 91 28 95 29 92 30 94 31 93 32 22 33
REMARK SMILES IDX 23 34 24 35 25 36 26 37 27 38 28 39 29 40 30 41 31 42 32 43
REMARK SMILES IDX 84 44 33 45 83 46 34 47 35 48 36 49 77 50 37 51 82 52 76 53
REMARK SMILES IDX 78 54 38 55 81 56 75 57 74 58 39 60 65 61 48 62 64 63 49 64
REMARK SMILES IDX 52 65 63 66 79 67 50 68 51 69 62 71 80 72 53 73 40 74 41 75
REMARK SMILES IDX 46 76 42 77 43 78 45 79 47 80 44 81 66 82 67 83 72 84 68 85
REMARK SMILES IDX 69 86 71 87 73 88 70 89 54 90 55 91 60 92 56 93 57 94 59 95
REMARK SMILES IDX 61 96 58 97
REMARK H PARENT 78 59 52 70
REMARK Flexibility Score: inf
ROOT
ATOM      1  C   UNL A   1      41.813  30.939  36.706  1.00  0.00     0.188 C 
ENDROOT
BRANCH   1   2
ATOM      2  C   UNL A   1      43.105  30.245  36.194  1.00  0.00     0.188 C 
BRANCH   2   3
ATOM      3  O   UNL A   1      43.356  29.631  34.603  1.00  0.00    -0.376 OA
BRANCH   3   4
ATOM      4  C   UNL A   1      42.154  29.141  33.351  1.00  0.00     0.202 C 
BRANCH   4   5
ATOM      5  C   UNL A   1      42.449  28.391  31.633  1.00  0.00     0.261 C 
BRANCH   5   6
ATOM      6  O   UNL A   1      43.586  29.060  30.363  1.00  0.00    -0.462 OA
BRANCH   6   7
ATOM      7  C   UNL A   1      44.418  30.327  29.852  1.00  0.00     0.328 C 
ATOM      8  O   UNL A   1      45.609  30.579  30.127  1.00  0.00    -0.250 OA
BRANCH   7   9
ATOM      9  C   UNL A   1      43.842  31.248  28.630  1.00  0.00     0.195 C 
ATOM     10  N   UNL A   1      44.052  30.869  27.233  1.00  0.00    -0.325 N 
ATOM     11  C   UNL A   1      43.808  31.868  26.196  1.00  0.00     0.121 C 
ATOM     12  C   UNL A   1      44.791  33.000  26.324  1.00  0.00     0.022 C 
ATOM     13  C   UNL A   1      44.246  32.790  28.871  1.00  0.00     0.037 C 
ATOM     14  C   UNL A   1      44.571  33.696  27.654  1.00  0.00     0.005 C 
BRANCH  10  15
ATOM     15  C   UNL A   1      44.179  29.544  26.815  1.00  0.00     0.254 C 
ATOM     16  O   UNL A   1      45.303  29.153  26.499  1.00  0.00    -0.269 OA
BRANCH  15  17
ATOM     17  C   UNL A   1      42.874  28.817  26.463  1.00  0.00     0.041 A 
ATOM     18  C   UNL A   1      39.488  25.099  27.825  1.00  0.00     0.046 C 
ATOM     19  C   UNL A   1      40.540  26.026  27.329  1.00  0.00    -0.031 A 
ATOM     20  C   UNL A   1      40.058  27.643  27.270  1.00  0.00     0.005 A 
ATOM     21  C   UNL A   1      42.199  25.667  26.861  1.00  0.00     0.086 A 
ATOM     22  C   UNL A   1      41.119  28.950  26.843  1.00  0.00     0.014 A 
ATOM     23  C   UNL A   1      43.429  27.262  26.313  1.00  0.00     0.035 A 
BRANCH  21  24
ATOM     24  S   UNL A   1      42.533  23.697  26.911  1.00  0.00     0.243 S 
ATOM     25  O   UNL A   1      43.020  23.170  28.176  1.00  0.00    -0.207 OA
ATOM     26  O   UNL A   1      41.392  23.077  26.269  1.00  0.00    -0.207 OA
BRANCH  24  27
ATOM     27  N   UNL A   1      43.883  23.475  25.919  1.00  0.00    -0.198 NA
ATOM     28  C   UNL A   1      43.670  22.323  25.041  1.00  0.00     0.102 C 
ATOM     29  C   UNL A   1      45.217  23.816  26.437  1.00  0.00     0.102 C 
ATOM     30  C   UNL A   1      44.928  21.755  24.448  1.00  0.00     0.017 C 
ATOM     31  C   UNL A   1      46.392  23.358  25.588  1.00  0.00     0.017 C 
ATOM     32  C   UNL A   1      45.970  22.833  24.234  1.00  0.00     0.003 C 
ENDBRANCH  24  27
ENDBRANCH  21  24
ENDBRANCH  15  17
ENDBRANCH  10  15
ENDBRANCH   7   9
ENDBRANCH   6   7
ENDBRANCH   5   6
ENDBRANCH   4   5
ENDBRANCH   3   4
ENDBRANCH   2   3
ENDBRANCH   1   2
BRANCH   1  33
ATOM     33  O   UNL A   1      40.558  30.475  36.268  1.00  0.00    -0.377 OA
BRANCH  33  34
ATOM     34  C   UNL A   1      39.678  31.553  36.075  1.00  0.00     0.188 C 
BRANCH  34  35
ATOM     35  C   UNL A   1      38.375  31.116  35.399  1.00  0.00     0.188 C 
BRANCH  35  36
ATOM     36  O   UNL A   1      37.377  32.096  35.234  1.00  0.00    -0.376 OA
BRANCH  36  37
ATOM     37  C   UNL A   1      37.126  32.833  34.057  1.00  0.00     0.202 C 
BRANCH  37  38
ATOM     38  C   UNL A   1      36.638  31.847  33.019  1.00  0.00     0.261 C 
BRANCH  38  39
ATOM     39  O   UNL A   1      37.639  31.664  31.971  1.00  0.00    -0.460 OA
BRANCH  39  40
ATOM     40  C   UNL A   1      37.933  32.745  31.184  1.00  0.00     0.338 C 
ATOM     41  O   UNL A   1      37.104  33.508  30.711  1.00  0.00    -0.246 OA
BRANCH  40  42
ATOM     42  C   UNL A   1      39.385  32.716  30.776  1.00  0.00     0.060 A 
ATOM     43  C   UNL A   1      40.280  31.963  31.518  1.00  0.00     0.016 A 
ATOM     44  C   UNL A   1      39.908  33.729  29.978  1.00  0.00     0.016 A 
ATOM     45  C   UNL A   1      41.593  32.435  31.683  1.00  0.00     0.010 A 
ATOM     46  C   UNL A   1      41.139  34.305  30.332  1.00  0.00     0.010 A 
ATOM     47  C   UNL A   1      41.948  33.771  31.359  1.00  0.00    -0.014 A 
BRANCH  47  48
ATOM     48  C   UNL A   1      43.115  34.899  31.988  1.00  0.00     0.031 A 
ATOM     49  C   UNL A   1      42.123  35.384  33.356  1.00  0.00     0.074 A 
ATOM     50  C   UNL A   1      44.602  35.499  31.390  1.00  0.00     0.049 A 
ATOM     51  N   UNL A   1      42.378  36.292  34.260  1.00  0.00    -0.248 NA
ATOM     52  C   UNL A   1      40.739  34.912  33.591  1.00  0.00     0.031 C 
ATOM     53  C   UNL A   1      45.984  35.912  31.861  1.00  0.00     0.029 A 
ATOM     54  N   UNL A   1      44.990  36.207  30.107  1.00  0.00    -0.354 N 
ATOM     55  C   UNL A   1      41.648  36.037  35.375  1.00  0.00     0.074 A 
ATOM     56  C   UNL A   1      40.508  35.347  34.835  1.00  0.00     0.031 C 
ATOM     57  C   UNL A   1      46.484  37.061  31.367  1.00  0.00     0.029 A 
ATOM     58  C   UNL A   1      45.661  37.412  30.291  1.00  0.00     0.049 A 
ATOM     59  H   UNL A   1      44.783  35.844  29.216  1.00  0.00     0.167 HD
ATOM     60  C   UNL A   1      42.198  36.319  36.598  1.00  0.00     0.037 A 
ATOM     61  C   UNL A   1      45.820  38.544  29.565  1.00  0.00     0.037 A 
ATOM     62  C   UNL A   1      43.249  37.492  36.551  1.00  0.00     0.049 A 
ATOM     63  C   UNL A   1      45.785  39.836  30.495  1.00  0.00     0.074 A 
ATOM     64  C   UNL A   1      44.543  38.277  37.523  1.00  0.00     0.029 A 
ATOM     65  N   UNL A   1      43.023  38.601  35.074  1.00  0.00    -0.354 N 
ATOM     66  N   UNL A   1      45.402  39.784  31.757  1.00  0.00    -0.248 NA
ATOM     67  C   UNL A   1      46.111  41.229  30.197  1.00  0.00     0.031 C 
ATOM     68  C   UNL A   1      45.099  40.022  36.742  1.00  0.00     0.029 A 
ATOM     69  C   UNL A   1      44.207  40.246  35.130  1.00  0.00     0.049 A 
ATOM     70  H   UNL A   1      42.395  38.409  34.341  1.00  0.00     0.167 HD
ATOM     71  C   UNL A   1      45.314  41.036  32.461  1.00  0.00     0.074 A 
ATOM     72  C   UNL A   1      45.863  41.882  31.371  1.00  0.00     0.031 C 
ATOM     73  C   UNL A   1      44.723  41.326  33.802  1.00  0.00     0.037 A 
BRANCH  60  74
ATOM     74  C   UNL A   1      41.592  35.661  37.867  1.00  0.00     0.057 A 
ATOM     75  C   UNL A   1      42.409  35.054  38.822  1.00  0.00     0.134 A 
ATOM     76  C   UNL A   1      40.247  35.771  38.308  1.00  0.00     0.134 A 
ATOM     77  F   UNL A   1      43.583  34.517  38.464  1.00  0.00    -0.206 F 
ATOM     78  C   UNL A   1      42.039  34.964  40.182  1.00  0.00     0.040 A 
ATOM     79  C   UNL A   1      39.856  35.705  39.653  1.00  0.00     0.040 A 
ATOM     80  F   UNL A   1      39.211  35.862  37.472  1.00  0.00    -0.206 F 
ATOM     81  C   UNL A   1      40.786  35.384  40.616  1.00  0.00     0.006 A 
ENDBRANCH  60  74
BRANCH  61  82
ATOM     82  C   UNL A   1      45.712  38.144  28.098  1.00  0.00     0.057 A 
ATOM     83  C   UNL A   1      44.839  38.987  27.334  1.00  0.00     0.134 A 
ATOM     84  C   UNL A   1      46.824  37.675  27.377  1.00  0.00     0.134 A 
ATOM     85  F   UNL A   1      43.753  39.515  27.921  1.00  0.00    -0.206 F 
ATOM     86  C   UNL A   1      45.194  39.537  26.083  1.00  0.00     0.040 A 
ATOM     87  C   UNL A   1      47.165  38.192  26.098  1.00  0.00     0.040 A 
ATOM     88  F   UNL A   1      47.730  36.891  27.977  1.00  0.00    -0.206 F 
ATOM     89  C   UNL A   1      46.392  39.179  25.485  1.00  0.00     0.006 A 
ENDBRANCH  61  82
BRANCH  73  90
ATOM     90  C   UNL A   1      44.116  42.736  33.972  1.00  0.00     0.057 A 
ATOM     91  C   UNL A   1      44.893  43.903  34.150  1.00  0.00     0.134 A 
ATOM     92  C   UNL A   1      42.784  42.980  33.597  1.00  0.00     0.134 A 
ATOM     93  F   UNL A   1      46.210  43.863  34.382  1.00  0.00    -0.206 F 
ATOM     94  C   UNL A   1      44.383  45.196  33.984  1.00  0.00     0.040 A 
ATOM     95  C   UNL A   1      42.292  44.267  33.331  1.00  0.00     0.040 A 
ATOM     96  F   UNL A   1      41.919  41.982  33.385  1.00  0.00    -0.206 F 
ATOM     97  C   UNL A   1      43.091  45.382  33.526  1.00  0.00     0.006 A 
ENDBRANCH  73  90
ENDBRANCH  47  48
ENDBRANCH  40  42
ENDBRANCH  39  40
ENDBRANCH  38  39
ENDBRANCH  37  38
ENDBRANCH  36  37
ENDBRANCH  35  36
ENDBRANCH  34  35
ENDBRANCH  33  34
ENDBRANCH   1  33
TORSDOF 24
ENDMDL
