MODEL 1
REMARK VINA RESULT:      -9.7      0.000      0.000
REMARK SMILES O=C(N[C@@H](CS)C(=O)N[C@@H](CO)C(=O)OCCOCCOCCOCCOC(=O)c1ccc(-c2c3nc(c(-c4c(F)cccc4F)c4ccc([nH]4)c(-c4c(F)cccc4F)c4nc(c(-c5c(F)cccc5F)c5ccc2[nH]5)C=C4)C=C3)cc1)c1ccc(F)cc1
REMARK SMILES IDX 20 1 19 2 18 3 17 4 16 5 15 6 13 7 14 8 10 9 9 10 7 11 8 12
REMARK SMILES IDX 4 14 3 15 1 16 2 17 84 19 85 20 90 21 86 22 89 23 87 24
REMARK SMILES IDX 88 25 5 26 6 27 11 29 12 30 21 32 22 33 23 34 24 35 25 36
REMARK SMILES IDX 26 37 27 38 28 39 29 40 30 41 31 42 83 43 32 44 82 45 33 46
REMARK SMILES IDX 34 47 35 48 76 49 36 50 81 51 75 52 77 53 37 54 80 55 74 56
REMARK SMILES IDX 73 57 38 59 64 60 47 61 63 62 48 63 51 64 62 65 78 66 49 67
REMARK SMILES IDX 50 68 61 70 79 71 52 72 39 73 40 74 45 75 41 76 42 77 44 78
REMARK SMILES IDX 46 79 43 80 65 81 66 82 71 83 67 84 68 85 70 86 72 87 69 88
REMARK SMILES IDX 53 89 54 90 59 91 55 92 56 93 58 94 60 95 57 96
REMARK H PARENT 9 13 3 18 6 28 12 31 77 58 51 69
REMARK Flexibility Score: inf
ROOT
ATOM      1  C   UNL A   1      35.331  32.383  27.694  1.00  0.00     0.188 C 
ENDROOT
BRANCH   1   2
ATOM      2  C   UNL A   1      34.376  31.219  28.000  1.00  0.00     0.188 C 
BRANCH   2   3
ATOM      3  O   UNL A   1      33.580  30.660  26.968  1.00  0.00    -0.376 OA
BRANCH   3   4
ATOM      4  C   UNL A   1      33.710  29.281  26.660  1.00  0.00     0.202 C 
BRANCH   4   5
ATOM      5  C   UNL A   1      33.982  28.802  25.217  1.00  0.00     0.261 C 
BRANCH   5   6
ATOM      6  O   UNL A   1      33.148  29.355  24.177  1.00  0.00    -0.462 OA
BRANCH   6   7
ATOM      7  C   UNL A   1      31.816  29.092  24.258  1.00  0.00     0.331 C 
ATOM      8  O   UNL A   1      30.979  29.884  24.681  1.00  0.00    -0.250 OA
BRANCH   7   9
ATOM      9  C   UNL A   1      31.431  27.656  23.827  1.00  0.00     0.218 C 
BRANCH   9  10
ATOM     10  N   UNL A   1      30.455  26.900  24.628  1.00  0.00    -0.339 N 
ATOM     11  C   UNL A   1      30.441  25.629  25.118  1.00  0.00     0.244 C 
ATOM     12  O   UNL A   1      29.491  25.337  25.858  1.00  0.00    -0.273 OA
ATOM     13  H   UNL A   1      29.647  27.416  24.855  1.00  0.00     0.164 HD
BRANCH  11  14
ATOM     14  C   UNL A   1      31.552  24.580  24.894  1.00  0.00     0.181 C 
BRANCH  14  15
ATOM     15  N   UNL A   1      32.216  24.706  23.599  1.00  0.00    -0.339 N 
ATOM     16  O   UNL A   1      33.589  24.188  21.908  1.00  0.00    -0.269 OA
ATOM     17  C   UNL A   1      33.067  23.839  22.962  1.00  0.00     0.251 C 
ATOM     18  H   UNL A   1      32.023  25.538  23.110  1.00  0.00     0.164 HD
BRANCH  17  19
ATOM     19  C   UNL A   1      33.413  22.522  23.549  1.00  0.00     0.040 A 
ATOM     20  C   UNL A   1      34.648  22.275  24.163  1.00  0.00     0.017 A 
ATOM     21  C   UNL A   1      32.438  21.516  23.514  1.00  0.00     0.017 A 
ATOM     22  C   UNL A   1      34.942  20.998  24.645  1.00  0.00     0.040 A 
ATOM     23  C   UNL A   1      32.725  20.249  24.025  1.00  0.00     0.040 A 
ATOM     24  C   UNL A   1      33.981  19.996  24.567  1.00  0.00     0.123 A 
ATOM     25  F   UNL A   1      34.266  18.772  25.028  1.00  0.00    -0.207 F 
ENDBRANCH  17  19
ENDBRANCH  14  15
BRANCH  14  26
ATOM     26  C   UNL A   1      32.485  24.312  26.088  1.00  0.00     0.101 C 
BRANCH  26  27
ATOM     27  S   UNL A   1      31.976  23.038  27.281  1.00  0.00    -0.177 SA
ATOM     28  H   UNL A   1      31.061  23.561  28.141  1.00  0.00     0.102 HD
ENDBRANCH  26  27
ENDBRANCH  14  26
ENDBRANCH  11  14
ENDBRANCH   9  10
BRANCH   9  29
ATOM     29  C   UNL A   1      30.920  27.757  22.386  1.00  0.00     0.193 C 
BRANCH  29  30
ATOM     30  O   UNL A   1      30.276  29.012  22.154  1.00  0.00    -0.394 OA
ATOM     31  H   UNL A   1      30.945  29.707  22.062  1.00  0.00     0.210 HD
ENDBRANCH  29  30
ENDBRANCH   9  29
ENDBRANCH   7   9
ENDBRANCH   6   7
ENDBRANCH   5   6
ENDBRANCH   4   5
ENDBRANCH   3   4
ENDBRANCH   2   3
ENDBRANCH   1   2
BRANCH   1  32
ATOM     32  O   UNL A   1      35.567  33.271  28.764  1.00  0.00    -0.377 OA
BRANCH  32  33
ATOM     33  C   UNL A   1      34.900  34.519  28.679  1.00  0.00     0.188 C 
BRANCH  33  34
ATOM     34  C   UNL A   1      33.492  34.612  29.302  1.00  0.00     0.188 C 
BRANCH  34  35
ATOM     35  O   UNL A   1      33.452  34.309  30.693  1.00  0.00    -0.376 OA
BRANCH  35  36
ATOM     36  C   UNL A   1      34.374  34.944  31.568  1.00  0.00     0.202 C 
BRANCH  36  37
ATOM     37  C   UNL A   1      34.847  34.168  32.810  1.00  0.00     0.261 C 
BRANCH  37  38
ATOM     38  O   UNL A   1      35.261  32.810  32.600  1.00  0.00    -0.460 OA
BRANCH  38  39
ATOM     39  C   UNL A   1      36.323  32.365  33.298  1.00  0.00     0.338 C 
ATOM     40  O   UNL A   1      36.530  32.509  34.493  1.00  0.00    -0.246 OA
BRANCH  39  41
ATOM     41  C   UNL A   1      37.110  31.471  32.423  1.00  0.00     0.060 A 
ATOM     42  C   UNL A   1      38.078  30.649  33.014  1.00  0.00     0.016 A 
ATOM     43  C   UNL A   1      36.913  31.450  31.039  1.00  0.00     0.016 A 
ATOM     44  C   UNL A   1      38.904  29.860  32.220  1.00  0.00     0.010 A 
ATOM     45  C   UNL A   1      37.762  30.679  30.238  1.00  0.00     0.010 A 
ATOM     46  C   UNL A   1      38.799  29.932  30.826  1.00  0.00    -0.014 A 
BRANCH  46  47
ATOM     47  C   UNL A   1      39.956  29.478  30.016  1.00  0.00     0.031 A 
ATOM     48  C   UNL A   1      41.090  30.450  29.815  1.00  0.00     0.074 A 
ATOM     49  C   UNL A   1      40.051  28.220  29.555  1.00  0.00     0.049 A 
ATOM     50  N   UNL A   1      42.226  30.290  29.187  1.00  0.00    -0.248 NA
ATOM     51  C   UNL A   1      40.919  31.786  30.411  1.00  0.00     0.031 C 
ATOM     52  C   UNL A   1      39.048  27.173  29.733  1.00  0.00     0.029 A 
ATOM     53  N   UNL A   1      41.054  27.612  28.844  1.00  0.00    -0.354 N 
ATOM     54  C   UNL A   1      42.897  31.501  29.308  1.00  0.00     0.074 A 
ATOM     55  C   UNL A   1      42.028  32.400  30.033  1.00  0.00     0.031 C 
ATOM     56  C   UNL A   1      39.487  26.047  29.143  1.00  0.00     0.029 A 
ATOM     57  C   UNL A   1      40.788  26.303  28.524  1.00  0.00     0.049 A 
ATOM     58  H   UNL A   1      41.888  28.070  28.587  1.00  0.00     0.167 HD
ATOM     59  C   UNL A   1      44.133  31.834  28.872  1.00  0.00     0.037 A 
ATOM     60  C   UNL A   1      41.510  25.422  27.804  1.00  0.00     0.037 A 
ATOM     61  C   UNL A   1      44.997  30.940  28.151  1.00  0.00     0.049 A 
ATOM     62  C   UNL A   1      42.854  25.840  27.261  1.00  0.00     0.074 A 
ATOM     63  C   UNL A   1      46.269  31.176  27.662  1.00  0.00     0.029 A 
ATOM     64  N   UNL A   1      44.671  29.635  27.809  1.00  0.00    -0.354 N 
ATOM     65  N   UNL A   1      43.486  26.981  27.393  1.00  0.00    -0.248 NA
ATOM     66  C   UNL A   1      43.590  24.838  26.476  1.00  0.00     0.031 C 
ATOM     67  C   UNL A   1      46.690  30.034  26.973  1.00  0.00     0.029 A 
ATOM     68  C   UNL A   1      45.711  29.061  27.097  1.00  0.00     0.049 A 
ATOM     69  H   UNL A   1      43.827  29.184  28.040  1.00  0.00     0.167 HD
ATOM     70  C   UNL A   1      44.709  26.819  26.750  1.00  0.00     0.074 A 
ATOM     71  C   UNL A   1      44.730  25.467  26.234  1.00  0.00     0.031 C 
ATOM     72  C   UNL A   1      45.724  27.706  26.605  1.00  0.00     0.037 A 
BRANCH  59  73
ATOM     73  C   UNL A   1      44.604  33.236  29.134  1.00  0.00     0.057 A 
ATOM     74  C   UNL A   1      45.286  33.586  30.308  1.00  0.00     0.134 A 
ATOM     75  C   UNL A   1      44.381  34.248  28.192  1.00  0.00     0.134 A 
ATOM     76  F   UNL A   1      45.515  32.671  31.261  1.00  0.00    -0.206 F 
ATOM     77  C   UNL A   1      45.703  34.897  30.545  1.00  0.00     0.040 A 
ATOM     78  C   UNL A   1      44.821  35.555  28.405  1.00  0.00     0.040 A 
ATOM     79  F   UNL A   1      43.733  33.983  27.048  1.00  0.00    -0.206 F 
ATOM     80  C   UNL A   1      45.478  35.885  29.588  1.00  0.00     0.006 A 
ENDBRANCH  59  73
BRANCH  60  81
ATOM     81  C   UNL A   1      40.984  24.056  27.546  1.00  0.00     0.057 A 
ATOM     82  C   UNL A   1      41.492  22.938  28.218  1.00  0.00     0.134 A 
ATOM     83  C   UNL A   1      39.984  23.833  26.592  1.00  0.00     0.134 A 
ATOM     84  F   UNL A   1      42.467  23.083  29.128  1.00  0.00    -0.206 F 
ATOM     85  C   UNL A   1      41.046  21.646  27.932  1.00  0.00     0.040 A 
ATOM     86  C   UNL A   1      39.507  22.550  26.316  1.00  0.00     0.040 A 
ATOM     87  F   UNL A   1      39.453  24.859  25.912  1.00  0.00    -0.206 F 
ATOM     88  C   UNL A   1      40.046  21.450  26.981  1.00  0.00     0.006 A 
ENDBRANCH  60  81
BRANCH  72  89
ATOM     89  C   UNL A   1      46.974  27.224  25.922  1.00  0.00     0.057 A 
ATOM     90  C   UNL A   1      47.975  26.519  26.602  1.00  0.00     0.134 A 
ATOM     91  C   UNL A   1      47.159  27.444  24.550  1.00  0.00     0.134 A 
ATOM     92  F   UNL A   1      47.867  26.280  27.917  1.00  0.00    -0.206 F 
ATOM     93  C   UNL A   1      49.130  26.082  25.949  1.00  0.00     0.040 A 
ATOM     94  C   UNL A   1      48.292  26.983  23.880  1.00  0.00     0.040 A 
ATOM     95  F   UNL A   1      46.232  28.100  23.834  1.00  0.00    -0.206 F 
ATOM     96  C   UNL A   1      49.287  26.308  24.582  1.00  0.00     0.006 A 
ENDBRANCH  72  89
ENDBRANCH  46  47
ENDBRANCH  39  41
ENDBRANCH  38  39
ENDBRANCH  37  38
ENDBRANCH  36  37
ENDBRANCH  35  36
ENDBRANCH  34  35
ENDBRANCH  33  34
ENDBRANCH  32  33
ENDBRANCH   1  32
TORSDOF 28
ENDMDL
MODEL 2
REMARK VINA RESULT:      -9.4      3.210      8.945
REMARK SMILES O=C(N[C@@H](CS)C(=O)N[C@@H](CO)C(=O)OCCOCCOCCOCCOC(=O)c1ccc(-c2c3nc(c(-c4c(F)cccc4F)c4ccc([nH]4)c(-c4c(F)cccc4F)c4nc(c(-c5c(F)cccc5F)c5ccc2[nH]5)C=C4)C=C3)cc1)c1ccc(F)cc1
REMARK SMILES IDX 20 1 19 2 18 3 17 4 16 5 15 6 13 7 14 8 10 9 9 10 7 11 8 12
REMARK SMILES IDX 4 14 3 15 1 16 2 17 84 19 85 20 90 21 86 22 89 23 87 24
REMARK SMILES IDX 88 25 5 26 6 27 11 29 12 30 21 32 22 33 23 34 24 35 25 36
REMARK SMILES IDX 26 37 27 38 28 39 29 40 30 41 31 42 83 43 32 44 82 45 33 46
REMARK SMILES IDX 34 47 35 48 76 49 36 50 81 51 75 52 77 53 37 54 80 55 74 56
REMARK SMILES IDX 73 57 38 59 64 60 47 61 63 62 48 63 51 64 62 65 78 66 49 67
REMARK SMILES IDX 50 68 61 70 79 71 52 72 39 73 40 74 45 75 41 76 42 77 44 78
REMARK SMILES IDX 46 79 43 80 65 81 66 82 71 83 67 84 68 85 70 86 72 87 69 88
REMARK SMILES IDX 53 89 54 90 59 91 55 92 56 93 58 94 60 95 57 96
REMARK H PARENT 9 13 3 18 6 28 12 31 77 58 51 69
REMARK Flexibility Score: inf
ROOT
ATOM      1  C   UNL A   1      32.555  18.190  24.323  1.00  0.00     0.188 C 
ENDROOT
BRANCH   1   2
ATOM      2  C   UNL A   1      32.145  18.463  22.868  1.00  0.00     0.188 C 
BRANCH   2   3
ATOM      3  O   UNL A   1      32.385  19.735  22.287  1.00  0.00    -0.376 OA
BRANCH   3   4
ATOM      4  C   UNL A   1      32.001  20.905  22.993  1.00  0.00     0.202 C 
BRANCH   4   5
ATOM      5  C   UNL A   1      32.945  22.121  23.107  1.00  0.00     0.261 C 
BRANCH   5   6
ATOM      6  O   UNL A   1      32.368  23.422  22.865  1.00  0.00    -0.462 OA
BRANCH   6   7
ATOM      7  C   UNL A   1      33.231  24.425  22.554  1.00  0.00     0.331 C 
ATOM      8  O   UNL A   1      34.452  24.345  22.659  1.00  0.00    -0.250 OA
BRANCH   7   9
ATOM      9  C   UNL A   1      32.538  25.735  22.107  1.00  0.00     0.218 C 
BRANCH   9  10
ATOM     10  N   UNL A   1      33.272  27.007  22.199  1.00  0.00    -0.339 N 
ATOM     11  C   UNL A   1      32.947  28.233  22.697  1.00  0.00     0.244 C 
ATOM     12  O   UNL A   1      33.855  29.076  22.712  1.00  0.00    -0.273 OA
ATOM     13  H   UNL A   1      34.182  26.965  21.824  1.00  0.00     0.164 HD
BRANCH  11  14
ATOM     14  C   UNL A   1      31.583  28.607  23.315  1.00  0.00     0.181 C 
BRANCH  14  15
ATOM     15  N   UNL A   1      31.692  29.188  24.651  1.00  0.00    -0.339 N 
ATOM     16  O   UNL A   1      31.787  29.256  26.887  1.00  0.00    -0.269 OA
ATOM     17  C   UNL A   1      31.801  28.569  25.870  1.00  0.00     0.251 C 
ATOM     18  H   UNL A   1      31.687  30.172  24.680  1.00  0.00     0.164 HD
BRANCH  17  19
ATOM     19  C   UNL A   1      31.874  27.093  25.986  1.00  0.00     0.040 A 
ATOM     20  C   UNL A   1      33.092  26.405  26.064  1.00  0.00     0.017 A 
ATOM     21  C   UNL A   1      30.666  26.385  26.060  1.00  0.00     0.017 A 
ATOM     22  C   UNL A   1      33.100  25.009  26.111  1.00  0.00     0.040 A 
ATOM     23  C   UNL A   1      30.679  24.991  26.137  1.00  0.00     0.040 A 
ATOM     24  C   UNL A   1      31.895  24.315  26.140  1.00  0.00     0.123 A 
ATOM     25  F   UNL A   1      31.906  22.977  26.184  1.00  0.00    -0.207 F 
ENDBRANCH  17  19
ENDBRANCH  14  15
BRANCH  14  26
ATOM     26  C   UNL A   1      30.578  29.298  22.377  1.00  0.00     0.101 C 
BRANCH  26  27
ATOM     27  S   UNL A   1      28.808  29.064  22.725  1.00  0.00    -0.177 SA
ATOM     28  H   UNL A   1      28.463  29.786  23.825  1.00  0.00     0.102 HD
ENDBRANCH  26  27
ENDBRANCH  14  26
ENDBRANCH  11  14
ENDBRANCH   9  10
BRANCH   9  29
ATOM     29  C   UNL A   1      32.096  25.520  20.655  1.00  0.00     0.193 C 
BRANCH  29  30
ATOM     30  O   UNL A   1      33.104  25.956  19.740  1.00  0.00    -0.394 OA
ATOM     31  H   UNL A   1      33.668  25.205  19.499  1.00  0.00     0.210 HD
ENDBRANCH  29  30
ENDBRANCH   9  29
ENDBRANCH   7   9
ENDBRANCH   6   7
ENDBRANCH   5   6
ENDBRANCH   4   5
ENDBRANCH   3   4
ENDBRANCH   2   3
ENDBRANCH   1   2
BRANCH   1  32
ATOM     32  O   UNL A   1      33.593  17.250  24.494  1.00  0.00    -0.377 OA
BRANCH  32  33
ATOM     33  C   UNL A   1      34.908  17.770  24.397  1.00  0.00     0.188 C 
BRANCH  33  34
ATOM     34  C   UNL A   1      35.105  19.260  24.740  1.00  0.00     0.188 C 
BRANCH  34  35
ATOM     35  O   UNL A   1      36.461  19.629  24.972  1.00  0.00    -0.376 OA
BRANCH  35  36
ATOM     36  C   UNL A   1      36.818  21.004  24.957  1.00  0.00     0.202 C 
BRANCH  36  37
ATOM     37  C   UNL A   1      38.042  21.445  25.780  1.00  0.00     0.261 C 
BRANCH  37  38
ATOM     38  O   UNL A   1      39.330  21.084  25.258  1.00  0.00    -0.460 OA
BRANCH  38  39
ATOM     39  C   UNL A   1      40.202  20.497  26.099  1.00  0.00     0.338 C 
ATOM     40  O   UNL A   1      40.352  19.299  26.286  1.00  0.00    -0.246 OA
BRANCH  39  41
ATOM     41  C   UNL A   1      41.118  21.536  26.615  1.00  0.00     0.060 A 
ATOM     42  C   UNL A   1      41.122  21.792  27.992  1.00  0.00     0.016 A 
ATOM     43  C   UNL A   1      41.953  22.259  25.758  1.00  0.00     0.016 A 
ATOM     44  C   UNL A   1      41.900  22.823  28.508  1.00  0.00     0.010 A 
ATOM     45  C   UNL A   1      42.713  23.315  26.273  1.00  0.00     0.010 A 
ATOM     46  C   UNL A   1      42.639  23.636  27.640  1.00  0.00    -0.014 A 
BRANCH  46  47
ATOM     47  C   UNL A   1      43.060  24.972  28.126  1.00  0.00     0.031 A 
ATOM     48  C   UNL A   1      41.983  26.002  28.355  1.00  0.00     0.074 A 
ATOM     49  C   UNL A   1      44.335  25.242  28.450  1.00  0.00     0.049 A 
ATOM     50  N   UNL A   1      42.080  27.224  28.811  1.00  0.00    -0.248 NA
ATOM     51  C   UNL A   1      40.607  25.591  28.028  1.00  0.00     0.031 C 
ATOM     52  C   UNL A   1      45.456  24.312  28.327  1.00  0.00     0.029 A 
ATOM     53  N   UNL A   1      44.897  26.385  28.958  1.00  0.00    -0.354 N 
ATOM     54  C   UNL A   1      40.783  27.725  28.820  1.00  0.00     0.074 A 
ATOM     55  C   UNL A   1      39.923  26.694  28.286  1.00  0.00     0.031 C 
ATOM     56  C   UNL A   1      46.577  24.926  28.748  1.00  0.00     0.029 A 
ATOM     57  C   UNL A   1      46.255  26.297  29.144  1.00  0.00     0.049 A 
ATOM     58  H   UNL A   1      44.376  27.194  29.169  1.00  0.00     0.167 HD
ATOM     59  C   UNL A   1      40.342  28.930  29.249  1.00  0.00     0.037 A 
ATOM     60  C   UNL A   1      47.133  27.225  29.573  1.00  0.00     0.037 A 
ATOM     61  C   UNL A   1      41.198  29.955  29.779  1.00  0.00     0.049 A 
ATOM     62  C   UNL A   1      46.628  28.588  29.974  1.00  0.00     0.074 A 
ATOM     63  C   UNL A   1      40.854  31.213  30.241  1.00  0.00     0.029 A 
ATOM     64  N   UNL A   1      42.574  29.842  29.910  1.00  0.00    -0.354 N 
ATOM     65  N   UNL A   1      45.400  29.048  29.993  1.00  0.00    -0.248 NA
ATOM     66  C   UNL A   1      47.636  29.559  30.426  1.00  0.00     0.031 C 
ATOM     67  C   UNL A   1      42.029  31.882  30.598  1.00  0.00     0.029 A 
ATOM     68  C   UNL A   1      43.097  31.015  30.428  1.00  0.00     0.049 A 
ATOM     69  H   UNL A   1      43.102  29.045  29.673  1.00  0.00     0.167 HD
ATOM     70  C   UNL A   1      45.482  30.341  30.500  1.00  0.00     0.074 A 
ATOM     71  C   UNL A   1      46.881  30.589  30.780  1.00  0.00     0.031 C 
ATOM     72  C   UNL A   1      44.491  31.240  30.719  1.00  0.00     0.037 A 
BRANCH  59  73
ATOM     73  C   UNL A   1      38.871  29.211  29.126  1.00  0.00     0.057 A 
ATOM     74  C   UNL A   1      38.001  29.116  30.221  1.00  0.00     0.134 A 
ATOM     75  C   UNL A   1      38.322  29.592  27.895  1.00  0.00     0.134 A 
ATOM     76  F   UNL A   1      38.457  28.736  31.423  1.00  0.00    -0.206 F 
ATOM     77  C   UNL A   1      36.633  29.364  30.088  1.00  0.00     0.040 A 
ATOM     78  C   UNL A   1      36.962  29.872  27.758  1.00  0.00     0.040 A 
ATOM     79  F   UNL A   1      39.098  29.700  26.807  1.00  0.00    -0.206 F 
ATOM     80  C   UNL A   1      36.111  29.751  28.855  1.00  0.00     0.006 A 
ENDBRANCH  59  73
BRANCH  60  81
ATOM     81  C   UNL A   1      48.583  26.906  29.646  1.00  0.00     0.057 A 
ATOM     82  C   UNL A   1      49.446  27.179  28.579  1.00  0.00     0.134 A 
ATOM     83  C   UNL A   1      49.132  26.283  30.774  1.00  0.00     0.134 A 
ATOM     84  F   UNL A   1      48.977  27.753  27.461  1.00  0.00    -0.206 F 
ATOM     85  C   UNL A   1      50.795  26.822  28.617  1.00  0.00     0.040 A 
ATOM     86  C   UNL A   1      50.486  25.946  30.839  1.00  0.00     0.040 A 
ATOM     87  F   UNL A   1      48.361  25.994  31.832  1.00  0.00    -0.206 F 
ATOM     88  C   UNL A   1      51.319  26.207  29.754  1.00  0.00     0.006 A 
ENDBRANCH  60  81
BRANCH  72  89
ATOM     89  C   UNL A   1      44.868  32.548  31.356  1.00  0.00     0.057 A 
ATOM     90  C   UNL A   1      44.930  32.715  32.745  1.00  0.00     0.134 A 
ATOM     91  C   UNL A   1      45.208  33.650  30.559  1.00  0.00     0.134 A 
ATOM     92  F   UNL A   1      44.611  31.704  33.567  1.00  0.00    -0.206 F 
ATOM     93  C   UNL A   1      45.281  33.940  33.318  1.00  0.00     0.040 A 
ATOM     94  C   UNL A   1      45.593  34.868  31.119  1.00  0.00     0.040 A 
ATOM     95  F   UNL A   1      45.185  33.556  29.220  1.00  0.00    -0.206 F 
ATOM     96  C   UNL A   1      45.620  35.019  32.502  1.00  0.00     0.006 A 
ENDBRANCH  72  89
ENDBRANCH  46  47
ENDBRANCH  39  41
ENDBRANCH  38  39
ENDBRANCH  37  38
ENDBRANCH  36  37
ENDBRANCH  35  36
ENDBRANCH  34  35
ENDBRANCH  33  34
ENDBRANCH  32  33
ENDBRANCH   1  32
TORSDOF 28
ENDMDL
MODEL 3
REMARK VINA RESULT:      -9.1      1.195      2.207
REMARK SMILES O=C(N[C@@H](CS)C(=O)N[C@@H](CO)C(=O)OCCOCCOCCOCCOC(=O)c1ccc(-c2c3nc(c(-c4c(F)cccc4F)c4ccc([nH]4)c(-c4c(F)cccc4F)c4nc(c(-c5c(F)cccc5F)c5ccc2[nH]5)C=C4)C=C3)cc1)c1ccc(F)cc1
REMARK SMILES IDX 20 1 19 2 18 3 17 4 16 5 15 6 13 7 14 8 10 9 9 10 7 11 8 12
REMARK SMILES IDX 4 14 3 15 1 16 2 17 84 19 85 20 90 21 86 22 89 23 87 24
REMARK SMILES IDX 88 25 5 26 6 27 11 29 12 30 21 32 22 33 23 34 24 35 25 36
REMARK SMILES IDX 26 37 27 38 28 39 29 40 30 41 31 42 83 43 32 44 82 45 33 46
REMARK SMILES IDX 34 47 35 48 76 49 36 50 81 51 75 52 77 53 37 54 80 55 74 56
REMARK SMILES IDX 73 57 38 59 64 60 47 61 63 62 48 63 51 64 62 65 78 66 49 67
REMARK SMILES IDX 50 68 61 70 79 71 52 72 39 73 40 74 45 75 41 76 42 77 44 78
REMARK SMILES IDX 46 79 43 80 65 81 66 82 71 83 67 84 68 85 70 86 72 87 69 88
REMARK SMILES IDX 53 89 54 90 59 91 55 92 56 93 58 94 60 95 57 96
REMARK H PARENT 9 13 3 18 6 28 12 31 77 58 51 69
REMARK Flexibility Score: inf
ROOT
ATOM      1  C   UNL A   1      35.329  32.400  27.713  1.00  0.00     0.188 C 
ENDROOT
BRANCH   1   2
ATOM      2  C   UNL A   1      34.296  31.326  28.086  1.00  0.00     0.188 C 
BRANCH   2   3
ATOM      3  O   UNL A   1      33.675  30.551  27.073  1.00  0.00    -0.376 OA
BRANCH   3   4
ATOM      4  C   UNL A   1      33.741  29.135  27.143  1.00  0.00     0.202 C 
BRANCH   4   5
ATOM      5  C   UNL A   1      34.112  28.286  25.907  1.00  0.00     0.261 C 
BRANCH   5   6
ATOM      6  O   UNL A   1      33.489  28.648  24.656  1.00  0.00    -0.462 OA
BRANCH   6   7
ATOM      7  C   UNL A   1      32.314  28.034  24.358  1.00  0.00     0.331 C 
ATOM      8  O   UNL A   1      31.207  28.482  24.641  1.00  0.00    -0.250 OA
BRANCH   7   9
ATOM      9  C   UNL A   1      32.481  26.655  23.675  1.00  0.00     0.218 C 
BRANCH   9  10
ATOM     10  N   UNL A   1      31.283  25.876  23.319  1.00  0.00    -0.339 N 
ATOM     11  C   UNL A   1      30.958  24.560  23.450  1.00  0.00     0.244 C 
ATOM     12  O   UNL A   1      29.801  24.247  23.136  1.00  0.00    -0.273 OA
ATOM     13  H   UNL A   1      30.573  26.416  22.900  1.00  0.00     0.164 HD
BRANCH  11  14
ATOM     14  C   UNL A   1      31.883  23.472  24.038  1.00  0.00     0.181 C 
BRANCH  14  15
ATOM     15  N   UNL A   1      31.783  23.350  25.491  1.00  0.00    -0.339 N 
ATOM     16  O   UNL A   1      32.442  22.956  27.594  1.00  0.00    -0.269 OA
ATOM     17  C   UNL A   1      32.764  23.115  26.421  1.00  0.00     0.251 C 
ATOM     18  H   UNL A   1      30.874  23.451  25.857  1.00  0.00     0.164 HD
BRANCH  17  19
ATOM     19  C   UNL A   1      34.188  22.991  26.029  1.00  0.00     0.040 A 
ATOM     20  C   UNL A   1      34.951  24.089  25.610  1.00  0.00     0.017 A 
ATOM     21  C   UNL A   1      34.783  21.725  26.130  1.00  0.00     0.017 A 
ATOM     22  C   UNL A   1      36.271  23.901  25.196  1.00  0.00     0.040 A 
ATOM     23  C   UNL A   1      36.113  21.547  25.743  1.00  0.00     0.040 A 
ATOM     24  C   UNL A   1      36.838  22.632  25.260  1.00  0.00     0.123 A 
ATOM     25  F   UNL A   1      38.103  22.455  24.860  1.00  0.00    -0.207 F 
ENDBRANCH  17  19
ENDBRANCH  14  15
BRANCH  14  26
ATOM     26  C   UNL A   1      31.942  22.141  23.269  1.00  0.00     0.101 C 
BRANCH  26  27
ATOM     27  S   UNL A   1      32.163  20.620  24.240  1.00  0.00    -0.177 SA
ATOM     28  H   UNL A   1      31.609  20.783  25.472  1.00  0.00     0.102 HD
ENDBRANCH  26  27
ENDBRANCH  14  26
ENDBRANCH  11  14
ENDBRANCH   9  10
BRANCH   9  29
ATOM     29  C   UNL A   1      33.312  26.893  22.410  1.00  0.00     0.193 C 
BRANCH  29  30
ATOM     30  O   UNL A   1      32.594  26.499  21.239  1.00  0.00    -0.394 OA
ATOM     31  H   UNL A   1      31.664  26.345  21.466  1.00  0.00     0.210 HD
ENDBRANCH  29  30
ENDBRANCH   9  29
ENDBRANCH   7   9
ENDBRANCH   6   7
ENDBRANCH   5   6
ENDBRANCH   4   5
ENDBRANCH   3   4
ENDBRANCH   2   3
ENDBRANCH   1   2
BRANCH   1  32
ATOM     32  O   UNL A   1      35.664  33.303  28.743  1.00  0.00    -0.377 OA
BRANCH  32  33
ATOM     33  C   UNL A   1      34.992  34.551  28.702  1.00  0.00     0.188 C 
BRANCH  33  34
ATOM     34  C   UNL A   1      33.543  34.590  29.228  1.00  0.00     0.188 C 
BRANCH  34  35
ATOM     35  O   UNL A   1      33.413  34.227  30.599  1.00  0.00    -0.376 OA
BRANCH  35  36
ATOM     36  C   UNL A   1      34.247  34.851  31.564  1.00  0.00     0.202 C 
BRANCH  36  37
ATOM     37  C   UNL A   1      34.696  34.022  32.781  1.00  0.00     0.261 C 
BRANCH  37  38
ATOM     38  O   UNL A   1      35.251  32.727  32.505  1.00  0.00    -0.460 OA
BRANCH  38  39
ATOM     39  C   UNL A   1      36.305  32.328  33.242  1.00  0.00     0.338 C 
ATOM     40  O   UNL A   1      36.469  32.495  34.441  1.00  0.00    -0.246 OA
BRANCH  39  41
ATOM     41  C   UNL A   1      37.150  31.452  32.405  1.00  0.00     0.060 A 
ATOM     42  C   UNL A   1      38.220  30.783  33.015  1.00  0.00     0.016 A 
ATOM     43  C   UNL A   1      36.907  31.298  31.037  1.00  0.00     0.016 A 
ATOM     44  C   UNL A   1      39.096  30.021  32.248  1.00  0.00     0.010 A 
ATOM     45  C   UNL A   1      37.804  30.555  30.262  1.00  0.00     0.010 A 
ATOM     46  C   UNL A   1      38.934  29.968  30.859  1.00  0.00    -0.014 A 
BRANCH  46  47
ATOM     47  C   UNL A   1      40.102  29.571  30.037  1.00  0.00     0.031 A 
ATOM     48  C   UNL A   1      41.152  30.618  29.764  1.00  0.00     0.074 A 
ATOM     49  C   UNL A   1      40.285  28.305  29.625  1.00  0.00     0.049 A 
ATOM     50  N   UNL A   1      42.281  30.519  29.112  1.00  0.00    -0.248 NA
ATOM     51  C   UNL A   1      40.891  31.961  30.310  1.00  0.00     0.031 C 
ATOM     52  C   UNL A   1      39.371  27.192  29.874  1.00  0.00     0.029 A 
ATOM     53  N   UNL A   1      41.315  27.746  28.912  1.00  0.00    -0.354 N 
ATOM     54  C   UNL A   1      42.858  31.783  29.165  1.00  0.00     0.074 A 
ATOM     55  C   UNL A   1      41.939  32.642  29.875  1.00  0.00     0.031 C 
ATOM     56  C   UNL A   1      39.882  26.079  29.318  1.00  0.00     0.029 A 
ATOM     57  C   UNL A   1      41.143  26.408  28.653  1.00  0.00     0.049 A 
ATOM     58  H   UNL A   1      42.103  28.255  28.613  1.00  0.00     0.167 HD
ATOM     59  C   UNL A   1      44.053  32.191  28.681  1.00  0.00     0.037 A 
ATOM     60  C   UNL A   1      41.915  25.555  27.950  1.00  0.00     0.037 A 
ATOM     61  C   UNL A   1      44.967  31.336  27.974  1.00  0.00     0.049 A 
ATOM     62  C   UNL A   1      43.208  26.052  27.354  1.00  0.00     0.074 A 
ATOM     63  C   UNL A   1      46.203  31.648  27.440  1.00  0.00     0.029 A 
ATOM     64  N   UNL A   1      44.736  29.996  27.695  1.00  0.00    -0.354 N 
ATOM     65  N   UNL A   1      43.751  27.243  27.421  1.00  0.00    -0.248 NA
ATOM     66  C   UNL A   1      44.001  25.077  26.591  1.00  0.00     0.031 C 
ATOM     67  C   UNL A   1      46.696  30.514  26.788  1.00  0.00     0.029 A 
ATOM     68  C   UNL A   1      45.799  29.474  26.979  1.00  0.00     0.049 A 
ATOM     69  H   UNL A   1      43.936  29.491  27.967  1.00  0.00     0.167 HD
ATOM     70  C   UNL A   1      44.967  27.149  26.752  1.00  0.00     0.074 A 
ATOM     71  C   UNL A   1      45.082  25.781  26.291  1.00  0.00     0.031 C 
ATOM     72  C   UNL A   1      45.907  28.104  26.542  1.00  0.00     0.037 A 
BRANCH  59  73
ATOM     73  C   UNL A   1      44.419  33.635  28.872  1.00  0.00     0.057 A 
ATOM     74  C   UNL A   1      44.073  34.621  27.937  1.00  0.00     0.134 A 
ATOM     75  C   UNL A   1      45.120  34.045  30.013  1.00  0.00     0.134 A 
ATOM     76  F   UNL A   1      43.421  34.294  26.812  1.00  0.00    -0.206 F 
ATOM     77  C   UNL A   1      44.436  35.957  28.120  1.00  0.00     0.040 A 
ATOM     78  C   UNL A   1      45.460  35.382  30.221  1.00  0.00     0.040 A 
ATOM     79  F   UNL A   1      45.483  33.153  30.947  1.00  0.00    -0.206 F 
ATOM     80  C   UNL A   1      45.124  36.342  29.269  1.00  0.00     0.006 A 
ENDBRANCH  59  73
BRANCH  60  81
ATOM     81  C   UNL A   1      41.491  24.143  27.764  1.00  0.00     0.057 A 
ATOM     82  C   UNL A   1      40.477  23.797  26.864  1.00  0.00     0.134 A 
ATOM     83  C   UNL A   1      42.067  23.108  28.512  1.00  0.00     0.134 A 
ATOM     84  F   UNL A   1      39.870  24.745  26.134  1.00  0.00    -0.206 F 
ATOM     85  C   UNL A   1      40.031  22.481  26.732  1.00  0.00     0.040 A 
ATOM     86  C   UNL A   1      41.652  21.783  28.371  1.00  0.00     0.040 A 
ATOM     87  F   UNL A   1      43.043  23.370  29.392  1.00  0.00    -0.206 F 
ATOM     88  C   UNL A   1      40.623  21.468  27.486  1.00  0.00     0.006 A 
ENDBRANCH  60  81
BRANCH  72  89
ATOM     89  C   UNL A   1      47.174  27.691  25.845  1.00  0.00     0.057 A 
ATOM     90  C   UNL A   1      47.317  27.753  24.454  1.00  0.00     0.134 A 
ATOM     91  C   UNL A   1      48.279  27.257  26.589  1.00  0.00     0.134 A 
ATOM     92  F   UNL A   1      46.298  28.153  23.680  1.00  0.00    -0.206 F 
ATOM     93  C   UNL A   1      48.503  27.363  23.825  1.00  0.00     0.040 A 
ATOM     94  C   UNL A   1      49.479  26.897  25.976  1.00  0.00     0.040 A 
ATOM     95  F   UNL A   1      48.215  27.189  27.928  1.00  0.00    -0.206 F 
ATOM     96  C   UNL A   1      49.590  26.940  24.589  1.00  0.00     0.006 A 
ENDBRANCH  72  89
ENDBRANCH  46  47
ENDBRANCH  39  41
ENDBRANCH  38  39
ENDBRANCH  37  38
ENDBRANCH  36  37
ENDBRANCH  35  36
ENDBRANCH  34  35
ENDBRANCH  33  34
ENDBRANCH  32  33
ENDBRANCH   1  32
TORSDOF 28
ENDMDL
