MODEL 1
REMARK VINA RESULT:     -10.0      0.000      0.000
REMARK SMILES CC(C)(CC(=O)Nc1cccc(C(=O)NC2CC2)c1)CC(=O)OCCOCCOCCOCCOC(=O)c1ccc(-c2c3nc(c(-c4c(F)cccc4F)c4ccc([nH]4)c(-c4c(F)cccc4F)c4nc(c(-c5c(F)cccc5F)c5ccc2[nH]5)C=C4)C=C3)cc1
REMARK SMILES IDX 27 1 26 2 25 3 24 4 23 5 21 6 22 7 20 8 2 9 1 10 3 11 4 12
REMARK SMILES IDX 5 13 6 14 7 15 8 17 9 18 19 19 10 20 12 21 11 22 13 23 14 24
REMARK SMILES IDX 15 25 16 27 17 28 18 29 28 30 29 31 30 32 31 33 32 34 33 35
REMARK SMILES IDX 34 36 35 37 36 38 37 39 38 40 39 41 91 42 40 43 90 44 41 45
REMARK SMILES IDX 42 46 43 47 84 48 44 49 89 50 83 51 85 52 45 53 88 54 82 55
REMARK SMILES IDX 81 56 46 58 72 59 55 60 71 61 56 62 59 63 70 64 86 65 57 66
REMARK SMILES IDX 58 67 69 69 87 70 60 71 47 72 48 73 53 74 49 75 50 76 52 77
REMARK SMILES IDX 54 78 51 79 73 80 74 81 79 82 75 83 76 84 78 85 80 86 77 87
REMARK SMILES IDX 61 88 62 89 67 90 63 91 64 92 66 93 68 94 65 95
REMARK H PARENT 7 16 15 26 85 57 59 68
REMARK Flexibility Score: inf
ROOT
ATOM      1  C   UNL A   1      34.640  29.597  27.595  1.00  0.00     0.188 C 
ENDROOT
BRANCH   1   2
ATOM      2  O   UNL A   1      34.754  28.506  26.693  1.00  0.00    -0.376 OA
BRANCH   2   3
ATOM      3  C   UNL A   1      34.116  28.622  25.415  1.00  0.00     0.202 C 
BRANCH   3   4
ATOM      4  C   UNL A   1      33.563  27.355  24.758  1.00  0.00     0.261 C 
BRANCH   4   5
ATOM      5  O   UNL A   1      33.801  26.129  25.503  1.00  0.00    -0.463 OA
BRANCH   5   6
ATOM      6  C   UNL A   1      34.272  25.094  24.783  1.00  0.00     0.306 C 
ATOM      7  O   UNL A   1      34.380  25.110  23.557  1.00  0.00    -0.252 OA
BRANCH   6   8
ATOM      8  C   UNL A   1      34.486  23.789  25.527  1.00  0.00     0.129 C 
BRANCH   8   9
ATOM      9  C   UNL A   1      34.767  22.349  25.010  1.00  0.00    -0.016 C 
ATOM     10  C   UNL A   1      35.263  21.453  26.118  1.00  0.00     0.012 C 
ATOM     11  C   UNL A   1      36.038  22.493  24.115  1.00  0.00     0.012 C 
BRANCH   9  12
ATOM     12  C   UNL A   1      33.661  21.617  24.217  1.00  0.00     0.107 C 
BRANCH  12  13
ATOM     13  C   UNL A   1      32.278  21.168  24.746  1.00  0.00     0.224 C 
ATOM     14  O   UNL A   1      32.097  19.951  24.924  1.00  0.00    -0.275 OA
ATOM     15  N   UNL A   1      31.332  21.979  25.316  1.00  0.00    -0.326 N 
ATOM     16  H   UNL A   1      30.744  21.486  25.931  1.00  0.00     0.169 HD
BRANCH  15  17
ATOM     17  C   UNL A   1      30.994  23.339  25.240  1.00  0.00     0.041 A 
ATOM     18  C   UNL A   1      30.436  23.947  26.362  1.00  0.00     0.026 A 
ATOM     19  C   UNL A   1      30.964  24.037  24.025  1.00  0.00     0.040 A 
ATOM     20  C   UNL A   1      30.016  25.275  26.301  1.00  0.00     0.003 A 
ATOM     21  C   UNL A   1      30.681  25.406  23.952  1.00  0.00     0.041 A 
ATOM     22  C   UNL A   1      30.179  26.006  25.120  1.00  0.00     0.014 A 
BRANCH  21  23
ATOM     23  C   UNL A   1      30.824  26.294  22.749  1.00  0.00     0.251 C 
ATOM     24  O   UNL A   1      31.495  25.863  21.803  1.00  0.00    -0.269 OA
ATOM     25  N   UNL A   1      30.247  27.533  22.540  1.00  0.00    -0.349 N 
ATOM     26  H   UNL A   1      30.476  27.904  21.657  1.00  0.00     0.164 HD
BRANCH  25  27
ATOM     27  C   UNL A   1      29.405  28.407  23.282  1.00  0.00     0.082 C 
ATOM     28  C   UNL A   1      29.464  29.898  23.107  1.00  0.00     0.027 C 
ATOM     29  C   UNL A   1      28.283  29.141  22.588  1.00  0.00     0.027 C 
ENDBRANCH  25  27
ENDBRANCH  21  23
ENDBRANCH  15  17
ENDBRANCH  12  13
ENDBRANCH   9  12
ENDBRANCH   8   9
ENDBRANCH   6   8
ENDBRANCH   5   6
ENDBRANCH   4   5
ENDBRANCH   3   4
ENDBRANCH   2   3
ENDBRANCH   1   2
BRANCH   1  30
ATOM     30  C   UNL A   1      33.700  30.736  27.198  1.00  0.00     0.188 C 
BRANCH  30  31
ATOM     31  O   UNL A   1      34.209  32.030  27.492  1.00  0.00    -0.377 OA
BRANCH  31  32
ATOM     32  C   UNL A   1      34.106  32.319  28.894  1.00  0.00     0.188 C 
BRANCH  32  33
ATOM     33  C   UNL A   1      33.847  33.794  29.090  1.00  0.00     0.188 C 
BRANCH  33  34
ATOM     34  O   UNL A   1      34.734  34.440  29.994  1.00  0.00    -0.376 OA
BRANCH  34  35
ATOM     35  C   UNL A   1      34.120  34.796  31.237  1.00  0.00     0.202 C 
BRANCH  35  36
ATOM     36  C   UNL A   1      34.803  34.237  32.503  1.00  0.00     0.261 C 
BRANCH  36  37
ATOM     37  O   UNL A   1      35.007  32.801  32.455  1.00  0.00    -0.460 OA
BRANCH  37  38
ATOM     38  C   UNL A   1      36.107  32.340  33.097  1.00  0.00     0.338 C 
ATOM     39  O   UNL A   1      36.352  32.446  34.294  1.00  0.00    -0.246 OA
BRANCH  38  40
ATOM     40  C   UNL A   1      36.916  31.468  32.210  1.00  0.00     0.060 A 
ATOM     41  C   UNL A   1      37.775  30.538  32.814  1.00  0.00     0.016 A 
ATOM     42  C   UNL A   1      36.916  31.609  30.822  1.00  0.00     0.016 A 
ATOM     43  C   UNL A   1      38.690  29.811  32.050  1.00  0.00     0.010 A 
ATOM     44  C   UNL A   1      37.842  30.883  30.054  1.00  0.00     0.010 A 
ATOM     45  C   UNL A   1      38.776  30.025  30.670  1.00  0.00    -0.014 A 
BRANCH  45  46
ATOM     46  C   UNL A   1      39.986  29.551  29.939  1.00  0.00     0.031 A 
ATOM     47  C   UNL A   1      41.156  30.497  29.790  1.00  0.00     0.074 A 
ATOM     48  C   UNL A   1      40.101  28.291  29.478  1.00  0.00     0.049 A 
ATOM     49  N   UNL A   1      42.313  30.312  29.205  1.00  0.00    -0.248 NA
ATOM     50  C   UNL A   1      40.994  31.834  30.384  1.00  0.00     0.031 C 
ATOM     51  C   UNL A   1      39.086  27.249  29.596  1.00  0.00     0.029 A 
ATOM     52  N   UNL A   1      41.140  27.678  28.817  1.00  0.00    -0.354 N 
ATOM     53  C   UNL A   1      43.007  31.509  29.349  1.00  0.00     0.074 A 
ATOM     54  C   UNL A   1      42.128  32.425  30.042  1.00  0.00     0.031 C 
ATOM     55  C   UNL A   1      39.553  26.123  29.026  1.00  0.00     0.029 A 
ATOM     56  C   UNL A   1      40.886  26.371  28.475  1.00  0.00     0.049 A 
ATOM     57  H   UNL A   1      41.989  28.132  28.607  1.00  0.00     0.167 HD
ATOM     58  C   UNL A   1      44.266  31.819  28.955  1.00  0.00     0.037 A 
ATOM     59  C   UNL A   1      41.632  25.484  27.786  1.00  0.00     0.037 A 
ATOM     60  C   UNL A   1      45.156  30.914  28.280  1.00  0.00     0.049 A 
ATOM     61  C   UNL A   1      42.999  25.879  27.285  1.00  0.00     0.074 A 
ATOM     62  C   UNL A   1      46.460  31.136  27.870  1.00  0.00     0.029 A 
ATOM     63  N   UNL A   1      44.836  29.618  27.908  1.00  0.00    -0.354 N 
ATOM     64  N   UNL A   1      43.653  27.003  27.451  1.00  0.00    -0.248 NA
ATOM     65  C   UNL A   1      43.736  24.874  26.499  1.00  0.00     0.031 C 
ATOM     66  C   UNL A   1      46.906  29.998  27.191  1.00  0.00     0.029 A 
ATOM     67  C   UNL A   1      45.905  29.042  27.239  1.00  0.00     0.049 A 
ATOM     68  H   UNL A   1      43.977  29.173  28.090  1.00  0.00     0.167 HD
ATOM     69  C   UNL A   1      44.884  26.827  26.826  1.00  0.00     0.074 A 
ATOM     70  C   UNL A   1      44.892  25.485  26.286  1.00  0.00     0.031 C 
ATOM     71  C   UNL A   1      45.915  27.700  26.712  1.00  0.00     0.037 A 
BRANCH  58  72
ATOM     72  C   UNL A   1      44.749  33.217  29.220  1.00  0.00     0.057 A 
ATOM     73  C   UNL A   1      44.565  34.258  28.301  1.00  0.00     0.134 A 
ATOM     74  C   UNL A   1      45.375  33.532  30.433  1.00  0.00     0.134 A 
ATOM     75  F   UNL A   1      43.984  34.022  27.114  1.00  0.00    -0.206 F 
ATOM     76  C   UNL A   1      45.012  35.554  28.565  1.00  0.00     0.040 A 
ATOM     77  C   UNL A   1      45.798  34.830  30.723  1.00  0.00     0.040 A 
ATOM     78  F   UNL A   1      45.578  32.586  31.363  1.00  0.00    -0.206 F 
ATOM     79  C   UNL A   1      45.624  35.844  29.783  1.00  0.00     0.006 A 
ENDBRANCH  58  72
BRANCH  59  80
ATOM     80  C   UNL A   1      41.106  24.120  27.508  1.00  0.00     0.057 A 
ATOM     81  C   UNL A   1      40.064  23.913  26.595  1.00  0.00     0.134 A 
ATOM     82  C   UNL A   1      41.598  22.998  28.186  1.00  0.00     0.134 A 
ATOM     83  F   UNL A   1      39.526  24.950  25.938  1.00  0.00    -0.206 F 
ATOM     84  C   UNL A   1      39.519  22.645  26.381  1.00  0.00     0.040 A 
ATOM     85  C   UNL A   1      41.082  21.720  27.959  1.00  0.00     0.040 A 
ATOM     86  F   UNL A   1      42.588  23.127  29.081  1.00  0.00    -0.206 F 
ATOM     87  C   UNL A   1      40.033  21.543  27.060  1.00  0.00     0.006 A 
ENDBRANCH  59  80
BRANCH  71  88
ATOM     88  C   UNL A   1      47.164  27.227  26.019  1.00  0.00     0.057 A 
ATOM     89  C   UNL A   1      48.183  26.547  26.700  1.00  0.00     0.134 A 
ATOM     90  C   UNL A   1      47.327  27.413  24.640  1.00  0.00     0.134 A 
ATOM     91  F   UNL A   1      48.097  26.342  28.024  1.00  0.00    -0.206 F 
ATOM     92  C   UNL A   1      49.328  26.095  26.040  1.00  0.00     0.040 A 
ATOM     93  C   UNL A   1      48.452  26.938  23.963  1.00  0.00     0.040 A 
ATOM     94  F   UNL A   1      46.385  28.044  23.921  1.00  0.00    -0.206 F 
ATOM     95  C   UNL A   1      49.461  26.283  24.665  1.00  0.00     0.006 A 
ENDBRANCH  71  88
ENDBRANCH  45  46
ENDBRANCH  38  40
ENDBRANCH  37  38
ENDBRANCH  36  37
ENDBRANCH  35  36
ENDBRANCH  34  35
ENDBRANCH  33  34
ENDBRANCH  32  33
ENDBRANCH  31  32
ENDBRANCH  30  31
ENDBRANCH   1  30
TORSDOF 26
ENDMDL
MODEL 2
REMARK VINA RESULT:      -9.5      4.612      9.262
REMARK SMILES CC(C)(CC(=O)Nc1cccc(C(=O)NC2CC2)c1)CC(=O)OCCOCCOCCOCCOC(=O)c1ccc(-c2c3nc(c(-c4c(F)cccc4F)c4ccc([nH]4)c(-c4c(F)cccc4F)c4nc(c(-c5c(F)cccc5F)c5ccc2[nH]5)C=C4)C=C3)cc1
REMARK SMILES IDX 27 1 26 2 25 3 24 4 23 5 21 6 22 7 20 8 2 9 1 10 3 11 4 12
REMARK SMILES IDX 5 13 6 14 7 15 8 17 9 18 19 19 10 20 12 21 11 22 13 23 14 24
REMARK SMILES IDX 15 25 16 27 17 28 18 29 28 30 29 31 30 32 31 33 32 34 33 35
REMARK SMILES IDX 34 36 35 37 36 38 37 39 38 40 39 41 91 42 40 43 90 44 41 45
REMARK SMILES IDX 42 46 43 47 84 48 44 49 89 50 83 51 85 52 45 53 88 54 82 55
REMARK SMILES IDX 81 56 46 58 72 59 55 60 71 61 56 62 59 63 70 64 86 65 57 66
REMARK SMILES IDX 58 67 69 69 87 70 60 71 47 72 48 73 53 74 49 75 50 76 52 77
REMARK SMILES IDX 54 78 51 79 73 80 74 81 79 82 75 83 76 84 78 85 80 86 77 87
REMARK SMILES IDX 61 88 62 89 67 90 63 91 64 92 66 93 68 94 65 95
REMARK H PARENT 7 16 15 26 85 57 59 68
REMARK Flexibility Score: inf
ROOT
ATOM      1  C   UNL A   1      38.296  21.272  25.842  1.00  0.00     0.188 C 
ENDROOT
BRANCH   1   2
ATOM      2  O   UNL A   1      37.700  21.440  24.564  1.00  0.00    -0.376 OA
BRANCH   2   3
ATOM      3  C   UNL A   1      37.087  22.702  24.270  1.00  0.00     0.202 C 
BRANCH   3   4
ATOM      4  C   UNL A   1      36.364  22.867  22.931  1.00  0.00     0.261 C 
BRANCH   4   5
ATOM      5  O   UNL A   1      35.154  23.671  22.988  1.00  0.00    -0.463 OA
BRANCH   5   6
ATOM      6  C   UNL A   1      34.014  22.992  23.216  1.00  0.00     0.306 C 
ATOM      7  O   UNL A   1      33.182  22.745  22.344  1.00  0.00    -0.252 OA
BRANCH   6   8
ATOM      8  C   UNL A   1      33.673  22.702  24.665  1.00  0.00     0.129 C 
BRANCH   8   9
ATOM      9  C   UNL A   1      33.570  23.641  25.902  1.00  0.00    -0.016 C 
ATOM     10  C   UNL A   1      34.111  25.016  25.595  1.00  0.00     0.012 C 
ATOM     11  C   UNL A   1      34.633  23.090  26.903  1.00  0.00     0.012 C 
BRANCH   9  12
ATOM     12  C   UNL A   1      32.209  23.776  26.620  1.00  0.00     0.107 C 
BRANCH  12  13
ATOM     13  C   UNL A   1      30.805  23.565  26.002  1.00  0.00     0.224 C 
ATOM     14  O   UNL A   1      30.118  22.628  26.443  1.00  0.00    -0.275 OA
ATOM     15  N   UNL A   1      30.121  24.469  25.233  1.00  0.00    -0.326 N 
ATOM     16  H   UNL A   1      29.147  24.337  25.287  1.00  0.00     0.169 HD
BRANCH  15  17
ATOM     17  C   UNL A   1      30.462  25.535  24.388  1.00  0.00     0.041 A 
ATOM     18  C   UNL A   1      30.907  25.246  23.100  1.00  0.00     0.026 A 
ATOM     19  C   UNL A   1      30.611  26.848  24.859  1.00  0.00     0.040 A 
ATOM     20  C   UNL A   1      31.328  26.273  22.258  1.00  0.00     0.003 A 
ATOM     21  C   UNL A   1      30.897  27.922  24.010  1.00  0.00     0.041 A 
ATOM     22  C   UNL A   1      31.280  27.601  22.696  1.00  0.00     0.014 A 
BRANCH  21  23
ATOM     23  C   UNL A   1      30.870  29.383  24.363  1.00  0.00     0.251 C 
ATOM     24  O   UNL A   1      31.735  29.792  25.148  1.00  0.00    -0.269 OA
ATOM     25  N   UNL A   1      30.020  30.355  23.870  1.00  0.00    -0.349 N 
ATOM     26  H   UNL A   1      30.223  31.246  24.240  1.00  0.00     0.164 HD
BRANCH  25  27
ATOM     27  C   UNL A   1      28.927  30.393  22.961  1.00  0.00     0.082 C 
ATOM     28  C   UNL A   1      27.655  29.636  23.225  1.00  0.00     0.027 C 
ATOM     29  C   UNL A   1      27.662  31.128  23.334  1.00  0.00     0.027 C 
ENDBRANCH  25  27
ENDBRANCH  21  23
ENDBRANCH  15  17
ENDBRANCH  12  13
ENDBRANCH   9  12
ENDBRANCH   8   9
ENDBRANCH   6   8
ENDBRANCH   5   6
ENDBRANCH   4   5
ENDBRANCH   3   4
ENDBRANCH   2   3
ENDBRANCH   1   2
BRANCH   1  30
ATOM     30  C   UNL A   1      39.761  21.688  25.989  1.00  0.00     0.188 C 
BRANCH  30  31
ATOM     31  O   UNL A   1      39.952  22.840  26.800  1.00  0.00    -0.377 OA
BRANCH  31  32
ATOM     32  C   UNL A   1      41.344  23.169  26.909  1.00  0.00     0.188 C 
BRANCH  32  33
ATOM     33  C   UNL A   1      41.659  24.346  26.017  1.00  0.00     0.188 C 
BRANCH  33  34
ATOM     34  O   UNL A   1      42.843  24.207  25.242  1.00  0.00    -0.376 OA
BRANCH  34  35
ATOM     35  C   UNL A   1      43.362  22.873  25.230  1.00  0.00     0.202 C 
BRANCH  35  36
ATOM     36  C   UNL A   1      44.891  22.751  25.400  1.00  0.00     0.261 C 
BRANCH  36  37
ATOM     37  O   UNL A   1      45.304  22.631  26.786  1.00  0.00    -0.460 OA
BRANCH  37  38
ATOM     38  C   UNL A   1      45.852  23.741  27.336  1.00  0.00     0.338 C 
ATOM     39  O   UNL A   1      47.005  24.133  27.195  1.00  0.00    -0.246 OA
BRANCH  38  40
ATOM     40  C   UNL A   1      44.814  24.586  27.976  1.00  0.00     0.060 A 
ATOM     41  C   UNL A   1      44.829  25.962  27.701  1.00  0.00     0.016 A 
ATOM     42  C   UNL A   1      43.899  24.076  28.900  1.00  0.00     0.016 A 
ATOM     43  C   UNL A   1      43.998  26.838  28.401  1.00  0.00     0.010 A 
ATOM     44  C   UNL A   1      43.069  24.959  29.609  1.00  0.00     0.010 A 
ATOM     45  C   UNL A   1      43.157  26.352  29.408  1.00  0.00    -0.014 A 
BRANCH  45  46
ATOM     46  C   UNL A   1      42.579  27.311  30.393  1.00  0.00     0.031 A 
ATOM     47  C   UNL A   1      43.246  27.448  31.742  1.00  0.00     0.074 A 
ATOM     48  C   UNL A   1      41.537  28.109  30.094  1.00  0.00     0.049 A 
ATOM     49  N   UNL A   1      42.934  28.217  32.757  1.00  0.00    -0.248 NA
ATOM     50  C   UNL A   1      44.427  26.602  31.976  1.00  0.00     0.031 C 
ATOM     51  C   UNL A   1      40.825  28.135  28.820  1.00  0.00     0.029 A 
ATOM     52  N   UNL A   1      40.899  29.062  30.856  1.00  0.00    -0.354 N 
ATOM     53  C   UNL A   1      43.868  27.935  33.748  1.00  0.00     0.074 A 
ATOM     54  C   UNL A   1      44.735  26.900  33.229  1.00  0.00     0.031 C 
ATOM     55  C   UNL A   1      39.849  29.058  28.887  1.00  0.00     0.029 A 
ATOM     56  C   UNL A   1      39.844  29.667  30.217  1.00  0.00     0.049 A 
ATOM     57  H   UNL A   1      41.173  29.290  31.774  1.00  0.00     0.167 HD
ATOM     58  C   UNL A   1      44.007  28.494  34.975  1.00  0.00     0.037 A 
ATOM     59  C   UNL A   1      38.967  30.592  30.658  1.00  0.00     0.037 A 
ATOM     60  C   UNL A   1      43.163  29.535  35.497  1.00  0.00     0.049 A 
ATOM     61  C   UNL A   1      39.090  31.141  32.058  1.00  0.00     0.074 A 
ATOM     62  C   UNL A   1      43.250  30.179  36.720  1.00  0.00     0.029 A 
ATOM     63  N   UNL A   1      42.075  30.079  34.835  1.00  0.00    -0.354 N 
ATOM     64  N   UNL A   1      39.993  30.886  32.973  1.00  0.00    -0.248 NA
ATOM     65  C   UNL A   1      38.069  32.111  32.485  1.00  0.00     0.031 C 
ATOM     66  C   UNL A   1      42.174  31.067  36.825  1.00  0.00     0.029 A 
ATOM     67  C   UNL A   1      41.458  31.026  35.640  1.00  0.00     0.049 A 
ATOM     68  H   UNL A   1      41.781  29.831  33.929  1.00  0.00     0.167 HD
ATOM     69  C   UNL A   1      39.671  31.689  34.065  1.00  0.00     0.074 A 
ATOM     70  C   UNL A   1      38.495  32.447  33.694  1.00  0.00     0.031 C 
ATOM     71  C   UNL A   1      40.295  31.788  35.264  1.00  0.00     0.037 A 
BRANCH  58  72
ATOM     72  C   UNL A   1      45.103  27.965  35.856  1.00  0.00     0.057 A 
ATOM     73  C   UNL A   1      46.385  28.527  35.874  1.00  0.00     0.134 A 
ATOM     74  C   UNL A   1      44.856  26.896  36.728  1.00  0.00     0.134 A 
ATOM     75  F   UNL A   1      46.693  29.545  35.054  1.00  0.00    -0.206 F 
ATOM     76  C   UNL A   1      47.391  28.028  36.705  1.00  0.00     0.040 A 
ATOM     77  C   UNL A   1      45.842  26.409  37.586  1.00  0.00     0.040 A 
ATOM     78  F   UNL A   1      43.647  26.314  36.768  1.00  0.00    -0.206 F 
ATOM     79  C   UNL A   1      47.117  26.971  37.570  1.00  0.00     0.006 A 
ENDBRANCH  58  72
BRANCH  59  80
ATOM     80  C   UNL A   1      37.870  31.066  29.770  1.00  0.00     0.057 A 
ATOM     81  C   UNL A   1      37.960  32.284  29.087  1.00  0.00     0.134 A 
ATOM     82  C   UNL A   1      36.685  30.334  29.625  1.00  0.00     0.134 A 
ATOM     83  F   UNL A   1      39.055  33.049  29.211  1.00  0.00    -0.206 F 
ATOM     84  C   UNL A   1      36.907  32.768  28.308  1.00  0.00     0.040 A 
ATOM     85  C   UNL A   1      35.635  30.790  28.825  1.00  0.00     0.040 A 
ATOM     86  F   UNL A   1      36.529  29.163  30.259  1.00  0.00    -0.206 F 
ATOM     87  C   UNL A   1      35.741  32.016  28.170  1.00  0.00     0.006 A 
ENDBRANCH  59  80
BRANCH  71  88
ATOM     88  C   UNL A   1      39.757  32.784  36.255  1.00  0.00     0.057 A 
ATOM     89  C   UNL A   1      38.735  32.460  37.158  1.00  0.00     0.134 A 
ATOM     90  C   UNL A   1      40.303  34.072  36.339  1.00  0.00     0.134 A 
ATOM     91  F   UNL A   1      38.160  31.248  37.128  1.00  0.00    -0.206 F 
ATOM     92  C   UNL A   1      38.259  33.389  38.088  1.00  0.00     0.040 A 
ATOM     93  C   UNL A   1      39.858  34.998  37.284  1.00  0.00     0.040 A 
ATOM     94  F   UNL A   1      41.293  34.447  35.515  1.00  0.00    -0.206 F 
ATOM     95  C   UNL A   1      38.828  34.660  38.158  1.00  0.00     0.006 A 
ENDBRANCH  71  88
ENDBRANCH  45  46
ENDBRANCH  38  40
ENDBRANCH  37  38
ENDBRANCH  36  37
ENDBRANCH  35  36
ENDBRANCH  34  35
ENDBRANCH  33  34
ENDBRANCH  32  33
ENDBRANCH  31  32
ENDBRANCH  30  31
ENDBRANCH   1  30
TORSDOF 26
ENDMDL
MODEL 3
REMARK VINA RESULT:      -9.5      4.755     10.071
REMARK SMILES CC(C)(CC(=O)Nc1cccc(C(=O)NC2CC2)c1)CC(=O)OCCOCCOCCOCCOC(=O)c1ccc(-c2c3nc(c(-c4c(F)cccc4F)c4ccc([nH]4)c(-c4c(F)cccc4F)c4nc(c(-c5c(F)cccc5F)c5ccc2[nH]5)C=C4)C=C3)cc1
REMARK SMILES IDX 27 1 26 2 25 3 24 4 23 5 21 6 22 7 20 8 2 9 1 10 3 11 4 12
REMARK SMILES IDX 5 13 6 14 7 15 8 17 9 18 19 19 10 20 12 21 11 22 13 23 14 24
REMARK SMILES IDX 15 25 16 27 17 28 18 29 28 30 29 31 30 32 31 33 32 34 33 35
REMARK SMILES IDX 34 36 35 37 36 38 37 39 38 40 39 41 91 42 40 43 90 44 41 45
REMARK SMILES IDX 42 46 43 47 84 48 44 49 89 50 83 51 85 52 45 53 88 54 82 55
REMARK SMILES IDX 81 56 46 58 72 59 55 60 71 61 56 62 59 63 70 64 86 65 57 66
REMARK SMILES IDX 58 67 69 69 87 70 60 71 47 72 48 73 53 74 49 75 50 76 52 77
REMARK SMILES IDX 54 78 51 79 73 80 74 81 79 82 75 83 76 84 78 85 80 86 77 87
REMARK SMILES IDX 61 88 62 89 67 90 63 91 64 92 66 93 68 94 65 95
REMARK H PARENT 7 16 15 26 85 57 59 68
REMARK Flexibility Score: inf
ROOT
ATOM      1  C   UNL A   1      41.058  20.187  26.374  1.00  0.00     0.188 C 
ENDROOT
BRANCH   1   2
ATOM      2  O   UNL A   1      39.753  19.857  25.920  1.00  0.00    -0.376 OA
BRANCH   2   3
ATOM      3  C   UNL A   1      38.858  20.933  25.614  1.00  0.00     0.202 C 
BRANCH   3   4
ATOM      4  C   UNL A   1      37.509  20.599  24.971  1.00  0.00     0.261 C 
BRANCH   4   5
ATOM      5  O   UNL A   1      36.378  21.335  25.511  1.00  0.00    -0.463 OA
BRANCH   5   6
ATOM      6  C   UNL A   1      35.184  21.059  24.952  1.00  0.00     0.306 C 
ATOM      7  O   UNL A   1      34.682  19.935  24.939  1.00  0.00    -0.252 OA
BRANCH   6   8
ATOM      8  C   UNL A   1      34.543  22.164  24.134  1.00  0.00     0.129 C 
BRANCH   8   9
ATOM      9  C   UNL A   1      33.485  23.239  24.514  1.00  0.00    -0.016 C 
ATOM     10  C   UNL A   1      32.142  22.930  23.901  1.00  0.00     0.012 C 
ATOM     11  C   UNL A   1      33.918  24.513  23.724  1.00  0.00     0.012 C 
BRANCH   9  12
ATOM     12  C   UNL A   1      33.296  23.599  26.005  1.00  0.00     0.107 C 
BRANCH  12  13
ATOM     13  C   UNL A   1      31.955  23.754  26.762  1.00  0.00     0.224 C 
ATOM     14  O   UNL A   1      31.732  22.972  27.703  1.00  0.00    -0.275 OA
ATOM     15  N   UNL A   1      31.118  24.837  26.704  1.00  0.00    -0.326 N 
ATOM     16  H   UNL A   1      30.574  24.927  27.519  1.00  0.00     0.169 HD
BRANCH  15  17
ATOM     17  C   UNL A   1      30.844  25.848  25.772  1.00  0.00     0.041 A 
ATOM     18  C   UNL A   1      29.634  25.807  25.083  1.00  0.00     0.026 A 
ATOM     19  C   UNL A   1      31.826  26.746  25.329  1.00  0.00     0.040 A 
ATOM     20  C   UNL A   1      29.359  26.750  24.094  1.00  0.00     0.003 A 
ATOM     21  C   UNL A   1      31.544  27.791  24.442  1.00  0.00     0.041 A 
ATOM     22  C   UNL A   1      30.288  27.757  23.811  1.00  0.00     0.014 A 
BRANCH  21  23
ATOM     23  C   UNL A   1      32.453  28.927  24.067  1.00  0.00     0.251 C 
ATOM     24  O   UNL A   1      32.793  29.012  22.880  1.00  0.00    -0.269 OA
ATOM     25  N   UNL A   1      32.921  29.939  24.884  1.00  0.00    -0.349 N 
ATOM     26  H   UNL A   1      33.484  30.581  24.392  1.00  0.00     0.164 HD
BRANCH  25  27
ATOM     27  C   UNL A   1      32.794  30.286  26.257  1.00  0.00     0.082 C 
ATOM     28  C   UNL A   1      32.516  29.250  27.311  1.00  0.00     0.027 C 
ATOM     29  C   UNL A   1      33.869  29.885  27.239  1.00  0.00     0.027 C 
ENDBRANCH  25  27
ENDBRANCH  21  23
ENDBRANCH  15  17
ENDBRANCH  12  13
ENDBRANCH   9  12
ENDBRANCH   8   9
ENDBRANCH   6   8
ENDBRANCH   5   6
ENDBRANCH   4   5
ENDBRANCH   3   4
ENDBRANCH   2   3
ENDBRANCH   1   2
BRANCH   1  30
ATOM     30  C   UNL A   1      42.169  19.170  26.107  1.00  0.00     0.188 C 
BRANCH  30  31
ATOM     31  O   UNL A   1      43.198  19.654  25.255  1.00  0.00    -0.377 OA
BRANCH  31  32
ATOM     32  C   UNL A   1      43.596  20.982  25.630  1.00  0.00     0.188 C 
BRANCH  32  33
ATOM     33  C   UNL A   1      44.909  21.324  24.968  1.00  0.00     0.188 C 
BRANCH  33  34
ATOM     34  O   UNL A   1      45.083  22.703  24.667  1.00  0.00    -0.376 OA
BRANCH  34  35
ATOM     35  C   UNL A   1      43.856  23.438  24.633  1.00  0.00     0.202 C 
BRANCH  35  36
ATOM     36  C   UNL A   1      43.939  24.898  25.125  1.00  0.00     0.261 C 
BRANCH  36  37
ATOM     37  O   UNL A   1      42.645  25.467  25.449  1.00  0.00    -0.460 OA
BRANCH  37  38
ATOM     38  C   UNL A   1      42.585  26.820  25.476  1.00  0.00     0.338 C 
ATOM     39  O   UNL A   1      42.302  27.558  24.538  1.00  0.00    -0.246 OA
BRANCH  38  40
ATOM     40  C   UNL A   1      42.688  27.330  26.866  1.00  0.00     0.060 A 
ATOM     41  C   UNL A   1      41.884  26.729  27.845  1.00  0.00     0.016 A 
ATOM     42  C   UNL A   1      43.477  28.432  27.200  1.00  0.00     0.016 A 
ATOM     43  C   UNL A   1      41.800  27.269  29.129  1.00  0.00     0.010 A 
ATOM     44  C   UNL A   1      43.386  28.981  28.490  1.00  0.00     0.010 A 
ATOM     45  C   UNL A   1      42.500  28.440  29.444  1.00  0.00    -0.014 A 
BRANCH  45  46
ATOM     46  C   UNL A   1      42.109  29.212  30.658  1.00  0.00     0.031 A 
ATOM     47  C   UNL A   1      40.835  30.023  30.617  1.00  0.00     0.074 A 
ATOM     48  C   UNL A   1      42.808  29.149  31.807  1.00  0.00     0.049 A 
ATOM     49  N   UNL A   1      40.286  30.768  31.545  1.00  0.00    -0.248 NA
ATOM     50  C   UNL A   1      40.077  29.988  29.356  1.00  0.00     0.031 C 
ATOM     51  C   UNL A   1      44.022  28.368  32.020  1.00  0.00     0.029 A 
ATOM     52  N   UNL A   1      42.583  29.760  33.019  1.00  0.00    -0.354 N 
ATOM     53  C   UNL A   1      39.133  31.297  30.975  1.00  0.00     0.074 A 
ATOM     54  C   UNL A   1      39.080  30.819  29.611  1.00  0.00     0.031 C 
ATOM     55  C   UNL A   1      44.436  28.546  33.288  1.00  0.00     0.029 A 
ATOM     56  C   UNL A   1      43.536  29.477  33.968  1.00  0.00     0.049 A 
ATOM     57  H   UNL A   1      41.811  30.346  33.192  1.00  0.00     0.167 HD
ATOM     58  C   UNL A   1      38.191  32.095  31.535  1.00  0.00     0.037 A 
ATOM     59  C   UNL A   1      43.676  29.928  35.232  1.00  0.00     0.037 A 
ATOM     60  C   UNL A   1      38.223  32.564  32.894  1.00  0.00     0.049 A 
ATOM     61  C   UNL A   1      42.659  30.883  35.808  1.00  0.00     0.074 A 
ATOM     62  C   UNL A   1      37.296  33.354  33.553  1.00  0.00     0.029 A 
ATOM     63  N   UNL A   1      39.235  32.295  33.802  1.00  0.00    -0.354 N 
ATOM     64  N   UNL A   1      41.561  31.353  35.267  1.00  0.00    -0.248 NA
ATOM     65  C   UNL A   1      42.903  31.370  37.175  1.00  0.00     0.031 C 
ATOM     66  C   UNL A   1      37.779  33.618  34.838  1.00  0.00     0.029 A 
ATOM     67  C   UNL A   1      38.973  32.936  35.003  1.00  0.00     0.049 A 
ATOM     68  H   UNL A   1      40.023  31.734  33.621  1.00  0.00     0.167 HD
ATOM     69  C   UNL A   1      40.969  32.156  36.238  1.00  0.00     0.074 A 
ATOM     70  C   UNL A   1      41.823  32.102  37.405  1.00  0.00     0.031 C 
ATOM     71  C   UNL A   1      39.819  32.871  36.168  1.00  0.00     0.037 A 
BRANCH  58  72
ATOM     72  C   UNL A   1      37.054  32.542  30.660  1.00  0.00     0.057 A 
ATOM     73  C   UNL A   1      35.820  31.879  30.642  1.00  0.00     0.134 A 
ATOM     74  C   UNL A   1      37.187  33.678  29.851  1.00  0.00     0.134 A 
ATOM     75  F   UNL A   1      35.630  30.777  31.384  1.00  0.00    -0.206 F 
ATOM     76  C   UNL A   1      34.770  32.312  29.830  1.00  0.00     0.040 A 
ATOM     77  C   UNL A   1      36.135  34.138  29.058  1.00  0.00     0.040 A 
ATOM     78  F   UNL A   1      38.340  34.365  29.824  1.00  0.00    -0.206 F 
ATOM     79  C   UNL A   1      34.924  33.449  29.041  1.00  0.00     0.006 A 
ENDBRANCH  58  72
BRANCH  59  80
ATOM     80  C   UNL A   1      44.837  29.495  36.056  1.00  0.00     0.057 A 
ATOM     81  C   UNL A   1      46.062  30.170  36.000  1.00  0.00     0.134 A 
ATOM     82  C   UNL A   1      44.762  28.366  36.881  1.00  0.00     0.134 A 
ATOM     83  F   UNL A   1      46.209  31.239  35.204  1.00  0.00    -0.206 F 
ATOM     84  C   UNL A   1      47.176  29.729  36.718  1.00  0.00     0.040 A 
ATOM     85  C   UNL A   1      45.859  27.931  37.628  1.00  0.00     0.040 A 
ATOM     86  F   UNL A   1      43.621  27.668  36.974  1.00  0.00    -0.206 F 
ATOM     87  C   UNL A   1      47.074  28.608  37.541  1.00  0.00     0.006 A 
ENDBRANCH  59  80
BRANCH  71  88
ATOM     88  C   UNL A   1      39.381  33.620  37.397  1.00  0.00     0.057 A 
ATOM     89  C   UNL A   1      38.568  33.035  38.377  1.00  0.00     0.134 A 
ATOM     90  C   UNL A   1      39.820  34.931  37.625  1.00  0.00     0.134 A 
ATOM     91  F   UNL A   1      38.104  31.786  38.219  1.00  0.00    -0.206 F 
ATOM     92  C   UNL A   1      38.186  33.736  39.524  1.00  0.00     0.040 A 
ATOM     93  C   UNL A   1      39.471  35.631  38.782  1.00  0.00     0.040 A 
ATOM     94  F   UNL A   1      40.612  35.550  36.736  1.00  0.00    -0.206 F 
ATOM     95  C   UNL A   1      38.645  35.036  39.732  1.00  0.00     0.006 A 
ENDBRANCH  71  88
ENDBRANCH  45  46
ENDBRANCH  38  40
ENDBRANCH  37  38
ENDBRANCH  36  37
ENDBRANCH  35  36
ENDBRANCH  34  35
ENDBRANCH  33  34
ENDBRANCH  32  33
ENDBRANCH  31  32
ENDBRANCH  30  31
ENDBRANCH   1  30
TORSDOF 26
ENDMDL
