MODEL 1
REMARK VINA RESULT:     -11.0      0.000      0.000
REMARK SMILES C[C@H]1[C@@H](C(=O)OCCOCCOCCOCCOC(=O)c2ccc(-c3c4nc(c(-c5c(F)cccc5F)c5ccc([nH]5)c(-c5c(F)cccc5F)c5nc(c(-c6c(F)cccc6F)c6ccc3[nH]6)C=C5)C=C4)cc2)CCN1C(=O)c1cc2cc(F)ccc2s1
REMARK SMILES IDX 12 1 11 2 10 3 9 4 8 5 7 6 6 7 4 8 5 9 3 10 1 11 2 12 77 13
REMARK SMILES IDX 75 14 76 15 78 16 79 17 80 18 81 19 89 20 82 21 88 22 83 23
REMARK SMILES IDX 87 24 84 25 86 26 85 27 13 28 14 29 15 30 16 31 17 32 18 33
REMARK SMILES IDX 19 34 20 35 21 36 22 37 74 38 23 39 73 40 24 41 25 42 26 43
REMARK SMILES IDX 67 44 27 45 72 46 66 47 68 48 28 49 71 50 65 51 64 52 29 54
REMARK SMILES IDX 55 55 38 56 54 57 39 58 42 59 53 60 69 61 40 62 41 63 52 65
REMARK SMILES IDX 70 66 43 67 30 68 31 69 36 70 32 71 33 72 35 73 37 74 34 75
REMARK SMILES IDX 56 76 57 77 62 78 58 79 59 80 61 81 63 82 60 83 44 84 45 85
REMARK SMILES IDX 50 86 46 87 47 88 49 89 51 90 48 91
REMARK H PARENT 68 53 42 64
REMARK Flexibility Score: inf
ROOT
ATOM      1  O   UNL A   1      42.081  20.821  25.732  1.00  0.00    -0.377 OA
ENDROOT
BRANCH   1   2
ATOM      2  C   UNL A   1      41.103  21.158  26.710  1.00  0.00     0.188 C 
BRANCH   2   3
ATOM      3  C   UNL A   1      39.717  21.744  26.369  1.00  0.00     0.188 C 
BRANCH   3   4
ATOM      4  O   UNL A   1      38.873  20.859  25.666  1.00  0.00    -0.376 OA
BRANCH   4   5
ATOM      5  C   UNL A   1      37.751  21.360  24.973  1.00  0.00     0.202 C 
BRANCH   5   6
ATOM      6  C   UNL A   1      37.261  22.801  25.185  1.00  0.00     0.261 C 
BRANCH   6   7
ATOM      7  O   UNL A   1      36.240  23.017  26.171  1.00  0.00    -0.463 OA
BRANCH   7   8
ATOM      8  C   UNL A   1      34.959  22.991  25.753  1.00  0.00     0.311 C 
ATOM      9  O   UNL A   1      34.023  22.654  26.472  1.00  0.00    -0.252 OA
BRANCH   8  10
ATOM     10  C   UNL A   1      34.731  23.501  24.334  1.00  0.00     0.123 C 
ATOM     11  C   UNL A   1      34.109  25.943  25.096  1.00  0.00     0.032 C 
ATOM     12  C   UNL A   1      34.200  24.915  23.975  1.00  0.00     0.096 C 
ATOM     13  N   UNL A   1      32.978  24.688  23.192  1.00  0.00    -0.334 N 
ATOM     14  C   UNL A   1      33.840  22.501  23.585  1.00  0.00     0.039 C 
ATOM     15  C   UNL A   1      32.721  23.287  22.950  1.00  0.00     0.121 C 
BRANCH  13  16
ATOM     16  C   UNL A   1      32.231  25.570  22.423  1.00  0.00     0.264 C 
ATOM     17  O   UNL A   1      32.627  25.870  21.293  1.00  0.00    -0.268 OA
BRANCH  16  18
ATOM     18  C   UNL A   1      30.960  26.089  22.888  1.00  0.00     0.093 A 
ATOM     19  C   UNL A   1      30.377  25.817  24.121  1.00  0.00     0.034 A 
ATOM     20  S   UNL A   1      30.695  27.777  22.585  1.00  0.00    -0.130 S 
ATOM     21  C   UNL A   1      30.724  26.921  25.000  1.00  0.00    -0.004 A 
ATOM     22  C   UNL A   1      31.043  28.068  24.259  1.00  0.00     0.035 A 
ATOM     23  C   UNL A   1      30.906  26.958  26.401  1.00  0.00     0.048 A 
ATOM     24  C   UNL A   1      31.587  29.220  24.852  1.00  0.00     0.022 A 
ATOM     25  C   UNL A   1      31.509  28.076  26.977  1.00  0.00     0.123 A 
ATOM     26  C   UNL A   1      31.863  29.184  26.220  1.00  0.00     0.041 A 
ATOM     27  F   UNL A   1      31.795  28.060  28.285  1.00  0.00    -0.207 F 
ENDBRANCH  16  18
ENDBRANCH  13  16
ENDBRANCH   8  10
ENDBRANCH   7   8
ENDBRANCH   6   7
ENDBRANCH   5   6
ENDBRANCH   4   5
ENDBRANCH   3   4
ENDBRANCH   2   3
ENDBRANCH   1   2
BRANCH   1  28
ATOM     28  C   UNL A   1      42.674  19.537  25.744  1.00  0.00     0.188 C 
BRANCH  28  29
ATOM     29  C   UNL A   1      44.100  19.426  25.171  1.00  0.00     0.188 C 
BRANCH  29  30
ATOM     30  O   UNL A   1      44.892  20.588  25.376  1.00  0.00    -0.376 OA
BRANCH  30  31
ATOM     31  C   UNL A   1      45.338  21.276  24.216  1.00  0.00     0.202 C 
BRANCH  31  32
ATOM     32  C   UNL A   1      44.561  22.535  23.789  1.00  0.00     0.261 C 
BRANCH  32  33
ATOM     33  O   UNL A   1      44.029  23.344  24.849  1.00  0.00    -0.460 OA
BRANCH  33  34
ATOM     34  C   UNL A   1      44.659  24.499  25.129  1.00  0.00     0.338 C 
ATOM     35  O   UNL A   1      45.708  24.909  24.653  1.00  0.00    -0.246 OA
BRANCH  34  36
ATOM     36  C   UNL A   1      43.767  25.307  25.980  1.00  0.00     0.060 A 
ATOM     37  C   UNL A   1      44.028  26.677  26.116  1.00  0.00     0.016 A 
ATOM     38  C   UNL A   1      42.688  24.718  26.644  1.00  0.00     0.016 A 
ATOM     39  C   UNL A   1      43.241  27.453  26.961  1.00  0.00     0.010 A 
ATOM     40  C   UNL A   1      41.915  25.493  27.513  1.00  0.00     0.010 A 
ATOM     41  C   UNL A   1      42.223  26.851  27.710  1.00  0.00    -0.014 A 
BRANCH  41  42
ATOM     42  C   UNL A   1      41.675  27.591  28.871  1.00  0.00     0.031 A 
ATOM     43  C   UNL A   1      42.407  27.480  30.183  1.00  0.00     0.074 A 
ATOM     44  C   UNL A   1      40.617  28.408  28.749  1.00  0.00     0.049 A 
ATOM     45  N   UNL A   1      42.165  28.071  31.324  1.00  0.00    -0.248 NA
ATOM     46  C   UNL A   1      43.573  26.581  30.206  1.00  0.00     0.031 C 
ATOM     47  C   UNL A   1      39.857  28.633  27.521  1.00  0.00     0.029 A 
ATOM     48  N   UNL A   1      40.006  29.212  29.678  1.00  0.00    -0.354 N 
ATOM     49  C   UNL A   1      43.147  27.618  32.196  1.00  0.00     0.074 A 
ATOM     50  C   UNL A   1      43.962  26.672  31.467  1.00  0.00     0.031 C 
ATOM     51  C   UNL A   1      38.877  29.519  27.775  1.00  0.00     0.029 A 
ATOM     52  C   UNL A   1      38.928  29.903  29.184  1.00  0.00     0.049 A 
ATOM     53  H   UNL A   1      40.311  29.285  30.611  1.00  0.00     0.167 HD
ATOM     54  C   UNL A   1      43.363  27.970  33.485  1.00  0.00     0.037 A 
ATOM     55  C   UNL A   1      38.078  30.742  29.808  1.00  0.00     0.037 A 
ATOM     56  C   UNL A   1      42.546  28.906  34.210  1.00  0.00     0.049 A 
ATOM     57  C   UNL A   1      38.293  31.060  31.266  1.00  0.00     0.074 A 
ATOM     58  C   UNL A   1      42.680  29.335  35.518  1.00  0.00     0.029 A 
ATOM     59  N   UNL A   1      41.433  29.550  33.689  1.00  0.00    -0.354 N 
ATOM     60  N   UNL A   1      39.240  30.650  32.075  1.00  0.00    -0.248 NA
ATOM     61  C   UNL A   1      37.324  31.970  31.893  1.00  0.00     0.031 C 
ATOM     62  C   UNL A   1      41.614  30.193  35.807  1.00  0.00     0.029 A 
ATOM     63  C   UNL A   1      40.856  30.353  34.658  1.00  0.00     0.049 A 
ATOM     64  H   UNL A   1      41.103  29.450  32.767  1.00  0.00     0.167 HD
ATOM     65  C   UNL A   1      39.003  31.278  33.293  1.00  0.00     0.074 A 
ATOM     66  C   UNL A   1      37.831  32.109  33.109  1.00  0.00     0.031 C 
ATOM     67  C   UNL A   1      39.691  31.179  34.458  1.00  0.00     0.037 A 
BRANCH  54  68
ATOM     68  C   UNL A   1      44.508  27.311  34.196  1.00  0.00     0.057 A 
ATOM     69  C   UNL A   1      45.772  27.912  34.291  1.00  0.00     0.134 A 
ATOM     70  C   UNL A   1      44.342  26.062  34.808  1.00  0.00     0.134 A 
ATOM     71  F   UNL A   1      46.005  29.099  33.710  1.00  0.00    -0.206 F 
ATOM     72  C   UNL A   1      46.834  27.282  34.943  1.00  0.00     0.040 A 
ATOM     73  C   UNL A   1      45.386  25.437  35.491  1.00  0.00     0.040 A 
ATOM     74  F   UNL A   1      43.160  25.431  34.756  1.00  0.00    -0.206 F 
ATOM     75  C   UNL A   1      46.639  26.044  35.553  1.00  0.00     0.006 A 
ENDBRANCH  54  68
BRANCH  55  76
ATOM     76  C   UNL A   1      36.939  31.341  29.065  1.00  0.00     0.057 A 
ATOM     77  C   UNL A   1      36.960  32.677  28.648  1.00  0.00     0.134 A 
ATOM     78  C   UNL A   1      35.783  30.599  28.786  1.00  0.00     0.134 A 
ATOM     79  F   UNL A   1      38.027  33.447  28.905  1.00  0.00    -0.206 F 
ATOM     80  C   UNL A   1      35.866  33.261  28.005  1.00  0.00     0.040 A 
ATOM     81  C   UNL A   1      34.695  31.162  28.119  1.00  0.00     0.040 A 
ATOM     82  F   UNL A   1      35.698  29.314  29.157  1.00  0.00    -0.206 F 
ATOM     83  C   UNL A   1      34.730  32.500  27.735  1.00  0.00     0.006 A 
ENDBRANCH  55  76
BRANCH  67  84
ATOM     84  C   UNL A   1      39.226  32.028  35.607  1.00  0.00     0.057 A 
ATOM     85  C   UNL A   1      39.656  33.351  35.782  1.00  0.00     0.134 A 
ATOM     86  C   UNL A   1      38.315  31.520  36.543  1.00  0.00     0.134 A 
ATOM     87  F   UNL A   1      40.533  33.900  34.927  1.00  0.00    -0.206 F 
ATOM     88  C   UNL A   1      39.228  34.122  36.864  1.00  0.00     0.040 A 
ATOM     89  C   UNL A   1      37.853  32.292  37.610  1.00  0.00     0.040 A 
ATOM     90  F   UNL A   1      37.849  30.268  36.430  1.00  0.00    -0.206 F 
ATOM     91  C   UNL A   1      38.320  33.593  37.779  1.00  0.00     0.006 A 
ENDBRANCH  67  84
ENDBRANCH  41  42
ENDBRANCH  34  36
ENDBRANCH  33  34
ENDBRANCH  32  33
ENDBRANCH  31  32
ENDBRANCH  30  31
ENDBRANCH  29  30
ENDBRANCH  28  29
ENDBRANCH   1  28
TORSDOF 22
ENDMDL
MODEL 2
REMARK VINA RESULT:     -10.5      1.502      2.466
REMARK SMILES C[C@H]1[C@@H](C(=O)OCCOCCOCCOCCOC(=O)c2ccc(-c3c4nc(c(-c5c(F)cccc5F)c5ccc([nH]5)c(-c5c(F)cccc5F)c5nc(c(-c6c(F)cccc6F)c6ccc3[nH]6)C=C5)C=C4)cc2)CCN1C(=O)c1cc2cc(F)ccc2s1
REMARK SMILES IDX 12 1 11 2 10 3 9 4 8 5 7 6 6 7 4 8 5 9 3 10 1 11 2 12 77 13
REMARK SMILES IDX 75 14 76 15 78 16 79 17 80 18 81 19 89 20 82 21 88 22 83 23
REMARK SMILES IDX 87 24 84 25 86 26 85 27 13 28 14 29 15 30 16 31 17 32 18 33
REMARK SMILES IDX 19 34 20 35 21 36 22 37 74 38 23 39 73 40 24 41 25 42 26 43
REMARK SMILES IDX 67 44 27 45 72 46 66 47 68 48 28 49 71 50 65 51 64 52 29 54
REMARK SMILES IDX 55 55 38 56 54 57 39 58 42 59 53 60 69 61 40 62 41 63 52 65
REMARK SMILES IDX 70 66 43 67 30 68 31 69 36 70 32 71 33 72 35 73 37 74 34 75
REMARK SMILES IDX 56 76 57 77 62 78 58 79 59 80 61 81 63 82 60 83 44 84 45 85
REMARK SMILES IDX 50 86 46 87 47 88 49 89 51 90 48 91
REMARK H PARENT 68 53 42 64
REMARK Flexibility Score: inf
ROOT
ATOM      1  O   UNL A   1      41.281  19.701  25.634  1.00  0.00    -0.377 OA
ENDROOT
BRANCH   1   2
ATOM      2  C   UNL A   1      40.717  20.325  26.781  1.00  0.00     0.188 C 
BRANCH   2   3
ATOM      3  C   UNL A   1      40.298  21.810  26.831  1.00  0.00     0.188 C 
BRANCH   3   4
ATOM      4  O   UNL A   1      39.407  22.192  25.807  1.00  0.00    -0.376 OA
BRANCH   4   5
ATOM      5  C   UNL A   1      38.040  21.859  25.905  1.00  0.00     0.202 C 
BRANCH   5   6
ATOM      6  C   UNL A   1      37.279  21.257  24.713  1.00  0.00     0.261 C 
BRANCH   6   7
ATOM      7  O   UNL A   1      35.883  21.569  24.592  1.00  0.00    -0.463 OA
BRANCH   7   8
ATOM      8  C   UNL A   1      35.000  20.609  24.934  1.00  0.00     0.311 C 
ATOM      9  O   UNL A   1      35.140  19.427  24.632  1.00  0.00    -0.252 OA
BRANCH   8  10
ATOM     10  C   UNL A   1      33.843  21.077  25.810  1.00  0.00     0.123 C 
ATOM     11  C   UNL A   1      32.744  22.544  23.920  1.00  0.00     0.032 C 
ATOM     12  C   UNL A   1      32.775  22.121  25.383  1.00  0.00     0.096 C 
ATOM     13  N   UNL A   1      32.863  23.199  26.377  1.00  0.00    -0.334 N 
ATOM     14  C   UNL A   1      34.402  21.555  27.157  1.00  0.00     0.039 C 
ATOM     15  C   UNL A   1      33.813  22.915  27.428  1.00  0.00     0.121 C 
BRANCH  13  16
ATOM     16  C   UNL A   1      32.002  24.259  26.625  1.00  0.00     0.264 C 
ATOM     17  O   UNL A   1      30.920  24.041  27.179  1.00  0.00    -0.268 OA
BRANCH  16  18
ATOM     18  C   UNL A   1      32.375  25.625  26.315  1.00  0.00     0.093 A 
ATOM     19  C   UNL A   1      33.424  26.010  25.488  1.00  0.00     0.034 A 
ATOM     20  S   UNL A   1      31.053  26.689  25.954  1.00  0.00    -0.130 S 
ATOM     21  C   UNL A   1      32.850  26.266  24.177  1.00  0.00    -0.004 A 
ATOM     22  C   UNL A   1      31.481  26.549  24.279  1.00  0.00     0.035 A 
ATOM     23  C   UNL A   1      33.413  26.141  22.887  1.00  0.00     0.048 A 
ATOM     24  C   UNL A   1      30.648  26.655  23.152  1.00  0.00     0.022 A 
ATOM     25  C   UNL A   1      32.573  26.179  21.775  1.00  0.00     0.123 A 
ATOM     26  C   UNL A   1      31.210  26.413  21.897  1.00  0.00     0.041 A 
ATOM     27  F   UNL A   1      33.087  25.937  20.562  1.00  0.00    -0.207 F 
ENDBRANCH  16  18
ENDBRANCH  13  16
ENDBRANCH   8  10
ENDBRANCH   7   8
ENDBRANCH   6   7
ENDBRANCH   5   6
ENDBRANCH   4   5
ENDBRANCH   3   4
ENDBRANCH   2   3
ENDBRANCH   1   2
BRANCH   1  28
ATOM     28  C   UNL A   1      42.298  18.729  25.790  1.00  0.00     0.188 C 
BRANCH  28  29
ATOM     29  C   UNL A   1      43.751  19.240  25.800  1.00  0.00     0.188 C 
BRANCH  29  30
ATOM     30  O   UNL A   1      44.051  20.133  24.735  1.00  0.00    -0.376 OA
BRANCH  30  31
ATOM     31  C   UNL A   1      44.055  21.521  25.041  1.00  0.00     0.202 C 
BRANCH  31  32
ATOM     32  C   UNL A   1      45.355  22.126  25.603  1.00  0.00     0.261 C 
BRANCH  32  33
ATOM     33  O   UNL A   1      45.209  23.301  26.416  1.00  0.00    -0.460 OA
BRANCH  33  34
ATOM     34  C   UNL A   1      45.062  24.480  25.786  1.00  0.00     0.338 C 
ATOM     35  O   UNL A   1      45.475  24.789  24.678  1.00  0.00    -0.246 OA
BRANCH  34  36
ATOM     36  C   UNL A   1      44.132  25.304  26.580  1.00  0.00     0.060 A 
ATOM     37  C   UNL A   1      44.375  26.680  26.683  1.00  0.00     0.016 A 
ATOM     38  C   UNL A   1      43.035  24.724  27.222  1.00  0.00     0.016 A 
ATOM     39  C   UNL A   1      43.550  27.473  27.474  1.00  0.00     0.010 A 
ATOM     40  C   UNL A   1      42.223  25.516  28.038  1.00  0.00     0.010 A 
ATOM     41  C   UNL A   1      42.511  26.883  28.205  1.00  0.00    -0.014 A 
BRANCH  41  42
ATOM     42  C   UNL A   1      41.915  27.652  29.322  1.00  0.00     0.031 A 
ATOM     43  C   UNL A   1      42.605  27.595  30.660  1.00  0.00     0.074 A 
ATOM     44  C   UNL A   1      40.849  28.447  29.139  1.00  0.00     0.049 A 
ATOM     45  N   UNL A   1      42.317  28.220  31.773  1.00  0.00    -0.248 NA
ATOM     46  C   UNL A   1      43.783  26.717  30.751  1.00  0.00     0.031 C 
ATOM     47  C   UNL A   1      40.126  28.619  27.881  1.00  0.00     0.029 A 
ATOM     48  N   UNL A   1      40.196  29.271  30.021  1.00  0.00    -0.354 N 
ATOM     49  C   UNL A   1      43.277  27.812  32.690  1.00  0.00     0.074 A 
ATOM     50  C   UNL A   1      44.129  26.855  32.020  1.00  0.00     0.031 C 
ATOM     51  C   UNL A   1      39.125  29.497  28.073  1.00  0.00     0.029 A 
ATOM     52  C   UNL A   1      39.124  29.928  29.470  1.00  0.00     0.049 A 
ATOM     53  H   UNL A   1      40.470  29.379  30.960  1.00  0.00     0.167 HD
ATOM     54  C   UNL A   1      43.445  28.208  33.973  1.00  0.00     0.037 A 
ATOM     55  C   UNL A   1      38.242  30.773  30.038  1.00  0.00     0.037 A 
ATOM     56  C   UNL A   1      42.591  29.155  34.640  1.00  0.00     0.049 A 
ATOM     57  C   UNL A   1      38.404  31.142  31.491  1.00  0.00     0.074 A 
ATOM     58  C   UNL A   1      42.676  29.628  35.936  1.00  0.00     0.029 A 
ATOM     59  N   UNL A   1      41.486  29.763  34.062  1.00  0.00    -0.354 N 
ATOM     60  N   UNL A   1      39.331  30.774  32.343  1.00  0.00    -0.248 NA
ATOM     61  C   UNL A   1      37.402  32.056  32.056  1.00  0.00     0.031 C 
ATOM     62  C   UNL A   1      41.588  30.478  36.163  1.00  0.00     0.029 A 
ATOM     63  C   UNL A   1      40.865  30.588  34.985  1.00  0.00     0.049 A 
ATOM     64  H   UNL A   1      41.187  29.627  33.134  1.00  0.00     0.167 HD
ATOM     65  C   UNL A   1      39.044  31.437  33.531  1.00  0.00     0.074 A 
ATOM     66  C   UNL A   1      37.867  32.243  33.282  1.00  0.00     0.031 C 
ATOM     67  C   UNL A   1      39.696  31.388  34.720  1.00  0.00     0.037 A 
BRANCH  54  68
ATOM     68  C   UNL A   1      44.577  27.592  34.742  1.00  0.00     0.057 A 
ATOM     69  C   UNL A   1      44.427  26.396  35.459  1.00  0.00     0.134 A 
ATOM     70  C   UNL A   1      45.840  28.198  34.757  1.00  0.00     0.134 A 
ATOM     71  F   UNL A   1      43.239  25.774  35.503  1.00  0.00    -0.206 F 
ATOM     72  C   UNL A   1      45.485  25.841  36.183  1.00  0.00     0.040 A 
ATOM     73  C   UNL A   1      46.912  27.636  35.450  1.00  0.00     0.040 A 
ATOM     74  F   UNL A   1      46.053  29.344  34.094  1.00  0.00    -0.206 F 
ATOM     75  C   UNL A   1      46.734  26.457  36.172  1.00  0.00     0.006 A 
ENDBRANCH  54  68
BRANCH  55  76
ATOM     76  C   UNL A   1      37.118  31.329  29.240  1.00  0.00     0.057 A 
ATOM     77  C   UNL A   1      37.137  32.648  28.772  1.00  0.00     0.134 A 
ATOM     78  C   UNL A   1      35.980  30.562  28.955  1.00  0.00     0.134 A 
ATOM     79  F   UNL A   1      38.186  33.441  29.031  1.00  0.00    -0.206 F 
ATOM     80  C   UNL A   1      36.056  33.193  28.075  1.00  0.00     0.040 A 
ATOM     81  C   UNL A   1      34.906  31.086  28.235  1.00  0.00     0.040 A 
ATOM     82  F   UNL A   1      35.899  29.291  29.373  1.00  0.00    -0.206 F 
ATOM     83  C   UNL A   1      34.938  32.408  27.801  1.00  0.00     0.006 A 
ENDBRANCH  55  76
BRANCH  67  84
ATOM     84  C   UNL A   1      39.180  32.267  35.825  1.00  0.00     0.057 A 
ATOM     85  C   UNL A   1      38.269  31.804  36.785  1.00  0.00     0.134 A 
ATOM     86  C   UNL A   1      39.619  33.592  35.943  1.00  0.00     0.134 A 
ATOM     87  F   UNL A   1      37.801  30.547  36.729  1.00  0.00    -0.206 F 
ATOM     88  C   UNL A   1      37.786  32.638  37.796  1.00  0.00     0.040 A 
ATOM     89  C   UNL A   1      39.170  34.425  36.968  1.00  0.00     0.040 A 
ATOM     90  F   UNL A   1      40.502  34.098  35.069  1.00  0.00    -0.206 F 
ATOM     91  C   UNL A   1      38.241  33.951  37.892  1.00  0.00     0.006 A 
ENDBRANCH  67  84
ENDBRANCH  41  42
ENDBRANCH  34  36
ENDBRANCH  33  34
ENDBRANCH  32  33
ENDBRANCH  31  32
ENDBRANCH  30  31
ENDBRANCH  29  30
ENDBRANCH  28  29
ENDBRANCH   1  28
TORSDOF 22
ENDMDL
MODEL 3
REMARK VINA RESULT:     -10.4      1.494      6.289
REMARK SMILES C[C@H]1[C@@H](C(=O)OCCOCCOCCOCCOC(=O)c2ccc(-c3c4nc(c(-c5c(F)cccc5F)c5ccc([nH]5)c(-c5c(F)cccc5F)c5nc(c(-c6c(F)cccc6F)c6ccc3[nH]6)C=C5)C=C4)cc2)CCN1C(=O)c1cc2cc(F)ccc2s1
REMARK SMILES IDX 12 1 11 2 10 3 9 4 8 5 7 6 6 7 4 8 5 9 3 10 1 11 2 12 77 13
REMARK SMILES IDX 75 14 76 15 78 16 79 17 80 18 81 19 89 20 82 21 88 22 83 23
REMARK SMILES IDX 87 24 84 25 86 26 85 27 13 28 14 29 15 30 16 31 17 32 18 33
REMARK SMILES IDX 19 34 20 35 21 36 22 37 74 38 23 39 73 40 24 41 25 42 26 43
REMARK SMILES IDX 67 44 27 45 72 46 66 47 68 48 28 49 71 50 65 51 64 52 29 54
REMARK SMILES IDX 55 55 38 56 54 57 39 58 42 59 53 60 69 61 40 62 41 63 52 65
REMARK SMILES IDX 70 66 43 67 30 68 31 69 36 70 32 71 33 72 35 73 37 74 34 75
REMARK SMILES IDX 56 76 57 77 62 78 58 79 59 80 61 81 63 82 60 83 44 84 45 85
REMARK SMILES IDX 50 86 46 87 47 88 49 89 51 90 48 91
REMARK H PARENT 68 53 42 64
REMARK Flexibility Score: inf
ROOT
ATOM      1  O   UNL A   1      42.345  20.791  25.654  1.00  0.00    -0.377 OA
ENDROOT
BRANCH   1   2
ATOM      2  C   UNL A   1      41.209  20.541  26.473  1.00  0.00     0.188 C 
BRANCH   2   3
ATOM      3  C   UNL A   1      40.284  21.649  27.020  1.00  0.00     0.188 C 
BRANCH   3   4
ATOM      4  O   UNL A   1      39.309  22.091  26.102  1.00  0.00    -0.376 OA
BRANCH   4   5
ATOM      5  C   UNL A   1      38.518  21.151  25.411  1.00  0.00     0.202 C 
BRANCH   5   6
ATOM      6  C   UNL A   1      37.010  21.372  25.207  1.00  0.00     0.261 C 
BRANCH   6   7
ATOM      7  O   UNL A   1      36.190  20.212  25.004  1.00  0.00    -0.463 OA
BRANCH   7   8
ATOM      8  C   UNL A   1      34.859  20.403  24.906  1.00  0.00     0.311 C 
ATOM      9  O   UNL A   1      34.049  19.483  24.845  1.00  0.00    -0.252 OA
BRANCH   8  10
ATOM     10  C   UNL A   1      34.408  21.859  24.966  1.00  0.00     0.123 C 
ATOM     11  C   UNL A   1      34.053  21.850  27.575  1.00  0.00     0.032 C 
ATOM     12  C   UNL A   1      33.892  22.574  26.244  1.00  0.00     0.096 C 
ATOM     13  N   UNL A   1      32.541  23.045  25.911  1.00  0.00    -0.334 N 
ATOM     14  C   UNL A   1      33.350  22.095  23.880  1.00  0.00     0.039 C 
ATOM     15  C   UNL A   1      32.177  22.774  24.539  1.00  0.00     0.121 C 
BRANCH  13  16
ATOM     16  C   UNL A   1      31.713  23.936  26.580  1.00  0.00     0.264 C 
ATOM     17  O   UNL A   1      30.823  23.498  27.315  1.00  0.00    -0.268 OA
BRANCH  16  18
ATOM     18  C   UNL A   1      31.917  25.368  26.493  1.00  0.00     0.093 A 
ATOM     19  C   UNL A   1      33.018  25.996  25.922  1.00  0.00     0.034 A 
ATOM     20  S   UNL A   1      30.526  26.285  26.006  1.00  0.00    -0.130 S 
ATOM     21  C   UNL A   1      32.642  26.345  24.562  1.00  0.00    -0.004 A 
ATOM     22  C   UNL A   1      31.248  26.427  24.436  1.00  0.00     0.035 A 
ATOM     23  C   UNL A   1      33.428  26.469  23.395  1.00  0.00     0.048 A 
ATOM     24  C   UNL A   1      30.612  26.569  23.190  1.00  0.00     0.022 A 
ATOM     25  C   UNL A   1      32.793  26.541  22.155  1.00  0.00     0.123 A 
ATOM     26  C   UNL A   1      31.410  26.573  22.044  1.00  0.00     0.041 A 
ATOM     27  F   UNL A   1      33.537  26.534  21.041  1.00  0.00    -0.207 F 
ENDBRANCH  16  18
ENDBRANCH  13  16
ENDBRANCH   8  10
ENDBRANCH   7   8
ENDBRANCH   6   7
ENDBRANCH   5   6
ENDBRANCH   4   5
ENDBRANCH   3   4
ENDBRANCH   2   3
ENDBRANCH   1   2
BRANCH   1  28
ATOM     28  C   UNL A   1      43.466  19.930  25.723  1.00  0.00     0.188 C 
BRANCH  28  29
ATOM     29  C   UNL A   1      44.539  20.100  24.632  1.00  0.00     0.188 C 
BRANCH  29  30
ATOM     30  O   UNL A   1      45.749  20.679  25.103  1.00  0.00    -0.376 OA
BRANCH  30  31
ATOM     31  C   UNL A   1      45.634  21.830  25.927  1.00  0.00     0.202 C 
BRANCH  31  32
ATOM     32  C   UNL A   1      45.912  23.201  25.284  1.00  0.00     0.261 C 
BRANCH  32  33
ATOM     33  O   UNL A   1      45.140  24.305  25.783  1.00  0.00    -0.460 OA
BRANCH  33  34
ATOM     34  C   UNL A   1      43.858  24.397  25.390  1.00  0.00     0.338 C 
ATOM     35  O   UNL A   1      43.293  23.735  24.530  1.00  0.00    -0.246 OA
BRANCH  34  36
ATOM     36  C   UNL A   1      43.165  25.312  26.315  1.00  0.00     0.060 A 
ATOM     37  C   UNL A   1      43.594  26.644  26.388  1.00  0.00     0.016 A 
ATOM     38  C   UNL A   1      42.108  24.860  27.109  1.00  0.00     0.016 A 
ATOM     39  C   UNL A   1      43.000  27.515  27.296  1.00  0.00     0.010 A 
ATOM     40  C   UNL A   1      41.532  25.728  28.040  1.00  0.00     0.010 A 
ATOM     41  C   UNL A   1      42.012  27.043  28.169  1.00  0.00    -0.014 A 
BRANCH  41  42
ATOM     42  C   UNL A   1      41.688  27.855  29.364  1.00  0.00     0.031 A 
ATOM     43  C   UNL A   1      40.483  28.756  29.295  1.00  0.00     0.074 A 
ATOM     44  C   UNL A   1      42.382  27.734  30.507  1.00  0.00     0.049 A 
ATOM     45  N   UNL A   1      39.959  29.519  30.220  1.00  0.00    -0.248 NA
ATOM     46  C   UNL A   1      39.770  28.797  28.007  1.00  0.00     0.031 C 
ATOM     47  C   UNL A   1      43.537  26.861  30.708  1.00  0.00     0.029 A 
ATOM     48  N   UNL A   1      42.204  28.345  31.722  1.00  0.00    -0.354 N 
ATOM     49  C   UNL A   1      38.859  30.125  29.626  1.00  0.00     0.074 A 
ATOM     50  C   UNL A   1      38.814  29.677  28.253  1.00  0.00     0.031 C 
ATOM     51  C   UNL A   1      43.965  26.995  31.976  1.00  0.00     0.029 A 
ATOM     52  C   UNL A   1      43.131  27.977  32.665  1.00  0.00     0.049 A 
ATOM     53  H   UNL A   1      41.480  28.988  31.900  1.00  0.00     0.167 HD
ATOM     54  C   UNL A   1      37.957  30.968  30.179  1.00  0.00     0.037 A 
ATOM     55  C   UNL A   1      43.287  28.398  33.936  1.00  0.00     0.037 A 
ATOM     56  C   UNL A   1      38.007  31.419  31.544  1.00  0.00     0.049 A 
ATOM     57  C   UNL A   1      42.313  29.397  34.507  1.00  0.00     0.074 A 
ATOM     58  C   UNL A   1      37.140  32.269  32.205  1.00  0.00     0.029 A 
ATOM     59  N   UNL A   1      38.990  31.061  32.456  1.00  0.00    -0.354 N 
ATOM     60  N   UNL A   1      41.259  29.943  33.948  1.00  0.00    -0.248 NA
ATOM     61  C   UNL A   1      42.544  29.827  35.893  1.00  0.00     0.031 C 
ATOM     62  C   UNL A   1      37.630  32.474  33.499  1.00  0.00     0.029 A 
ATOM     63  C   UNL A   1      38.765  31.696  33.666  1.00  0.00     0.049 A 
ATOM     64  H   UNL A   1      39.738  30.447  32.269  1.00  0.00     0.167 HD
ATOM     65  C   UNL A   1      40.685  30.752  34.922  1.00  0.00     0.074 A 
ATOM     66  C   UNL A   1      41.498  30.610  36.112  1.00  0.00     0.031 C 
ATOM     67  C   UNL A   1      39.582  31.539  34.844  1.00  0.00     0.037 A 
BRANCH  54  68
ATOM     68  C   UNL A   1      36.859  31.480  29.292  1.00  0.00     0.057 A 
ATOM     69  C   UNL A   1      36.879  32.774  28.752  1.00  0.00     0.134 A 
ATOM     70  C   UNL A   1      35.771  30.662  28.963  1.00  0.00     0.134 A 
ATOM     71  F   UNL A   1      37.881  33.617  29.043  1.00  0.00    -0.206 F 
ATOM     72  C   UNL A   1      35.844  33.243  27.940  1.00  0.00     0.040 A 
ATOM     73  C   UNL A   1      34.746  31.108  28.127  1.00  0.00     0.040 A 
ATOM     74  F   UNL A   1      35.687  29.413  29.446  1.00  0.00    -0.206 F 
ATOM     75  C   UNL A   1      34.778  32.406  27.619  1.00  0.00     0.006 A 
ENDBRANCH  54  68
BRANCH  55  76
ATOM     76  C   UNL A   1      44.412  27.885  34.760  1.00  0.00     0.057 A 
ATOM     77  C   UNL A   1      44.260  26.766  35.587  1.00  0.00     0.134 A 
ATOM     78  C   UNL A   1      45.658  28.526  34.768  1.00  0.00     0.134 A 
ATOM     79  F   UNL A   1      43.085  26.122  35.642  1.00  0.00    -0.206 F 
ATOM     80  C   UNL A   1      45.295  26.318  36.411  1.00  0.00     0.040 A 
ATOM     81  C   UNL A   1      46.710  28.071  35.565  1.00  0.00     0.040 A 
ATOM     82  F   UNL A   1      45.870  29.603  33.999  1.00  0.00    -0.206 F 
ATOM     83  C   UNL A   1      46.527  26.970  36.397  1.00  0.00     0.006 A 
ENDBRANCH  55  76
BRANCH  67  84
ATOM     84  C   UNL A   1      39.164  32.266  36.091  1.00  0.00     0.057 A 
ATOM     85  C   UNL A   1      38.281  31.704  37.023  1.00  0.00     0.134 A 
ATOM     86  C   UNL A   1      39.671  33.542  36.374  1.00  0.00     0.134 A 
ATOM     87  F   UNL A   1      37.751  30.489  36.812  1.00  0.00    -0.206 F 
ATOM     88  C   UNL A   1      37.888  32.399  38.169  1.00  0.00     0.040 A 
ATOM     89  C   UNL A   1      39.313  34.231  37.532  1.00  0.00     0.040 A 
ATOM     90  F   UNL A   1      40.533  34.134  35.534  1.00  0.00    -0.206 F 
ATOM     91  C   UNL A   1      38.409  33.665  38.428  1.00  0.00     0.006 A 
ENDBRANCH  67  84
ENDBRANCH  41  42
ENDBRANCH  34  36
ENDBRANCH  33  34
ENDBRANCH  32  33
ENDBRANCH  31  32
ENDBRANCH  30  31
ENDBRANCH  29  30
ENDBRANCH  28  29
ENDBRANCH   1  28
TORSDOF 22
ENDMDL
