MODEL 1
REMARK VINA RESULT:     -10.6      0.000      0.000
REMARK SMILES COc1ccc(C(=O)OCCOCCOCCOCCOC(=O)c2ccc(-c3c4nc(c(-c5c(F)cccc5F)c5ccc([nH]5)c(-c5c(F)cccc5F)c5nc(c(-c6c(F)cccc6F)c6ccc3[nH]6)C=C5)C=C4)cc2)cc1NC(=O)c1ccccc1[N+](=O)[O-]
REMARK SMILES IDX 14 1 13 2 12 3 11 4 10 5 9 6 7 7 8 8 6 9 3 10 4 11 79 12
REMARK SMILES IDX 5 13 78 14 2 15 1 16 80 17 81 18 82 20 83 21 84 22 88 23
REMARK SMILES IDX 85 24 87 25 86 26 89 27 90 28 91 29 15 30 16 31 17 32 18 33
REMARK SMILES IDX 19 34 20 35 21 36 22 37 23 38 24 39 25 40 77 41 26 42 76 43
REMARK SMILES IDX 27 44 28 45 29 46 70 47 30 48 75 49 69 50 71 51 31 52 74 53
REMARK SMILES IDX 68 54 67 55 32 57 58 58 41 59 57 60 42 61 45 62 56 63 72 64
REMARK SMILES IDX 43 65 44 66 55 68 73 69 46 70 33 71 34 72 39 73 35 74 36 75
REMARK SMILES IDX 38 76 40 77 37 78 59 79 60 80 65 81 61 82 62 83 64 84 66 85
REMARK SMILES IDX 63 86 47 87 48 88 53 89 49 90 50 91 52 92 54 93 51 94
REMARK H PARENT 80 19 71 56 45 67
REMARK Flexibility Score: inf
ROOT
ATOM      1  C   UNL A   1      37.597  22.065  24.786  1.00  0.00     0.188 C 
ENDROOT
BRANCH   1   2
ATOM      2  C   UNL A   1      37.200  23.210  25.739  1.00  0.00     0.188 C 
BRANCH   2   3
ATOM      3  O   UNL A   1      35.852  23.406  26.137  1.00  0.00    -0.376 OA
BRANCH   3   4
ATOM      4  C   UNL A   1      35.147  22.513  26.984  1.00  0.00     0.202 C 
BRANCH   4   5
ATOM      5  C   UNL A   1      34.278  21.345  26.492  1.00  0.00     0.261 C 
BRANCH   5   6
ATOM      6  O   UNL A   1      32.910  21.626  26.228  1.00  0.00    -0.460 OA
BRANCH   6   7
ATOM      7  C   UNL A   1      32.442  21.253  25.017  1.00  0.00     0.338 C 
ATOM      8  O   UNL A   1      31.984  20.165  24.716  1.00  0.00    -0.246 OA
BRANCH   7   9
ATOM      9  C   UNL A   1      32.462  22.436  24.113  1.00  0.00     0.062 A 
ATOM     10  C   UNL A   1      32.534  24.749  22.585  1.00  0.00     0.142 A 
ATOM     11  C   UNL A   1      33.688  23.972  22.724  1.00  0.00     0.049 A 
ATOM     12  C   UNL A   1      31.320  24.363  23.177  1.00  0.00     0.084 A 
ATOM     13  C   UNL A   1      33.666  22.842  23.541  1.00  0.00     0.019 A 
ATOM     14  C   UNL A   1      31.284  23.138  23.822  1.00  0.00     0.045 A 
BRANCH  10  15
ATOM     15  O   UNL A   1      32.616  25.886  21.822  1.00  0.00    -0.495 OA
ATOM     16  C   UNL A   1      32.517  25.583  20.428  1.00  0.00     0.278 C 
ENDBRANCH  10  15
BRANCH  12  17
ATOM     17  N   UNL A   1      30.241  25.270  23.158  1.00  0.00    -0.319 N 
ATOM     18  C   UNL A   1      30.014  26.500  23.734  1.00  0.00     0.262 C 
ATOM     19  H   UNL A   1      29.483  24.954  22.614  1.00  0.00     0.170 HD
ATOM     20  O   UNL A   1      28.992  27.124  23.449  1.00  0.00    -0.269 OA
BRANCH  18  21
ATOM     21  C   UNL A   1      30.885  27.083  24.772  1.00  0.00     0.117 A 
ATOM     22  C   UNL A   1      31.568  28.246  24.376  1.00  0.00     0.021 A 
ATOM     23  C   UNL A   1      31.033  26.625  26.087  1.00  0.00     0.282 A 
ATOM     24  C   UNL A   1      32.297  28.994  25.301  1.00  0.00     0.001 A 
ATOM     25  C   UNL A   1      31.737  27.399  27.029  1.00  0.00     0.086 A 
ATOM     26  C   UNL A   1      32.353  28.590  26.633  1.00  0.00     0.007 A 
BRANCH  23  27
ATOM     27  N   UNL A   1      30.388  25.400  26.549  1.00  0.00     0.063 N 
ATOM     28  O   UNL A   1      31.125  24.449  26.845  1.00  0.00    -0.258 OA
ATOM     29  O   UNL A   1      29.153  25.380  26.619  1.00  0.00    -0.258 OA
ENDBRANCH  23  27
ENDBRANCH  18  21
ENDBRANCH  12  17
ENDBRANCH   7   9
ENDBRANCH   6   7
ENDBRANCH   5   6
ENDBRANCH   4   5
ENDBRANCH   3   4
ENDBRANCH   2   3
ENDBRANCH   1   2
BRANCH   1  30
ATOM     30  O   UNL A   1      38.549  21.167  25.330  1.00  0.00    -0.377 OA
BRANCH  30  31
ATOM     31  C   UNL A   1      39.432  21.717  26.304  1.00  0.00     0.188 C 
BRANCH  31  32
ATOM     32  C   UNL A   1      40.572  20.826  26.847  1.00  0.00     0.188 C 
BRANCH  32  33
ATOM     33  O   UNL A   1      41.847  21.457  26.850  1.00  0.00    -0.376 OA
BRANCH  33  34
ATOM     34  C   UNL A   1      42.912  20.871  26.120  1.00  0.00     0.202 C 
BRANCH  34  35
ATOM     35  C   UNL A   1      43.733  21.807  25.221  1.00  0.00     0.261 C 
BRANCH  35  36
ATOM     36  O   UNL A   1      43.138  23.080  24.933  1.00  0.00    -0.460 OA
BRANCH  36  37
ATOM     37  C   UNL A   1      43.911  24.174  25.085  1.00  0.00     0.338 C 
ATOM     38  O   UNL A   1      44.935  24.445  24.479  1.00  0.00    -0.246 OA
BRANCH  37  39
ATOM     39  C   UNL A   1      43.203  25.105  25.985  1.00  0.00     0.060 A 
ATOM     40  C   UNL A   1      43.612  26.443  26.035  1.00  0.00     0.016 A 
ATOM     41  C   UNL A   1      42.145  24.656  26.780  1.00  0.00     0.016 A 
ATOM     42  C   UNL A   1      42.992  27.329  26.914  1.00  0.00     0.010 A 
ATOM     43  C   UNL A   1      41.539  25.540  27.676  1.00  0.00     0.010 A 
ATOM     44  C   UNL A   1      41.985  26.870  27.773  1.00  0.00    -0.014 A 
BRANCH  44  45
ATOM     45  C   UNL A   1      41.542  27.718  28.905  1.00  0.00     0.031 A 
ATOM     46  C   UNL A   1      42.287  27.609  30.209  1.00  0.00     0.074 A 
ATOM     47  C   UNL A   1      40.511  28.573  28.780  1.00  0.00     0.049 A 
ATOM     48  N   UNL A   1      42.047  28.195  31.354  1.00  0.00    -0.248 NA
ATOM     49  C   UNL A   1      43.457  26.715  30.224  1.00  0.00     0.031 C 
ATOM     50  C   UNL A   1      39.738  28.796  27.560  1.00  0.00     0.029 A 
ATOM     51  N   UNL A   1      39.929  29.404  29.705  1.00  0.00    -0.354 N 
ATOM     52  C   UNL A   1      43.021  27.725  32.227  1.00  0.00     0.074 A 
ATOM     53  C   UNL A   1      43.846  26.796  31.488  1.00  0.00     0.031 C 
ATOM     54  C   UNL A   1      38.766  29.690  27.818  1.00  0.00     0.029 A 
ATOM     55  C   UNL A   1      38.828  30.073  29.228  1.00  0.00     0.049 A 
ATOM     56  H   UNL A   1      40.269  29.510  30.623  1.00  0.00     0.167 HD
ATOM     57  C   UNL A   1      43.210  28.043  33.529  1.00  0.00     0.037 A 
ATOM     58  C   UNL A   1      37.955  30.876  29.869  1.00  0.00     0.037 A 
ATOM     59  C   UNL A   1      42.399  28.981  34.256  1.00  0.00     0.049 A 
ATOM     60  C   UNL A   1      38.159  31.166  31.336  1.00  0.00     0.074 A 
ATOM     61  C   UNL A   1      42.543  29.407  35.564  1.00  0.00     0.029 A 
ATOM     62  N   UNL A   1      41.288  29.629  33.742  1.00  0.00    -0.354 N 
ATOM     63  N   UNL A   1      39.113  30.759  32.138  1.00  0.00    -0.248 NA
ATOM     64  C   UNL A   1      37.164  32.033  31.987  1.00  0.00     0.031 C 
ATOM     65  C   UNL A   1      41.479  30.261  35.865  1.00  0.00     0.029 A 
ATOM     66  C   UNL A   1      40.713  30.423  34.721  1.00  0.00     0.049 A 
ATOM     67  H   UNL A   1      40.956  29.538  32.820  1.00  0.00     0.167 HD
ATOM     68  C   UNL A   1      38.854  31.348  33.372  1.00  0.00     0.074 A 
ATOM     69  C   UNL A   1      37.664  32.154  33.208  1.00  0.00     0.031 C 
ATOM     70  C   UNL A   1      39.539  31.235  34.537  1.00  0.00     0.037 A 
BRANCH  57  71
ATOM     71  C   UNL A   1      44.314  27.349  34.270  1.00  0.00     0.057 A 
ATOM     72  C   UNL A   1      45.560  27.948  34.486  1.00  0.00     0.134 A 
ATOM     73  C   UNL A   1      44.093  26.089  34.843  1.00  0.00     0.134 A 
ATOM     74  F   UNL A   1      45.841  29.146  33.951  1.00  0.00    -0.206 F 
ATOM     75  C   UNL A   1      46.551  27.316  35.240  1.00  0.00     0.040 A 
ATOM     76  C   UNL A   1      45.065  25.459  35.620  1.00  0.00     0.040 A 
ATOM     77  F   UNL A   1      42.919  25.461  34.675  1.00  0.00    -0.206 F 
ATOM     78  C   UNL A   1      46.300  26.073  35.819  1.00  0.00     0.006 A 
ENDBRANCH  57  71
BRANCH  58  79
ATOM     79  C   UNL A   1      36.777  31.438  29.155  1.00  0.00     0.057 A 
ATOM     80  C   UNL A   1      35.676  30.639  28.822  1.00  0.00     0.134 A 
ATOM     81  C   UNL A   1      36.757  32.769  28.722  1.00  0.00     0.134 A 
ATOM     82  F   UNL A   1      35.642  29.350  29.186  1.00  0.00    -0.206 F 
ATOM     83  C   UNL A   1      34.619  31.132  28.053  1.00  0.00     0.040 A 
ATOM     84  C   UNL A   1      35.693  33.284  27.981  1.00  0.00     0.040 A 
ATOM     85  F   UNL A   1      37.778  33.591  29.011  1.00  0.00    -0.206 F 
ATOM     86  C   UNL A   1      34.626  32.460  27.631  1.00  0.00     0.006 A 
ENDBRANCH  58  79
BRANCH  70  87
ATOM     87  C   UNL A   1      39.054  32.038  35.710  1.00  0.00     0.057 A 
ATOM     88  C   UNL A   1      38.209  31.497  36.687  1.00  0.00     0.134 A 
ATOM     89  C   UNL A   1      39.480  33.362  35.887  1.00  0.00     0.134 A 
ATOM     90  F   UNL A   1      37.757  30.239  36.574  1.00  0.00    -0.206 F 
ATOM     91  C   UNL A   1      37.782  32.252  37.782  1.00  0.00     0.040 A 
ATOM     92  C   UNL A   1      39.087  34.116  36.994  1.00  0.00     0.040 A 
ATOM     93  F   UNL A   1      40.301  33.939  34.997  1.00  0.00    -0.206 F 
ATOM     94  C   UNL A   1      38.229  33.562  37.942  1.00  0.00     0.006 A 
ENDBRANCH  70  87
ENDBRANCH  44  45
ENDBRANCH  37  39
ENDBRANCH  36  37
ENDBRANCH  35  36
ENDBRANCH  34  35
ENDBRANCH  33  34
ENDBRANCH  32  33
ENDBRANCH  31  32
ENDBRANCH  30  31
ENDBRANCH   1  30
TORSDOF 24
ENDMDL
MODEL 2
REMARK VINA RESULT:     -10.5      1.225      2.235
REMARK SMILES COc1ccc(C(=O)OCCOCCOCCOCCOC(=O)c2ccc(-c3c4nc(c(-c5c(F)cccc5F)c5ccc([nH]5)c(-c5c(F)cccc5F)c5nc(c(-c6c(F)cccc6F)c6ccc3[nH]6)C=C5)C=C4)cc2)cc1NC(=O)c1ccccc1[N+](=O)[O-]
REMARK SMILES IDX 14 1 13 2 12 3 11 4 10 5 9 6 7 7 8 8 6 9 3 10 4 11 79 12
REMARK SMILES IDX 5 13 78 14 2 15 1 16 80 17 81 18 82 20 83 21 84 22 88 23
REMARK SMILES IDX 85 24 87 25 86 26 89 27 90 28 91 29 15 30 16 31 17 32 18 33
REMARK SMILES IDX 19 34 20 35 21 36 22 37 23 38 24 39 25 40 77 41 26 42 76 43
REMARK SMILES IDX 27 44 28 45 29 46 70 47 30 48 75 49 69 50 71 51 31 52 74 53
REMARK SMILES IDX 68 54 67 55 32 57 58 58 41 59 57 60 42 61 45 62 56 63 72 64
REMARK SMILES IDX 43 65 44 66 55 68 73 69 46 70 33 71 34 72 39 73 35 74 36 75
REMARK SMILES IDX 38 76 40 77 37 78 59 79 60 80 65 81 61 82 62 83 64 84 66 85
REMARK SMILES IDX 63 86 47 87 48 88 53 89 49 90 50 91 52 92 54 93 51 94
REMARK H PARENT 80 19 71 56 45 67
REMARK Flexibility Score: inf
ROOT
ATOM      1  C   UNL A   1      36.359  22.517  24.001  1.00  0.00     0.188 C 
ENDROOT
BRANCH   1   2
ATOM      2  C   UNL A   1      36.148  23.594  25.085  1.00  0.00     0.188 C 
BRANCH   2   3
ATOM      3  O   UNL A   1      34.981  23.611  25.892  1.00  0.00    -0.376 OA
BRANCH   3   4
ATOM      4  C   UNL A   1      34.638  22.574  26.797  1.00  0.00     0.202 C 
BRANCH   4   5
ATOM      5  C   UNL A   1      33.764  21.360  26.444  1.00  0.00     0.261 C 
BRANCH   5   6
ATOM      6  O   UNL A   1      32.408  21.619  26.107  1.00  0.00    -0.460 OA
BRANCH   6   7
ATOM      7  C   UNL A   1      32.142  21.823  24.798  1.00  0.00     0.338 C 
ATOM      8  O   UNL A   1      32.392  21.065  23.877  1.00  0.00    -0.246 OA
BRANCH   7   9
ATOM      9  C   UNL A   1      31.376  23.091  24.658  1.00  0.00     0.062 A 
ATOM     10  C   UNL A   1      30.116  25.543  24.358  1.00  0.00     0.142 A 
ATOM     11  C   UNL A   1      30.178  24.657  23.277  1.00  0.00     0.049 A 
ATOM     12  C   UNL A   1      30.649  25.203  25.611  1.00  0.00     0.084 A 
ATOM     13  C   UNL A   1      30.864  23.450  23.412  1.00  0.00     0.019 A 
ATOM     14  C   UNL A   1      31.154  23.922  25.765  1.00  0.00     0.045 A 
BRANCH  10  15
ATOM     15  O   UNL A   1      29.485  26.746  24.163  1.00  0.00    -0.495 OA
ATOM     16  C   UNL A   1      28.078  26.568  23.973  1.00  0.00     0.278 C 
ENDBRANCH  10  15
BRANCH  12  17
ATOM     17  N   UNL A   1      30.721  26.197  26.608  1.00  0.00    -0.319 N 
ATOM     18  C   UNL A   1      31.361  27.413  26.702  1.00  0.00     0.262 C 
ATOM     19  H   UNL A   1      30.199  25.973  27.412  1.00  0.00     0.170 HD
ATOM     20  O   UNL A   1      31.152  28.134  27.678  1.00  0.00    -0.269 OA
BRANCH  18  21
ATOM     21  C   UNL A   1      32.382  27.869  25.741  1.00  0.00     0.117 A 
ATOM     22  C   UNL A   1      33.448  26.972  25.552  1.00  0.00     0.021 A 
ATOM     23  C   UNL A   1      32.345  29.047  24.985  1.00  0.00     0.282 A 
ATOM     24  C   UNL A   1      34.398  27.196  24.554  1.00  0.00     0.001 A 
ATOM     25  C   UNL A   1      33.282  29.254  23.954  1.00  0.00     0.086 A 
ATOM     26  C   UNL A   1      34.296  28.317  23.734  1.00  0.00     0.007 A 
BRANCH  23  27
ATOM     27  N   UNL A   1      31.291  30.041  25.164  1.00  0.00     0.063 N 
ATOM     28  O   UNL A   1      30.308  29.965  24.414  1.00  0.00    -0.258 OA
ATOM     29  O   UNL A   1      31.438  30.895  26.046  1.00  0.00    -0.258 OA
ENDBRANCH  23  27
ENDBRANCH  18  21
ENDBRANCH  12  17
ENDBRANCH   7   9
ENDBRANCH   6   7
ENDBRANCH   5   6
ENDBRANCH   4   5
ENDBRANCH   3   4
ENDBRANCH   2   3
ENDBRANCH   1   2
BRANCH   1  30
ATOM     30  O   UNL A   1      37.425  21.624  24.277  1.00  0.00    -0.377 OA
BRANCH  30  31
ATOM     31  C   UNL A   1      38.083  21.814  25.527  1.00  0.00     0.188 C 
BRANCH  31  32
ATOM     32  C   UNL A   1      39.335  20.962  25.833  1.00  0.00     0.188 C 
BRANCH  32  33
ATOM     33  O   UNL A   1      40.499  21.727  26.117  1.00  0.00    -0.376 OA
BRANCH  33  34
ATOM     34  C   UNL A   1      41.736  21.062  26.313  1.00  0.00     0.202 C 
BRANCH  34  35
ATOM     35  C   UNL A   1      42.961  21.652  25.600  1.00  0.00     0.261 C 
BRANCH  35  36
ATOM     36  O   UNL A   1      42.728  22.848  24.842  1.00  0.00    -0.460 OA
BRANCH  36  37
ATOM     37  C   UNL A   1      43.613  23.855  24.986  1.00  0.00     0.338 C 
ATOM     38  O   UNL A   1      44.672  23.998  24.395  1.00  0.00    -0.246 OA
BRANCH  37  39
ATOM     39  C   UNL A   1      42.996  24.878  25.852  1.00  0.00     0.060 A 
ATOM     40  C   UNL A   1      43.668  26.090  26.055  1.00  0.00     0.016 A 
ATOM     41  C   UNL A   1      41.763  24.638  26.464  1.00  0.00     0.016 A 
ATOM     42  C   UNL A   1      43.128  27.051  26.908  1.00  0.00     0.010 A 
ATOM     43  C   UNL A   1      41.235  25.594  27.335  1.00  0.00     0.010 A 
ATOM     44  C   UNL A   1      41.933  26.788  27.589  1.00  0.00    -0.014 A 
BRANCH  44  45
ATOM     45  C   UNL A   1      41.521  27.661  28.713  1.00  0.00     0.031 A 
ATOM     46  C   UNL A   1      42.277  27.557  30.011  1.00  0.00     0.074 A 
ATOM     47  C   UNL A   1      40.507  28.536  28.585  1.00  0.00     0.049 A 
ATOM     48  N   UNL A   1      42.061  28.164  31.149  1.00  0.00    -0.248 NA
ATOM     49  C   UNL A   1      43.428  26.638  30.027  1.00  0.00     0.031 C 
ATOM     50  C   UNL A   1      39.725  28.757  27.370  1.00  0.00     0.029 A 
ATOM     51  N   UNL A   1      39.951  29.393  29.504  1.00  0.00    -0.354 N 
ATOM     52  C   UNL A   1      43.035  27.687  32.019  1.00  0.00     0.074 A 
ATOM     53  C   UNL A   1      43.832  26.730  31.286  1.00  0.00     0.031 C 
ATOM     54  C   UNL A   1      38.775  29.675  27.625  1.00  0.00     0.029 A 
ATOM     55  C   UNL A   1      38.860  30.078  29.029  1.00  0.00     0.049 A 
ATOM     56  H   UNL A   1      40.303  29.505  30.417  1.00  0.00     0.167 HD
ATOM     57  C   UNL A   1      43.244  28.020  33.314  1.00  0.00     0.037 A 
ATOM     58  C   UNL A   1      38.010  30.909  29.666  1.00  0.00     0.037 A 
ATOM     59  C   UNL A   1      42.461  28.986  34.035  1.00  0.00     0.049 A 
ATOM     60  C   UNL A   1      38.236  31.216  31.126  1.00  0.00     0.074 A 
ATOM     61  C   UNL A   1      42.628  29.428  35.335  1.00  0.00     0.029 A 
ATOM     62  N   UNL A   1      41.358  29.650  33.523  1.00  0.00    -0.354 N 
ATOM     63  N   UNL A   1      39.190  30.801  31.925  1.00  0.00    -0.248 NA
ATOM     64  C   UNL A   1      37.267  32.113  31.774  1.00  0.00     0.031 C 
ATOM     65  C   UNL A   1      41.585  30.309  35.634  1.00  0.00     0.029 A 
ATOM     66  C   UNL A   1      40.810  30.470  34.496  1.00  0.00     0.049 A 
ATOM     67  H   UNL A   1      41.014  29.552  32.606  1.00  0.00     0.167 HD
ATOM     68  C   UNL A   1      38.957  31.414  33.152  1.00  0.00     0.074 A 
ATOM     69  C   UNL A   1      37.782  32.242  32.988  1.00  0.00     0.031 C 
ATOM     70  C   UNL A   1      39.651  31.304  34.312  1.00  0.00     0.037 A 
BRANCH  57  71
ATOM     71  C   UNL A   1      44.341  27.315  34.054  1.00  0.00     0.057 A 
ATOM     72  C   UNL A   1      45.633  27.844  34.158  1.00  0.00     0.134 A 
ATOM     73  C   UNL A   1      44.074  26.120  34.738  1.00  0.00     0.134 A 
ATOM     74  F   UNL A   1      45.958  28.975  33.514  1.00  0.00    -0.206 F 
ATOM     75  C   UNL A   1      46.622  27.208  34.912  1.00  0.00     0.040 A 
ATOM     76  C   UNL A   1      45.045  25.490  35.515  1.00  0.00     0.040 A 
ATOM     77  F   UNL A   1      42.855  25.561  34.680  1.00  0.00    -0.206 F 
ATOM     78  C   UNL A   1      46.325  26.033  35.603  1.00  0.00     0.006 A 
ENDBRANCH  57  71
BRANCH  58  79
ATOM     79  C   UNL A   1      36.837  31.484  28.956  1.00  0.00     0.057 A 
ATOM     80  C   UNL A   1      36.822  32.819  28.535  1.00  0.00     0.134 A 
ATOM     81  C   UNL A   1      35.675  30.732  28.745  1.00  0.00     0.134 A 
ATOM     82  F   UNL A   1      37.894  33.601  28.726  1.00  0.00    -0.206 F 
ATOM     83  C   UNL A   1      35.682  33.396  27.969  1.00  0.00     0.040 A 
ATOM     84  C   UNL A   1      34.540  31.286  28.152  1.00  0.00     0.040 A 
ATOM     85  F   UNL A   1      35.623  29.445  29.120  1.00  0.00    -0.206 F 
ATOM     86  C   UNL A   1      34.536  32.626  27.775  1.00  0.00     0.006 A 
ENDBRANCH  58  79
BRANCH  70  87
ATOM     87  C   UNL A   1      39.196  32.134  35.477  1.00  0.00     0.057 A 
ATOM     88  C   UNL A   1      39.567  33.477  35.626  1.00  0.00     0.134 A 
ATOM     89  C   UNL A   1      38.335  31.591  36.441  1.00  0.00     0.134 A 
ATOM     90  F   UNL A   1      40.396  34.056  34.745  1.00  0.00    -0.206 F 
ATOM     91  C   UNL A   1      39.119  34.242  36.706  1.00  0.00     0.040 A 
ATOM     92  C   UNL A   1      37.855  32.354  37.506  1.00  0.00     0.040 A 
ATOM     93  F   UNL A   1      37.929  30.316  36.352  1.00  0.00    -0.206 F 
ATOM     94  C   UNL A   1      38.254  33.682  37.645  1.00  0.00     0.006 A 
ENDBRANCH  70  87
ENDBRANCH  44  45
ENDBRANCH  37  39
ENDBRANCH  36  37
ENDBRANCH  35  36
ENDBRANCH  34  35
ENDBRANCH  33  34
ENDBRANCH  32  33
ENDBRANCH  31  32
ENDBRANCH  30  31
ENDBRANCH   1  30
TORSDOF 24
ENDMDL
MODEL 3
REMARK VINA RESULT:      -9.3      4.598      6.946
REMARK SMILES COc1ccc(C(=O)OCCOCCOCCOCCOC(=O)c2ccc(-c3c4nc(c(-c5c(F)cccc5F)c5ccc([nH]5)c(-c5c(F)cccc5F)c5nc(c(-c6c(F)cccc6F)c6ccc3[nH]6)C=C5)C=C4)cc2)cc1NC(=O)c1ccccc1[N+](=O)[O-]
REMARK SMILES IDX 14 1 13 2 12 3 11 4 10 5 9 6 7 7 8 8 6 9 3 10 4 11 79 12
REMARK SMILES IDX 5 13 78 14 2 15 1 16 80 17 81 18 82 20 83 21 84 22 88 23
REMARK SMILES IDX 85 24 87 25 86 26 89 27 90 28 91 29 15 30 16 31 17 32 18 33
REMARK SMILES IDX 19 34 20 35 21 36 22 37 23 38 24 39 25 40 77 41 26 42 76 43
REMARK SMILES IDX 27 44 28 45 29 46 70 47 30 48 75 49 69 50 71 51 31 52 74 53
REMARK SMILES IDX 68 54 67 55 32 57 58 58 41 59 57 60 42 61 45 62 56 63 72 64
REMARK SMILES IDX 43 65 44 66 55 68 73 69 46 70 33 71 34 72 39 73 35 74 36 75
REMARK SMILES IDX 38 76 40 77 37 78 59 79 60 80 65 81 61 82 62 83 64 84 66 85
REMARK SMILES IDX 63 86 47 87 48 88 53 89 49 90 50 91 52 92 54 93 51 94
REMARK H PARENT 80 19 71 56 45 67
REMARK Flexibility Score: inf
ROOT
ATOM      1  C   UNL A   1      36.819  21.811  24.774  1.00  0.00     0.188 C 
ENDROOT
BRANCH   1   2
ATOM      2  C   UNL A   1      35.734  20.783  25.154  1.00  0.00     0.188 C 
BRANCH   2   3
ATOM      3  O   UNL A   1      34.561  20.622  24.371  1.00  0.00    -0.376 OA
BRANCH   3   4
ATOM      4  C   UNL A   1      33.461  21.517  24.414  1.00  0.00     0.202 C 
BRANCH   4   5
ATOM      5  C   UNL A   1      32.271  21.393  25.378  1.00  0.00     0.261 C 
BRANCH   5   6
ATOM      6  O   UNL A   1      32.409  22.003  26.655  1.00  0.00    -0.460 OA
BRANCH   6   7
ATOM      7  C   UNL A   1      33.106  23.160  26.696  1.00  0.00     0.338 C 
ATOM      8  O   UNL A   1      34.284  23.291  26.977  1.00  0.00    -0.246 OA
BRANCH   7   9
ATOM      9  C   UNL A   1      32.227  24.264  26.221  1.00  0.00     0.062 A 
ATOM     10  C   UNL A   1      30.580  26.229  25.166  1.00  0.00     0.142 A 
ATOM     11  C   UNL A   1      30.023  25.174  25.897  1.00  0.00     0.049 A 
ATOM     12  C   UNL A   1      31.968  26.336  24.983  1.00  0.00     0.084 A 
ATOM     13  C   UNL A   1      30.846  24.156  26.376  1.00  0.00     0.019 A 
ATOM     14  C   UNL A   1      32.772  25.413  25.632  1.00  0.00     0.045 A 
BRANCH  10  15
ATOM     15  O   UNL A   1      29.727  27.177  24.661  1.00  0.00    -0.495 OA
ATOM     16  C   UNL A   1      28.702  26.581  23.861  1.00  0.00     0.278 C 
ENDBRANCH  10  15
BRANCH  12  17
ATOM     17  N   UNL A   1      32.459  27.310  24.091  1.00  0.00    -0.319 N 
ATOM     18  C   UNL A   1      33.172  28.478  24.247  1.00  0.00     0.262 C 
ATOM     19  H   UNL A   1      32.245  27.112  23.150  1.00  0.00     0.170 HD
ATOM     20  O   UNL A   1      33.563  29.088  23.251  1.00  0.00    -0.269 OA
BRANCH  18  21
ATOM     21  C   UNL A   1      33.412  29.113  25.556  1.00  0.00     0.117 A 
ATOM     22  C   UNL A   1      34.558  28.653  26.227  1.00  0.00     0.021 A 
ATOM     23  C   UNL A   1      32.656  30.141  26.133  1.00  0.00     0.282 A 
ATOM     24  C   UNL A   1      34.999  29.277  27.394  1.00  0.00     0.001 A 
ATOM     25  C   UNL A   1      33.121  30.795  27.290  1.00  0.00     0.086 A 
ATOM     26  C   UNL A   1      34.300  30.368  27.907  1.00  0.00     0.007 A 
BRANCH  23  27
ATOM     27  N   UNL A   1      31.431  30.634  25.511  1.00  0.00     0.063 N 
ATOM     28  O   UNL A   1      31.062  31.777  25.815  1.00  0.00    -0.258 OA
ATOM     29  O   UNL A   1      30.835  29.890  24.723  1.00  0.00    -0.258 OA
ENDBRANCH  23  27
ENDBRANCH  18  21
ENDBRANCH  12  17
ENDBRANCH   7   9
ENDBRANCH   6   7
ENDBRANCH   5   6
ENDBRANCH   4   5
ENDBRANCH   3   4
ENDBRANCH   2   3
ENDBRANCH   1   2
BRANCH   1  30
ATOM     30  O   UNL A   1      38.136  21.408  25.110  1.00  0.00    -0.377 OA
BRANCH  30  31
ATOM     31  C   UNL A   1      38.366  20.002  25.133  1.00  0.00     0.188 C 
BRANCH  31  32
ATOM     32  C   UNL A   1      39.692  19.486  25.735  1.00  0.00     0.188 C 
BRANCH  32  33
ATOM     33  O   UNL A   1      40.481  20.499  26.346  1.00  0.00    -0.376 OA
BRANCH  33  34
ATOM     34  C   UNL A   1      41.825  20.213  26.698  1.00  0.00     0.202 C 
BRANCH  34  35
ATOM     35  C   UNL A   1      42.526  19.097  25.909  1.00  0.00     0.261 C 
BRANCH  35  36
ATOM     36  O   UNL A   1      43.074  19.478  24.639  1.00  0.00    -0.460 OA
BRANCH  36  37
ATOM     37  C   UNL A   1      44.416  19.567  24.545  1.00  0.00     0.338 C 
ATOM     38  O   UNL A   1      45.186  18.711  24.141  1.00  0.00    -0.246 OA
BRANCH  37  39
ATOM     39  C   UNL A   1      44.796  20.962  24.836  1.00  0.00     0.060 A 
ATOM     40  C   UNL A   1      45.372  21.263  26.077  1.00  0.00     0.016 A 
ATOM     41  C   UNL A   1      44.581  21.968  23.890  1.00  0.00     0.016 A 
ATOM     42  C   UNL A   1      45.694  22.582  26.393  1.00  0.00     0.010 A 
ATOM     43  C   UNL A   1      44.884  23.292  24.218  1.00  0.00     0.010 A 
ATOM     44  C   UNL A   1      45.407  23.608  25.484  1.00  0.00    -0.014 A 
BRANCH  44  45
ATOM     45  C   UNL A   1      45.461  25.021  25.930  1.00  0.00     0.031 A 
ATOM     46  C   UNL A   1      46.791  25.725  25.902  1.00  0.00     0.074 A 
ATOM     47  C   UNL A   1      44.356  25.670  26.339  1.00  0.00     0.049 A 
ATOM     48  N   UNL A   1      47.101  26.931  26.303  1.00  0.00    -0.248 NA
ATOM     49  C   UNL A   1      47.926  24.963  25.353  1.00  0.00     0.031 C 
ATOM     50  C   UNL A   1      43.007  25.109  26.374  1.00  0.00     0.029 A 
ATOM     51  N   UNL A   1      44.203  26.947  26.821  1.00  0.00    -0.354 N 
ATOM     52  C   UNL A   1      48.466  27.064  26.073  1.00  0.00     0.074 A 
ATOM     53  C   UNL A   1      48.929  25.814  25.514  1.00  0.00     0.031 C 
ATOM     54  C   UNL A   1      42.165  26.032  26.874  1.00  0.00     0.029 A 
ATOM     55  C   UNL A   1      42.922  27.233  27.226  1.00  0.00     0.049 A 
ATOM     56  H   UNL A   1      44.942  27.595  26.871  1.00  0.00     0.167 HD
ATOM     57  C   UNL A   1      49.259  28.135  26.308  1.00  0.00     0.037 A 
ATOM     58  C   UNL A   1      42.429  28.328  27.840  1.00  0.00     0.037 A 
ATOM     59  C   UNL A   1      48.792  29.383  26.847  1.00  0.00     0.049 A 
ATOM     60  C   UNL A   1      43.352  29.483  28.141  1.00  0.00     0.074 A 
ATOM     61  C   UNL A   1      49.511  30.543  27.073  1.00  0.00     0.029 A 
ATOM     62  N   UNL A   1      47.491  29.630  27.255  1.00  0.00    -0.354 N 
ATOM     63  N   UNL A   1      44.628  29.619  27.871  1.00  0.00    -0.248 NA
ATOM     64  C   UNL A   1      42.763  30.642  28.828  1.00  0.00     0.031 C 
ATOM     65  C   UNL A   1      48.662  31.471  27.682  1.00  0.00     0.029 A 
ATOM     66  C   UNL A   1      47.396  30.912  27.768  1.00  0.00     0.049 A 
ATOM     67  H   UNL A   1      46.747  28.989  27.190  1.00  0.00     0.167 HD
ATOM     68  C   UNL A   1      44.982  30.887  28.322  1.00  0.00     0.074 A 
ATOM     69  C   UNL A   1      43.783  31.487  28.865  1.00  0.00     0.031 C 
ATOM     70  C   UNL A   1      46.190  31.503  28.288  1.00  0.00     0.037 A 
BRANCH  57  71
ATOM     71  C   UNL A   1      50.725  28.002  26.017  1.00  0.00     0.057 A 
ATOM     72  C   UNL A   1      51.660  27.703  27.014  1.00  0.00     0.134 A 
ATOM     73  C   UNL A   1      51.193  28.101  24.699  1.00  0.00     0.134 A 
ATOM     74  F   UNL A   1      51.280  27.611  28.298  1.00  0.00    -0.206 F 
ATOM     75  C   UNL A   1      53.011  27.513  26.713  1.00  0.00     0.040 A 
ATOM     76  C   UNL A   1      52.534  27.886  24.382  1.00  0.00     0.040 A 
ATOM     77  F   UNL A   1      50.348  28.384  23.696  1.00  0.00    -0.206 F 
ATOM     78  C   UNL A   1      53.448  27.593  25.392  1.00  0.00     0.006 A 
ENDBRANCH  57  71
BRANCH  58  79
ATOM     79  C   UNL A   1      41.003  28.384  28.257  1.00  0.00     0.057 A 
ATOM     80  C   UNL A   1      40.016  28.914  27.417  1.00  0.00     0.134 A 
ATOM     81  C   UNL A   1      40.603  27.976  29.536  1.00  0.00     0.134 A 
ATOM     82  F   UNL A   1      40.335  29.343  26.188  1.00  0.00    -0.206 F 
ATOM     83  C   UNL A   1      38.696  29.073  27.846  1.00  0.00     0.040 A 
ATOM     84  C   UNL A   1      39.282  28.099  29.967  1.00  0.00     0.040 A 
ATOM     85  F   UNL A   1      41.497  27.454  30.391  1.00  0.00    -0.206 F 
ATOM     86  C   UNL A   1      38.327  28.663  29.125  1.00  0.00     0.006 A 
ENDBRANCH  58  79
BRANCH  70  87
ATOM     87  C   UNL A   1      46.268  32.912  28.803  1.00  0.00     0.057 A 
ATOM     88  C   UNL A   1      46.090  34.022  27.968  1.00  0.00     0.134 A 
ATOM     89  C   UNL A   1      46.478  33.157  30.167  1.00  0.00     0.134 A 
ATOM     90  F   UNL A   1      45.894  33.858  26.650  1.00  0.00    -0.206 F 
ATOM     91  C   UNL A   1      46.146  35.326  28.465  1.00  0.00     0.040 A 
ATOM     92  C   UNL A   1      46.504  34.454  30.681  1.00  0.00     0.040 A 
ATOM     93  F   UNL A   1      46.642  32.140  31.025  1.00  0.00    -0.206 F 
ATOM     94  C   UNL A   1      46.345  35.543  29.828  1.00  0.00     0.006 A 
ENDBRANCH  70  87
ENDBRANCH  44  45
ENDBRANCH  37  39
ENDBRANCH  36  37
ENDBRANCH  35  36
ENDBRANCH  34  35
ENDBRANCH  33  34
ENDBRANCH  32  33
ENDBRANCH  31  32
ENDBRANCH  30  31
ENDBRANCH   1  30
TORSDOF 24
ENDMDL
