MODEL 1
REMARK VINA RESULT:     -10.9      0.000      0.000
REMARK SMILES O=C(NCc1ccc(C(=O)OCCOCCOCCOCCOC(=O)c2ccc(-c3c4nc(c(-c5c(F)cccc5F)c5ccc([nH]5)c(-c5c(F)cccc5F)c5nc(c(-c6c(F)cccc6F)c6ccc3[nH]6)C=C5)C=C4)cc2)cc1)Nc1ccccc1Br
REMARK SMILES IDX 16 1 15 2 14 3 13 4 12 5 11 6 9 7 10 8 8 9 5 10 6 11 81 12
REMARK SMILES IDX 7 13 80 14 4 15 3 16 1 17 2 18 82 19 83 22 84 23 88 24 85 25
REMARK SMILES IDX 87 26 89 27 86 28 17 29 18 30 19 31 20 32 21 33 22 34 23 35
REMARK SMILES IDX 24 36 25 37 26 38 27 39 79 40 28 41 78 42 29 43 30 44 31 45
REMARK SMILES IDX 72 46 32 47 77 48 71 49 73 50 33 51 76 52 70 53 69 54 34 56
REMARK SMILES IDX 60 57 43 58 59 59 44 60 47 61 58 62 74 63 45 64 46 65 57 67
REMARK SMILES IDX 75 68 48 69 35 70 36 71 41 72 37 73 38 74 40 75 42 76 39 77
REMARK SMILES IDX 61 78 62 79 67 80 63 81 64 82 66 83 68 84 65 85 49 86 50 87
REMARK SMILES IDX 55 88 51 89 52 90 54 91 56 92 53 93
REMARK H PARENT 3 20 82 21 73 55 47 66
REMARK Flexibility Score: inf
ROOT
ATOM      1  C   UNL A   1      33.298  36.058  29.544  1.00  0.00     0.188 C 
ENDROOT
BRANCH   1   2
ATOM      2  C   UNL A   1      33.201  34.895  28.533  1.00  0.00     0.188 C 
BRANCH   2   3
ATOM      3  O   UNL A   1      34.416  34.617  27.858  1.00  0.00    -0.376 OA
BRANCH   3   4
ATOM      4  C   UNL A   1      35.014  33.345  28.022  1.00  0.00     0.202 C 
BRANCH   4   5
ATOM      5  C   UNL A   1      34.096  32.126  28.204  1.00  0.00     0.261 C 
BRANCH   5   6
ATOM      6  O   UNL A   1      34.071  31.193  27.118  1.00  0.00    -0.460 OA
BRANCH   6   7
ATOM      7  C   UNL A   1      34.622  29.983  27.354  1.00  0.00     0.338 C 
ATOM      8  O   UNL A   1      35.679  29.767  27.922  1.00  0.00    -0.246 OA
BRANCH   7   9
ATOM      9  C   UNL A   1      33.635  28.935  26.998  1.00  0.00     0.060 A 
ATOM     10  C   UNL A   1      31.819  26.943  26.229  1.00  0.00    -0.029 A 
ATOM     11  C   UNL A   1      33.090  27.009  25.639  1.00  0.00     0.006 A 
ATOM     12  C   UNL A   1      31.486  27.850  27.247  1.00  0.00     0.006 A 
ATOM     13  C   UNL A   1      33.989  28.005  26.015  1.00  0.00     0.016 A 
ATOM     14  C   UNL A   1      32.395  28.837  27.640  1.00  0.00     0.016 A 
BRANCH  10  15
ATOM     15  C   UNL A   1      30.798  25.977  25.684  1.00  0.00     0.153 C 
BRANCH  15  16
ATOM     16  N   UNL A   1      30.658  24.863  26.599  1.00  0.00    -0.334 N 
ATOM     17  O   UNL A   1      30.846  22.808  27.417  1.00  0.00    -0.248 OA
ATOM     18  C   UNL A   1      31.241  23.634  26.602  1.00  0.00     0.319 C 
ATOM     19  N   UNL A   1      32.274  23.457  25.726  1.00  0.00    -0.307 N 
ATOM     20  H   UNL A   1      30.037  25.021  27.346  1.00  0.00     0.165 HD
ATOM     21  H   UNL A   1      32.612  24.257  25.263  1.00  0.00     0.171 HD
BRANCH  19  22
ATOM     22  C   UNL A   1      32.900  22.223  25.424  1.00  0.00     0.057 A 
ATOM     23  C   UNL A   1      32.028  21.157  25.145  1.00  0.00     0.027 A 
ATOM     24  C   UNL A   1      34.285  21.977  25.415  1.00  0.00     0.041 A 
ATOM     25  C   UNL A   1      32.517  19.898  24.788  1.00  0.00     0.002 A 
ATOM     26  C   UNL A   1      34.768  20.711  25.047  1.00  0.00     0.018 A 
ATOM     27  Br  UNL A   1      35.589  23.185  26.096  1.00  0.00    -0.049 Br
ATOM     28  C   UNL A   1      33.888  19.679  24.724  1.00  0.00     0.001 A 
ENDBRANCH  19  22
ENDBRANCH  15  16
ENDBRANCH  10  15
ENDBRANCH   7   9
ENDBRANCH   6   7
ENDBRANCH   5   6
ENDBRANCH   4   5
ENDBRANCH   3   4
ENDBRANCH   2   3
ENDBRANCH   1   2
BRANCH   1  29
ATOM     29  O   UNL A   1      32.889  35.846  30.889  1.00  0.00    -0.377 OA
BRANCH  29  30
ATOM     30  C   UNL A   1      33.183  36.821  31.886  1.00  0.00     0.188 C 
BRANCH  30  31
ATOM     31  C   UNL A   1      33.765  36.429  33.267  1.00  0.00     0.188 C 
BRANCH  31  32
ATOM     32  O   UNL A   1      35.151  36.138  33.257  1.00  0.00    -0.376 OA
BRANCH  32  33
ATOM     33  C   UNL A   1      35.558  34.847  32.849  1.00  0.00     0.202 C 
BRANCH  33  34
ATOM     34  C   UNL A   1      35.323  33.692  33.829  1.00  0.00     0.261 C 
BRANCH  34  35
ATOM     35  O   UNL A   1      35.930  32.436  33.494  1.00  0.00    -0.460 OA
BRANCH  35  36
ATOM     36  C   UNL A   1      35.729  31.958  32.249  1.00  0.00     0.338 C 
ATOM     37  O   UNL A   1      34.678  31.904  31.633  1.00  0.00    -0.246 OA
BRANCH  36  38
ATOM     38  C   UNL A   1      37.058  31.652  31.685  1.00  0.00     0.060 A 
ATOM     39  C   UNL A   1      37.311  31.885  30.325  1.00  0.00     0.016 A 
ATOM     40  C   UNL A   1      38.060  31.152  32.519  1.00  0.00     0.016 A 
ATOM     41  C   UNL A   1      38.565  31.585  29.788  1.00  0.00     0.010 A 
ATOM     42  C   UNL A   1      39.304  30.831  31.978  1.00  0.00     0.010 A 
ATOM     43  C   UNL A   1      39.550  31.014  30.604  1.00  0.00    -0.014 A 
BRANCH  43  44
ATOM     44  C   UNL A   1      40.751  30.382  30.012  1.00  0.00     0.031 A 
ATOM     45  C   UNL A   1      41.945  31.259  29.758  1.00  0.00     0.074 A 
ATOM     46  C   UNL A   1      40.772  29.084  29.665  1.00  0.00     0.049 A 
ATOM     47  N   UNL A   1      43.045  31.001  29.101  1.00  0.00    -0.248 NA
ATOM     48  C   UNL A   1      41.878  32.622  30.312  1.00  0.00     0.031 C 
ATOM     49  C   UNL A   1      39.699  28.123  29.904  1.00  0.00     0.029 A 
ATOM     50  N   UNL A   1      41.736  28.360  29.007  1.00  0.00    -0.354 N 
ATOM     51  C   UNL A   1      43.789  32.173  29.145  1.00  0.00     0.074 A 
ATOM     52  C   UNL A   1      43.006  33.151  29.868  1.00  0.00     0.031 C 
ATOM     53  C   UNL A   1      40.052  26.938  29.375  1.00  0.00     0.029 A 
ATOM     54  C   UNL A   1      41.354  27.073  28.723  1.00  0.00     0.049 A 
ATOM     55  H   UNL A   1      42.616  28.729  28.764  1.00  0.00     0.167 HD
ATOM     56  C   UNL A   1      45.016  32.413  28.628  1.00  0.00     0.037 A 
ATOM     57  C   UNL A   1      41.973  26.127  27.986  1.00  0.00     0.037 A 
ATOM     58  C   UNL A   1      45.785  31.437  27.904  1.00  0.00     0.049 A 
ATOM     59  C   UNL A   1      43.303  26.442  27.349  1.00  0.00     0.074 A 
ATOM     60  C   UNL A   1      47.044  31.573  27.347  1.00  0.00     0.029 A 
ATOM     61  N   UNL A   1      45.361  30.145  27.629  1.00  0.00    -0.354 N 
ATOM     62  N   UNL A   1      44.008  27.547  27.401  1.00  0.00    -0.248 NA
ATOM     63  C   UNL A   1      43.924  25.376  26.548  1.00  0.00     0.031 C 
ATOM     64  C   UNL A   1      47.357  30.382  26.685  1.00  0.00     0.029 A 
ATOM     65  C   UNL A   1      46.324  29.481  26.890  1.00  0.00     0.049 A 
ATOM     66  H   UNL A   1      44.502  29.759  27.917  1.00  0.00     0.167 HD
ATOM     67  C   UNL A   1      45.172  27.295  26.681  1.00  0.00     0.074 A 
ATOM     68  C   UNL A   1      45.077  25.932  26.201  1.00  0.00     0.031 C 
ATOM     69  C   UNL A   1      46.225  28.115  26.443  1.00  0.00     0.037 A 
BRANCH  56  70
ATOM     70  C   UNL A   1      45.580  33.793  28.795  1.00  0.00     0.057 A 
ATOM     71  C   UNL A   1      46.331  34.160  29.920  1.00  0.00     0.134 A 
ATOM     72  C   UNL A   1      45.384  34.766  27.806  1.00  0.00     0.134 A 
ATOM     73  F   UNL A   1      46.541  33.282  30.913  1.00  0.00    -0.206 F 
ATOM     74  C   UNL A   1      46.845  35.449  30.068  1.00  0.00     0.040 A 
ATOM     75  C   UNL A   1      45.919  36.049  27.927  1.00  0.00     0.040 A 
ATOM     76  F   UNL A   1      44.676  34.483  26.702  1.00  0.00    -0.206 F 
ATOM     77  C   UNL A   1      46.645  36.395  29.064  1.00  0.00     0.006 A 
ENDBRANCH  56  70
BRANCH  57  78
ATOM     78  C   UNL A   1      41.338  24.798  27.788  1.00  0.00     0.057 A 
ATOM     79  C   UNL A   1      41.785  23.672  28.487  1.00  0.00     0.134 A 
ATOM     80  C   UNL A   1      40.293  24.615  26.873  1.00  0.00     0.134 A 
ATOM     81  F   UNL A   1      42.799  23.775  29.358  1.00  0.00    -0.206 F 
ATOM     82  C   UNL A   1      41.233  22.407  28.270  1.00  0.00     0.040 A 
ATOM     83  C   UNL A   1      39.711  23.362  26.667  1.00  0.00     0.040 A 
ATOM     84  F   UNL A   1      39.818  25.653  26.169  1.00  0.00    -0.206 F 
ATOM     85  C   UNL A   1      40.189  22.251  27.361  1.00  0.00     0.006 A 
ENDBRANCH  57  78
BRANCH  69  86
ATOM     86  C   UNL A   1      47.397  27.547  25.694  1.00  0.00     0.057 A 
ATOM     87  C   UNL A   1      48.427  26.847  26.332  1.00  0.00     0.134 A 
ATOM     88  C   UNL A   1      47.457  27.650  24.297  1.00  0.00     0.134 A 
ATOM     89  F   UNL A   1      48.437  26.720  27.668  1.00  0.00    -0.206 F 
ATOM     90  C   UNL A   1      49.484  26.287  25.612  1.00  0.00     0.040 A 
ATOM     91  C   UNL A   1      48.491  27.067  23.563  1.00  0.00     0.040 A 
ATOM     92  F   UNL A   1      46.496  28.297  23.619  1.00  0.00    -0.206 F 
ATOM     93  C   UNL A   1      49.512  26.387  24.222  1.00  0.00     0.006 A 
ENDBRANCH  69  86
ENDBRANCH  43  44
ENDBRANCH  36  38
ENDBRANCH  35  36
ENDBRANCH  34  35
ENDBRANCH  33  34
ENDBRANCH  32  33
ENDBRANCH  31  32
ENDBRANCH  30  31
ENDBRANCH  29  30
ENDBRANCH   1  29
TORSDOF 23
ENDMDL
MODEL 2
REMARK VINA RESULT:     -10.0      2.835      9.230
REMARK SMILES O=C(NCc1ccc(C(=O)OCCOCCOCCOCCOC(=O)c2ccc(-c3c4nc(c(-c5c(F)cccc5F)c5ccc([nH]5)c(-c5c(F)cccc5F)c5nc(c(-c6c(F)cccc6F)c6ccc3[nH]6)C=C5)C=C4)cc2)cc1)Nc1ccccc1Br
REMARK SMILES IDX 16 1 15 2 14 3 13 4 12 5 11 6 9 7 10 8 8 9 5 10 6 11 81 12
REMARK SMILES IDX 7 13 80 14 4 15 3 16 1 17 2 18 82 19 83 22 84 23 88 24 85 25
REMARK SMILES IDX 87 26 89 27 86 28 17 29 18 30 19 31 20 32 21 33 22 34 23 35
REMARK SMILES IDX 24 36 25 37 26 38 27 39 79 40 28 41 78 42 29 43 30 44 31 45
REMARK SMILES IDX 72 46 32 47 77 48 71 49 73 50 33 51 76 52 70 53 69 54 34 56
REMARK SMILES IDX 60 57 43 58 59 59 44 60 47 61 58 62 74 63 45 64 46 65 57 67
REMARK SMILES IDX 75 68 48 69 35 70 36 71 41 72 37 73 38 74 40 75 42 76 39 77
REMARK SMILES IDX 61 78 62 79 67 80 63 81 64 82 66 83 68 84 65 85 49 86 50 87
REMARK SMILES IDX 55 88 51 89 52 90 54 91 56 92 53 93
REMARK H PARENT 3 20 82 21 73 55 47 66
REMARK Flexibility Score: inf
ROOT
ATOM      1  C   UNL A   1      32.960  25.284  25.939  1.00  0.00     0.188 C 
ENDROOT
BRANCH   1   2
ATOM      2  C   UNL A   1      31.464  25.265  26.324  1.00  0.00     0.188 C 
BRANCH   2   3
ATOM      3  O   UNL A   1      30.593  25.013  25.234  1.00  0.00    -0.376 OA
BRANCH   3   4
ATOM      4  C   UNL A   1      29.556  25.935  24.960  1.00  0.00     0.202 C 
BRANCH   4   5
ATOM      5  C   UNL A   1      29.703  26.856  23.739  1.00  0.00     0.261 C 
BRANCH   5   6
ATOM      6  O   UNL A   1      30.920  27.608  23.664  1.00  0.00    -0.460 OA
BRANCH   6   7
ATOM      7  C   UNL A   1      30.811  28.944  23.838  1.00  0.00     0.338 C 
ATOM      8  O   UNL A   1      29.958  29.669  23.355  1.00  0.00    -0.246 OA
BRANCH   7   9
ATOM      9  C   UNL A   1      31.774  29.366  24.883  1.00  0.00     0.060 A 
ATOM     10  C   UNL A   1      33.647  30.069  26.846  1.00  0.00    -0.029 A 
ATOM     11  C   UNL A   1      33.969  29.117  25.869  1.00  0.00     0.006 A 
ATOM     12  C   UNL A   1      32.396  30.707  26.799  1.00  0.00     0.006 A 
ATOM     13  C   UNL A   1      33.035  28.761  24.898  1.00  0.00     0.016 A 
ATOM     14  C   UNL A   1      31.466  30.365  25.813  1.00  0.00     0.016 A 
BRANCH  10  15
ATOM     15  C   UNL A   1      34.598  30.309  27.991  1.00  0.00     0.153 C 
BRANCH  15  16
ATOM     16  N   UNL A   1      35.411  31.472  27.701  1.00  0.00    -0.334 N 
ATOM     17  O   UNL A   1      36.039  33.599  27.607  1.00  0.00    -0.248 OA
ATOM     18  C   UNL A   1      35.297  32.764  28.112  1.00  0.00     0.319 C 
ATOM     19  N   UNL A   1      34.396  32.999  29.111  1.00  0.00    -0.307 N 
ATOM     20  H   UNL A   1      36.177  31.299  27.107  1.00  0.00     0.165 HD
ATOM     21  H   UNL A   1      34.003  32.214  29.555  1.00  0.00     0.171 HD
BRANCH  19  22
ATOM     22  C   UNL A   1      33.978  34.274  29.565  1.00  0.00     0.057 A 
ATOM     23  C   UNL A   1      33.743  35.224  28.556  1.00  0.00     0.027 A 
ATOM     24  C   UNL A   1      33.815  34.665  30.905  1.00  0.00     0.041 A 
ATOM     25  C   UNL A   1      33.282  36.506  28.864  1.00  0.00     0.002 A 
ATOM     26  C   UNL A   1      33.344  35.953  31.207  1.00  0.00     0.018 A 
ATOM     27  Br  UNL A   1      34.412  33.642  32.396  1.00  0.00    -0.049 Br
ATOM     28  C   UNL A   1      33.068  36.866  30.190  1.00  0.00     0.001 A 
ENDBRANCH  19  22
ENDBRANCH  15  16
ENDBRANCH  10  15
ENDBRANCH   7   9
ENDBRANCH   6   7
ENDBRANCH   5   6
ENDBRANCH   4   5
ENDBRANCH   3   4
ENDBRANCH   2   3
ENDBRANCH   1   2
BRANCH   1  29
ATOM     29  O   UNL A   1      33.760  24.139  26.200  1.00  0.00    -0.377 OA
BRANCH  29  30
ATOM     30  C   UNL A   1      33.287  22.842  25.847  1.00  0.00     0.188 C 
BRANCH  30  31
ATOM     31  C   UNL A   1      33.736  21.572  26.611  1.00  0.00     0.188 C 
BRANCH  31  32
ATOM     32  O   UNL A   1      34.576  20.708  25.869  1.00  0.00    -0.376 OA
BRANCH  32  33
ATOM     33  C   UNL A   1      35.126  21.190  24.658  1.00  0.00     0.202 C 
BRANCH  33  34
ATOM     34  C   UNL A   1      36.651  21.319  24.579  1.00  0.00     0.261 C 
BRANCH  34  35
ATOM     35  O   UNL A   1      37.324  21.694  25.789  1.00  0.00    -0.460 OA
BRANCH  35  36
ATOM     36  C   UNL A   1      38.633  21.387  25.898  1.00  0.00     0.338 C 
ATOM     37  O   UNL A   1      39.204  20.402  25.461  1.00  0.00    -0.246 OA
BRANCH  36  38
ATOM     38  C   UNL A   1      39.301  22.552  26.511  1.00  0.00     0.060 A 
ATOM     39  C   UNL A   1      38.800  23.843  26.285  1.00  0.00     0.016 A 
ATOM     40  C   UNL A   1      40.414  22.353  27.329  1.00  0.00     0.016 A 
ATOM     41  C   UNL A   1      39.439  24.946  26.856  1.00  0.00     0.010 A 
ATOM     42  C   UNL A   1      41.064  23.457  27.879  1.00  0.00     0.010 A 
ATOM     43  C   UNL A   1      40.600  24.759  27.616  1.00  0.00    -0.014 A 
BRANCH  43  44
ATOM     44  C   UNL A   1      41.479  25.903  27.949  1.00  0.00     0.031 A 
ATOM     45  C   UNL A   1      40.894  27.013  28.776  1.00  0.00     0.074 A 
ATOM     46  C   UNL A   1      42.742  25.982  27.497  1.00  0.00     0.049 A 
ATOM     47  N   UNL A   1      41.385  28.191  29.060  1.00  0.00    -0.248 NA
ATOM     48  C   UNL A   1      39.560  26.761  29.349  1.00  0.00     0.031 C 
ATOM     49  C   UNL A   1      43.436  24.952  26.730  1.00  0.00     0.029 A 
ATOM     50  N   UNL A   1      43.656  27.002  27.601  1.00  0.00    -0.354 N 
ATOM     51  C   UNL A   1      40.414  28.825  29.824  1.00  0.00     0.074 A 
ATOM     52  C   UNL A   1      39.296  27.915  29.938  1.00  0.00     0.031 C 
ATOM     53  C   UNL A   1      44.662  25.403  26.409  1.00  0.00     0.029 A 
ATOM     54  C   UNL A   1      44.818  26.768  26.909  1.00  0.00     0.049 A 
ATOM     55  H   UNL A   1      43.494  27.821  28.123  1.00  0.00     0.167 HD
ATOM     56  C   UNL A   1      40.452  30.058  30.382  1.00  0.00     0.037 A 
ATOM     57  C   UNL A   1      45.867  27.583  26.675  1.00  0.00     0.037 A 
ATOM     58  C   UNL A   1      41.566  30.959  30.258  1.00  0.00     0.049 A 
ATOM     59  C   UNL A   1      45.854  28.983  27.236  1.00  0.00     0.074 A 
ATOM     60  C   UNL A   1      41.712  32.226  30.792  1.00  0.00     0.029 A 
ATOM     61  N   UNL A   1      42.722  30.689  29.541  1.00  0.00    -0.354 N 
ATOM     62  N   UNL A   1      44.939  29.576  27.967  1.00  0.00    -0.248 NA
ATOM     63  C   UNL A   1      47.020  29.829  26.939  1.00  0.00     0.031 C 
ATOM     64  C   UNL A   1      42.931  32.746  30.350  1.00  0.00     0.029 A 
ATOM     65  C   UNL A   1      43.577  31.776  29.600  1.00  0.00     0.049 A 
ATOM     66  H   UNL A   1      42.907  29.849  29.061  1.00  0.00     0.167 HD
ATOM     67  C   UNL A   1      45.438  30.843  28.253  1.00  0.00     0.074 A 
ATOM     68  C   UNL A   1      46.736  30.933  27.617  1.00  0.00     0.031 C 
ATOM     69  C   UNL A   1      44.876  31.839  28.981  1.00  0.00     0.037 A 
BRANCH  56  70
ATOM     70  C   UNL A   1      39.240  30.512  31.140  1.00  0.00     0.057 A 
ATOM     71  C   UNL A   1      38.160  31.145  30.509  1.00  0.00     0.134 A 
ATOM     72  C   UNL A   1      39.143  30.296  32.520  1.00  0.00     0.134 A 
ATOM     73  F   UNL A   1      38.196  31.399  29.192  1.00  0.00    -0.206 F 
ATOM     74  C   UNL A   1      37.040  31.569  31.227  1.00  0.00     0.040 A 
ATOM     75  C   UNL A   1      38.015  30.687  33.244  1.00  0.00     0.040 A 
ATOM     76  F   UNL A   1      40.139  29.695  33.188  1.00  0.00    -0.206 F 
ATOM     77  C   UNL A   1      36.964  31.332  32.598  1.00  0.00     0.006 A 
ENDBRANCH  56  70
BRANCH  57  78
ATOM     78  C   UNL A   1      47.013  27.111  25.855  1.00  0.00     0.057 A 
ATOM     79  C   UNL A   1      48.055  26.372  26.424  1.00  0.00     0.134 A 
ATOM     80  C   UNL A   1      47.111  27.415  24.491  1.00  0.00     0.134 A 
ATOM     81  F   UNL A   1      48.033  26.070  27.731  1.00  0.00    -0.206 F 
ATOM     82  C   UNL A   1      49.163  25.970  25.676  1.00  0.00     0.040 A 
ATOM     83  C   UNL A   1      48.199  26.994  23.723  1.00  0.00     0.040 A 
ATOM     84  F   UNL A   1      46.147  28.121  23.882  1.00  0.00    -0.206 F 
ATOM     85  C   UNL A   1      49.234  26.276  24.319  1.00  0.00     0.006 A 
ENDBRANCH  57  78
BRANCH  69  86
ATOM     86  C   UNL A   1      45.684  33.087  29.198  1.00  0.00     0.057 A 
ATOM     87  C   UNL A   1      46.592  33.218  30.256  1.00  0.00     0.134 A 
ATOM     88  C   UNL A   1      45.596  34.150  28.288  1.00  0.00     0.134 A 
ATOM     89  F   UNL A   1      46.719  32.243  31.168  1.00  0.00    -0.206 F 
ATOM     90  C   UNL A   1      47.367  34.369  30.413  1.00  0.00     0.040 A 
ATOM     91  C   UNL A   1      46.388  35.292  28.416  1.00  0.00     0.040 A 
ATOM     92  F   UNL A   1      44.755  34.085  27.244  1.00  0.00    -0.206 F 
ATOM     93  C   UNL A   1      47.274  35.406  29.485  1.00  0.00     0.006 A 
ENDBRANCH  69  86
ENDBRANCH  43  44
ENDBRANCH  36  38
ENDBRANCH  35  36
ENDBRANCH  34  35
ENDBRANCH  33  34
ENDBRANCH  32  33
ENDBRANCH  31  32
ENDBRANCH  30  31
ENDBRANCH  29  30
ENDBRANCH   1  29
TORSDOF 23
ENDMDL
MODEL 3
REMARK VINA RESULT:     -10.0      5.291     10.928
REMARK SMILES O=C(NCc1ccc(C(=O)OCCOCCOCCOCCOC(=O)c2ccc(-c3c4nc(c(-c5c(F)cccc5F)c5ccc([nH]5)c(-c5c(F)cccc5F)c5nc(c(-c6c(F)cccc6F)c6ccc3[nH]6)C=C5)C=C4)cc2)cc1)Nc1ccccc1Br
REMARK SMILES IDX 16 1 15 2 14 3 13 4 12 5 11 6 9 7 10 8 8 9 5 10 6 11 81 12
REMARK SMILES IDX 7 13 80 14 4 15 3 16 1 17 2 18 82 19 83 22 84 23 88 24 85 25
REMARK SMILES IDX 87 26 89 27 86 28 17 29 18 30 19 31 20 32 21 33 22 34 23 35
REMARK SMILES IDX 24 36 25 37 26 38 27 39 79 40 28 41 78 42 29 43 30 44 31 45
REMARK SMILES IDX 72 46 32 47 77 48 71 49 73 50 33 51 76 52 70 53 69 54 34 56
REMARK SMILES IDX 60 57 43 58 59 59 44 60 47 61 58 62 74 63 45 64 46 65 57 67
REMARK SMILES IDX 75 68 48 69 35 70 36 71 41 72 37 73 38 74 40 75 42 76 39 77
REMARK SMILES IDX 61 78 62 79 67 80 63 81 64 82 66 83 68 84 65 85 49 86 50 87
REMARK SMILES IDX 55 88 51 89 52 90 54 91 56 92 53 93
REMARK H PARENT 3 20 82 21 73 55 47 66
REMARK Flexibility Score: inf
ROOT
ATOM      1  C   UNL A   1      41.212  19.960  27.134  1.00  0.00     0.188 C 
ENDROOT
BRANCH   1   2
ATOM      2  C   UNL A   1      40.507  21.322  26.956  1.00  0.00     0.188 C 
BRANCH   2   3
ATOM      3  O   UNL A   1      39.793  21.446  25.737  1.00  0.00    -0.376 OA
BRANCH   3   4
ATOM      4  C   UNL A   1      38.454  21.899  25.772  1.00  0.00     0.202 C 
BRANCH   4   5
ATOM      5  C   UNL A   1      37.377  21.045  25.083  1.00  0.00     0.261 C 
BRANCH   5   6
ATOM      6  O   UNL A   1      36.190  21.738  24.682  1.00  0.00    -0.460 OA
BRANCH   6   7
ATOM      7  C   UNL A   1      35.131  21.645  25.515  1.00  0.00     0.338 C 
ATOM      8  O   UNL A   1      35.126  21.147  26.627  1.00  0.00    -0.246 OA
BRANCH   7   9
ATOM      9  C   UNL A   1      34.012  22.436  24.948  1.00  0.00     0.060 A 
ATOM     10  C   UNL A   1      31.908  24.002  23.958  1.00  0.00    -0.029 A 
ATOM     11  C   UNL A   1      32.898  24.576  24.769  1.00  0.00     0.006 A 
ATOM     12  C   UNL A   1      32.012  22.648  23.601  1.00  0.00     0.006 A 
ATOM     13  C   UNL A   1      33.939  23.795  25.269  1.00  0.00     0.016 A 
ATOM     14  C   UNL A   1      33.067  21.868  24.085  1.00  0.00     0.016 A 
BRANCH  10  15
ATOM     15  C   UNL A   1      30.697  24.816  23.577  1.00  0.00     0.153 C 
BRANCH  15  16
ATOM     16  N   UNL A   1      31.064  25.763  22.545  1.00  0.00    -0.334 N 
ATOM     17  O   UNL A   1      31.076  27.632  21.347  1.00  0.00    -0.248 OA
ATOM     18  C   UNL A   1      30.757  27.079  22.394  1.00  0.00     0.319 C 
ATOM     19  N   UNL A   1      30.171  27.687  23.468  1.00  0.00    -0.307 N 
ATOM     20  H   UNL A   1      31.632  25.392  21.831  1.00  0.00     0.165 HD
ATOM     21  H   UNL A   1      30.142  27.178  24.310  1.00  0.00     0.171 HD
BRANCH  19  22
ATOM     22  C   UNL A   1      29.602  28.983  23.476  1.00  0.00     0.057 A 
ATOM     23  C   UNL A   1      28.518  29.171  22.601  1.00  0.00     0.027 A 
ATOM     24  C   UNL A   1      30.040  30.077  24.243  1.00  0.00     0.041 A 
ATOM     25  C   UNL A   1      27.837  30.389  22.544  1.00  0.00     0.002 A 
ATOM     26  C   UNL A   1      29.345  31.295  24.188  1.00  0.00     0.018 A 
ATOM     27  Br  UNL A   1      31.680  30.113  25.209  1.00  0.00    -0.049 Br
ATOM     28  C   UNL A   1      28.241  31.447  23.350  1.00  0.00     0.001 A 
ENDBRANCH  19  22
ENDBRANCH  15  16
ENDBRANCH  10  15
ENDBRANCH   7   9
ENDBRANCH   6   7
ENDBRANCH   5   6
ENDBRANCH   4   5
ENDBRANCH   3   4
ENDBRANCH   2   3
ENDBRANCH   1   2
BRANCH   1  29
ATOM     29  O   UNL A   1      41.849  19.355  26.018  1.00  0.00    -0.377 OA
BRANCH  29  30
ATOM     30  C   UNL A   1      42.982  19.977  25.418  1.00  0.00     0.188 C 
BRANCH  30  31
ATOM     31  C   UNL A   1      44.352  19.261  25.318  1.00  0.00     0.188 C 
BRANCH  31  32
ATOM     32  O   UNL A   1      45.463  20.077  25.640  1.00  0.00    -0.376 OA
BRANCH  32  33
ATOM     33  C   UNL A   1      45.812  21.113  24.743  1.00  0.00     0.202 C 
BRANCH  33  34
ATOM     34  C   UNL A   1      45.816  22.545  25.290  1.00  0.00     0.261 C 
BRANCH  34  35
ATOM     35  O   UNL A   1      44.647  22.956  26.013  1.00  0.00    -0.460 OA
BRANCH  35  36
ATOM     36  C   UNL A   1      43.636  23.505  25.307  1.00  0.00     0.338 C 
ATOM     37  O   UNL A   1      43.180  23.122  24.242  1.00  0.00    -0.246 OA
BRANCH  36  38
ATOM     38  C   UNL A   1      43.058  24.575  26.141  1.00  0.00     0.060 A 
ATOM     39  C   UNL A   1      43.560  25.882  26.049  1.00  0.00     0.016 A 
ATOM     40  C   UNL A   1      41.998  24.280  27.000  1.00  0.00     0.016 A 
ATOM     41  C   UNL A   1      43.020  26.894  26.846  1.00  0.00     0.010 A 
ATOM     42  C   UNL A   1      41.476  25.285  27.812  1.00  0.00     0.010 A 
ATOM     43  C   UNL A   1      42.008  26.587  27.763  1.00  0.00    -0.014 A 
BRANCH  43  44
ATOM     44  C   UNL A   1      41.651  27.536  28.842  1.00  0.00     0.031 A 
ATOM     45  C   UNL A   1      42.429  27.456  30.126  1.00  0.00     0.074 A 
ATOM     46  C   UNL A   1      40.640  28.412  28.711  1.00  0.00     0.049 A 
ATOM     47  N   UNL A   1      42.211  28.044  31.273  1.00  0.00    -0.248 NA
ATOM     48  C   UNL A   1      43.609  26.575  30.114  1.00  0.00     0.031 C 
ATOM     49  C   UNL A   1      39.846  28.619  27.504  1.00  0.00     0.029 A 
ATOM     50  N   UNL A   1      40.095  29.276  29.629  1.00  0.00    -0.354 N 
ATOM     51  C   UNL A   1      43.211  27.588  32.121  1.00  0.00     0.074 A 
ATOM     52  C   UNL A   1      44.021  26.656  31.369  1.00  0.00     0.031 C 
ATOM     53  C   UNL A   1      38.895  29.534  27.763  1.00  0.00     0.029 A 
ATOM     54  C   UNL A   1      38.987  29.940  29.164  1.00  0.00     0.049 A 
ATOM     55  H   UNL A   1      40.463  29.408  30.533  1.00  0.00     0.167 HD
ATOM     56  C   UNL A   1      43.435  27.918  33.415  1.00  0.00     0.037 A 
ATOM     57  C   UNL A   1      38.127  30.751  29.812  1.00  0.00     0.037 A 
ATOM     58  C   UNL A   1      42.621  28.842  34.158  1.00  0.00     0.049 A 
ATOM     59  C   UNL A   1      38.347  31.042  31.276  1.00  0.00     0.074 A 
ATOM     60  C   UNL A   1      42.767  29.255  35.470  1.00  0.00     0.029 A 
ATOM     61  N   UNL A   1      41.502  29.488  33.655  1.00  0.00    -0.354 N 
ATOM     62  N   UNL A   1      39.300  30.619  32.073  1.00  0.00    -0.248 NA
ATOM     63  C   UNL A   1      37.370  31.925  31.932  1.00  0.00     0.031 C 
ATOM     64  C   UNL A   1      41.702  30.106  35.778  1.00  0.00     0.029 A 
ATOM     65  C   UNL A   1      40.934  30.280  34.638  1.00  0.00     0.049 A 
ATOM     66  H   UNL A   1      41.163  29.397  32.735  1.00  0.00     0.167 HD
ATOM     67  C   UNL A   1      39.063  31.216  33.307  1.00  0.00     0.074 A 
ATOM     68  C   UNL A   1      37.876  32.032  33.153  1.00  0.00     0.031 C 
ATOM     69  C   UNL A   1      39.767  31.105  34.460  1.00  0.00     0.037 A 
BRANCH  56  70
ATOM     70  C   UNL A   1      44.581  27.247  34.112  1.00  0.00     0.057 A 
ATOM     71  C   UNL A   1      45.854  27.831  34.186  1.00  0.00     0.134 A 
ATOM     72  C   UNL A   1      44.405  26.005  34.735  1.00  0.00     0.134 A 
ATOM     73  F   UNL A   1      46.096  29.011  33.595  1.00  0.00    -0.206 F 
ATOM     74  C   UNL A   1      46.914  27.193  34.832  1.00  0.00     0.040 A 
ATOM     75  C   UNL A   1      45.449  25.372  35.411  1.00  0.00     0.040 A 
ATOM     76  F   UNL A   1      43.213  25.390  34.704  1.00  0.00    -0.206 F 
ATOM     77  C   UNL A   1      46.710  25.963  35.454  1.00  0.00     0.006 A 
ENDBRANCH  56  70
BRANCH  57  78
ATOM     78  C   UNL A   1      36.963  31.334  29.096  1.00  0.00     0.057 A 
ATOM     79  C   UNL A   1      35.832  30.563  28.804  1.00  0.00     0.134 A 
ATOM     80  C   UNL A   1      36.964  32.665  28.657  1.00  0.00     0.134 A 
ATOM     81  F   UNL A   1      35.780  29.274  29.173  1.00  0.00    -0.206 F 
ATOM     82  C   UNL A   1      34.755  31.083  28.084  1.00  0.00     0.040 A 
ATOM     83  C   UNL A   1      35.881  33.208  27.962  1.00  0.00     0.040 A 
ATOM     84  F   UNL A   1      38.016  33.459  28.903  1.00  0.00    -0.206 F 
ATOM     85  C   UNL A   1      34.776  32.412  27.665  1.00  0.00     0.006 A 
ENDBRANCH  57  78
BRANCH  69  86
ATOM     86  C   UNL A   1      39.325  31.937  35.631  1.00  0.00     0.057 A 
ATOM     87  C   UNL A   1      38.414  31.466  36.584  1.00  0.00     0.134 A 
ATOM     88  C   UNL A   1      39.878  33.209  35.840  1.00  0.00     0.134 A 
ATOM     89  F   UNL A   1      37.840  30.262  36.439  1.00  0.00    -0.206 F 
ATOM     90  C   UNL A   1      38.052  32.238  37.690  1.00  0.00     0.040 A 
ATOM     91  C   UNL A   1      39.548  33.976  36.958  1.00  0.00     0.040 A 
ATOM     92  F   UNL A   1      40.767  33.716  34.972  1.00  0.00    -0.206 F 
ATOM     93  C   UNL A   1      38.628  33.492  37.885  1.00  0.00     0.006 A 
ENDBRANCH  69  86
ENDBRANCH  43  44
ENDBRANCH  36  38
ENDBRANCH  35  36
ENDBRANCH  34  35
ENDBRANCH  33  34
ENDBRANCH  32  33
ENDBRANCH  31  32
ENDBRANCH  30  31
ENDBRANCH  29  30
ENDBRANCH   1  29
TORSDOF 23
ENDMDL
