MODEL 1
REMARK VINA RESULT:      -7.4      0.000      0.000
REMARK SMILES O=C(Cn1ccc(C(=O)NCCC[NH+]2CCOCC2)n1)OCCOCCOCCOCCOC(=O)c1ccc(-c2c3nc(c(-c4c(F)cccc4F)c4ccc([nH]4)c(-c4c(F)cccc4F)c4nc(c(-c5c(F)cccc5F)c5ccc2[nH]5)C=C4)C=C3)cc1
REMARK SMILES IDX 25 1 24 2 23 3 22 4 21 5 2 6 1 7 3 8 4 9 5 10 20 11 6 12
REMARK SMILES IDX 7 13 8 14 9 15 10 16 11 18 12 19 13 20 14 21 15 22 19 23
REMARK SMILES IDX 16 25 18 26 17 27 26 28 27 29 28 30 29 31 30 32 31 33 32 34
REMARK SMILES IDX 33 35 34 36 35 37 36 38 37 39 89 40 38 41 88 42 39 43 40 44
REMARK SMILES IDX 41 45 82 46 42 47 87 48 81 49 83 50 43 51 86 52 80 53 79 54
REMARK SMILES IDX 44 56 70 57 53 58 69 59 54 60 57 61 68 62 84 63 55 64 56 65
REMARK SMILES IDX 67 67 85 68 58 69 45 70 46 71 51 72 47 73 48 74 50 75 52 76
REMARK SMILES IDX 49 77 71 78 72 79 77 80 73 81 74 82 76 83 78 84 75 85 59 86
REMARK SMILES IDX 60 87 65 88 61 89 62 90 64 91 66 92 63 93
REMARK H PARENT 10 17 14 24 83 55 57 66
REMARK Flexibility Score: inf
ROOT
ATOM      1  C   UNL A   1      41.128  29.126  31.327  1.00  0.00     0.188 C 
ENDROOT
BRANCH   1   2
ATOM      2  O   UNL A   1      39.978  28.311  31.266  1.00  0.00    -0.376 OA
BRANCH   2   3
ATOM      3  C   UNL A   1      39.457  27.821  30.036  1.00  0.00     0.202 C 
BRANCH   3   4
ATOM      4  C   UNL A   1      38.546  28.692  29.161  1.00  0.00     0.261 C 
BRANCH   4   5
ATOM      5  O   UNL A   1      38.567  30.133  29.296  1.00  0.00    -0.462 OA
BRANCH   5   6
ATOM      6  C   UNL A   1      37.910  30.939  30.152  1.00  0.00     0.327 C 
ATOM      7  O   UNL A   1      38.215  32.132  30.194  1.00  0.00    -0.250 OA
BRANCH   6   8
ATOM      8  C   UNL A   1      36.854  30.398  31.059  1.00  0.00     0.266 C 
BRANCH   8   9
ATOM      9  N   UNL A   1      36.947  30.987  32.372  1.00  0.00    -0.261 N 
ATOM     10  C   UNL A   1      37.927  30.741  33.279  1.00  0.00     0.110 A 
ATOM     11  N   UNL A   1      36.050  31.902  32.784  1.00  0.00    -0.167 NA
ATOM     12  C   UNL A   1      37.695  31.614  34.311  1.00  0.00     0.056 A 
ATOM     13  C   UNL A   1      36.521  32.350  33.962  1.00  0.00     0.150 A 
BRANCH  13  14
ATOM     14  C   UNL A   1      35.930  33.431  34.784  1.00  0.00     0.271 C 
ATOM     15  O   UNL A   1      36.471  33.772  35.840  1.00  0.00    -0.267 OA
ATOM     16  N   UNL A   1      34.790  34.126  34.432  1.00  0.00    -0.350 N 
ATOM     17  H   UNL A   1      34.473  34.752  35.123  1.00  0.00     0.163 HD
BRANCH  16  18
ATOM     18  C   UNL A   1      33.975  34.107  33.236  1.00  0.00     0.122 C 
BRANCH  18  19
ATOM     19  C   UNL A   1      34.095  35.372  32.391  1.00  0.00     0.083 C 
BRANCH  19  20
ATOM     20  C   UNL A   1      33.593  35.252  30.944  1.00  0.00     0.264 C 
BRANCH  20  21
ATOM     21  N   UNL A   1      34.587  35.162  29.858  1.00  0.00    -0.331 N 
ATOM     22  C   UNL A   1      33.931  35.367  28.537  1.00  0.00     0.291 C 
ATOM     23  C   UNL A   1      35.365  33.910  29.771  1.00  0.00     0.291 C 
ATOM     24  H   UNL A   1      35.252  35.897  30.096  1.00  0.00     0.348 HD
ATOM     25  C   UNL A   1      33.163  34.129  28.022  1.00  0.00     0.221 C 
ATOM     26  C   UNL A   1      34.565  32.702  29.265  1.00  0.00     0.221 C 
ATOM     27  O   UNL A   1      34.003  32.969  27.976  1.00  0.00    -0.370 OA
ENDBRANCH  20  21
ENDBRANCH  19  20
ENDBRANCH  18  19
ENDBRANCH  16  18
ENDBRANCH  13  14
ENDBRANCH   8   9
ENDBRANCH   6   8
ENDBRANCH   5   6
ENDBRANCH   4   5
ENDBRANCH   3   4
ENDBRANCH   2   3
ENDBRANCH   1   2
BRANCH   1  28
ATOM     28  C   UNL A   1      41.398  29.778  32.684  1.00  0.00     0.188 C 
BRANCH  28  29
ATOM     29  O   UNL A   1      42.108  29.085  33.690  1.00  0.00    -0.377 OA
BRANCH  29  30
ATOM     30  C   UNL A   1      41.900  27.706  33.901  1.00  0.00     0.188 C 
BRANCH  30  31
ATOM     31  C   UNL A   1      42.152  26.997  35.263  1.00  0.00     0.188 C 
BRANCH  31  32
ATOM     32  O   UNL A   1      42.533  25.654  35.518  1.00  0.00    -0.376 OA
BRANCH  32  33
ATOM     33  C   UNL A   1      43.325  24.802  34.708  1.00  0.00     0.202 C 
BRANCH  33  34
ATOM     34  C   UNL A   1      44.450  23.925  35.256  1.00  0.00     0.261 C 
BRANCH  34  35
ATOM     35  O   UNL A   1      45.687  24.244  34.673  1.00  0.00    -0.460 OA
BRANCH  35  36
ATOM     36  C   UNL A   1      46.378  25.132  35.402  1.00  0.00     0.338 C 
ATOM     37  O   UNL A   1      46.392  25.246  36.626  1.00  0.00    -0.246 OA
BRANCH  36  38
ATOM     38  C   UNL A   1      47.140  25.987  34.493  1.00  0.00     0.060 A 
ATOM     39  C   UNL A   1      46.687  27.303  34.434  1.00  0.00     0.016 A 
ATOM     40  C   UNL A   1      47.853  25.369  33.457  1.00  0.00     0.016 A 
ATOM     41  C   UNL A   1      46.487  27.803  33.184  1.00  0.00     0.010 A 
ATOM     42  C   UNL A   1      47.661  25.867  32.211  1.00  0.00     0.010 A 
ATOM     43  C   UNL A   1      46.836  26.981  32.112  1.00  0.00    -0.014 A 
BRANCH  43  44
ATOM     44  C   UNL A   1      46.256  27.271  30.835  1.00  0.00     0.031 A 
ATOM     45  C   UNL A   1      45.346  26.198  30.417  1.00  0.00     0.074 A 
ATOM     46  C   UNL A   1      46.514  28.449  30.239  1.00  0.00     0.049 A 
ATOM     47  N   UNL A   1      45.488  25.384  29.429  1.00  0.00    -0.248 NA
ATOM     48  C   UNL A   1      44.274  25.831  31.362  1.00  0.00     0.031 C 
ATOM     49  C   UNL A   1      47.232  29.616  30.774  1.00  0.00     0.029 A 
ATOM     50  N   UNL A   1      46.064  28.892  29.040  1.00  0.00    -0.354 N 
ATOM     51  C   UNL A   1      44.375  24.557  29.496  1.00  0.00     0.074 A 
ATOM     52  C   UNL A   1      43.820  24.708  30.812  1.00  0.00     0.031 C 
ATOM     53  C   UNL A   1      46.956  30.697  30.009  1.00  0.00     0.029 A 
ATOM     54  C   UNL A   1      46.157  30.271  28.878  1.00  0.00     0.049 A 
ATOM     55  H   UNL A   1      45.706  28.293  28.347  1.00  0.00     0.167 HD
ATOM     56  C   UNL A   1      43.802  24.088  28.360  1.00  0.00     0.037 A 
ATOM     57  C   UNL A   1      45.477  30.967  27.932  1.00  0.00     0.037 A 
ATOM     58  C   UNL A   1      44.733  24.101  27.261  1.00  0.00     0.049 A 
ATOM     59  C   UNL A   1      45.054  29.979  26.895  1.00  0.00     0.074 A 
ATOM     60  C   UNL A   1      45.956  23.499  27.031  1.00  0.00     0.029 A 
ATOM     61  N   UNL A   1      44.650  25.138  26.362  1.00  0.00    -0.354 N 
ATOM     62  N   UNL A   1      45.896  29.340  26.127  1.00  0.00    -0.248 NA
ATOM     63  C   UNL A   1      43.764  29.327  27.081  1.00  0.00     0.031 C 
ATOM     64  C   UNL A   1      46.730  24.478  26.342  1.00  0.00     0.029 A 
ATOM     65  C   UNL A   1      45.924  25.599  26.136  1.00  0.00     0.049 A 
ATOM     66  H   UNL A   1      43.825  25.488  25.954  1.00  0.00     0.167 HD
ATOM     67  C   UNL A   1      45.412  28.038  26.064  1.00  0.00     0.074 A 
ATOM     68  C   UNL A   1      44.065  28.106  26.631  1.00  0.00     0.031 C 
ATOM     69  C   UNL A   1      46.242  26.977  25.839  1.00  0.00     0.037 A 
BRANCH  56  70
ATOM     70  C   UNL A   1      42.309  24.037  28.182  1.00  0.00     0.057 A 
ATOM     71  C   UNL A   1      41.715  22.817  27.835  1.00  0.00     0.134 A 
ATOM     72  C   UNL A   1      41.474  25.171  28.064  1.00  0.00     0.134 A 
ATOM     73  F   UNL A   1      42.413  21.673  27.889  1.00  0.00    -0.206 F 
ATOM     74  C   UNL A   1      40.408  22.741  27.342  1.00  0.00     0.040 A 
ATOM     75  C   UNL A   1      40.152  25.099  27.629  1.00  0.00     0.040 A 
ATOM     76  F   UNL A   1      41.909  26.421  28.262  1.00  0.00    -0.206 F 
ATOM     77  C   UNL A   1      39.624  23.884  27.231  1.00  0.00     0.006 A 
ENDBRANCH  56  70
BRANCH  57  78
ATOM     78  C   UNL A   1      44.829  32.289  28.097  1.00  0.00     0.057 A 
ATOM     79  C   UNL A   1      44.925  33.273  27.106  1.00  0.00     0.134 A 
ATOM     80  C   UNL A   1      43.888  32.530  29.116  1.00  0.00     0.134 A 
ATOM     81  F   UNL A   1      45.757  33.111  26.067  1.00  0.00    -0.206 F 
ATOM     82  C   UNL A   1      44.127  34.427  27.122  1.00  0.00     0.040 A 
ATOM     83  C   UNL A   1      43.091  33.678  29.148  1.00  0.00     0.040 A 
ATOM     84  F   UNL A   1      43.646  31.619  30.069  1.00  0.00    -0.206 F 
ATOM     85  C   UNL A   1      43.201  34.628  28.142  1.00  0.00     0.006 A 
ENDBRANCH  57  78
BRANCH  69  86
ATOM     86  C   UNL A   1      47.676  27.275  25.484  1.00  0.00     0.057 A 
ATOM     87  C   UNL A   1      48.712  27.354  26.429  1.00  0.00     0.134 A 
ATOM     88  C   UNL A   1      48.050  27.306  24.138  1.00  0.00     0.134 A 
ATOM     89  F   UNL A   1      48.461  27.230  27.738  1.00  0.00    -0.206 F 
ATOM     90  C   UNL A   1      50.052  27.495  26.052  1.00  0.00     0.040 A 
ATOM     91  C   UNL A   1      49.387  27.415  23.747  1.00  0.00     0.040 A 
ATOM     92  F   UNL A   1      47.123  27.172  23.177  1.00  0.00    -0.206 F 
ATOM     93  C   UNL A   1      50.393  27.519  24.704  1.00  0.00     0.006 A 
ENDBRANCH  69  86
ENDBRANCH  43  44
ENDBRANCH  36  38
ENDBRANCH  35  36
ENDBRANCH  34  35
ENDBRANCH  33  34
ENDBRANCH  32  33
ENDBRANCH  31  32
ENDBRANCH  30  31
ENDBRANCH  29  30
ENDBRANCH  28  29
ENDBRANCH   1  28
TORSDOF 26
ENDMDL
MODEL 2
REMARK VINA RESULT:      -6.6      6.623     11.723
REMARK SMILES O=C(Cn1ccc(C(=O)NCCC[NH+]2CCOCC2)n1)OCCOCCOCCOCCOC(=O)c1ccc(-c2c3nc(c(-c4c(F)cccc4F)c4ccc([nH]4)c(-c4c(F)cccc4F)c4nc(c(-c5c(F)cccc5F)c5ccc2[nH]5)C=C4)C=C3)cc1
REMARK SMILES IDX 25 1 24 2 23 3 22 4 21 5 2 6 1 7 3 8 4 9 5 10 20 11 6 12
REMARK SMILES IDX 7 13 8 14 9 15 10 16 11 18 12 19 13 20 14 21 15 22 19 23
REMARK SMILES IDX 16 25 18 26 17 27 26 28 27 29 28 30 29 31 30 32 31 33 32 34
REMARK SMILES IDX 33 35 34 36 35 37 36 38 37 39 89 40 38 41 88 42 39 43 40 44
REMARK SMILES IDX 41 45 82 46 42 47 87 48 81 49 83 50 43 51 86 52 80 53 79 54
REMARK SMILES IDX 44 56 70 57 53 58 69 59 54 60 57 61 68 62 84 63 55 64 56 65
REMARK SMILES IDX 67 67 85 68 58 69 45 70 46 71 51 72 47 73 48 74 50 75 52 76
REMARK SMILES IDX 49 77 71 78 72 79 77 80 73 81 74 82 76 83 78 84 75 85 59 86
REMARK SMILES IDX 60 87 65 88 61 89 62 90 64 91 66 92 63 93
REMARK H PARENT 10 17 14 24 83 55 57 66
REMARK Flexibility Score: inf
ROOT
ATOM      1  C   UNL A   1      43.623  37.693  33.930  1.00  0.00     0.188 C 
ENDROOT
BRANCH   1   2
ATOM      2  O   UNL A   1      42.539  36.792  33.980  1.00  0.00    -0.376 OA
BRANCH   2   3
ATOM      3  C   UNL A   1      41.727  36.641  35.139  1.00  0.00     0.202 C 
BRANCH   3   4
ATOM      4  C   UNL A   1      40.922  35.358  35.378  1.00  0.00     0.261 C 
BRANCH   4   5
ATOM      5  O   UNL A   1      40.019  34.864  34.361  1.00  0.00    -0.462 OA
BRANCH   5   6
ATOM      6  C   UNL A   1      38.971  34.023  34.458  1.00  0.00     0.327 C 
ATOM      7  O   UNL A   1      39.122  32.954  35.052  1.00  0.00    -0.250 OA
BRANCH   6   8
ATOM      8  C   UNL A   1      37.658  34.359  33.831  1.00  0.00     0.266 C 
BRANCH   8   9
ATOM      9  N   UNL A   1      37.188  33.276  33.002  1.00  0.00    -0.261 N 
ATOM     10  C   UNL A   1      35.958  32.706  33.072  1.00  0.00     0.110 A 
ATOM     11  N   UNL A   1      37.962  32.770  32.023  1.00  0.00    -0.167 NA
ATOM     12  C   UNL A   1      35.903  31.830  32.017  1.00  0.00     0.056 A 
ATOM     13  C   UNL A   1      37.169  31.909  31.359  1.00  0.00     0.150 A 
BRANCH  13  14
ATOM     14  C   UNL A   1      37.532  31.151  30.140  1.00  0.00     0.271 C 
ATOM     15  O   UNL A   1      38.153  30.088  30.234  1.00  0.00    -0.267 OA
ATOM     16  N   UNL A   1      37.194  31.548  28.861  1.00  0.00    -0.350 N 
ATOM     17  H   UNL A   1      37.584  30.987  28.152  1.00  0.00     0.163 HD
BRANCH  16  18
ATOM     18  C   UNL A   1      36.375  32.636  28.369  1.00  0.00     0.122 C 
BRANCH  18  19
ATOM     19  C   UNL A   1      34.877  32.353  28.433  1.00  0.00     0.083 C 
BRANCH  19  20
ATOM     20  C   UNL A   1      34.003  33.523  28.909  1.00  0.00     0.264 C 
BRANCH  20  21
ATOM     21  N   UNL A   1      34.665  34.762  29.356  1.00  0.00    -0.331 N 
ATOM     22  C   UNL A   1      34.306  35.060  30.770  1.00  0.00     0.291 C 
ATOM     23  C   UNL A   1      34.395  35.982  28.569  1.00  0.00     0.291 C 
ATOM     24  H   UNL A   1      35.654  34.551  29.228  1.00  0.00     0.348 HD
ATOM     25  C   UNL A   1      32.900  35.677  30.941  1.00  0.00     0.221 C 
ATOM     26  C   UNL A   1      32.986  36.558  28.758  1.00  0.00     0.221 C 
ATOM     27  O   UNL A   1      32.738  36.852  30.136  1.00  0.00    -0.370 OA
ENDBRANCH  20  21
ENDBRANCH  19  20
ENDBRANCH  18  19
ENDBRANCH  16  18
ENDBRANCH  13  14
ENDBRANCH   8   9
ENDBRANCH   6   8
ENDBRANCH   5   6
ENDBRANCH   4   5
ENDBRANCH   3   4
ENDBRANCH   2   3
ENDBRANCH   1   2
BRANCH   1  28
ATOM     28  C   UNL A   1      43.242  39.169  33.795  1.00  0.00     0.188 C 
BRANCH  28  29
ATOM     29  O   UNL A   1      42.896  39.715  32.538  1.00  0.00    -0.377 OA
BRANCH  29  30
ATOM     30  C   UNL A   1      42.870  41.111  32.340  1.00  0.00     0.188 C 
BRANCH  30  31
ATOM     31  C   UNL A   1      42.289  42.116  33.376  1.00  0.00     0.188 C 
BRANCH  31  32
ATOM     32  O   UNL A   1      42.390  43.531  33.405  1.00  0.00    -0.376 OA
BRANCH  32  33
ATOM     33  C   UNL A   1      43.351  44.352  32.764  1.00  0.00     0.202 C 
BRANCH  33  34
ATOM     34  C   UNL A   1      44.810  44.447  33.209  1.00  0.00     0.261 C 
BRANCH  34  35
ATOM     35  O   UNL A   1      45.579  43.391  32.693  1.00  0.00    -0.460 OA
BRANCH  35  36
ATOM     36  C   UNL A   1      46.824  43.378  33.191  1.00  0.00     0.338 C 
ATOM     37  O   UNL A   1      47.462  44.332  33.633  1.00  0.00    -0.246 OA
BRANCH  36  38
ATOM     38  C   UNL A   1      47.339  42.011  33.124  1.00  0.00     0.060 A 
ATOM     39  C   UNL A   1      48.558  41.894  32.461  1.00  0.00     0.016 A 
ATOM     40  C   UNL A   1      46.420  40.961  33.242  1.00  0.00     0.016 A 
ATOM     41  C   UNL A   1      48.618  40.931  31.501  1.00  0.00     0.010 A 
ATOM     42  C   UNL A   1      46.479  39.996  32.290  1.00  0.00     0.010 A 
ATOM     43  C   UNL A   1      47.492  40.122  31.348  1.00  0.00    -0.014 A 
BRANCH  43  44
ATOM     44  C   UNL A   1      47.342  39.420  30.108  1.00  0.00     0.031 A 
ATOM     45  C   UNL A   1      46.328  40.061  29.263  1.00  0.00     0.074 A 
ATOM     46  C   UNL A   1      48.149  38.380  29.831  1.00  0.00     0.049 A 
ATOM     47  N   UNL A   1      45.183  39.588  28.908  1.00  0.00    -0.248 NA
ATOM     48  C   UNL A   1      46.508  41.498  28.984  1.00  0.00     0.031 C 
ATOM     49  C   UNL A   1      49.321  37.896  30.576  1.00  0.00     0.029 A 
ATOM     50  N   UNL A   1      48.150  37.599  28.723  1.00  0.00    -0.354 N 
ATOM     51  C   UNL A   1      44.610  40.597  28.147  1.00  0.00     0.074 A 
ATOM     52  C   UNL A   1      45.334  41.803  28.437  1.00  0.00     0.031 C 
ATOM     53  C   UNL A   1      50.048  37.078  29.782  1.00  0.00     0.029 A 
ATOM     54  C   UNL A   1      49.332  36.887  28.537  1.00  0.00     0.049 A 
ATOM     55  H   UNL A   1      47.385  37.540  28.107  1.00  0.00     0.167 HD
ATOM     56  C   UNL A   1      43.822  40.291  27.088  1.00  0.00     0.037 A 
ATOM     57  C   UNL A   1      49.693  36.321  27.358  1.00  0.00     0.037 A 
ATOM     58  C   UNL A   1      43.279  38.962  27.207  1.00  0.00     0.049 A 
ATOM     59  C   UNL A   1      48.450  36.204  26.540  1.00  0.00     0.074 A 
ATOM     60  C   UNL A   1      42.471  38.334  28.137  1.00  0.00     0.029 A 
ATOM     61  N   UNL A   1      43.887  37.954  26.497  1.00  0.00    -0.354 N 
ATOM     62  N   UNL A   1      47.452  35.421  26.857  1.00  0.00    -0.248 NA
ATOM     63  C   UNL A   1      48.106  37.332  25.683  1.00  0.00     0.031 C 
ATOM     64  C   UNL A   1      42.990  37.010  28.247  1.00  0.00     0.029 A 
ATOM     65  C   UNL A   1      44.043  36.882  27.340  1.00  0.00     0.049 A 
ATOM     66  H   UNL A   1      44.161  37.994  25.552  1.00  0.00     0.167 HD
ATOM     67  C   UNL A   1      46.309  36.164  26.587  1.00  0.00     0.074 A 
ATOM     68  C   UNL A   1      46.777  37.316  25.816  1.00  0.00     0.031 C 
ATOM     69  C   UNL A   1      45.140  35.944  27.259  1.00  0.00     0.037 A 
BRANCH  56  70
ATOM     70  C   UNL A   1      43.912  41.036  25.784  1.00  0.00     0.057 A 
ATOM     71  C   UNL A   1      45.178  41.286  25.239  1.00  0.00     0.134 A 
ATOM     72  C   UNL A   1      42.847  41.751  25.191  1.00  0.00     0.134 A 
ATOM     73  F   UNL A   1      46.269  40.681  25.731  1.00  0.00    -0.206 F 
ATOM     74  C   UNL A   1      45.377  42.229  24.225  1.00  0.00     0.040 A 
ATOM     75  C   UNL A   1      43.027  42.649  24.141  1.00  0.00     0.040 A 
ATOM     76  F   UNL A   1      41.591  41.704  25.651  1.00  0.00    -0.206 F 
ATOM     77  C   UNL A   1      44.301  42.918  23.677  1.00  0.00     0.006 A 
ENDBRANCH  56  70
BRANCH  57  78
ATOM     78  C   UNL A   1      51.052  36.290  26.768  1.00  0.00     0.057 A 
ATOM     79  C   UNL A   1      51.747  37.471  26.481  1.00  0.00     0.134 A 
ATOM     80  C   UNL A   1      51.804  35.102  26.707  1.00  0.00     0.134 A 
ATOM     81  F   UNL A   1      51.129  38.659  26.562  1.00  0.00    -0.206 F 
ATOM     82  C   UNL A   1      53.112  37.473  26.159  1.00  0.00     0.040 A 
ATOM     83  C   UNL A   1      53.164  35.088  26.380  1.00  0.00     0.040 A 
ATOM     84  F   UNL A   1      51.269  33.921  27.046  1.00  0.00    -0.206 F 
ATOM     85  C   UNL A   1      53.826  36.279  26.115  1.00  0.00     0.006 A 
ENDBRANCH  57  78
BRANCH  69  86
ATOM     86  C   UNL A   1      45.075  34.753  28.178  1.00  0.00     0.057 A 
ATOM     87  C   UNL A   1      45.422  34.798  29.539  1.00  0.00     0.134 A 
ATOM     88  C   UNL A   1      44.480  33.574  27.721  1.00  0.00     0.134 A 
ATOM     89  F   UNL A   1      45.903  35.919  30.089  1.00  0.00    -0.206 F 
ATOM     90  C   UNL A   1      45.219  33.710  30.394  1.00  0.00     0.040 A 
ATOM     91  C   UNL A   1      44.243  32.490  28.571  1.00  0.00     0.040 A 
ATOM     92  F   UNL A   1      44.064  33.478  26.449  1.00  0.00    -0.206 F 
ATOM     93  C   UNL A   1      44.620  32.551  29.910  1.00  0.00     0.006 A 
ENDBRANCH  69  86
ENDBRANCH  43  44
ENDBRANCH  36  38
ENDBRANCH  35  36
ENDBRANCH  34  35
ENDBRANCH  33  34
ENDBRANCH  32  33
ENDBRANCH  31  32
ENDBRANCH  30  31
ENDBRANCH  29  30
ENDBRANCH  28  29
ENDBRANCH   1  28
TORSDOF 26
ENDMDL
MODEL 3
REMARK VINA RESULT:      -6.6      5.950     12.386
REMARK SMILES O=C(Cn1ccc(C(=O)NCCC[NH+]2CCOCC2)n1)OCCOCCOCCOCCOC(=O)c1ccc(-c2c3nc(c(-c4c(F)cccc4F)c4ccc([nH]4)c(-c4c(F)cccc4F)c4nc(c(-c5c(F)cccc5F)c5ccc2[nH]5)C=C4)C=C3)cc1
REMARK SMILES IDX 25 1 24 2 23 3 22 4 21 5 2 6 1 7 3 8 4 9 5 10 20 11 6 12
REMARK SMILES IDX 7 13 8 14 9 15 10 16 11 18 12 19 13 20 14 21 15 22 19 23
REMARK SMILES IDX 16 25 18 26 17 27 26 28 27 29 28 30 29 31 30 32 31 33 32 34
REMARK SMILES IDX 33 35 34 36 35 37 36 38 37 39 89 40 38 41 88 42 39 43 40 44
REMARK SMILES IDX 41 45 82 46 42 47 87 48 81 49 83 50 43 51 86 52 80 53 79 54
REMARK SMILES IDX 44 56 70 57 53 58 69 59 54 60 57 61 68 62 84 63 55 64 56 65
REMARK SMILES IDX 67 67 85 68 58 69 45 70 46 71 51 72 47 73 48 74 50 75 52 76
REMARK SMILES IDX 49 77 71 78 72 79 77 80 73 81 74 82 76 83 78 84 75 85 59 86
REMARK SMILES IDX 60 87 65 88 61 89 62 90 64 91 66 92 63 93
REMARK H PARENT 10 17 14 24 83 55 57 66
REMARK Flexibility Score: inf
ROOT
ATOM      1  C   UNL A   1      42.665  28.027  26.566  1.00  0.00     0.188 C 
ENDROOT
BRANCH   1   2
ATOM      2  O   UNL A   1      43.482  26.953  26.155  1.00  0.00    -0.376 OA
BRANCH   2   3
ATOM      3  C   UNL A   1      42.956  25.806  25.496  1.00  0.00     0.202 C 
BRANCH   3   4
ATOM      4  C   UNL A   1      41.634  25.173  25.947  1.00  0.00     0.261 C 
BRANCH   4   5
ATOM      5  O   UNL A   1      41.639  23.943  26.710  1.00  0.00    -0.462 OA
BRANCH   5   6
ATOM      6  C   UNL A   1      40.627  23.280  27.301  1.00  0.00     0.327 C 
ATOM      7  O   UNL A   1      40.869  22.211  27.865  1.00  0.00    -0.250 OA
BRANCH   6   8
ATOM      8  C   UNL A   1      39.230  23.806  27.250  1.00  0.00     0.266 C 
BRANCH   8   9
ATOM      9  N   UNL A   1      38.477  23.175  26.195  1.00  0.00    -0.261 N 
ATOM     10  C   UNL A   1      38.536  21.860  25.861  1.00  0.00     0.110 A 
ATOM     11  N   UNL A   1      37.585  23.874  25.468  1.00  0.00    -0.167 NA
ATOM     12  C   UNL A   1      37.561  21.680  24.914  1.00  0.00     0.056 A 
ATOM     13  C   UNL A   1      36.960  22.960  24.704  1.00  0.00     0.150 A 
BRANCH  13  14
ATOM     14  C   UNL A   1      35.831  23.218  23.782  1.00  0.00     0.271 C 
ATOM     15  O   UNL A   1      36.010  23.188  22.560  1.00  0.00    -0.267 OA
ATOM     16  N   UNL A   1      34.542  23.478  24.202  1.00  0.00    -0.350 N 
ATOM     17  H   UNL A   1      33.924  23.717  23.473  1.00  0.00     0.163 HD
BRANCH  16  18
ATOM     18  C   UNL A   1      33.929  23.464  25.513  1.00  0.00     0.122 C 
BRANCH  18  19
ATOM     19  C   UNL A   1      33.460  24.837  25.986  1.00  0.00     0.083 C 
BRANCH  19  20
ATOM     20  C   UNL A   1      33.941  26.027  25.143  1.00  0.00     0.264 C 
BRANCH  20  21
ATOM     21  N   UNL A   1      32.934  26.866  24.467  1.00  0.00    -0.331 N 
ATOM     22  C   UNL A   1      32.476  26.214  23.209  1.00  0.00     0.291 C 
ATOM     23  C   UNL A   1      33.338  28.244  24.125  1.00  0.00     0.291 C 
ATOM     24  H   UNL A   1      32.199  26.948  25.169  1.00  0.00     0.348 HD
ATOM     25  C   UNL A   1      33.471  26.355  22.035  1.00  0.00     0.221 C 
ATOM     26  C   UNL A   1      34.333  28.341  22.962  1.00  0.00     0.221 C 
ATOM     27  O   UNL A   1      33.800  27.727  21.784  1.00  0.00    -0.370 OA
ENDBRANCH  20  21
ENDBRANCH  19  20
ENDBRANCH  18  19
ENDBRANCH  16  18
ENDBRANCH  13  14
ENDBRANCH   8   9
ENDBRANCH   6   8
ENDBRANCH   5   6
ENDBRANCH   4   5
ENDBRANCH   3   4
ENDBRANCH   2   3
ENDBRANCH   1   2
BRANCH   1  28
ATOM     28  C   UNL A   1      42.640  28.291  28.073  1.00  0.00     0.188 C 
BRANCH  28  29
ATOM     29  O   UNL A   1      41.417  28.337  28.779  1.00  0.00    -0.377 OA
BRANCH  29  30
ATOM     30  C   UNL A   1      40.278  27.660  28.294  1.00  0.00     0.188 C 
BRANCH  30  31
ATOM     31  C   UNL A   1      38.833  28.230  28.392  1.00  0.00     0.188 C 
BRANCH  31  32
ATOM     32  O   UNL A   1      38.328  29.251  29.237  1.00  0.00    -0.376 OA
BRANCH  32  33
ATOM     33  C   UNL A   1      37.455  30.315  28.897  1.00  0.00     0.202 C 
BRANCH  33  34
ATOM     34  C   UNL A   1      37.740  31.779  29.233  1.00  0.00     0.261 C 
BRANCH  34  35
ATOM     35  O   UNL A   1      37.581  32.036  30.605  1.00  0.00    -0.460 OA
BRANCH  35  36
ATOM     36  C   UNL A   1      36.602  32.920  30.846  1.00  0.00     0.338 C 
ATOM     37  O   UNL A   1      35.959  33.567  30.021  1.00  0.00    -0.246 OA
BRANCH  36  38
ATOM     38  C   UNL A   1      36.406  33.015  32.292  1.00  0.00     0.060 A 
ATOM     39  C   UNL A   1      36.614  34.289  32.813  1.00  0.00     0.016 A 
ATOM     40  C   UNL A   1      36.534  31.842  33.047  1.00  0.00     0.016 A 
ATOM     41  C   UNL A   1      37.435  34.357  33.897  1.00  0.00     0.010 A 
ATOM     42  C   UNL A   1      37.347  31.905  34.130  1.00  0.00     0.010 A 
ATOM     43  C   UNL A   1      37.903  33.147  34.410  1.00  0.00    -0.014 A 
BRANCH  43  44
ATOM     44  C   UNL A   1      39.074  33.183  35.235  1.00  0.00     0.031 A 
ATOM     45  C   UNL A   1      38.714  33.354  36.648  1.00  0.00     0.074 A 
ATOM     46  C   UNL A   1      40.284  32.982  34.683  1.00  0.00     0.049 A 
ATOM     47  N   UNL A   1      38.954  34.367  37.406  1.00  0.00    -0.248 NA
ATOM     48  C   UNL A   1      37.758  32.382  37.210  1.00  0.00     0.031 C 
ATOM     49  C   UNL A   1      40.615  32.572  33.310  1.00  0.00     0.029 A 
ATOM     50  N   UNL A   1      41.492  32.986  35.298  1.00  0.00    -0.354 N 
ATOM     51  C   UNL A   1      38.379  34.034  38.625  1.00  0.00     0.074 A 
ATOM     52  C   UNL A   1      37.465  32.954  38.376  1.00  0.00     0.031 C 
ATOM     53  C   UNL A   1      41.895  32.137  33.271  1.00  0.00     0.029 A 
ATOM     54  C   UNL A   1      42.497  32.355  34.571  1.00  0.00     0.049 A 
ATOM     55  H   UNL A   1      41.644  33.398  36.178  1.00  0.00     0.167 HD
ATOM     56  C   UNL A   1      38.956  34.434  39.785  1.00  0.00     0.037 A 
ATOM     57  C   UNL A   1      43.671  31.943  35.109  1.00  0.00     0.037 A 
ATOM     58  C   UNL A   1      39.806  35.578  39.579  1.00  0.00     0.049 A 
ATOM     59  C   UNL A   1      43.840  32.689  36.391  1.00  0.00     0.074 A 
ATOM     60  C   UNL A   1      39.593  36.860  39.108  1.00  0.00     0.029 A 
ATOM     61  N   UNL A   1      41.160  35.363  39.481  1.00  0.00    -0.354 N 
ATOM     62  N   UNL A   1      44.019  33.982  36.452  1.00  0.00    -0.248 NA
ATOM     63  C   UNL A   1      43.286  32.081  37.595  1.00  0.00     0.031 C 
ATOM     64  C   UNL A   1      40.745  37.167  38.327  1.00  0.00     0.029 A 
ATOM     65  C   UNL A   1      41.623  36.085  38.410  1.00  0.00     0.049 A 
ATOM     66  H   UNL A   1      41.701  34.793  40.075  1.00  0.00     0.167 HD
ATOM     67  C   UNL A   1      43.239  34.406  37.522  1.00  0.00     0.074 A 
ATOM     68  C   UNL A   1      42.851  33.179  38.219  1.00  0.00     0.031 C 
ATOM     69  C   UNL A   1      42.731  35.672  37.577  1.00  0.00     0.037 A 
BRANCH  56  70
ATOM     70  C   UNL A   1      39.066  33.522  40.976  1.00  0.00     0.057 A 
ATOM     71  C   UNL A   1      38.343  33.837  42.134  1.00  0.00     0.134 A 
ATOM     72  C   UNL A   1      40.050  32.518  41.132  1.00  0.00     0.134 A 
ATOM     73  F   UNL A   1      37.396  34.786  42.114  1.00  0.00    -0.206 F 
ATOM     74  C   UNL A   1      38.626  33.247  43.370  1.00  0.00     0.040 A 
ATOM     75  C   UNL A   1      40.299  31.882  42.347  1.00  0.00     0.040 A 
ATOM     76  F   UNL A   1      40.894  32.165  40.156  1.00  0.00    -0.206 F 
ATOM     77  C   UNL A   1      39.610  32.271  43.481  1.00  0.00     0.006 A 
ENDBRANCH  56  70
BRANCH  57  78
ATOM     78  C   UNL A   1      44.392  30.684  34.809  1.00  0.00     0.057 A 
ATOM     79  C   UNL A   1      45.755  30.685  34.489  1.00  0.00     0.134 A 
ATOM     80  C   UNL A   1      43.823  29.424  35.077  1.00  0.00     0.134 A 
ATOM     81  F   UNL A   1      46.399  31.840  34.267  1.00  0.00    -0.206 F 
ATOM     82  C   UNL A   1      46.512  29.505  34.445  1.00  0.00     0.040 A 
ATOM     83  C   UNL A   1      44.563  28.239  35.030  1.00  0.00     0.040 A 
ATOM     84  F   UNL A   1      42.550  29.307  35.478  1.00  0.00    -0.206 F 
ATOM     85  C   UNL A   1      45.917  28.277  34.723  1.00  0.00     0.006 A 
ENDBRANCH  57  78
BRANCH  69  86
ATOM     86  C   UNL A   1      43.187  36.655  36.531  1.00  0.00     0.057 A 
ATOM     87  C   UNL A   1      42.546  36.830  35.293  1.00  0.00     0.134 A 
ATOM     88  C   UNL A   1      44.192  37.571  36.852  1.00  0.00     0.134 A 
ATOM     89  F   UNL A   1      41.505  36.066  34.943  1.00  0.00    -0.206 F 
ATOM     90  C   UNL A   1      42.912  37.845  34.404  1.00  0.00     0.040 A 
ATOM     91  C   UNL A   1      44.548  38.609  35.986  1.00  0.00     0.040 A 
ATOM     92  F   UNL A   1      44.808  37.507  38.042  1.00  0.00    -0.206 F 
ATOM     93  C   UNL A   1      43.914  38.745  34.754  1.00  0.00     0.006 A 
ENDBRANCH  69  86
ENDBRANCH  43  44
ENDBRANCH  36  38
ENDBRANCH  35  36
ENDBRANCH  34  35
ENDBRANCH  33  34
ENDBRANCH  32  33
ENDBRANCH  31  32
ENDBRANCH  30  31
ENDBRANCH  29  30
ENDBRANCH  28  29
ENDBRANCH   1  28
TORSDOF 26
ENDMDL
