MODEL 1
REMARK VINA RESULT:      -6.8      0.000      0.000
REMARK SMILES CC[C@@H](Oc1cc(Cl)ccc1Cl)C(=O)NNC(=O)[C@@H]1[C@@H]2CC[C@@H](C2)[C@@H]1C(=O)OCCOCCOCCOCCOC(=O)c1ccc(-c2c3nc(c(-c4c(F)cccc4F)c4ccc([nH]4)c(-c4c(F)cccc4F)c4nc(c(-c5c(F)cccc5F)c5ccc2[nH]5)C=C4)C=C3)cc1
REMARK SMILES IDX 32 1 31 2 30 3 29 4 28 5 26 6 27 7 25 8 19 9 20 10 21 11
REMARK SMILES IDX 24 12 23 13 22 14 17 15 16 16 18 18 15 19 13 20 14 21 3 23
REMARK SMILES IDX 2 24 1 25 4 26 5 27 6 28 11 29 7 30 10 31 12 32 8 33 9 34
REMARK SMILES IDX 33 35 34 36 35 37 36 38 37 39 38 40 39 41 40 42 41 43 42 44
REMARK SMILES IDX 43 45 44 46 96 47 45 48 95 49 46 50 47 51 48 52 89 53 49 54
REMARK SMILES IDX 94 55 88 56 90 57 50 58 93 59 87 60 86 61 51 63 77 64 60 65
REMARK SMILES IDX 76 66 61 67 64 68 75 69 91 70 62 71 63 72 74 74 92 75 65 76
REMARK SMILES IDX 52 77 53 78 58 79 54 80 55 81 57 82 59 83 56 84 78 85 79 86
REMARK SMILES IDX 84 87 80 88 81 89 83 90 85 91 82 92 66 93 67 94 72 95 68 96
REMARK SMILES IDX 69 97 71 98 73 99 70 100
REMARK H PARENT 16 17 15 22 90 62 64 73
REMARK Flexibility Score: inf
ROOT
ATOM      1  C   UNL A   1      34.417  33.828  28.930  1.00  0.00     0.188 C 
ENDROOT
BRANCH   1   2
ATOM      2  O   UNL A   1      34.460  32.444  29.186  1.00  0.00    -0.376 OA
BRANCH   2   3
ATOM      3  C   UNL A   1      35.426  31.944  30.106  1.00  0.00     0.202 C 
BRANCH   3   4
ATOM      4  C   UNL A   1      36.158  30.583  29.979  1.00  0.00     0.261 C 
BRANCH   4   5
ATOM      5  O   UNL A   1      37.405  30.364  30.700  1.00  0.00    -0.463 OA
BRANCH   5   6
ATOM      6  C   UNL A   1      38.109  29.273  30.312  1.00  0.00     0.310 C 
ATOM      7  O   UNL A   1      37.800  28.149  30.713  1.00  0.00    -0.252 OA
BRANCH   6   8
ATOM      8  C   UNL A   1      39.420  29.486  29.521  1.00  0.00     0.115 C 
ATOM      9  C   UNL A   1      40.538  28.554  28.886  1.00  0.00     0.098 C 
ATOM     10  C   UNL A   1      41.834  28.991  29.593  1.00  0.00     0.003 C 
ATOM     11  C   UNL A   1      41.810  28.542  31.057  1.00  0.00     0.005 C 
ATOM     12  C   UNL A   1      41.626  30.499  29.717  1.00  0.00     0.009 C 
ATOM     13  C   UNL A   1      40.329  30.345  30.492  1.00  0.00     0.004 C 
ATOM     14  C   UNL A   1      40.793  29.484  31.688  1.00  0.00     0.005 C 
BRANCH   9  15
ATOM     15  C   UNL A   1      40.456  27.102  28.367  1.00  0.00     0.242 C 
ATOM     16  N   UNL A   1      40.780  26.654  27.089  1.00  0.00    -0.267 N 
ATOM     17  H   UNL A   1      40.675  25.684  26.955  1.00  0.00     0.191 HD
ATOM     18  O   UNL A   1      39.884  26.276  29.096  1.00  0.00    -0.273 OA
BRANCH  16  19
ATOM     19  N   UNL A   1      41.230  27.351  25.969  1.00  0.00    -0.264 N 
ATOM     20  C   UNL A   1      42.502  27.765  25.620  1.00  0.00     0.279 C 
ATOM     21  O   UNL A   1      42.587  28.285  24.495  1.00  0.00    -0.269 OA
ATOM     22  H   UNL A   1      40.527  27.586  25.321  1.00  0.00     0.191 HD
BRANCH  20  23
ATOM     23  C   UNL A   1      43.795  27.734  26.512  1.00  0.00     0.263 C 
BRANCH  23  24
ATOM     24  C   UNL A   1      43.958  29.124  27.156  1.00  0.00     0.052 C 
ATOM     25  C   UNL A   1      45.080  30.010  26.618  1.00  0.00     0.008 C 
ENDBRANCH  23  24
BRANCH  23  26
ATOM     26  O   UNL A   1      43.733  26.639  27.426  1.00  0.00    -0.479 OA
BRANCH  26  27
ATOM     27  C   UNL A   1      44.884  25.925  27.700  1.00  0.00     0.140 A 
ATOM     28  C   UNL A   1      45.910  25.862  26.742  1.00  0.00     0.068 A 
ATOM     29  C   UNL A   1      45.208  25.650  29.037  1.00  0.00     0.083 A 
ATOM     30  C   UNL A   1      47.213  25.501  27.104  1.00  0.00     0.044 A 
ATOM     31  C   UNL A   1      46.520  25.313  29.402  1.00  0.00     0.026 A 
ATOM     32  Cl  UNL A   1      44.037  25.846  30.289  1.00  0.00    -0.080 Cl
ATOM     33  Cl  UNL A   1      48.460  25.460  25.917  1.00  0.00    -0.084 Cl
ATOM     34  C   UNL A   1      47.526  25.241  28.435  1.00  0.00     0.022 A 
ENDBRANCH  26  27
ENDBRANCH  23  26
ENDBRANCH  20  23
ENDBRANCH  16  19
ENDBRANCH   9  15
ENDBRANCH   6   8
ENDBRANCH   5   6
ENDBRANCH   4   5
ENDBRANCH   3   4
ENDBRANCH   2   3
ENDBRANCH   1   2
BRANCH   1  35
ATOM     35  C   UNL A   1      33.117  34.313  28.297  1.00  0.00     0.188 C 
BRANCH  35  36
ATOM     36  O   UNL A   1      32.544  35.502  28.815  1.00  0.00    -0.377 OA
BRANCH  36  37
ATOM     37  C   UNL A   1      33.271  36.291  29.758  1.00  0.00     0.188 C 
BRANCH  37  38
ATOM     38  C   UNL A   1      32.643  36.395  31.143  1.00  0.00     0.188 C 
BRANCH  38  39
ATOM     39  O   UNL A   1      33.515  36.282  32.266  1.00  0.00    -0.376 OA
BRANCH  39  40
ATOM     40  C   UNL A   1      33.872  34.977  32.693  1.00  0.00     0.202 C 
BRANCH  40  41
ATOM     41  C   UNL A   1      35.346  34.795  33.003  1.00  0.00     0.261 C 
BRANCH  41  42
ATOM     42  O   UNL A   1      35.497  33.587  33.718  1.00  0.00    -0.460 OA
BRANCH  42  43
ATOM     43  C   UNL A   1      36.047  33.754  34.941  1.00  0.00     0.338 C 
ATOM     44  O   UNL A   1      35.537  34.102  35.989  1.00  0.00    -0.246 OA
BRANCH  43  45
ATOM     45  C   UNL A   1      37.400  33.257  34.789  1.00  0.00     0.060 A 
ATOM     46  C   UNL A   1      38.443  33.909  35.452  1.00  0.00     0.016 A 
ATOM     47  C   UNL A   1      37.589  32.110  34.014  1.00  0.00     0.016 A 
ATOM     48  C   UNL A   1      39.723  33.416  35.306  1.00  0.00     0.010 A 
ATOM     49  C   UNL A   1      38.859  31.618  33.868  1.00  0.00     0.010 A 
ATOM     50  C   UNL A   1      39.916  32.309  34.474  1.00  0.00    -0.014 A 
BRANCH  50  51
ATOM     51  C   UNL A   1      41.254  31.982  34.008  1.00  0.00     0.031 A 
ATOM     52  C   UNL A   1      41.804  32.833  32.911  1.00  0.00     0.074 A 
ATOM     53  C   UNL A   1      41.854  30.899  34.509  1.00  0.00     0.049 A 
ATOM     54  N   UNL A   1      42.875  32.657  32.194  1.00  0.00    -0.248 NA
ATOM     55  C   UNL A   1      41.019  34.031  32.545  1.00  0.00     0.031 C 
ATOM     56  C   UNL A   1      41.317  30.051  35.576  1.00  0.00     0.029 A 
ATOM     57  N   UNL A   1      43.030  30.310  34.158  1.00  0.00    -0.354 N 
ATOM     58  C   UNL A   1      42.886  33.708  31.288  1.00  0.00     0.074 A 
ATOM     59  C   UNL A   1      41.699  34.496  31.511  1.00  0.00     0.031 C 
ATOM     60  C   UNL A   1      42.160  29.028  35.778  1.00  0.00     0.029 A 
ATOM     61  C   UNL A   1      43.261  29.137  34.828  1.00  0.00     0.049 A 
ATOM     62  H   UNL A   1      43.648  30.686  33.492  1.00  0.00     0.167 HD
ATOM     63  C   UNL A   1      43.828  33.977  30.360  1.00  0.00     0.037 A 
ATOM     64  C   UNL A   1      44.250  28.250  34.643  1.00  0.00     0.037 A 
ATOM     65  C   UNL A   1      44.985  33.146  30.181  1.00  0.00     0.049 A 
ATOM     66  C   UNL A   1      45.268  28.559  33.580  1.00  0.00     0.074 A 
ATOM     67  C   UNL A   1      46.041  33.308  29.309  1.00  0.00     0.029 A 
ATOM     68  N   UNL A   1      45.221  31.978  30.899  1.00  0.00    -0.354 N 
ATOM     69  N   UNL A   1      45.316  29.582  32.756  1.00  0.00    -0.248 NA
ATOM     70  C   UNL A   1      46.366  27.604  33.424  1.00  0.00     0.031 C 
ATOM     71  C   UNL A   1      46.894  32.209  29.464  1.00  0.00     0.029 A 
ATOM     72  C   UNL A   1      46.398  31.393  30.472  1.00  0.00     0.049 A 
ATOM     73  H   UNL A   1      44.638  31.621  31.606  1.00  0.00     0.167 HD
ATOM     74  C   UNL A   1      46.463  29.408  31.997  1.00  0.00     0.074 A 
ATOM     75  C   UNL A   1      47.087  28.186  32.476  1.00  0.00     0.031 C 
ATOM     76  C   UNL A   1      46.965  30.174  30.995  1.00  0.00     0.037 A 
BRANCH  63  77
ATOM     77  C   UNL A   1      43.623  35.177  29.486  1.00  0.00     0.057 A 
ATOM     78  C   UNL A   1      43.822  36.483  29.957  1.00  0.00     0.134 A 
ATOM     79  C   UNL A   1      43.222  35.030  28.153  1.00  0.00     0.134 A 
ATOM     80  F   UNL A   1      44.178  36.699  31.233  1.00  0.00    -0.206 F 
ATOM     81  C   UNL A   1      43.613  37.596  29.141  1.00  0.00     0.040 A 
ATOM     82  C   UNL A   1      43.037  36.133  27.318  1.00  0.00     0.040 A 
ATOM     83  F   UNL A   1      43.000  33.810  27.640  1.00  0.00    -0.206 F 
ATOM     84  C   UNL A   1      43.228  37.421  27.813  1.00  0.00     0.006 A 
ENDBRANCH  63  77
BRANCH  64  85
ATOM     85  C   UNL A   1      44.312  27.025  35.474  1.00  0.00     0.057 A 
ATOM     86  C   UNL A   1      43.683  25.845  35.064  1.00  0.00     0.134 A 
ATOM     87  C   UNL A   1      45.026  26.991  36.679  1.00  0.00     0.134 A 
ATOM     88  F   UNL A   1      42.984  25.817  33.920  1.00  0.00    -0.206 F 
ATOM     89  C   UNL A   1      43.739  24.682  35.832  1.00  0.00     0.040 A 
ATOM     90  C   UNL A   1      45.113  25.827  37.444  1.00  0.00     0.040 A 
ATOM     91  F   UNL A   1      45.671  28.083  37.116  1.00  0.00    -0.206 F 
ATOM     92  C   UNL A   1      44.460  24.670  37.025  1.00  0.00     0.006 A 
ENDBRANCH  64  85
BRANCH  76  93
ATOM     93  C   UNL A   1      48.256  29.717  30.389  1.00  0.00     0.057 A 
ATOM     94  C   UNL A   1      49.493  30.088  30.926  1.00  0.00     0.134 A 
ATOM     95  C   UNL A   1      48.252  28.851  29.289  1.00  0.00     0.134 A 
ATOM     96  F   UNL A   1      49.557  30.926  31.972  1.00  0.00    -0.206 F 
ATOM     97  C   UNL A   1      50.687  29.631  30.373  1.00  0.00     0.040 A 
ATOM     98  C   UNL A   1      49.438  28.361  28.748  1.00  0.00     0.040 A 
ATOM     99  F   UNL A   1      47.095  28.450  28.740  1.00  0.00    -0.206 F 
ATOM    100  C   UNL A   1      50.661  28.758  29.287  1.00  0.00     0.006 A 
ENDBRANCH  76  93
ENDBRANCH  50  51
ENDBRANCH  43  45
ENDBRANCH  42  43
ENDBRANCH  41  42
ENDBRANCH  40  41
ENDBRANCH  39  40
ENDBRANCH  38  39
ENDBRANCH  37  38
ENDBRANCH  36  37
ENDBRANCH  35  36
ENDBRANCH   1  35
TORSDOF 26
ENDMDL
MODEL 2
REMARK VINA RESULT:      -6.6      4.123     10.122
REMARK SMILES CC[C@@H](Oc1cc(Cl)ccc1Cl)C(=O)NNC(=O)[C@@H]1[C@@H]2CC[C@@H](C2)[C@@H]1C(=O)OCCOCCOCCOCCOC(=O)c1ccc(-c2c3nc(c(-c4c(F)cccc4F)c4ccc([nH]4)c(-c4c(F)cccc4F)c4nc(c(-c5c(F)cccc5F)c5ccc2[nH]5)C=C4)C=C3)cc1
REMARK SMILES IDX 32 1 31 2 30 3 29 4 28 5 26 6 27 7 25 8 19 9 20 10 21 11
REMARK SMILES IDX 24 12 23 13 22 14 17 15 16 16 18 18 15 19 13 20 14 21 3 23
REMARK SMILES IDX 2 24 1 25 4 26 5 27 6 28 11 29 7 30 10 31 12 32 8 33 9 34
REMARK SMILES IDX 33 35 34 36 35 37 36 38 37 39 38 40 39 41 40 42 41 43 42 44
REMARK SMILES IDX 43 45 44 46 96 47 45 48 95 49 46 50 47 51 48 52 89 53 49 54
REMARK SMILES IDX 94 55 88 56 90 57 50 58 93 59 87 60 86 61 51 63 77 64 60 65
REMARK SMILES IDX 76 66 61 67 64 68 75 69 91 70 62 71 63 72 74 74 92 75 65 76
REMARK SMILES IDX 52 77 53 78 58 79 54 80 55 81 57 82 59 83 56 84 78 85 79 86
REMARK SMILES IDX 84 87 80 88 81 89 83 90 85 91 82 92 66 93 67 94 72 95 68 96
REMARK SMILES IDX 69 97 71 98 73 99 70 100
REMARK H PARENT 16 17 15 22 90 62 64 73
REMARK Flexibility Score: inf
ROOT
ATOM      1  C   UNL A   1      44.221  34.276  33.084  1.00  0.00     0.188 C 
ENDROOT
BRANCH   1   2
ATOM      2  O   UNL A   1      44.052  34.963  34.302  1.00  0.00    -0.376 OA
BRANCH   2   3
ATOM      3  C   UNL A   1      42.755  35.017  34.887  1.00  0.00     0.202 C 
BRANCH   3   4
ATOM      4  C   UNL A   1      42.377  34.438  36.275  1.00  0.00     0.261 C 
BRANCH   4   5
ATOM      5  O   UNL A   1      42.454  33.002  36.503  1.00  0.00    -0.463 OA
BRANCH   5   6
ATOM      6  C   UNL A   1      41.336  32.307  36.176  1.00  0.00     0.310 C 
ATOM      7  O   UNL A   1      40.652  31.770  37.051  1.00  0.00    -0.252 OA
BRANCH   6   8
ATOM      8  C   UNL A   1      41.047  32.037  34.682  1.00  0.00     0.115 C 
ATOM      9  C   UNL A   1      39.752  31.931  33.768  1.00  0.00     0.098 C 
ATOM     10  C   UNL A   1      39.821  30.506  33.188  1.00  0.00     0.003 C 
ATOM     11  C   UNL A   1      39.543  29.478  34.289  1.00  0.00     0.005 C 
ATOM     12  C   UNL A   1      41.322  30.335  32.962  1.00  0.00     0.009 C 
ATOM     13  C   UNL A   1      41.661  30.602  34.418  1.00  0.00     0.004 C 
ATOM     14  C   UNL A   1      40.814  29.521  35.127  1.00  0.00     0.005 C 
BRANCH   9  15
ATOM     15  C   UNL A   1      38.360  32.578  33.925  1.00  0.00     0.242 C 
ATOM     16  N   UNL A   1      37.870  33.681  33.231  1.00  0.00    -0.267 N 
ATOM     17  H   UNL A   1      36.947  33.935  33.462  1.00  0.00     0.191 HD
ATOM     18  O   UNL A   1      37.665  32.193  34.879  1.00  0.00    -0.273 OA
BRANCH  16  19
ATOM     19  N   UNL A   1      38.470  34.484  32.263  1.00  0.00    -0.264 N 
ATOM     20  C   UNL A   1      38.204  34.613  30.911  1.00  0.00     0.279 C 
ATOM     21  O   UNL A   1      38.860  35.497  30.336  1.00  0.00    -0.269 OA
ATOM     22  H   UNL A   1      39.201  35.053  32.594  1.00  0.00     0.191 HD
BRANCH  20  23
ATOM     23  C   UNL A   1      37.257  33.717  30.036  1.00  0.00     0.263 C 
BRANCH  23  24
ATOM     24  C   UNL A   1      38.119  32.625  29.371  1.00  0.00     0.052 C 
ATOM     25  C   UNL A   1      39.398  32.214  30.099  1.00  0.00     0.008 C 
ENDBRANCH  23  24
BRANCH  23  26
ATOM     26  O   UNL A   1      36.167  33.240  30.824  1.00  0.00    -0.479 OA
BRANCH  26  27
ATOM     27  C   UNL A   1      34.940  33.868  30.727  1.00  0.00     0.140 A 
ATOM     28  C   UNL A   1      34.602  34.883  31.639  1.00  0.00     0.068 A 
ATOM     29  C   UNL A   1      34.246  33.814  29.509  1.00  0.00     0.083 A 
ATOM     30  C   UNL A   1      33.578  35.794  31.356  1.00  0.00     0.044 A 
ATOM     31  C   UNL A   1      33.236  34.745  29.217  1.00  0.00     0.026 A 
ATOM     32  Cl  UNL A   1      34.700  32.689  28.282  1.00  0.00    -0.080 Cl
ATOM     33  Cl  UNL A   1      33.203  37.048  32.476  1.00  0.00    -0.084 Cl
ATOM     34  C   UNL A   1      32.904  35.738  30.141  1.00  0.00     0.022 A 
ENDBRANCH  26  27
ENDBRANCH  23  26
ENDBRANCH  20  23
ENDBRANCH  16  19
ENDBRANCH   9  15
ENDBRANCH   6   8
ENDBRANCH   5   6
ENDBRANCH   4   5
ENDBRANCH   3   4
ENDBRANCH   2   3
ENDBRANCH   1   2
BRANCH   1  35
ATOM     35  C   UNL A   1      42.982  33.527  32.605  1.00  0.00     0.188 C 
BRANCH  35  36
ATOM     36  O   UNL A   1      42.532  33.790  31.287  1.00  0.00    -0.377 OA
BRANCH  36  37
ATOM     37  C   UNL A   1      42.908  35.004  30.634  1.00  0.00     0.188 C 
BRANCH  37  38
ATOM     38  C   UNL A   1      42.260  35.242  29.275  1.00  0.00     0.188 C 
BRANCH  38  39
ATOM     39  O   UNL A   1      42.409  36.538  28.698  1.00  0.00    -0.376 OA
BRANCH  39  40
ATOM     40  C   UNL A   1      43.373  37.406  29.273  1.00  0.00     0.202 C 
BRANCH  40  41
ATOM     41  C   UNL A   1      44.586  37.668  28.399  1.00  0.00     0.261 C 
BRANCH  41  42
ATOM     42  O   UNL A   1      45.099  36.423  27.975  1.00  0.00    -0.460 OA
BRANCH  42  43
ATOM     43  C   UNL A   1      46.069  35.942  28.782  1.00  0.00     0.338 C 
ATOM     44  O   UNL A   1      46.794  36.520  29.569  1.00  0.00    -0.246 OA
BRANCH  43  45
ATOM     45  C   UNL A   1      45.962  34.503  28.639  1.00  0.00     0.060 A 
ATOM     46  C   UNL A   1      45.764  33.958  27.368  1.00  0.00     0.016 A 
ATOM     47  C   UNL A   1      46.111  33.721  29.788  1.00  0.00     0.016 A 
ATOM     48  C   UNL A   1      45.676  32.587  27.247  1.00  0.00     0.010 A 
ATOM     49  C   UNL A   1      46.025  32.359  29.671  1.00  0.00     0.010 A 
ATOM     50  C   UNL A   1      45.757  31.813  28.409  1.00  0.00    -0.014 A 
BRANCH  50  51
ATOM     51  C   UNL A   1      45.316  30.427  28.385  1.00  0.00     0.031 A 
ATOM     52  C   UNL A   1      46.327  29.414  27.959  1.00  0.00     0.074 A 
ATOM     53  C   UNL A   1      44.032  30.165  28.642  1.00  0.00     0.049 A 
ATOM     54  N   UNL A   1      46.159  28.155  27.678  1.00  0.00    -0.248 NA
ATOM     55  C   UNL A   1      47.715  29.893  27.792  1.00  0.00     0.031 C 
ATOM     56  C   UNL A   1      43.030  31.154  29.048  1.00  0.00     0.029 A 
ATOM     57  N   UNL A   1      43.347  28.992  28.562  1.00  0.00    -0.354 N 
ATOM     58  C   UNL A   1      47.409  27.697  27.288  1.00  0.00     0.074 A 
ATOM     59  C   UNL A   1      48.321  28.814  27.327  1.00  0.00     0.031 C 
ATOM     60  C   UNL A   1      41.843  30.541  29.161  1.00  0.00     0.029 A 
ATOM     61  C   UNL A   1      42.005  29.139  28.795  1.00  0.00     0.049 A 
ATOM     62  H   UNL A   1      43.771  28.128  28.357  1.00  0.00     0.167 HD
ATOM     63  C   UNL A   1      47.747  26.438  26.941  1.00  0.00     0.037 A 
ATOM     64  C   UNL A   1      41.030  28.225  28.679  1.00  0.00     0.037 A 
ATOM     65  C   UNL A   1      46.788  25.369  26.912  1.00  0.00     0.049 A 
ATOM     66  C   UNL A   1      41.430  26.837  28.258  1.00  0.00     0.074 A 
ATOM     67  C   UNL A   1      46.984  24.037  26.615  1.00  0.00     0.029 A 
ATOM     68  N   UNL A   1      45.434  25.532  27.189  1.00  0.00    -0.354 N 
ATOM     69  N   UNL A   1      42.622  26.381  27.943  1.00  0.00    -0.248 NA
ATOM     70  C   UNL A   1      40.361  25.840  28.183  1.00  0.00     0.031 C 
ATOM     71  C   UNL A   1      45.738  23.402  26.663  1.00  0.00     0.029 A 
ATOM     72  C   UNL A   1      44.776  24.327  27.046  1.00  0.00     0.049 A 
ATOM     73  H   UNL A   1      45.009  26.381  27.449  1.00  0.00     0.167 HD
ATOM     74  C   UNL A   1      42.452  25.036  27.653  1.00  0.00     0.074 A 
ATOM     75  C   UNL A   1      41.041  24.751  27.850  1.00  0.00     0.031 C 
ATOM     76  C   UNL A   1      43.365  24.111  27.260  1.00  0.00     0.037 A 
BRANCH  63  77
ATOM     77  C   UNL A   1      49.171  26.179  26.553  1.00  0.00     0.057 A 
ATOM     78  C   UNL A   1      49.635  26.385  25.246  1.00  0.00     0.134 A 
ATOM     79  C   UNL A   1      50.096  25.719  27.498  1.00  0.00     0.134 A 
ATOM     80  F   UNL A   1      48.796  26.797  24.284  1.00  0.00    -0.206 F 
ATOM     81  C   UNL A   1      50.961  26.127  24.890  1.00  0.00     0.040 A 
ATOM     82  C   UNL A   1      51.431  25.484  27.161  1.00  0.00     0.040 A 
ATOM     83  F   UNL A   1      49.718  25.488  28.765  1.00  0.00    -0.206 F 
ATOM     84  C   UNL A   1      51.865  25.683  25.853  1.00  0.00     0.006 A 
ENDBRANCH  63  77
BRANCH  64  85
ATOM     85  C   UNL A   1      39.626  28.596  28.968  1.00  0.00     0.057 A 
ATOM     86  C   UNL A   1      39.078  28.404  30.240  1.00  0.00     0.134 A 
ATOM     87  C   UNL A   1      38.806  29.181  27.993  1.00  0.00     0.134 A 
ATOM     88  F   UNL A   1      39.814  27.848  31.213  1.00  0.00    -0.206 F 
ATOM     89  C   UNL A   1      37.760  28.756  30.529  1.00  0.00     0.040 A 
ATOM     90  C   UNL A   1      37.494  29.563  28.276  1.00  0.00     0.040 A 
ATOM     91  F   UNL A   1      39.279  29.414  26.760  1.00  0.00    -0.206 F 
ATOM     92  C   UNL A   1      36.964  29.342  29.545  1.00  0.00     0.006 A 
ENDBRANCH  64  85
BRANCH  76  93
ATOM     93  C   UNL A   1      42.857  22.718  27.052  1.00  0.00     0.057 A 
ATOM     94  C   UNL A   1      42.566  21.873  28.128  1.00  0.00     0.134 A 
ATOM     95  C   UNL A   1      42.605  22.245  25.759  1.00  0.00     0.134 A 
ATOM     96  F   UNL A   1      42.800  22.270  29.388  1.00  0.00    -0.206 F 
ATOM     97  C   UNL A   1      42.064  20.590  27.923  1.00  0.00     0.040 A 
ATOM     98  C   UNL A   1      42.071  20.977  25.543  1.00  0.00     0.040 A 
ATOM     99  F   UNL A   1      42.851  23.016  24.689  1.00  0.00    -0.206 F 
ATOM    100  C   UNL A   1      41.806  20.143  26.628  1.00  0.00     0.006 A 
ENDBRANCH  76  93
ENDBRANCH  50  51
ENDBRANCH  43  45
ENDBRANCH  42  43
ENDBRANCH  41  42
ENDBRANCH  40  41
ENDBRANCH  39  40
ENDBRANCH  38  39
ENDBRANCH  37  38
ENDBRANCH  36  37
ENDBRANCH  35  36
ENDBRANCH   1  35
TORSDOF 26
ENDMDL
MODEL 3
REMARK VINA RESULT:      -6.5      4.353     10.533
REMARK SMILES CC[C@@H](Oc1cc(Cl)ccc1Cl)C(=O)NNC(=O)[C@@H]1[C@@H]2CC[C@@H](C2)[C@@H]1C(=O)OCCOCCOCCOCCOC(=O)c1ccc(-c2c3nc(c(-c4c(F)cccc4F)c4ccc([nH]4)c(-c4c(F)cccc4F)c4nc(c(-c5c(F)cccc5F)c5ccc2[nH]5)C=C4)C=C3)cc1
REMARK SMILES IDX 32 1 31 2 30 3 29 4 28 5 26 6 27 7 25 8 19 9 20 10 21 11
REMARK SMILES IDX 24 12 23 13 22 14 17 15 16 16 18 18 15 19 13 20 14 21 3 23
REMARK SMILES IDX 2 24 1 25 4 26 5 27 6 28 11 29 7 30 10 31 12 32 8 33 9 34
REMARK SMILES IDX 33 35 34 36 35 37 36 38 37 39 38 40 39 41 40 42 41 43 42 44
REMARK SMILES IDX 43 45 44 46 96 47 45 48 95 49 46 50 47 51 48 52 89 53 49 54
REMARK SMILES IDX 94 55 88 56 90 57 50 58 93 59 87 60 86 61 51 63 77 64 60 65
REMARK SMILES IDX 76 66 61 67 64 68 75 69 91 70 62 71 63 72 74 74 92 75 65 76
REMARK SMILES IDX 52 77 53 78 58 79 54 80 55 81 57 82 59 83 56 84 78 85 79 86
REMARK SMILES IDX 84 87 80 88 81 89 83 90 85 91 82 92 66 93 67 94 72 95 68 96
REMARK SMILES IDX 69 97 71 98 73 99 70 100
REMARK H PARENT 16 17 15 22 90 62 64 73
REMARK Flexibility Score: inf
ROOT
ATOM      1  C   UNL A   1      34.777  32.485  30.775  1.00  0.00     0.188 C 
ENDROOT
BRANCH   1   2
ATOM      2  O   UNL A   1      34.282  33.625  31.437  1.00  0.00    -0.376 OA
BRANCH   2   3
ATOM      3  C   UNL A   1      34.172  33.603  32.857  1.00  0.00     0.202 C 
BRANCH   3   4
ATOM      4  C   UNL A   1      34.591  34.758  33.803  1.00  0.00     0.261 C 
BRANCH   4   5
ATOM      5  O   UNL A   1      35.984  34.891  34.207  1.00  0.00    -0.463 OA
BRANCH   5   6
ATOM      6  C   UNL A   1      36.608  33.726  34.508  1.00  0.00     0.310 C 
ATOM      7  O   UNL A   1      36.874  33.438  35.677  1.00  0.00    -0.252 OA
BRANCH   6   8
ATOM      8  C   UNL A   1      37.155  32.862  33.348  1.00  0.00     0.115 C 
ATOM      9  C   UNL A   1      37.994  31.520  33.218  1.00  0.00     0.098 C 
ATOM     10  C   UNL A   1      39.250  31.941  32.433  1.00  0.00     0.003 C 
ATOM     11  C   UNL A   1      40.148  32.819  33.311  1.00  0.00     0.005 C 
ATOM     12  C   UNL A   1      38.675  32.957  31.448  1.00  0.00     0.009 C 
ATOM     13  C   UNL A   1      38.112  33.838  32.549  1.00  0.00     0.004 C 
ATOM     14  C   UNL A   1      39.382  34.133  33.377  1.00  0.00     0.005 C 
BRANCH   9  15
ATOM     15  C   UNL A   1      38.115  30.316  34.177  1.00  0.00     0.242 C 
ATOM     16  N   UNL A   1      38.405  30.360  35.538  1.00  0.00    -0.267 N 
ATOM     17  H   UNL A   1      38.423  29.481  35.983  1.00  0.00     0.191 HD
ATOM     18  O   UNL A   1      38.126  29.187  33.663  1.00  0.00    -0.273 OA
BRANCH  16  19
ATOM     19  N   UNL A   1      38.673  31.442  36.375  1.00  0.00    -0.264 N 
ATOM     20  C   UNL A   1      39.877  31.992  36.775  1.00  0.00     0.279 C 
ATOM     21  O   UNL A   1      39.773  33.026  37.457  1.00  0.00    -0.269 OA
ATOM     22  H   UNL A   1      37.874  31.887  36.741  1.00  0.00     0.191 HD
BRANCH  20  23
ATOM     23  C   UNL A   1      41.317  31.408  36.545  1.00  0.00     0.263 C 
BRANCH  23  24
ATOM     24  C   UNL A   1      42.235  31.965  37.650  1.00  0.00     0.052 C 
ATOM     25  C   UNL A   1      43.716  31.597  37.571  1.00  0.00     0.008 C 
ENDBRANCH  23  24
BRANCH  23  26
ATOM     26  O   UNL A   1      41.260  29.985  36.455  1.00  0.00    -0.479 OA
BRANCH  26  27
ATOM     27  C   UNL A   1      41.798  29.358  35.348  1.00  0.00     0.140 A 
ATOM     28  C   UNL A   1      42.458  30.119  34.368  1.00  0.00     0.068 A 
ATOM     29  C   UNL A   1      42.071  27.983  35.414  1.00  0.00     0.083 A 
ATOM     30  C   UNL A   1      43.337  29.518  33.459  1.00  0.00     0.044 A 
ATOM     31  C   UNL A   1      42.972  27.387  34.518  1.00  0.00     0.026 A 
ATOM     32  Cl  UNL A   1      41.412  27.011  36.678  1.00  0.00    -0.080 Cl
ATOM     33  Cl  UNL A   1      44.156  30.476  32.286  1.00  0.00    -0.084 Cl
ATOM     34  C   UNL A   1      43.608  28.155  33.540  1.00  0.00     0.022 A 
ENDBRANCH  26  27
ENDBRANCH  23  26
ENDBRANCH  20  23
ENDBRANCH  16  19
ENDBRANCH   9  15
ENDBRANCH   6   8
ENDBRANCH   5   6
ENDBRANCH   4   5
ENDBRANCH   3   4
ENDBRANCH   2   3
ENDBRANCH   1   2
BRANCH   1  35
ATOM     35  C   UNL A   1      34.800  32.598  29.254  1.00  0.00     0.188 C 
BRANCH  35  36
ATOM     36  O   UNL A   1      35.531  31.616  28.539  1.00  0.00    -0.377 OA
BRANCH  36  37
ATOM     37  C   UNL A   1      35.948  30.418  29.197  1.00  0.00     0.188 C 
BRANCH  37  38
ATOM     38  C   UNL A   1      36.837  29.496  28.371  1.00  0.00     0.188 C 
BRANCH  38  39
ATOM     39  O   UNL A   1      38.248  29.641  28.522  1.00  0.00    -0.376 OA
BRANCH  39  40
ATOM     40  C   UNL A   1      38.839  29.114  29.700  1.00  0.00     0.202 C 
BRANCH  40  41
ATOM     41  C   UNL A   1      40.351  28.986  29.645  1.00  0.00     0.261 C 
BRANCH  41  42
ATOM     42  O   UNL A   1      40.881  30.233  29.250  1.00  0.00    -0.460 OA
BRANCH  42  43
ATOM     43  C   UNL A   1      42.232  30.264  29.251  1.00  0.00     0.338 C 
ATOM     44  O   UNL A   1      43.037  29.375  29.048  1.00  0.00    -0.246 OA
BRANCH  43  45
ATOM     45  C   UNL A   1      42.550  31.672  29.389  1.00  0.00     0.060 A 
ATOM     46  C   UNL A   1      43.835  32.115  29.060  1.00  0.00     0.016 A 
ATOM     47  C   UNL A   1      41.532  32.532  29.805  1.00  0.00     0.016 A 
ATOM     48  C   UNL A   1      44.118  33.458  29.186  1.00  0.00     0.010 A 
ATOM     49  C   UNL A   1      41.810  33.867  29.931  1.00  0.00     0.010 A 
ATOM     50  C   UNL A   1      43.115  34.304  29.668  1.00  0.00    -0.014 A 
BRANCH  50  51
ATOM     51  C   UNL A   1      43.463  35.631  30.154  1.00  0.00     0.031 A 
ATOM     52  C   UNL A   1      43.658  35.771  31.628  1.00  0.00     0.074 A 
ATOM     53  C   UNL A   1      43.484  36.641  29.280  1.00  0.00     0.049 A 
ATOM     54  N   UNL A   1      43.791  36.852  32.338  1.00  0.00    -0.248 NA
ATOM     55  C   UNL A   1      43.668  34.521  32.416  1.00  0.00     0.031 C 
ATOM     56  C   UNL A   1      43.281  36.515  27.835  1.00  0.00     0.029 A 
ATOM     57  N   UNL A   1      43.650  37.975  29.491  1.00  0.00    -0.354 N 
ATOM     58  C   UNL A   1      43.887  36.417  33.653  1.00  0.00     0.074 A 
ATOM     59  C   UNL A   1      43.755  34.980  33.653  1.00  0.00     0.031 C 
ATOM     60  C   UNL A   1      43.314  37.739  27.288  1.00  0.00     0.029 A 
ATOM     61  C   UNL A   1      43.497  38.720  28.351  1.00  0.00     0.049 A 
ATOM     62  H   UNL A   1      43.858  38.364  30.370  1.00  0.00     0.167 HD
ATOM     63  C   UNL A   1      44.079  37.174  34.752  1.00  0.00     0.037 A 
ATOM     64  C   UNL A   1      43.474  40.054  28.221  1.00  0.00     0.037 A 
ATOM     65  C   UNL A   1      44.192  38.605  34.686  1.00  0.00     0.049 A 
ATOM     66  C   UNL A   1      43.658  40.875  29.468  1.00  0.00     0.074 A 
ATOM     67  C   UNL A   1      44.422  39.503  35.707  1.00  0.00     0.029 A 
ATOM     68  N   UNL A   1      44.071  39.340  33.512  1.00  0.00    -0.354 N 
ATOM     69  N   UNL A   1      43.806  40.468  30.709  1.00  0.00    -0.248 NA
ATOM     70  C   UNL A   1      43.679  42.329  29.301  1.00  0.00     0.031 C 
ATOM     71  C   UNL A   1      44.390  40.789  35.157  1.00  0.00     0.029 A 
ATOM     72  C   UNL A   1      44.197  40.688  33.785  1.00  0.00     0.049 A 
ATOM     73  H   UNL A   1      43.918  38.957  32.618  1.00  0.00     0.167 HD
ATOM     74  C   UNL A   1      43.962  41.615  31.471  1.00  0.00     0.074 A 
ATOM     75  C   UNL A   1      43.906  42.732  30.544  1.00  0.00     0.031 C 
ATOM     76  C   UNL A   1      44.134  41.750  32.811  1.00  0.00     0.037 A 
BRANCH  63  77
ATOM     77  C   UNL A   1      44.149  36.475  36.077  1.00  0.00     0.057 A 
ATOM     78  C   UNL A   1      45.371  36.140  36.676  1.00  0.00     0.134 A 
ATOM     79  C   UNL A   1      42.979  36.133  36.766  1.00  0.00     0.134 A 
ATOM     80  F   UNL A   1      46.530  36.412  36.057  1.00  0.00    -0.206 F 
ATOM     81  C   UNL A   1      45.427  35.475  37.903  1.00  0.00     0.040 A 
ATOM     82  C   UNL A   1      43.022  35.494  38.007  1.00  0.00     0.040 A 
ATOM     83  F   UNL A   1      41.775  36.412  36.245  1.00  0.00    -0.206 F 
ATOM     84  C   UNL A   1      44.248  35.158  38.576  1.00  0.00     0.006 A 
ENDBRANCH  63  77
BRANCH  64  85
ATOM     85  C   UNL A   1      43.281  40.666  26.886  1.00  0.00     0.057 A 
ATOM     86  C   UNL A   1      44.371  41.129  26.142  1.00  0.00     0.134 A 
ATOM     87  C   UNL A   1      42.010  40.776  26.306  1.00  0.00     0.134 A 
ATOM     88  F   UNL A   1      45.611  41.052  26.645  1.00  0.00    -0.206 F 
ATOM     89  C   UNL A   1      44.205  41.701  24.880  1.00  0.00     0.040 A 
ATOM     90  C   UNL A   1      41.832  41.321  25.034  1.00  0.00     0.040 A 
ATOM     91  F   UNL A   1      40.926  40.330  26.958  1.00  0.00    -0.206 F 
ATOM     92  C   UNL A   1      42.931  41.794  24.321  1.00  0.00     0.006 A 
ENDBRANCH  64  85
BRANCH  76  93
ATOM     93  C   UNL A   1      44.300  43.147  33.325  1.00  0.00     0.057 A 
ATOM     94  C   UNL A   1      45.561  43.682  33.606  1.00  0.00     0.134 A 
ATOM     95  C   UNL A   1      43.185  43.977  33.486  1.00  0.00     0.134 A 
ATOM     96  F   UNL A   1      46.664  42.927  33.482  1.00  0.00    -0.206 F 
ATOM     97  C   UNL A   1      45.706  44.993  34.054  1.00  0.00     0.040 A 
ATOM     98  C   UNL A   1      43.320  45.300  33.900  1.00  0.00     0.040 A 
ATOM     99  F   UNL A   1      41.950  43.523  33.218  1.00  0.00    -0.206 F 
ATOM    100  C   UNL A   1      44.584  45.808  34.193  1.00  0.00     0.006 A 
ENDBRANCH  76  93
ENDBRANCH  50  51
ENDBRANCH  43  45
ENDBRANCH  42  43
ENDBRANCH  41  42
ENDBRANCH  40  41
ENDBRANCH  39  40
ENDBRANCH  38  39
ENDBRANCH  37  38
ENDBRANCH  36  37
ENDBRANCH  35  36
ENDBRANCH   1  35
TORSDOF 26
ENDMDL
