MODEL 1
REMARK VINA RESULT:     -11.3      0.000      0.000
REMARK SMILES O=C(OCCOCCOCCOCCOC(=O)[C@@H]1CCCN(c2ccc3cc(S(=O)(=O)N4CCCCC4)ccc3n2)C1)c1ccc(-c2c3nc(c(-c4c(F)cccc4F)c4ccc([nH]4)c(-c4c(F)cccc4F)c4nc(c(-c5c(F)cccc5F)c5ccc2[nH]5)C=C4)C=C3)cc1
REMARK SMILES IDX 10 1 9 2 8 3 7 4 6 5 5 6 4 7 3 8 2 9 1 10 43 11 44 12 96 13
REMARK SMILES IDX 45 14 95 15 46 16 47 17 48 18 89 19 49 20 94 21 88 22 90 23
REMARK SMILES IDX 50 24 93 25 87 26 86 27 51 29 77 30 60 31 76 32 61 33 64 34
REMARK SMILES IDX 75 35 91 36 62 37 63 38 74 40 92 41 65 42 52 43 53 44 58 45
REMARK SMILES IDX 54 46 55 47 57 48 59 49 56 50 78 51 79 52 84 53 80 54 81 55
REMARK SMILES IDX 83 56 85 57 82 58 66 59 67 60 72 61 68 62 69 63 71 64 73 65
REMARK SMILES IDX 70 66 11 67 12 68 13 69 14 70 15 71 16 72 17 73 18 74 19 75
REMARK SMILES IDX 42 76 20 77 22 78 21 79 23 80 24 81 41 82 25 83 40 84 26 85
REMARK SMILES IDX 39 86 27 87 38 88 28 89 29 90 30 91 31 92 32 93 33 94 37 95
REMARK SMILES IDX 34 96 36 97 35 98
REMARK H PARENT 90 28 64 39
REMARK Flexibility Score: inf
ROOT
ATOM      1  C   UNL A   1      34.064  29.349  26.319  1.00  0.00     0.188 C 
ENDROOT
BRANCH   1   2
ATOM      2  O   UNL A   1      34.263  30.152  27.479  1.00  0.00    -0.377 OA
BRANCH   2   3
ATOM      3  C   UNL A   1      33.421  31.285  27.638  1.00  0.00     0.188 C 
BRANCH   3   4
ATOM      4  C   UNL A   1      34.158  32.472  28.195  1.00  0.00     0.188 C 
BRANCH   4   5
ATOM      5  O   UNL A   1      33.324  33.623  28.260  1.00  0.00    -0.376 OA
BRANCH   5   6
ATOM      6  C   UNL A   1      34.000  34.792  28.748  1.00  0.00     0.202 C 
BRANCH   6   7
ATOM      7  C   UNL A   1      33.101  35.898  29.332  1.00  0.00     0.261 C 
BRANCH   7   8
ATOM      8  O   UNL A   1      32.318  35.500  30.470  1.00  0.00    -0.460 OA
BRANCH   8   9
ATOM      9  C   UNL A   1      32.656  35.405  31.777  1.00  0.00     0.338 C 
ATOM     10  O   UNL A   1      31.991  36.029  32.604  1.00  0.00    -0.246 OA
BRANCH   9  11
ATOM     11  C   UNL A   1      33.894  34.781  32.298  1.00  0.00     0.060 A 
ATOM     12  C   UNL A   1      34.009  33.418  32.534  1.00  0.00     0.016 A 
ATOM     13  C   UNL A   1      35.063  35.566  32.288  1.00  0.00     0.016 A 
ATOM     14  C   UNL A   1      35.230  32.800  32.536  1.00  0.00     0.010 A 
ATOM     15  C   UNL A   1      36.312  34.970  32.423  1.00  0.00     0.010 A 
ATOM     16  C   UNL A   1      36.377  33.580  32.508  1.00  0.00    -0.014 A 
BRANCH  16  17
ATOM     17  C   UNL A   1      37.575  32.851  32.899  1.00  0.00     0.031 A 
ATOM     18  C   UNL A   1      38.027  33.080  34.303  1.00  0.00     0.074 A 
ATOM     19  C   UNL A   1      37.993  31.842  32.122  1.00  0.00     0.049 A 
ATOM     20  N   UNL A   1      39.037  32.571  34.940  1.00  0.00    -0.248 NA
ATOM     21  C   UNL A   1      37.193  33.988  35.120  1.00  0.00     0.031 C 
ATOM     22  C   UNL A   1      37.380  31.445  30.848  1.00  0.00     0.029 A 
ATOM     23  N   UNL A   1      38.984  30.928  32.313  1.00  0.00    -0.354 N 
ATOM     24  C   UNL A   1      38.987  33.132  36.209  1.00  0.00     0.074 A 
ATOM     25  C   UNL A   1      37.833  33.991  36.274  1.00  0.00     0.031 C 
ATOM     26  C   UNL A   1      38.017  30.363  30.373  1.00  0.00     0.029 A 
ATOM     27  C   UNL A   1      39.123  30.049  31.266  1.00  0.00     0.049 A 
ATOM     28  H   UNL A   1      39.546  30.901  33.121  1.00  0.00     0.167 HD
ATOM     29  C   UNL A   1      39.872  32.951  37.211  1.00  0.00     0.037 A 
ATOM     30  C   UNL A   1      40.093  29.142  31.061  1.00  0.00     0.037 A 
ATOM     31  C   UNL A   1      41.008  32.090  37.051  1.00  0.00     0.049 A 
ATOM     32  C   UNL A   1      41.149  29.054  32.132  1.00  0.00     0.074 A 
ATOM     33  C   UNL A   1      42.081  31.888  37.891  1.00  0.00     0.029 A 
ATOM     34  N   UNL A   1      41.204  31.283  35.931  1.00  0.00    -0.354 N 
ATOM     35  N   UNL A   1      41.205  29.688  33.284  1.00  0.00    -0.248 NA
ATOM     36  C   UNL A   1      42.280  28.162  31.877  1.00  0.00     0.031 C 
ATOM     37  C   UNL A   1      42.950  30.993  37.254  1.00  0.00     0.029 A 
ATOM     38  C   UNL A   1      42.390  30.591  36.046  1.00  0.00     0.049 A 
ATOM     39  H   UNL A   1      40.584  31.217  35.169  1.00  0.00     0.167 HD
ATOM     40  C   UNL A   1      42.372  29.269  33.900  1.00  0.00     0.074 A 
ATOM     41  C   UNL A   1      42.979  28.304  32.996  1.00  0.00     0.031 C 
ATOM     42  C   UNL A   1      42.911  29.639  35.091  1.00  0.00     0.037 A 
BRANCH  29  43
ATOM     43  C   UNL A   1      39.685  33.803  38.431  1.00  0.00     0.057 A 
ATOM     44  C   UNL A   1      39.013  33.350  39.575  1.00  0.00     0.134 A 
ATOM     45  C   UNL A   1      40.067  35.150  38.404  1.00  0.00     0.134 A 
ATOM     46  F   UNL A   1      38.566  32.086  39.646  1.00  0.00    -0.206 F 
ATOM     47  C   UNL A   1      38.700  34.212  40.631  1.00  0.00     0.040 A 
ATOM     48  C   UNL A   1      39.783  36.015  39.463  1.00  0.00     0.040 A 
ATOM     49  F   UNL A   1      40.688  35.660  37.331  1.00  0.00    -0.206 F 
ATOM     50  C   UNL A   1      39.086  35.550  40.575  1.00  0.00     0.006 A 
ENDBRANCH  29  43
BRANCH  30  51
ATOM     51  C   UNL A   1      40.153  28.359  29.798  1.00  0.00     0.057 A 
ATOM     52  C   UNL A   1      39.446  27.163  29.634  1.00  0.00     0.134 A 
ATOM     53  C   UNL A   1      40.927  28.791  28.710  1.00  0.00     0.134 A 
ATOM     54  F   UNL A   1      38.695  26.680  30.635  1.00  0.00    -0.206 F 
ATOM     55  C   UNL A   1      39.517  26.423  28.449  1.00  0.00     0.040 A 
ATOM     56  C   UNL A   1      40.986  28.077  27.511  1.00  0.00     0.040 A 
ATOM     57  F   UNL A   1      41.635  29.928  28.790  1.00  0.00    -0.206 F 
ATOM     58  C   UNL A   1      40.284  26.882  27.381  1.00  0.00     0.006 A 
ENDBRANCH  30  51
BRANCH  42  59
ATOM     59  C   UNL A   1      44.185  28.959  35.472  1.00  0.00     0.057 A 
ATOM     60  C   UNL A   1      44.201  27.858  36.334  1.00  0.00     0.134 A 
ATOM     61  C   UNL A   1      45.396  29.376  34.908  1.00  0.00     0.134 A 
ATOM     62  F   UNL A   1      43.068  27.427  36.911  1.00  0.00    -0.206 F 
ATOM     63  C   UNL A   1      45.391  27.203  36.640  1.00  0.00     0.040 A 
ATOM     64  C   UNL A   1      46.585  28.709  35.182  1.00  0.00     0.040 A 
ATOM     65  F   UNL A   1      45.432  30.419  34.064  1.00  0.00    -0.206 F 
ATOM     66  C   UNL A   1      46.584  27.622  36.054  1.00  0.00     0.006 A 
ENDBRANCH  42  59
ENDBRANCH  16  17
ENDBRANCH   9  11
ENDBRANCH   8   9
ENDBRANCH   7   8
ENDBRANCH   6   7
ENDBRANCH   5   6
ENDBRANCH   4   5
ENDBRANCH   3   4
ENDBRANCH   2   3
ENDBRANCH   1   2
BRANCH   1  67
ATOM     67  C   UNL A   1      32.851  29.656  25.463  1.00  0.00     0.188 C 
BRANCH  67  68
ATOM     68  O   UNL A   1      31.928  28.579  25.308  1.00  0.00    -0.376 OA
BRANCH  68  69
ATOM     69  C   UNL A   1      32.410  27.264  25.560  1.00  0.00     0.202 C 
BRANCH  69  70
ATOM     70  C   UNL A   1      31.286  26.209  25.623  1.00  0.00     0.261 C 
BRANCH  70  71
ATOM     71  O   UNL A   1      31.166  25.424  26.845  1.00  0.00    -0.463 OA
BRANCH  71  72
ATOM     72  C   UNL A   1      31.550  24.119  26.775  1.00  0.00     0.310 C 
ATOM     73  O   UNL A   1      31.730  23.414  27.765  1.00  0.00    -0.252 OA
BRANCH  72  74
ATOM     74  C   UNL A   1      31.835  23.581  25.356  1.00  0.00     0.118 C 
ATOM     75  C   UNL A   1      31.094  22.265  25.137  1.00  0.00     0.019 C 
ATOM     76  C   UNL A   1      33.252  23.675  24.708  1.00  0.00     0.133 C 
ATOM     77  C   UNL A   1      32.037  21.075  25.141  1.00  0.00     0.022 C 
ATOM     78  N   UNL A   1      33.900  22.406  24.329  1.00  0.00    -0.356 N 
ATOM     79  C   UNL A   1      33.077  21.246  24.040  1.00  0.00     0.118 C 
BRANCH  78  80
ATOM     80  C   UNL A   1      35.207  22.106  24.721  1.00  0.00     0.129 A 
ATOM     81  C   UNL A   1      35.689  20.830  24.473  1.00  0.00     0.047 A 
ATOM     82  N   UNL A   1      36.039  23.075  25.198  1.00  0.00    -0.231 NA
ATOM     83  C   UNL A   1      37.018  20.521  24.731  1.00  0.00     0.014 A 
ATOM     84  C   UNL A   1      37.337  22.765  25.510  1.00  0.00     0.073 A 
ATOM     85  C   UNL A   1      37.849  21.472  25.310  1.00  0.00     0.002 A 
ATOM     86  C   UNL A   1      38.232  23.683  26.084  1.00  0.00     0.030 A 
ATOM     87  C   UNL A   1      39.127  21.094  25.764  1.00  0.00     0.032 A 
ATOM     88  C   UNL A   1      39.505  23.309  26.586  1.00  0.00     0.024 A 
ATOM     89  C   UNL A   1      39.924  21.985  26.483  1.00  0.00     0.083 A 
BRANCH  89  90
ATOM     90  S   UNL A   1      41.310  21.289  27.409  1.00  0.00     0.243 S 
ATOM     91  O   UNL A   1      41.922  22.386  28.150  1.00  0.00    -0.207 OA
ATOM     92  O   UNL A   1      40.839  20.090  28.052  1.00  0.00    -0.207 OA
BRANCH  90  93
ATOM     93  N   UNL A   1      42.462  20.771  26.277  1.00  0.00    -0.198 NA
ATOM     94  C   UNL A   1      43.553  21.724  26.015  1.00  0.00     0.102 C 
ATOM     95  C   UNL A   1      42.644  19.315  26.143  1.00  0.00     0.102 C 
ATOM     96  C   UNL A   1      44.550  21.219  24.991  1.00  0.00     0.017 C 
ATOM     97  C   UNL A   1      43.746  18.906  25.181  1.00  0.00     0.017 C 
ATOM     98  C   UNL A   1      44.966  19.797  25.317  1.00  0.00     0.003 C 
ENDBRANCH  90  93
ENDBRANCH  89  90
ENDBRANCH  78  80
ENDBRANCH  72  74
ENDBRANCH  71  72
ENDBRANCH  70  71
ENDBRANCH  69  70
ENDBRANCH  68  69
ENDBRANCH  67  68
ENDBRANCH   1  67
TORSDOF 23
ENDMDL
MODEL 2
REMARK VINA RESULT:     -10.5      1.257      5.958
REMARK SMILES O=C(OCCOCCOCCOCCOC(=O)[C@@H]1CCCN(c2ccc3cc(S(=O)(=O)N4CCCCC4)ccc3n2)C1)c1ccc(-c2c3nc(c(-c4c(F)cccc4F)c4ccc([nH]4)c(-c4c(F)cccc4F)c4nc(c(-c5c(F)cccc5F)c5ccc2[nH]5)C=C4)C=C3)cc1
REMARK SMILES IDX 10 1 9 2 8 3 7 4 6 5 5 6 4 7 3 8 2 9 1 10 43 11 44 12 96 13
REMARK SMILES IDX 45 14 95 15 46 16 47 17 48 18 89 19 49 20 94 21 88 22 90 23
REMARK SMILES IDX 50 24 93 25 87 26 86 27 51 29 77 30 60 31 76 32 61 33 64 34
REMARK SMILES IDX 75 35 91 36 62 37 63 38 74 40 92 41 65 42 52 43 53 44 58 45
REMARK SMILES IDX 54 46 55 47 57 48 59 49 56 50 78 51 79 52 84 53 80 54 81 55
REMARK SMILES IDX 83 56 85 57 82 58 66 59 67 60 72 61 68 62 69 63 71 64 73 65
REMARK SMILES IDX 70 66 11 67 12 68 13 69 14 70 15 71 16 72 17 73 18 74 19 75
REMARK SMILES IDX 42 76 20 77 22 78 21 79 23 80 24 81 41 82 25 83 40 84 26 85
REMARK SMILES IDX 39 86 27 87 38 88 28 89 29 90 30 91 31 92 32 93 33 94 37 95
REMARK SMILES IDX 34 96 36 97 35 98
REMARK H PARENT 90 28 64 39
REMARK Flexibility Score: inf
ROOT
ATOM      1  C   UNL A   1      33.113  29.179  24.756  1.00  0.00     0.188 C 
ENDROOT
BRANCH   1   2
ATOM      2  O   UNL A   1      33.893  29.187  25.949  1.00  0.00    -0.377 OA
BRANCH   2   3
ATOM      3  C   UNL A   1      33.290  29.725  27.117  1.00  0.00     0.188 C 
BRANCH   3   4
ATOM      4  C   UNL A   1      34.168  30.739  27.798  1.00  0.00     0.188 C 
BRANCH   4   5
ATOM      5  O   UNL A   1      33.589  32.038  27.769  1.00  0.00    -0.376 OA
BRANCH   5   6
ATOM      6  C   UNL A   1      34.503  33.081  28.140  1.00  0.00     0.202 C 
BRANCH   6   7
ATOM      7  C   UNL A   1      33.986  34.523  27.975  1.00  0.00     0.261 C 
BRANCH   7   8
ATOM      8  O   UNL A   1      33.184  35.005  29.066  1.00  0.00    -0.460 OA
BRANCH   8   9
ATOM      9  C   UNL A   1      33.307  34.806  30.399  1.00  0.00     0.338 C 
ATOM     10  O   UNL A   1      32.440  35.263  31.144  1.00  0.00    -0.246 OA
BRANCH   9  11
ATOM     11  C   UNL A   1      34.507  34.264  31.077  1.00  0.00     0.060 A 
ATOM     12  C   UNL A   1      34.503  33.060  31.767  1.00  0.00     0.016 A 
ATOM     13  C   UNL A   1      35.743  34.866  30.773  1.00  0.00     0.016 A 
ATOM     14  C   UNL A   1      35.658  32.349  31.957  1.00  0.00     0.010 A 
ATOM     15  C   UNL A   1      36.935  34.218  31.080  1.00  0.00     0.010 A 
ATOM     16  C   UNL A   1      36.870  32.941  31.638  1.00  0.00    -0.014 A 
BRANCH  16  17
ATOM     17  C   UNL A   1      38.013  32.262  32.231  1.00  0.00     0.031 A 
ATOM     18  C   UNL A   1      38.800  31.407  31.295  1.00  0.00     0.074 A 
ATOM     19  C   UNL A   1      38.445  32.667  33.434  1.00  0.00     0.049 A 
ATOM     20  N   UNL A   1      39.864  30.698  31.518  1.00  0.00    -0.248 NA
ATOM     21  C   UNL A   1      38.341  31.381  29.889  1.00  0.00     0.031 C 
ATOM     22  C   UNL A   1      37.810  33.707  34.255  1.00  0.00     0.029 A 
ATOM     23  N   UNL A   1      39.546  32.306  34.149  1.00  0.00    -0.354 N 
ATOM     24  C   UNL A   1      40.170  30.106  30.300  1.00  0.00     0.074 A 
ATOM     25  C   UNL A   1      39.210  30.560  29.328  1.00  0.00     0.031 C 
ATOM     26  C   UNL A   1      38.540  33.895  35.366  1.00  0.00     0.029 A 
ATOM     27  C   UNL A   1      39.636  32.937  35.365  1.00  0.00     0.049 A 
ATOM     28  H   UNL A   1      40.211  31.656  33.825  1.00  0.00     0.167 HD
ATOM     29  C   UNL A   1      41.163  29.227  30.052  1.00  0.00     0.037 A 
ATOM     30  C   UNL A   1      40.494  32.694  36.371  1.00  0.00     0.037 A 
ATOM     31  C   UNL A   1      42.063  28.813  31.089  1.00  0.00     0.049 A 
ATOM     32  C   UNL A   1      41.510  31.609  36.120  1.00  0.00     0.074 A 
ATOM     33  C   UNL A   1      43.035  27.836  31.069  1.00  0.00     0.029 A 
ATOM     34  N   UNL A   1      42.074  29.380  32.363  1.00  0.00    -0.354 N 
ATOM     35  N   UNL A   1      41.724  30.923  35.018  1.00  0.00    -0.248 NA
ATOM     36  C   UNL A   1      42.377  31.240  37.240  1.00  0.00     0.031 C 
ATOM     37  C   UNL A   1      43.600  27.781  32.350  1.00  0.00     0.029 A 
ATOM     38  C   UNL A   1      43.024  28.763  33.149  1.00  0.00     0.049 A 
ATOM     39  H   UNL A   1      41.488  30.114  32.659  1.00  0.00     0.167 HD
ATOM     40  C   UNL A   1      42.757  30.045  35.302  1.00  0.00     0.074 A 
ATOM     41  C   UNL A   1      43.138  30.308  36.681  1.00  0.00     0.031 C 
ATOM     42  C   UNL A   1      43.339  29.102  34.518  1.00  0.00     0.037 A 
BRANCH  29  43
ATOM     43  C   UNL A   1      41.179  28.603  28.688  1.00  0.00     0.057 A 
ATOM     44  C   UNL A   1      40.448  27.449  28.376  1.00  0.00     0.134 A 
ATOM     45  C   UNL A   1      42.054  29.091  27.710  1.00  0.00     0.134 A 
ATOM     46  F   UNL A   1      39.633  26.891  29.286  1.00  0.00    -0.206 F 
ATOM     47  C   UNL A   1      40.610  26.786  27.154  1.00  0.00     0.040 A 
ATOM     48  C   UNL A   1      42.206  28.454  26.476  1.00  0.00     0.040 A 
ATOM     49  F   UNL A   1      42.808  30.174  27.950  1.00  0.00    -0.206 F 
ATOM     50  C   UNL A   1      41.493  27.290  26.201  1.00  0.00     0.006 A 
ENDBRANCH  29  43
BRANCH  30  51
ATOM     51  C   UNL A   1      40.362  33.394  37.676  1.00  0.00     0.057 A 
ATOM     52  C   UNL A   1      41.193  34.462  38.031  1.00  0.00     0.134 A 
ATOM     53  C   UNL A   1      39.391  33.009  38.613  1.00  0.00     0.134 A 
ATOM     54  F   UNL A   1      42.154  34.877  37.191  1.00  0.00    -0.206 F 
ATOM     55  C   UNL A   1      41.074  35.108  39.265  1.00  0.00     0.040 A 
ATOM     56  C   UNL A   1      39.241  33.663  39.838  1.00  0.00     0.040 A 
ATOM     57  F   UNL A   1      38.556  31.993  38.347  1.00  0.00    -0.206 F 
ATOM     58  C   UNL A   1      40.092  34.713  40.171  1.00  0.00     0.006 A 
ENDBRANCH  30  51
BRANCH  42  59
ATOM     59  C   UNL A   1      44.463  28.338  35.139  1.00  0.00     0.057 A 
ATOM     60  C   UNL A   1      44.260  27.092  35.741  1.00  0.00     0.134 A 
ATOM     61  C   UNL A   1      45.770  28.833  35.066  1.00  0.00     0.134 A 
ATOM     62  F   UNL A   1      43.025  26.578  35.847  1.00  0.00    -0.206 F 
ATOM     63  C   UNL A   1      45.326  26.368  36.270  1.00  0.00     0.040 A 
ATOM     64  C   UNL A   1      46.845  28.105  35.563  1.00  0.00     0.040 A 
ATOM     65  F   UNL A   1      46.018  30.018  34.486  1.00  0.00    -0.206 F 
ATOM     66  C   UNL A   1      46.623  26.871  36.171  1.00  0.00     0.006 A 
ENDBRANCH  42  59
ENDBRANCH  16  17
ENDBRANCH   9  11
ENDBRANCH   8   9
ENDBRANCH   7   8
ENDBRANCH   6   7
ENDBRANCH   5   6
ENDBRANCH   4   5
ENDBRANCH   3   4
ENDBRANCH   2   3
ENDBRANCH   1   2
BRANCH   1  67
ATOM     67  C   UNL A   1      31.610  29.295  24.910  1.00  0.00     0.188 C 
BRANCH  67  68
ATOM     68  O   UNL A   1      30.912  28.055  25.012  1.00  0.00    -0.376 OA
BRANCH  68  69
ATOM     69  C   UNL A   1      31.672  26.862  24.855  1.00  0.00     0.202 C 
BRANCH  69  70
ATOM     70  C   UNL A   1      30.995  25.625  25.480  1.00  0.00     0.261 C 
BRANCH  70  71
ATOM     71  O   UNL A   1      31.615  25.043  26.663  1.00  0.00    -0.463 OA
BRANCH  71  72
ATOM     72  C   UNL A   1      31.681  23.684  26.715  1.00  0.00     0.310 C 
ATOM     73  O   UNL A   1      31.540  23.040  27.752  1.00  0.00    -0.252 OA
BRANCH  72  74
ATOM     74  C   UNL A   1      32.034  22.981  25.387  1.00  0.00     0.118 C 
ATOM     75  C   UNL A   1      31.469  21.564  25.378  1.00  0.00     0.019 C 
ATOM     76  C   UNL A   1      33.428  23.157  24.706  1.00  0.00     0.133 C 
ATOM     77  C   UNL A   1      32.556  20.517  25.541  1.00  0.00     0.022 C 
ATOM     78  N   UNL A   1      34.235  21.937  24.508  1.00  0.00    -0.356 N 
ATOM     79  C   UNL A   1      33.567  20.653  24.408  1.00  0.00     0.118 C 
BRANCH  78  80
ATOM     80  C   UNL A   1      35.569  21.868  24.916  1.00  0.00     0.129 A 
ATOM     81  C   UNL A   1      36.239  20.664  24.762  1.00  0.00     0.047 A 
ATOM     82  N   UNL A   1      36.242  22.983  25.316  1.00  0.00    -0.231 NA
ATOM     83  C   UNL A   1      37.597  20.578  25.037  1.00  0.00     0.014 A 
ATOM     84  C   UNL A   1      37.569  22.897  25.646  1.00  0.00     0.073 A 
ATOM     85  C   UNL A   1      38.272  21.684  25.540  1.00  0.00     0.002 A 
ATOM     86  C   UNL A   1      38.312  23.978  26.147  1.00  0.00     0.030 A 
ATOM     87  C   UNL A   1      39.589  21.537  26.017  1.00  0.00     0.032 A 
ATOM     88  C   UNL A   1      39.623  23.839  26.670  1.00  0.00     0.024 A 
ATOM     89  C   UNL A   1      40.237  22.589  26.665  1.00  0.00     0.083 A 
BRANCH  89  90
ATOM     90  S   UNL A   1      41.704  22.180  27.635  1.00  0.00     0.243 S 
ATOM     91  O   UNL A   1      41.598  22.906  28.896  1.00  0.00    -0.207 OA
ATOM     92  O   UNL A   1      41.874  20.752  27.577  1.00  0.00    -0.207 OA
BRANCH  90  93
ATOM     93  N   UNL A   1      43.044  22.827  26.819  1.00  0.00    -0.198 NA
ATOM     94  C   UNL A   1      43.009  22.687  25.354  1.00  0.00     0.102 C 
ATOM     95  C   UNL A   1      43.747  23.937  27.485  1.00  0.00     0.102 C 
ATOM     96  C   UNL A   1      44.231  23.272  24.673  1.00  0.00     0.017 C 
ATOM     97  C   UNL A   1      44.883  24.536  26.675  1.00  0.00     0.017 C 
ATOM     98  C   UNL A   1      44.520  24.662  25.209  1.00  0.00     0.003 C 
ENDBRANCH  90  93
ENDBRANCH  89  90
ENDBRANCH  78  80
ENDBRANCH  72  74
ENDBRANCH  71  72
ENDBRANCH  70  71
ENDBRANCH  69  70
ENDBRANCH  68  69
ENDBRANCH  67  68
ENDBRANCH   1  67
TORSDOF 23
ENDMDL
MODEL 3
REMARK VINA RESULT:     -10.2      2.360      3.927
REMARK SMILES O=C(OCCOCCOCCOCCOC(=O)[C@@H]1CCCN(c2ccc3cc(S(=O)(=O)N4CCCCC4)ccc3n2)C1)c1ccc(-c2c3nc(c(-c4c(F)cccc4F)c4ccc([nH]4)c(-c4c(F)cccc4F)c4nc(c(-c5c(F)cccc5F)c5ccc2[nH]5)C=C4)C=C3)cc1
REMARK SMILES IDX 10 1 9 2 8 3 7 4 6 5 5 6 4 7 3 8 2 9 1 10 43 11 44 12 96 13
REMARK SMILES IDX 45 14 95 15 46 16 47 17 48 18 89 19 49 20 94 21 88 22 90 23
REMARK SMILES IDX 50 24 93 25 87 26 86 27 51 29 77 30 60 31 76 32 61 33 64 34
REMARK SMILES IDX 75 35 91 36 62 37 63 38 74 40 92 41 65 42 52 43 53 44 58 45
REMARK SMILES IDX 54 46 55 47 57 48 59 49 56 50 78 51 79 52 84 53 80 54 81 55
REMARK SMILES IDX 83 56 85 57 82 58 66 59 67 60 72 61 68 62 69 63 71 64 73 65
REMARK SMILES IDX 70 66 11 67 12 68 13 69 14 70 15 71 16 72 17 73 18 74 19 75
REMARK SMILES IDX 42 76 20 77 22 78 21 79 23 80 24 81 41 82 25 83 40 84 26 85
REMARK SMILES IDX 39 86 27 87 38 88 28 89 29 90 30 91 31 92 32 93 33 94 37 95
REMARK SMILES IDX 34 96 36 97 35 98
REMARK H PARENT 90 28 64 39
REMARK Flexibility Score: inf
ROOT
ATOM      1  C   UNL A   1      32.863  28.753  23.895  1.00  0.00     0.188 C 
ENDROOT
BRANCH   1   2
ATOM      2  O   UNL A   1      33.349  29.353  25.094  1.00  0.00    -0.377 OA
BRANCH   2   3
ATOM      3  C   UNL A   1      32.444  30.164  25.827  1.00  0.00     0.188 C 
BRANCH   3   4
ATOM      4  C   UNL A   1      32.825  30.278  27.278  1.00  0.00     0.188 C 
BRANCH   4   5
ATOM      5  O   UNL A   1      34.220  30.074  27.472  1.00  0.00    -0.376 OA
BRANCH   5   6
ATOM      6  C   UNL A   1      34.955  31.291  27.667  1.00  0.00     0.202 C 
BRANCH   6   7
ATOM      7  C   UNL A   1      34.667  32.053  28.975  1.00  0.00     0.261 C 
BRANCH   7   8
ATOM      8  O   UNL A   1      35.536  31.720  30.070  1.00  0.00    -0.460 OA
BRANCH   8   9
ATOM      9  C   UNL A   1      35.671  32.293  31.289  1.00  0.00     0.338 C 
ATOM     10  O   UNL A   1      34.838  33.129  31.640  1.00  0.00    -0.246 OA
BRANCH   9  11
ATOM     11  C   UNL A   1      36.855  32.166  32.169  1.00  0.00     0.060 A 
ATOM     12  C   UNL A   1      36.790  31.623  33.444  1.00  0.00     0.016 A 
ATOM     13  C   UNL A   1      38.118  32.354  31.578  1.00  0.00     0.016 A 
ATOM     14  C   UNL A   1      37.894  31.071  34.036  1.00  0.00     0.010 A 
ATOM     15  C   UNL A   1      39.270  31.920  32.226  1.00  0.00     0.010 A 
ATOM     16  C   UNL A   1      39.133  31.246  33.439  1.00  0.00    -0.014 A 
BRANCH  16  17
ATOM     17  C   UNL A   1      40.246  30.963  34.334  1.00  0.00     0.031 A 
ATOM     18  C   UNL A   1      40.451  31.961  35.426  1.00  0.00     0.074 A 
ATOM     19  C   UNL A   1      40.791  29.738  34.312  1.00  0.00     0.049 A 
ATOM     20  N   UNL A   1      41.336  31.978  36.374  1.00  0.00    -0.248 NA
ATOM     21  C   UNL A   1      39.489  33.083  35.477  1.00  0.00     0.031 C 
ATOM     22  C   UNL A   1      40.405  28.657  33.397  1.00  0.00     0.029 A 
ATOM     23  N   UNL A   1      41.734  29.174  35.116  1.00  0.00    -0.354 N 
ATOM     24  C   UNL A   1      41.069  33.131  37.101  1.00  0.00     0.074 A 
ATOM     25  C   UNL A   1      39.922  33.774  36.515  1.00  0.00     0.031 C 
ATOM     26  C   UNL A   1      41.114  27.556  33.695  1.00  0.00     0.029 A 
ATOM     27  C   UNL A   1      42.050  27.885  34.761  1.00  0.00     0.049 A 
ATOM     28  H   UNL A   1      42.149  29.643  35.875  1.00  0.00     0.167 HD
ATOM     29  C   UNL A   1      41.769  33.608  38.151  1.00  0.00     0.037 A 
ATOM     30  C   UNL A   1      43.040  27.108  35.232  1.00  0.00     0.037 A 
ATOM     31  C   UNL A   1      42.916  32.910  38.657  1.00  0.00     0.049 A 
ATOM     32  C   UNL A   1      43.896  27.716  36.312  1.00  0.00     0.074 A 
ATOM     33  C   UNL A   1      43.828  33.299  39.613  1.00  0.00     0.029 A 
ATOM     34  N   UNL A   1      43.300  31.646  38.210  1.00  0.00    -0.354 N 
ATOM     35  N   UNL A   1      43.755  28.877  36.916  1.00  0.00    -0.248 NA
ATOM     36  C   UNL A   1      45.054  26.941  36.756  1.00  0.00     0.031 C 
ATOM     37  C   UNL A   1      44.793  32.288  39.708  1.00  0.00     0.029 A 
ATOM     38  C   UNL A   1      44.448  31.243  38.857  1.00  0.00     0.049 A 
ATOM     39  H   UNL A   1      42.820  31.118  37.532  1.00  0.00     0.167 HD
ATOM     40  C   UNL A   1      44.799  28.972  37.821  1.00  0.00     0.074 A 
ATOM     41  C   UNL A   1      45.551  27.734  37.698  1.00  0.00     0.031 C 
ATOM     42  C   UNL A   1      45.125  29.979  38.672  1.00  0.00     0.037 A 
BRANCH  29  43
ATOM     43  C   UNL A   1      41.377  34.964  38.657  1.00  0.00     0.057 A 
ATOM     44  C   UNL A   1      41.952  36.148  38.173  1.00  0.00     0.134 A 
ATOM     45  C   UNL A   1      40.504  35.075  39.747  1.00  0.00     0.134 A 
ATOM     46  F   UNL A   1      42.842  36.111  37.168  1.00  0.00    -0.206 F 
ATOM     47  C   UNL A   1      41.699  37.385  38.775  1.00  0.00     0.040 A 
ATOM     48  C   UNL A   1      40.223  36.308  40.340  1.00  0.00     0.040 A 
ATOM     49  F   UNL A   1      39.940  33.982  40.280  1.00  0.00    -0.206 F 
ATOM     50  C   UNL A   1      40.832  37.466  39.862  1.00  0.00     0.006 A 
ENDBRANCH  29  43
BRANCH  30  51
ATOM     51  C   UNL A   1      43.315  25.774  34.635  1.00  0.00     0.057 A 
ATOM     52  C   UNL A   1      42.808  24.595  35.191  1.00  0.00     0.134 A 
ATOM     53  C   UNL A   1      44.102  25.642  33.480  1.00  0.00     0.134 A 
ATOM     54  F   UNL A   1      42.058  24.641  36.303  1.00  0.00    -0.206 F 
ATOM     55  C   UNL A   1      43.081  23.341  34.634  1.00  0.00     0.040 A 
ATOM     56  C   UNL A   1      44.360  24.400  32.896  1.00  0.00     0.040 A 
ATOM     57  F   UNL A   1      44.626  26.726  32.888  1.00  0.00    -0.206 F 
ATOM     58  C   UNL A   1      43.855  23.241  33.480  1.00  0.00     0.006 A 
ENDBRANCH  30  51
BRANCH  42  59
ATOM     59  C   UNL A   1      46.314  29.739  39.543  1.00  0.00     0.057 A 
ATOM     60  C   UNL A   1      47.595  30.158  39.169  1.00  0.00     0.134 A 
ATOM     61  C   UNL A   1      46.152  29.145  40.800  1.00  0.00     0.134 A 
ATOM     62  F   UNL A   1      47.806  30.722  37.970  1.00  0.00    -0.206 F 
ATOM     63  C   UNL A   1      48.687  29.973  40.014  1.00  0.00     0.040 A 
ATOM     64  C   UNL A   1      47.229  28.984  41.664  1.00  0.00     0.040 A 
ATOM     65  F   UNL A   1      44.941  28.739  41.211  1.00  0.00    -0.206 F 
ATOM     66  C   UNL A   1      48.501  29.395  41.270  1.00  0.00     0.006 A 
ENDBRANCH  42  59
ENDBRANCH  16  17
ENDBRANCH   9  11
ENDBRANCH   8   9
ENDBRANCH   7   8
ENDBRANCH   6   7
ENDBRANCH   5   6
ENDBRANCH   4   5
ENDBRANCH   3   4
ENDBRANCH   2   3
ENDBRANCH   1   2
BRANCH   1  67
ATOM     67  C   UNL A   1      31.395  28.943  23.571  1.00  0.00     0.188 C 
BRANCH  67  68
ATOM     68  O   UNL A   1      30.510  28.019  24.201  1.00  0.00    -0.376 OA
BRANCH  68  69
ATOM     69  C   UNL A   1      31.014  26.720  24.486  1.00  0.00     0.202 C 
BRANCH  69  70
ATOM     70  C   UNL A   1      31.109  26.424  25.998  1.00  0.00     0.261 C 
BRANCH  70  71
ATOM     71  O   UNL A   1      32.121  25.470  26.435  1.00  0.00    -0.463 OA
BRANCH  71  72
ATOM     72  C   UNL A   1      31.739  24.165  26.512  1.00  0.00     0.310 C 
ATOM     73  O   UNL A   1      31.229  23.668  27.514  1.00  0.00    -0.252 OA
BRANCH  72  74
ATOM     74  C   UNL A   1      32.064  23.299  25.276  1.00  0.00     0.118 C 
ATOM     75  C   UNL A   1      31.463  21.906  25.440  1.00  0.00     0.019 C 
ATOM     76  C   UNL A   1      33.456  23.356  24.572  1.00  0.00     0.133 C 
ATOM     77  C   UNL A   1      32.525  20.859  25.722  1.00  0.00     0.022 C 
ATOM     78  N   UNL A   1      34.230  22.101  24.517  1.00  0.00    -0.356 N 
ATOM     79  C   UNL A   1      33.529  20.832  24.575  1.00  0.00     0.118 C 
BRANCH  78  80
ATOM     80  C   UNL A   1      35.565  22.047  24.924  1.00  0.00     0.129 A 
ATOM     81  C   UNL A   1      36.284  20.891  24.659  1.00  0.00     0.047 A 
ATOM     82  N   UNL A   1      36.192  23.145  25.431  1.00  0.00    -0.231 NA
ATOM     83  C   UNL A   1      37.643  20.834  24.932  1.00  0.00     0.014 A 
ATOM     84  C   UNL A   1      37.522  23.081  25.758  1.00  0.00     0.073 A 
ATOM     85  C   UNL A   1      38.272  21.913  25.542  1.00  0.00     0.002 A 
ATOM     86  C   UNL A   1      38.219  24.139  26.364  1.00  0.00     0.030 A 
ATOM     87  C   UNL A   1      39.594  21.774  26.009  1.00  0.00     0.032 A 
ATOM     88  C   UNL A   1      39.534  24.002  26.878  1.00  0.00     0.024 A 
ATOM     89  C   UNL A   1      40.198  22.785  26.757  1.00  0.00     0.083 A 
BRANCH  89  90
ATOM     90  S   UNL A   1      41.679  22.344  27.692  1.00  0.00     0.243 S 
ATOM     91  O   UNL A   1      41.842  23.352  28.734  1.00  0.00    -0.207 OA
ATOM     92  O   UNL A   1      41.602  20.937  27.983  1.00  0.00    -0.207 OA
BRANCH  90  93
ATOM     93  N   UNL A   1      43.004  22.516  26.646  1.00  0.00    -0.198 NA
ATOM     94  C   UNL A   1      43.377  21.300  25.905  1.00  0.00     0.102 C 
ATOM     95  C   UNL A   1      43.249  23.867  26.110  1.00  0.00     0.102 C 
ATOM     96  C   UNL A   1      44.570  21.503  24.993  1.00  0.00     0.017 C 
ATOM     97  C   UNL A   1      44.391  23.949  25.114  1.00  0.00     0.017 C 
ATOM     98  C   UNL A   1      44.396  22.764  24.168  1.00  0.00     0.003 C 
ENDBRANCH  90  93
ENDBRANCH  89  90
ENDBRANCH  78  80
ENDBRANCH  72  74
ENDBRANCH  71  72
ENDBRANCH  70  71
ENDBRANCH  69  70
ENDBRANCH  68  69
ENDBRANCH  67  68
ENDBRANCH   1  67
TORSDOF 23
ENDMDL
