MODEL 1
REMARK VINA RESULT:      -9.1      0.000      0.000
REMARK SMILES O=C(C[C@@H](NC(=O)C1CC=CC1)C1CC1)OCCOCCOCCOCCOC(=O)c1ccc(-c2c3nc(c(-c4c(F)cccc4F)c4ccc([nH]4)c(-c4c(F)cccc4F)c4nc(c(-c5c(F)cccc5F)c5ccc2[nH]5)C=C4)C=C3)cc1
REMARK SMILES IDX 21 1 20 2 19 3 18 4 17 5 16 6 2 7 1 8 3 9 4 10 5 11 6 12
REMARK SMILES IDX 7 14 8 15 9 16 12 17 10 18 11 19 13 20 14 21 15 22 22 23
REMARK SMILES IDX 23 24 24 25 25 26 26 27 27 28 28 29 29 30 30 31 31 32 32 33
REMARK SMILES IDX 84 34 33 35 83 36 34 37 35 38 36 39 77 40 37 41 82 42 76 43
REMARK SMILES IDX 78 44 38 45 81 46 75 47 74 48 39 50 65 51 48 52 64 53 49 54
REMARK SMILES IDX 52 55 63 56 79 57 50 58 51 59 62 61 80 62 53 63 40 64 41 65
REMARK SMILES IDX 46 66 42 67 43 68 45 69 47 70 44 71 66 72 67 73 72 74 68 75
REMARK SMILES IDX 69 76 71 77 73 78 70 79 54 80 55 81 60 82 56 83 57 84 59 85
REMARK SMILES IDX 61 86 58 87
REMARK H PARENT 5 13 78 49 52 60
REMARK Flexibility Score: inf
ROOT
ATOM      1  C   UNL A   1      33.456  34.514  29.345  1.00  0.00     0.188 C 
ENDROOT
BRANCH   1   2
ATOM      2  C   UNL A   1      33.687  33.763  28.026  1.00  0.00     0.188 C 
BRANCH   2   3
ATOM      3  O   UNL A   1      34.296  32.494  28.131  1.00  0.00    -0.376 OA
BRANCH   3   4
ATOM      4  C   UNL A   1      33.836  31.336  27.457  1.00  0.00     0.202 C 
BRANCH   4   5
ATOM      5  C   UNL A   1      34.380  29.963  27.810  1.00  0.00     0.261 C 
BRANCH   5   6
ATOM      6  O   UNL A   1      34.691  29.012  26.764  1.00  0.00    -0.463 OA
BRANCH   6   7
ATOM      7  C   UNL A   1      33.962  28.365  25.842  1.00  0.00     0.307 C 
ATOM      8  O   UNL A   1      34.049  28.712  24.665  1.00  0.00    -0.252 OA
BRANCH   7   9
ATOM      9  C   UNL A   1      33.037  27.247  26.221  1.00  0.00     0.147 C 
BRANCH   9  10
ATOM     10  C   UNL A   1      33.047  26.090  25.224  1.00  0.00     0.096 C 
BRANCH  10  11
ATOM     11  N   UNL A   1      32.496  26.439  23.901  1.00  0.00    -0.352 N 
ATOM     12  C   UNL A   1      31.388  26.945  23.317  1.00  0.00     0.223 C 
ATOM     13  H   UNL A   1      33.164  26.235  23.207  1.00  0.00     0.163 HD
ATOM     14  O   UNL A   1      31.276  26.625  22.121  1.00  0.00    -0.275 OA
BRANCH  12  15
ATOM     15  C   UNL A   1      30.351  27.911  23.878  1.00  0.00     0.086 C 
ATOM     16  C   UNL A   1      30.639  29.399  24.072  1.00  0.00     0.040 C 
ATOM     17  C   UNL A   1      29.023  27.785  23.124  1.00  0.00     0.040 C 
ATOM     18  C   UNL A   1      29.528  30.070  23.323  1.00  0.00    -0.030 C 
ATOM     19  C   UNL A   1      28.654  29.195  22.817  1.00  0.00    -0.030 C 
ENDBRANCH  12  15
ENDBRANCH  10  11
BRANCH  10  20
ATOM     20  C   UNL A   1      34.402  25.469  25.181  1.00  0.00     0.012 C 
ATOM     21  C   UNL A   1      34.667  24.093  25.748  1.00  0.00     0.006 C 
ATOM     22  C   UNL A   1      34.679  24.312  24.263  1.00  0.00     0.006 C 
ENDBRANCH  10  20
ENDBRANCH   9  10
ENDBRANCH   7   9
ENDBRANCH   6   7
ENDBRANCH   5   6
ENDBRANCH   4   5
ENDBRANCH   3   4
ENDBRANCH   2   3
ENDBRANCH   1   2
BRANCH   1  23
ATOM     23  O   UNL A   1      33.701  35.910  29.386  1.00  0.00    -0.377 OA
BRANCH  23  24
ATOM     24  C   UNL A   1      33.015  36.642  30.385  1.00  0.00     0.188 C 
BRANCH  24  25
ATOM     25  C   UNL A   1      32.975  35.958  31.776  1.00  0.00     0.188 C 
BRANCH  25  26
ATOM     26  O   UNL A   1      34.017  36.126  32.727  1.00  0.00    -0.376 OA
BRANCH  26  27
ATOM     27  C   UNL A   1      35.067  35.177  32.812  1.00  0.00     0.202 C 
BRANCH  27  28
ATOM     28  C   UNL A   1      34.809  33.736  33.298  1.00  0.00     0.261 C 
BRANCH  28  29
ATOM     29  O   UNL A   1      35.859  32.785  33.070  1.00  0.00    -0.460 OA
BRANCH  29  30
ATOM     30  C   UNL A   1      35.753  32.033  31.950  1.00  0.00     0.338 C 
ATOM     31  O   UNL A   1      34.739  31.788  31.316  1.00  0.00    -0.246 OA
BRANCH  30  32
ATOM     32  C   UNL A   1      37.114  31.726  31.452  1.00  0.00     0.060 A 
ATOM     33  C   UNL A   1      37.427  32.075  30.127  1.00  0.00     0.016 A 
ATOM     34  C   UNL A   1      38.084  31.151  32.276  1.00  0.00     0.016 A 
ATOM     35  C   UNL A   1      38.699  31.827  29.615  1.00  0.00     0.010 A 
ATOM     36  C   UNL A   1      39.346  30.858  31.746  1.00  0.00     0.010 A 
ATOM     37  C   UNL A   1      39.642  31.161  30.405  1.00  0.00    -0.014 A 
BRANCH  37  38
ATOM     38  C   UNL A   1      40.802  30.520  29.742  1.00  0.00     0.031 A 
ATOM     39  C   UNL A   1      42.019  31.374  29.508  1.00  0.00     0.074 A 
ATOM     40  C   UNL A   1      40.802  29.225  29.387  1.00  0.00     0.049 A 
ATOM     41  N   UNL A   1      43.141  31.082  28.905  1.00  0.00    -0.248 NA
ATOM     42  C   UNL A   1      41.955  32.751  30.029  1.00  0.00     0.031 C 
ATOM     43  C   UNL A   1      39.712  28.280  29.613  1.00  0.00     0.029 A 
ATOM     44  N   UNL A   1      41.766  28.484  28.746  1.00  0.00    -0.354 N 
ATOM     45  C   UNL A   1      43.909  32.238  28.967  1.00  0.00     0.074 A 
ATOM     46  C   UNL A   1      43.119  33.244  29.639  1.00  0.00     0.031 C 
ATOM     47  C   UNL A   1      40.060  27.085  29.099  1.00  0.00     0.029 A 
ATOM     48  C   UNL A   1      41.382  27.193  28.483  1.00  0.00     0.049 A 
ATOM     49  H   UNL A   1      42.647  28.846  28.499  1.00  0.00     0.167 HD
ATOM     50  C   UNL A   1      45.165  32.443  28.510  1.00  0.00     0.037 A 
ATOM     51  C   UNL A   1      42.020  26.223  27.797  1.00  0.00     0.037 A 
ATOM     52  C   UNL A   1      45.946  31.446  27.832  1.00  0.00     0.049 A 
ATOM     53  C   UNL A   1      43.384  26.503  27.215  1.00  0.00     0.074 A 
ATOM     54  C   UNL A   1      47.232  31.551  27.332  1.00  0.00     0.029 A 
ATOM     55  N   UNL A   1      45.508  30.161  27.550  1.00  0.00    -0.354 N 
ATOM     56  N   UNL A   1      44.112  27.591  27.291  1.00  0.00    -0.248 NA
ATOM     57  C   UNL A   1      44.015  25.416  26.451  1.00  0.00     0.031 C 
ATOM     58  C   UNL A   1      47.550  30.347  26.697  1.00  0.00     0.029 A 
ATOM     59  C   UNL A   1      46.487  29.472  26.856  1.00  0.00     0.049 A 
ATOM     60  H   UNL A   1      44.630  29.794  27.804  1.00  0.00     0.167 HD
ATOM     61  C   UNL A   1      45.295  27.310  26.617  1.00  0.00     0.074 A 
ATOM     62  C   UNL A   1      45.192  25.944  26.147  1.00  0.00     0.031 C 
ATOM     63  C   UNL A   1      46.371  28.107  26.406  1.00  0.00     0.037 A 
BRANCH  50  64
ATOM     64  C   UNL A   1      45.748  33.813  28.697  1.00  0.00     0.057 A 
ATOM     65  C   UNL A   1      46.504  34.151  29.827  1.00  0.00     0.134 A 
ATOM     66  C   UNL A   1      45.554  34.805  27.728  1.00  0.00     0.134 A 
ATOM     67  F   UNL A   1      46.708  33.253  30.803  1.00  0.00    -0.206 F 
ATOM     68  C   UNL A   1      47.027  35.434  29.997  1.00  0.00     0.040 A 
ATOM     69  C   UNL A   1      46.095  36.083  27.874  1.00  0.00     0.040 A 
ATOM     70  F   UNL A   1      44.837  34.548  26.623  1.00  0.00    -0.206 F 
ATOM     71  C   UNL A   1      46.828  36.402  29.015  1.00  0.00     0.006 A 
ENDBRANCH  50  64
BRANCH  51  72
ATOM     72  C   UNL A   1      41.375  24.899  27.596  1.00  0.00     0.057 A 
ATOM     73  C   UNL A   1      40.355  24.721  26.654  1.00  0.00     0.134 A 
ATOM     74  C   UNL A   1      41.738  23.788  28.368  1.00  0.00     0.134 A 
ATOM     75  F   UNL A   1      39.941  25.753  25.904  1.00  0.00    -0.206 F 
ATOM     76  C   UNL A   1      39.706  23.495  26.500  1.00  0.00     0.040 A 
ATOM     77  C   UNL A   1      41.117  22.548  28.206  1.00  0.00     0.040 A 
ATOM     78  F   UNL A   1      42.706  23.890  29.291  1.00  0.00    -0.206 F 
ATOM     79  C   UNL A   1      40.091  22.401  27.274  1.00  0.00     0.006 A 
ENDBRANCH  51  72
BRANCH  63  80
ATOM     80  C   UNL A   1      47.543  27.515  25.676  1.00  0.00     0.057 A 
ATOM     81  C   UNL A   1      48.609  26.907  26.348  1.00  0.00     0.134 A 
ATOM     82  C   UNL A   1      47.577  27.511  24.274  1.00  0.00     0.134 A 
ATOM     83  F   UNL A   1      48.643  26.885  27.690  1.00  0.00    -0.206 F 
ATOM     84  C   UNL A   1      49.678  26.335  25.655  1.00  0.00     0.040 A 
ATOM     85  C   UNL A   1      48.625  26.916  23.571  1.00  0.00     0.040 A 
ATOM     86  F   UNL A   1      46.581  28.066  23.567  1.00  0.00    -0.206 F 
ATOM     87  C   UNL A   1      49.682  26.331  24.262  1.00  0.00     0.006 A 
ENDBRANCH  63  80
ENDBRANCH  37  38
ENDBRANCH  30  32
ENDBRANCH  29  30
ENDBRANCH  28  29
ENDBRANCH  27  28
ENDBRANCH  26  27
ENDBRANCH  25  26
ENDBRANCH  24  25
ENDBRANCH  23  24
ENDBRANCH   1  23
TORSDOF 24
ENDMDL
MODEL 2
REMARK VINA RESULT:      -9.1      4.915     10.219
REMARK SMILES O=C(C[C@@H](NC(=O)C1CC=CC1)C1CC1)OCCOCCOCCOCCOC(=O)c1ccc(-c2c3nc(c(-c4c(F)cccc4F)c4ccc([nH]4)c(-c4c(F)cccc4F)c4nc(c(-c5c(F)cccc5F)c5ccc2[nH]5)C=C4)C=C3)cc1
REMARK SMILES IDX 21 1 20 2 19 3 18 4 17 5 16 6 2 7 1 8 3 9 4 10 5 11 6 12
REMARK SMILES IDX 7 14 8 15 9 16 12 17 10 18 11 19 13 20 14 21 15 22 22 23
REMARK SMILES IDX 23 24 24 25 25 26 26 27 27 28 28 29 29 30 30 31 31 32 32 33
REMARK SMILES IDX 84 34 33 35 83 36 34 37 35 38 36 39 77 40 37 41 82 42 76 43
REMARK SMILES IDX 78 44 38 45 81 46 75 47 74 48 39 50 65 51 48 52 64 53 49 54
REMARK SMILES IDX 52 55 63 56 79 57 50 58 51 59 62 61 80 62 53 63 40 64 41 65
REMARK SMILES IDX 46 66 42 67 43 68 45 69 47 70 44 71 66 72 67 73 72 74 68 75
REMARK SMILES IDX 69 76 71 77 73 78 70 79 54 80 55 81 60 82 56 83 57 84 59 85
REMARK SMILES IDX 61 86 58 87
REMARK H PARENT 5 13 78 49 52 60
REMARK Flexibility Score: inf
ROOT
ATOM      1  C   UNL A   1      39.333  22.814  26.503  1.00  0.00     0.188 C 
ENDROOT
BRANCH   1   2
ATOM      2  C   UNL A   1      38.192  23.823  26.313  1.00  0.00     0.188 C 
BRANCH   2   3
ATOM      3  O   UNL A   1      37.272  23.534  25.282  1.00  0.00    -0.376 OA
BRANCH   3   4
ATOM      4  C   UNL A   1      36.254  22.554  25.380  1.00  0.00     0.202 C 
BRANCH   4   5
ATOM      5  C   UNL A   1      35.002  22.813  26.199  1.00  0.00     0.261 C 
BRANCH   5   6
ATOM      6  O   UNL A   1      33.956  23.669  25.680  1.00  0.00    -0.463 OA
BRANCH   6   7
ATOM      7  C   UNL A   1      33.348  24.777  26.129  1.00  0.00     0.307 C 
ATOM      8  O   UNL A   1      32.321  24.662  26.798  1.00  0.00    -0.252 OA
BRANCH   7   9
ATOM      9  C   UNL A   1      33.882  26.144  25.815  1.00  0.00     0.147 C 
BRANCH   9  10
ATOM     10  C   UNL A   1      32.834  27.077  25.210  1.00  0.00     0.096 C 
BRANCH  10  11
ATOM     11  N   UNL A   1      31.507  26.456  25.046  1.00  0.00    -0.352 N 
ATOM     12  C   UNL A   1      30.680  25.963  24.098  1.00  0.00     0.223 C 
ATOM     13  H   UNL A   1      31.077  26.371  25.928  1.00  0.00     0.163 HD
ATOM     14  O   UNL A   1      29.487  25.956  24.446  1.00  0.00    -0.275 OA
BRANCH  12  15
ATOM     15  C   UNL A   1      31.015  25.336  22.749  1.00  0.00     0.086 C 
ATOM     16  C   UNL A   1      31.727  26.110  21.642  1.00  0.00     0.040 C 
ATOM     17  C   UNL A   1      31.745  24.002  22.933  1.00  0.00     0.040 C 
ATOM     18  C   UNL A   1      32.904  25.244  21.312  1.00  0.00    -0.030 C 
ATOM     19  C   UNL A   1      32.907  24.104  22.008  1.00  0.00    -0.030 C 
ENDBRANCH  12  15
ENDBRANCH  10  11
BRANCH  10  20
ATOM     20  C   UNL A   1      32.820  28.372  25.951  1.00  0.00     0.012 C 
ATOM     21  C   UNL A   1      32.975  29.698  25.243  1.00  0.00     0.006 C 
ATOM     22  C   UNL A   1      31.649  29.305  25.827  1.00  0.00     0.006 C 
ENDBRANCH  10  20
ENDBRANCH   9  10
ENDBRANCH   7   9
ENDBRANCH   6   7
ENDBRANCH   5   6
ENDBRANCH   4   5
ENDBRANCH   3   4
ENDBRANCH   2   3
ENDBRANCH   1   2
BRANCH   1  23
ATOM     23  O   UNL A   1      39.028  21.429  26.484  1.00  0.00    -0.377 OA
BRANCH  23  24
ATOM     24  C   UNL A   1      40.059  20.561  26.051  1.00  0.00     0.188 C 
BRANCH  24  25
ATOM     25  C   UNL A   1      41.141  20.258  27.119  1.00  0.00     0.188 C 
BRANCH  25  26
ATOM     26  O   UNL A   1      42.529  20.357  26.833  1.00  0.00    -0.376 OA
BRANCH  26  27
ATOM     27  C   UNL A   1      42.983  21.170  25.763  1.00  0.00     0.202 C 
BRANCH  27  28
ATOM     28  C   UNL A   1      44.440  21.673  25.701  1.00  0.00     0.261 C 
BRANCH  28  29
ATOM     29  O   UNL A   1      44.717  22.915  26.366  1.00  0.00    -0.460 OA
BRANCH  29  30
ATOM     30  C   UNL A   1      44.463  24.041  25.659  1.00  0.00     0.338 C 
ATOM     31  O   UNL A   1      44.687  24.239  24.476  1.00  0.00    -0.246 OA
BRANCH  30  32
ATOM     32  C   UNL A   1      43.641  24.950  26.491  1.00  0.00     0.060 A 
ATOM     33  C   UNL A   1      43.921  26.326  26.443  1.00  0.00     0.016 A 
ATOM     34  C   UNL A   1      42.582  24.475  27.271  1.00  0.00     0.016 A 
ATOM     35  C   UNL A   1      43.165  27.227  27.189  1.00  0.00     0.010 A 
ATOM     36  C   UNL A   1      41.855  25.374  28.057  1.00  0.00     0.010 A 
ATOM     37  C   UNL A   1      42.169  26.746  28.047  1.00  0.00    -0.014 A 
BRANCH  37  38
ATOM     38  C   UNL A   1      41.681  27.624  29.136  1.00  0.00     0.031 A 
ATOM     39  C   UNL A   1      42.416  27.566  30.448  1.00  0.00     0.074 A 
ATOM     40  C   UNL A   1      40.651  28.470  28.970  1.00  0.00     0.049 A 
ATOM     41  N   UNL A   1      42.167  28.183  31.572  1.00  0.00    -0.248 NA
ATOM     42  C   UNL A   1      43.596  26.684  30.492  1.00  0.00     0.031 C 
ATOM     43  C   UNL A   1      39.898  28.664  27.734  1.00  0.00     0.029 A 
ATOM     44  N   UNL A   1      40.055  29.323  29.867  1.00  0.00    -0.354 N 
ATOM     45  C   UNL A   1      43.150  27.758  32.456  1.00  0.00     0.074 A 
ATOM     46  C   UNL A   1      43.984  26.811  31.750  1.00  0.00     0.031 C 
ATOM     47  C   UNL A   1      38.925  29.567  27.956  1.00  0.00     0.029 A 
ATOM     48  C   UNL A   1      38.969  29.988  29.356  1.00  0.00     0.049 A 
ATOM     49  H   UNL A   1      40.377  29.445  30.789  1.00  0.00     0.167 HD
ATOM     50  C   UNL A   1      43.348  28.127  33.742  1.00  0.00     0.037 A 
ATOM     51  C   UNL A   1      38.098  30.819  29.963  1.00  0.00     0.037 A 
ATOM     52  C   UNL A   1      42.514  29.061  34.447  1.00  0.00     0.049 A 
ATOM     53  C   UNL A   1      38.283  31.146  31.425  1.00  0.00     0.074 A 
ATOM     54  C   UNL A   1      42.630  29.506  35.751  1.00  0.00     0.029 A 
ATOM     55  N   UNL A   1      41.399  29.683  33.906  1.00  0.00    -0.354 N 
ATOM     56  N   UNL A   1      39.224  30.755  32.250  1.00  0.00    -0.248 NA
ATOM     57  C   UNL A   1      37.282  32.033  32.037  1.00  0.00     0.031 C 
ATOM     58  C   UNL A   1      41.552  30.356  36.017  1.00  0.00     0.029 A 
ATOM     59  C   UNL A   1      40.801  30.488  34.860  1.00  0.00     0.049 A 
ATOM     60  H   UNL A   1      41.080  29.569  32.982  1.00  0.00     0.167 HD
ATOM     61  C   UNL A   1      38.949  31.372  33.466  1.00  0.00     0.074 A 
ATOM     62  C   UNL A   1      37.759  32.171  33.267  1.00  0.00     0.031 C 
ATOM     63  C   UNL A   1      39.621  31.287  34.641  1.00  0.00     0.037 A 
BRANCH  50  64
ATOM     64  C   UNL A   1      44.490  27.486  34.473  1.00  0.00     0.057 A 
ATOM     65  C   UNL A   1      44.338  26.293  35.191  1.00  0.00     0.134 A 
ATOM     66  C   UNL A   1      45.763  28.070  34.452  1.00  0.00     0.134 A 
ATOM     67  F   UNL A   1      43.140  25.694  35.269  1.00  0.00    -0.206 F 
ATOM     68  C   UNL A   1      45.405  25.715  35.881  1.00  0.00     0.040 A 
ATOM     69  C   UNL A   1      46.844  27.487  35.116  1.00  0.00     0.040 A 
ATOM     70  F   UNL A   1      45.977  29.215  33.787  1.00  0.00    -0.206 F 
ATOM     71  C   UNL A   1      46.664  26.310  35.838  1.00  0.00     0.006 A 
ENDBRANCH  50  64
BRANCH  51  72
ATOM     72  C   UNL A   1      36.952  31.387  29.205  1.00  0.00     0.057 A 
ATOM     73  C   UNL A   1      35.827  30.614  28.898  1.00  0.00     0.134 A 
ATOM     74  C   UNL A   1      36.972  32.708  28.739  1.00  0.00     0.134 A 
ATOM     75  F   UNL A   1      35.760  29.333  29.290  1.00  0.00    -0.206 F 
ATOM     76  C   UNL A   1      34.773  31.124  28.138  1.00  0.00     0.040 A 
ATOM     77  C   UNL A   1      35.912  33.241  28.002  1.00  0.00     0.040 A 
ATOM     78  F   UNL A   1      38.021  33.503  28.996  1.00  0.00    -0.206 F 
ATOM     79  C   UNL A   1      34.811  32.444  27.693  1.00  0.00     0.006 A 
ENDBRANCH  51  72
BRANCH  63  80
ATOM     80  C   UNL A   1      39.117  32.111  35.791  1.00  0.00     0.057 A 
ATOM     81  C   UNL A   1      39.498  33.445  35.975  1.00  0.00     0.134 A 
ATOM     82  C   UNL A   1      38.194  31.572  36.700  1.00  0.00     0.134 A 
ATOM     83  F   UNL A   1      40.384  34.019  35.146  1.00  0.00    -0.206 F 
ATOM     84  C   UNL A   1      38.998  34.207  37.033  1.00  0.00     0.040 A 
ATOM     85  C   UNL A   1      37.666  32.332  37.742  1.00  0.00     0.040 A 
ATOM     86  F   UNL A   1      37.777  30.303  36.574  1.00  0.00    -0.206 F 
ATOM     87  C   UNL A   1      38.072  33.653  37.915  1.00  0.00     0.006 A 
ENDBRANCH  63  80
ENDBRANCH  37  38
ENDBRANCH  30  32
ENDBRANCH  29  30
ENDBRANCH  28  29
ENDBRANCH  27  28
ENDBRANCH  26  27
ENDBRANCH  25  26
ENDBRANCH  24  25
ENDBRANCH  23  24
ENDBRANCH   1  23
TORSDOF 24
ENDMDL
MODEL 3
REMARK VINA RESULT:      -9.0      4.673     10.158
REMARK SMILES O=C(C[C@@H](NC(=O)C1CC=CC1)C1CC1)OCCOCCOCCOCCOC(=O)c1ccc(-c2c3nc(c(-c4c(F)cccc4F)c4ccc([nH]4)c(-c4c(F)cccc4F)c4nc(c(-c5c(F)cccc5F)c5ccc2[nH]5)C=C4)C=C3)cc1
REMARK SMILES IDX 21 1 20 2 19 3 18 4 17 5 16 6 2 7 1 8 3 9 4 10 5 11 6 12
REMARK SMILES IDX 7 14 8 15 9 16 12 17 10 18 11 19 13 20 14 21 15 22 22 23
REMARK SMILES IDX 23 24 24 25 25 26 26 27 27 28 28 29 29 30 30 31 31 32 32 33
REMARK SMILES IDX 84 34 33 35 83 36 34 37 35 38 36 39 77 40 37 41 82 42 76 43
REMARK SMILES IDX 78 44 38 45 81 46 75 47 74 48 39 50 65 51 48 52 64 53 49 54
REMARK SMILES IDX 52 55 63 56 79 57 50 58 51 59 62 61 80 62 53 63 40 64 41 65
REMARK SMILES IDX 46 66 42 67 43 68 45 69 47 70 44 71 66 72 67 73 72 74 68 75
REMARK SMILES IDX 69 76 71 77 73 78 70 79 54 80 55 81 60 82 56 83 57 84 59 85
REMARK SMILES IDX 61 86 58 87
REMARK H PARENT 5 13 78 49 52 60
REMARK Flexibility Score: inf
ROOT
ATOM      1  C   UNL A   1      38.634  22.782  26.296  1.00  0.00     0.188 C 
ENDROOT
BRANCH   1   2
ATOM      2  C   UNL A   1      37.464  23.676  25.863  1.00  0.00     0.188 C 
BRANCH   2   3
ATOM      3  O   UNL A   1      37.124  23.635  24.493  1.00  0.00    -0.376 OA
BRANCH   3   4
ATOM      4  C   UNL A   1      36.280  22.655  23.915  1.00  0.00     0.202 C 
BRANCH   4   5
ATOM      5  C   UNL A   1      34.857  22.997  23.508  1.00  0.00     0.261 C 
BRANCH   5   6
ATOM      6  O   UNL A   1      34.592  24.172  22.705  1.00  0.00    -0.463 OA
BRANCH   6   7
ATOM      7  C   UNL A   1      33.494  24.900  22.448  1.00  0.00     0.307 C 
ATOM      8  O   UNL A   1      33.463  25.587  21.428  1.00  0.00    -0.252 OA
BRANCH   7   9
ATOM      9  C   UNL A   1      32.322  24.904  23.384  1.00  0.00     0.147 C 
BRANCH   9  10
ATOM     10  C   UNL A   1      32.094  26.256  24.060  1.00  0.00     0.096 C 
BRANCH  10  11
ATOM     11  N   UNL A   1      33.136  27.255  23.758  1.00  0.00    -0.352 N 
ATOM     12  C   UNL A   1      33.577  28.472  24.145  1.00  0.00     0.223 C 
ATOM     13  H   UNL A   1      33.704  26.922  23.026  1.00  0.00     0.163 HD
ATOM     14  O   UNL A   1      34.231  29.057  23.264  1.00  0.00    -0.275 OA
BRANCH  12  15
ATOM     15  C   UNL A   1      33.477  29.154  25.505  1.00  0.00     0.086 C 
ATOM     16  C   UNL A   1      32.252  29.965  25.924  1.00  0.00     0.040 C 
ATOM     17  C   UNL A   1      33.797  28.170  26.634  1.00  0.00     0.040 C 
ATOM     18  C   UNL A   1      31.848  29.339  27.224  1.00  0.00    -0.030 C 
ATOM     19  C   UNL A   1      32.688  28.373  27.607  1.00  0.00    -0.030 C 
ENDBRANCH  12  15
ENDBRANCH  10  11
BRANCH  10  20
ATOM     20  C   UNL A   1      30.701  26.723  23.803  1.00  0.00     0.012 C 
ATOM     21  C   UNL A   1      30.371  28.187  23.626  1.00  0.00     0.006 C 
ATOM     22  C   UNL A   1      30.315  27.254  22.451  1.00  0.00     0.006 C 
ENDBRANCH  10  20
ENDBRANCH   9  10
ENDBRANCH   7   9
ENDBRANCH   6   7
ENDBRANCH   5   6
ENDBRANCH   4   5
ENDBRANCH   3   4
ENDBRANCH   2   3
ENDBRANCH   1   2
BRANCH   1  23
ATOM     23  O   UNL A   1      38.554  21.388  26.050  1.00  0.00    -0.377 OA
BRANCH  23  24
ATOM     24  C   UNL A   1      39.771  20.728  25.757  1.00  0.00     0.188 C 
BRANCH  24  25
ATOM     25  C   UNL A   1      40.716  20.542  26.972  1.00  0.00     0.188 C 
BRANCH  25  26
ATOM     26  O   UNL A   1      42.120  20.735  26.871  1.00  0.00    -0.376 OA
BRANCH  26  27
ATOM     27  C   UNL A   1      42.646  21.704  25.979  1.00  0.00     0.202 C 
BRANCH  27  28
ATOM     28  C   UNL A   1      44.161  21.805  25.709  1.00  0.00     0.261 C 
BRANCH  28  29
ATOM     29  O   UNL A   1      44.853  22.894  26.340  1.00  0.00    -0.460 OA
BRANCH  29  30
ATOM     30  C   UNL A   1      44.729  24.104  25.746  1.00  0.00     0.338 C 
ATOM     31  O   UNL A   1      45.070  24.414  24.616  1.00  0.00    -0.246 OA
BRANCH  30  32
ATOM     32  C   UNL A   1      43.888  24.971  26.604  1.00  0.00     0.060 A 
ATOM     33  C   UNL A   1      43.933  26.358  26.389  1.00  0.00     0.016 A 
ATOM     34  C   UNL A   1      43.032  24.436  27.571  1.00  0.00     0.016 A 
ATOM     35  C   UNL A   1      43.147  27.217  27.154  1.00  0.00     0.010 A 
ATOM     36  C   UNL A   1      42.278  25.302  28.371  1.00  0.00     0.010 A 
ATOM     37  C   UNL A   1      42.363  26.695  28.189  1.00  0.00    -0.014 A 
BRANCH  37  38
ATOM     38  C   UNL A   1      41.887  27.609  29.253  1.00  0.00     0.031 A 
ATOM     39  C   UNL A   1      42.634  27.593  30.559  1.00  0.00     0.074 A 
ATOM     40  C   UNL A   1      40.857  28.451  29.070  1.00  0.00     0.049 A 
ATOM     41  N   UNL A   1      42.397  28.246  31.665  1.00  0.00    -0.248 NA
ATOM     42  C   UNL A   1      43.813  26.710  30.621  1.00  0.00     0.031 C 
ATOM     43  C   UNL A   1      40.093  28.606  27.835  1.00  0.00     0.029 A 
ATOM     44  N   UNL A   1      40.271  29.335  29.944  1.00  0.00    -0.354 N 
ATOM     45  C   UNL A   1      43.388  27.848  32.553  1.00  0.00     0.074 A 
ATOM     46  C   UNL A   1      44.213  26.877  31.871  1.00  0.00     0.031 C 
ATOM     47  C   UNL A   1      39.124  29.519  28.036  1.00  0.00     0.029 A 
ATOM     48  C   UNL A   1      39.182  29.985  29.422  1.00  0.00     0.049 A 
ATOM     49  H   UNL A   1      40.603  29.487  30.858  1.00  0.00     0.167 HD
ATOM     50  C   UNL A   1      43.599  28.259  33.824  1.00  0.00     0.037 A 
ATOM     51  C   UNL A   1      38.318  30.837  30.009  1.00  0.00     0.037 A 
ATOM     52  C   UNL A   1      42.773  29.217  34.506  1.00  0.00     0.049 A 
ATOM     53  C   UNL A   1      38.518  31.212  31.457  1.00  0.00     0.074 A 
ATOM     54  C   UNL A   1      42.903  29.704  35.794  1.00  0.00     0.029 A 
ATOM     55  N   UNL A   1      41.655  29.824  33.956  1.00  0.00    -0.354 N 
ATOM     56  N   UNL A   1      39.466  30.846  32.286  1.00  0.00    -0.248 NA
ATOM     57  C   UNL A   1      37.525  32.120  32.050  1.00  0.00     0.031 C 
ATOM     58  C   UNL A   1      41.829  30.565  36.042  1.00  0.00     0.029 A 
ATOM     59  C   UNL A   1      41.067  30.661  34.888  1.00  0.00     0.049 A 
ATOM     60  H   UNL A   1      41.327  29.681  33.039  1.00  0.00     0.167 HD
ATOM     61  C   UNL A   1      39.204  31.502  33.484  1.00  0.00     0.074 A 
ATOM     62  C   UNL A   1      38.013  32.298  33.270  1.00  0.00     0.031 C 
ATOM     63  C   UNL A   1      39.887  31.455  34.654  1.00  0.00     0.037 A 
BRANCH  50  64
ATOM     64  C   UNL A   1      44.747  27.640  34.565  1.00  0.00     0.057 A 
ATOM     65  C   UNL A   1      44.601  26.465  35.315  1.00  0.00     0.134 A 
ATOM     66  C   UNL A   1      46.019  28.225  34.521  1.00  0.00     0.134 A 
ATOM     67  F   UNL A   1      43.405  25.866  35.416  1.00  0.00    -0.206 F 
ATOM     68  C   UNL A   1      45.674  25.908  36.014  1.00  0.00     0.040 A 
ATOM     69  C   UNL A   1      47.105  27.663  35.193  1.00  0.00     0.040 A 
ATOM     70  F   UNL A   1      46.226  29.353  33.824  1.00  0.00    -0.206 F 
ATOM     71  C   UNL A   1      46.932  26.504  35.947  1.00  0.00     0.006 A 
ENDBRANCH  50  64
BRANCH  51  72
ATOM     72  C   UNL A   1      37.166  31.383  29.244  1.00  0.00     0.057 A 
ATOM     73  C   UNL A   1      37.189  32.681  28.722  1.00  0.00     0.134 A 
ATOM     74  C   UNL A   1      36.000  30.633  29.050  1.00  0.00     0.134 A 
ATOM     75  F   UNL A   1      38.265  33.462  28.899  1.00  0.00    -0.206 F 
ATOM     76  C   UNL A   1      36.089  33.222  28.052  1.00  0.00     0.040 A 
ATOM     77  C   UNL A   1      34.902  31.149  28.358  1.00  0.00     0.040 A 
ATOM     78  F   UNL A   1      35.910  29.383  29.528  1.00  0.00    -0.206 F 
ATOM     79  C   UNL A   1      34.943  32.451  27.864  1.00  0.00     0.006 A 
ENDBRANCH  51  72
BRANCH  63  80
ATOM     80  C   UNL A   1      39.395  32.317  35.782  1.00  0.00     0.057 A 
ATOM     81  C   UNL A   1      39.933  33.583  36.040  1.00  0.00     0.134 A 
ATOM     82  C   UNL A   1      38.330  31.891  36.589  1.00  0.00     0.134 A 
ATOM     83  F   UNL A   1      40.959  34.047  35.311  1.00  0.00    -0.206 F 
ATOM     84  C   UNL A   1      39.446  34.385  37.074  1.00  0.00     0.040 A 
ATOM     85  C   UNL A   1      37.816  32.696  37.605  1.00  0.00     0.040 A 
ATOM     86  F   UNL A   1      37.760  30.693  36.387  1.00  0.00    -0.206 F 
ATOM     87  C   UNL A   1      38.378  33.945  37.854  1.00  0.00     0.006 A 
ENDBRANCH  63  80
ENDBRANCH  37  38
ENDBRANCH  30  32
ENDBRANCH  29  30
ENDBRANCH  28  29
ENDBRANCH  27  28
ENDBRANCH  26  27
ENDBRANCH  25  26
ENDBRANCH  24  25
ENDBRANCH  23  24
ENDBRANCH   1  23
TORSDOF 24
ENDMDL
