MODEL 1
REMARK VINA RESULT:      -9.9      0.000      0.000
REMARK SMILES C[C@@H](CCO)Sc1cc(C(=O)OCCOCCOCCOCCOC(=O)c2ccc(-c3c4nc(c(-c5c(F)cccc5F)c5ccc([nH]5)c(-c5c(F)cccc5F)c5nc(c(-c6c(F)cccc6F)c6ccc3[nH]6)C=C5)C=C4)cc2)c2ccccc2n1
REMARK SMILES IDX 16 1 15 2 14 3 13 4 12 5 10 6 11 7 9 8 7 9 8 10 87 11 86 12
REMARK SMILES IDX 81 13 85 14 82 15 84 16 83 17 6 18 2 19 1 20 3 21 4 22 5 23
REMARK SMILES IDX 17 25 18 26 19 27 20 28 21 29 22 30 23 31 24 32 25 33 26 34
REMARK SMILES IDX 27 35 28 36 80 37 29 38 79 39 30 40 31 41 32 42 73 43 33 44
REMARK SMILES IDX 78 45 72 46 74 47 34 48 77 49 71 50 70 51 35 53 61 54 44 55
REMARK SMILES IDX 60 56 45 57 48 58 59 59 75 60 46 61 47 62 58 64 76 65 49 66
REMARK SMILES IDX 36 67 37 68 42 69 38 70 39 71 41 72 43 73 40 74 62 75 63 76
REMARK SMILES IDX 68 77 64 78 65 79 67 80 69 81 66 82 50 83 51 84 56 85 52 86
REMARK SMILES IDX 53 87 55 88 57 89 54 90
REMARK H PARENT 5 24 74 52 48 63
REMARK Flexibility Score: inf
ROOT
ATOM      1  C   UNL A   1      40.611  21.695  27.074  1.00  0.00     0.188 C 
ENDROOT
BRANCH   1   2
ATOM      2  O   UNL A   1      39.243  21.451  26.807  1.00  0.00    -0.376 OA
BRANCH   2   3
ATOM      3  C   UNL A   1      38.581  22.126  25.756  1.00  0.00     0.202 C 
BRANCH   3   4
ATOM      4  C   UNL A   1      37.952  23.512  25.952  1.00  0.00     0.261 C 
BRANCH   4   5
ATOM      5  O   UNL A   1      36.533  23.542  26.098  1.00  0.00    -0.460 OA
BRANCH   5   6
ATOM      6  C   UNL A   1      35.782  23.710  24.992  1.00  0.00     0.338 C 
ATOM      7  O   UNL A   1      36.012  23.248  23.888  1.00  0.00    -0.246 OA
BRANCH   6   8
ATOM      8  C   UNL A   1      34.502  24.364  25.370  1.00  0.00     0.072 A 
ATOM      9  C   UNL A   1      33.409  26.418  25.924  1.00  0.00     0.098 A 
ATOM     10  C   UNL A   1      34.567  25.750  25.579  1.00  0.00     0.052 A 
ATOM     11  N   UNL A   1      32.264  25.762  26.183  1.00  0.00    -0.241 NA
ATOM     12  C   UNL A   1      32.193  24.432  25.973  1.00  0.00     0.072 A 
ATOM     13  C   UNL A   1      33.273  23.669  25.494  1.00  0.00     0.015 A 
ATOM     14  C   UNL A   1      30.986  23.794  26.233  1.00  0.00     0.029 A 
ATOM     15  C   UNL A   1      33.039  22.301  25.178  1.00  0.00     0.011 A 
ATOM     16  C   UNL A   1      30.772  22.450  25.938  1.00  0.00     0.002 A 
ATOM     17  C   UNL A   1      31.792  21.708  25.373  1.00  0.00     0.001 A 
BRANCH   9  18
ATOM     18  S   UNL A   1      33.428  28.171  26.218  1.00  0.00    -0.103 SA
BRANCH  18  19
ATOM     19  C   UNL A   1      31.984  28.863  25.286  1.00  0.00     0.052 C 
ATOM     20  C   UNL A   1      31.572  30.268  25.723  1.00  0.00     0.020 C 
BRANCH  19  21
ATOM     21  C   UNL A   1      31.966  28.654  23.760  1.00  0.00     0.043 C 
BRANCH  21  22
ATOM     22  C   UNL A   1      31.041  27.581  23.207  1.00  0.00     0.157 C 
BRANCH  22  23
ATOM     23  O   UNL A   1      31.031  27.662  21.790  1.00  0.00    -0.396 OA
ATOM     24  H   UNL A   1      30.736  28.545  21.518  1.00  0.00     0.210 HD
ENDBRANCH  22  23
ENDBRANCH  21  22
ENDBRANCH  19  21
ENDBRANCH  18  19
ENDBRANCH   9  18
ENDBRANCH   6   8
ENDBRANCH   5   6
ENDBRANCH   4   5
ENDBRANCH   3   4
ENDBRANCH   2   3
ENDBRANCH   1   2
BRANCH   1  25
ATOM     25  C   UNL A   1      41.569  21.006  26.075  1.00  0.00     0.188 C 
BRANCH  25  26
ATOM     26  O   UNL A   1      42.518  20.092  26.601  1.00  0.00    -0.377 OA
BRANCH  26  27
ATOM     27  C   UNL A   1      42.897  18.946  25.839  1.00  0.00     0.188 C 
BRANCH  27  28
ATOM     28  C   UNL A   1      44.098  18.949  24.860  1.00  0.00     0.188 C 
BRANCH  28  29
ATOM     29  O   UNL A   1      45.218  19.704  25.284  1.00  0.00    -0.376 OA
BRANCH  29  30
ATOM     30  C   UNL A   1      45.392  21.005  24.756  1.00  0.00     0.202 C 
BRANCH  30  31
ATOM     31  C   UNL A   1      45.383  22.162  25.764  1.00  0.00     0.261 C 
BRANCH  31  32
ATOM     32  O   UNL A   1      44.328  23.121  25.600  1.00  0.00    -0.460 OA
BRANCH  32  33
ATOM     33  C   UNL A   1      44.702  24.403  25.417  1.00  0.00     0.338 C 
ATOM     34  O   UNL A   1      45.507  24.828  24.600  1.00  0.00    -0.246 OA
BRANCH  33  35
ATOM     35  C   UNL A   1      43.834  25.259  26.246  1.00  0.00     0.060 A 
ATOM     36  C   UNL A   1      44.168  26.610  26.398  1.00  0.00     0.016 A 
ATOM     37  C   UNL A   1      42.710  24.727  26.883  1.00  0.00     0.016 A 
ATOM     38  C   UNL A   1      43.412  27.421  27.241  1.00  0.00     0.010 A 
ATOM     39  C   UNL A   1      41.964  25.538  27.744  1.00  0.00     0.010 A 
ATOM     40  C   UNL A   1      42.342  26.873  27.962  1.00  0.00    -0.014 A 
BRANCH  40  41
ATOM     41  C   UNL A   1      41.786  27.639  29.103  1.00  0.00     0.031 A 
ATOM     42  C   UNL A   1      42.486  27.544  30.433  1.00  0.00     0.074 A 
ATOM     43  C   UNL A   1      40.730  28.456  28.950  1.00  0.00     0.049 A 
ATOM     44  N   UNL A   1      42.209  28.140  31.564  1.00  0.00    -0.248 NA
ATOM     45  C   UNL A   1      43.659  26.655  30.491  1.00  0.00     0.031 C 
ATOM     46  C   UNL A   1      39.995  28.665  27.706  1.00  0.00     0.029 A 
ATOM     47  N   UNL A   1      40.098  29.268  29.859  1.00  0.00    -0.354 N 
ATOM     48  C   UNL A   1      43.170  27.696  32.466  1.00  0.00     0.074 A 
ATOM     49  C   UNL A   1      44.010  26.752  31.764  1.00  0.00     0.031 C 
ATOM     50  C   UNL A   1      39.006  29.551  27.930  1.00  0.00     0.029 A 
ATOM     51  C   UNL A   1      39.025  29.946  29.337  1.00  0.00     0.049 A 
ATOM     52  H   UNL A   1      40.387  29.356  30.796  1.00  0.00     0.167 HD
ATOM     53  C   UNL A   1      43.345  28.053  33.760  1.00  0.00     0.037 A 
ATOM     54  C   UNL A   1      38.153  30.781  29.934  1.00  0.00     0.037 A 
ATOM     55  C   UNL A   1      42.506  28.991  34.460  1.00  0.00     0.049 A 
ATOM     56  C   UNL A   1      38.328  31.110  31.394  1.00  0.00     0.074 A 
ATOM     57  C   UNL A   1      42.607  29.429  35.767  1.00  0.00     0.029 A 
ATOM     58  N   UNL A   1      41.403  29.625  33.908  1.00  0.00    -0.354 N 
ATOM     59  N   UNL A   1      39.254  30.709  32.232  1.00  0.00    -0.248 NA
ATOM     60  C   UNL A   1      37.339  32.021  31.988  1.00  0.00     0.031 C 
ATOM     61  C   UNL A   1      41.529  30.282  36.026  1.00  0.00     0.029 A 
ATOM     62  C   UNL A   1      40.798  30.432  34.858  1.00  0.00     0.049 A 
ATOM     63  H   UNL A   1      41.096  29.519  32.979  1.00  0.00     0.167 HD
ATOM     64  C   UNL A   1      38.979  31.341  33.439  1.00  0.00     0.074 A 
ATOM     65  C   UNL A   1      37.811  32.168  33.218  1.00  0.00     0.031 C 
ATOM     66  C   UNL A   1      39.634  31.250  34.624  1.00  0.00     0.037 A 
BRANCH  53  67
ATOM     67  C   UNL A   1      44.471  27.398  34.510  1.00  0.00     0.057 A 
ATOM     68  C   UNL A   1      45.761  27.944  34.545  1.00  0.00     0.134 A 
ATOM     69  C   UNL A   1      44.255  26.210  35.220  1.00  0.00     0.134 A 
ATOM     70  F   UNL A   1      46.043  29.070  33.872  1.00  0.00    -0.206 F 
ATOM     71  C   UNL A   1      46.801  27.318  35.237  1.00  0.00     0.040 A 
ATOM     72  C   UNL A   1      45.278  25.592  35.941  1.00  0.00     0.040 A 
ATOM     73  F   UNL A   1      43.043  25.633  35.232  1.00  0.00    -0.206 F 
ATOM     74  C   UNL A   1      46.558  26.143  35.943  1.00  0.00     0.006 A 
ENDBRANCH  53  67
BRANCH  54  75
ATOM     75  C   UNL A   1      37.027  31.363  29.159  1.00  0.00     0.057 A 
ATOM     76  C   UNL A   1      37.062  32.686  28.702  1.00  0.00     0.134 A 
ATOM     77  C   UNL A   1      35.872  30.619  28.884  1.00  0.00     0.134 A 
ATOM     78  F   UNL A   1      38.128  33.459  28.954  1.00  0.00    -0.206 F 
ATOM     79  C   UNL A   1      35.982  33.254  28.022  1.00  0.00     0.040 A 
ATOM     80  C   UNL A   1      34.799  31.165  28.180  1.00  0.00     0.040 A 
ATOM     81  F   UNL A   1      35.775  29.345  29.293  1.00  0.00    -0.206 F 
ATOM     82  C   UNL A   1      34.848  32.490  27.755  1.00  0.00     0.006 A 
ENDBRANCH  54  75
BRANCH  66  83
ATOM     83  C   UNL A   1      39.129  32.101  35.757  1.00  0.00     0.057 A 
ATOM     84  C   UNL A   1      38.239  31.607  36.721  1.00  0.00     0.134 A 
ATOM     85  C   UNL A   1      39.550  33.431  35.891  1.00  0.00     0.134 A 
ATOM     86  F   UNL A   1      37.789  30.346  36.650  1.00  0.00    -0.206 F 
ATOM     87  C   UNL A   1      37.754  32.418  37.750  1.00  0.00     0.040 A 
ATOM     88  C   UNL A   1      39.099  34.240  36.935  1.00  0.00     0.040 A 
ATOM     89  F   UNL A   1      40.411  33.965  35.013  1.00  0.00    -0.206 F 
ATOM     90  C   UNL A   1      38.188  33.738  37.860  1.00  0.00     0.006 A 
ENDBRANCH  66  83
ENDBRANCH  40  41
ENDBRANCH  33  35
ENDBRANCH  32  33
ENDBRANCH  31  32
ENDBRANCH  30  31
ENDBRANCH  29  30
ENDBRANCH  28  29
ENDBRANCH  27  28
ENDBRANCH  26  27
ENDBRANCH  25  26
ENDBRANCH   1  25
TORSDOF 25
ENDMDL
MODEL 2
REMARK VINA RESULT:      -9.4      2.162      3.725
REMARK SMILES C[C@@H](CCO)Sc1cc(C(=O)OCCOCCOCCOCCOC(=O)c2ccc(-c3c4nc(c(-c5c(F)cccc5F)c5ccc([nH]5)c(-c5c(F)cccc5F)c5nc(c(-c6c(F)cccc6F)c6ccc3[nH]6)C=C5)C=C4)cc2)c2ccccc2n1
REMARK SMILES IDX 16 1 15 2 14 3 13 4 12 5 10 6 11 7 9 8 7 9 8 10 87 11 86 12
REMARK SMILES IDX 81 13 85 14 82 15 84 16 83 17 6 18 2 19 1 20 3 21 4 22 5 23
REMARK SMILES IDX 17 25 18 26 19 27 20 28 21 29 22 30 23 31 24 32 25 33 26 34
REMARK SMILES IDX 27 35 28 36 80 37 29 38 79 39 30 40 31 41 32 42 73 43 33 44
REMARK SMILES IDX 78 45 72 46 74 47 34 48 77 49 71 50 70 51 35 53 61 54 44 55
REMARK SMILES IDX 60 56 45 57 48 58 59 59 75 60 46 61 47 62 58 64 76 65 49 66
REMARK SMILES IDX 36 67 37 68 42 69 38 70 39 71 41 72 43 73 40 74 62 75 63 76
REMARK SMILES IDX 68 77 64 78 65 79 67 80 69 81 66 82 50 83 51 84 56 85 52 86
REMARK SMILES IDX 53 87 55 88 57 89 54 90
REMARK H PARENT 5 24 74 52 48 63
REMARK Flexibility Score: inf
ROOT
ATOM      1  C   UNL A   1      35.835  23.077  24.054  1.00  0.00     0.188 C 
ENDROOT
BRANCH   1   2
ATOM      2  O   UNL A   1      35.260  23.157  22.764  1.00  0.00    -0.376 OA
BRANCH   2   3
ATOM      3  C   UNL A   1      33.858  23.240  22.602  1.00  0.00     0.202 C 
BRANCH   3   4
ATOM      4  C   UNL A   1      33.026  24.329  23.294  1.00  0.00     0.261 C 
BRANCH   4   5
ATOM      5  O   UNL A   1      32.225  25.145  22.439  1.00  0.00    -0.460 OA
BRANCH   5   6
ATOM      6  C   UNL A   1      32.655  26.392  22.163  1.00  0.00     0.338 C 
ATOM      7  O   UNL A   1      33.461  26.703  21.304  1.00  0.00    -0.246 OA
BRANCH   6   8
ATOM      8  C   UNL A   1      31.827  27.367  22.920  1.00  0.00     0.072 A 
ATOM      9  C   UNL A   1      29.669  28.364  23.177  1.00  0.00     0.098 A 
ATOM     10  C   UNL A   1      30.491  27.481  22.506  1.00  0.00     0.052 A 
ATOM     11  N   UNL A   1      30.143  29.196  24.120  1.00  0.00    -0.241 NA
ATOM     12  C   UNL A   1      31.422  29.083  24.529  1.00  0.00     0.072 A 
ATOM     13  C   UNL A   1      32.316  28.128  24.012  1.00  0.00     0.015 A 
ATOM     14  C   UNL A   1      31.869  29.948  25.522  1.00  0.00     0.029 A 
ATOM     15  C   UNL A   1      33.598  28.010  24.619  1.00  0.00     0.011 A 
ATOM     16  C   UNL A   1      33.133  29.838  26.097  1.00  0.00     0.002 A 
ATOM     17  C   UNL A   1      33.988  28.840  25.669  1.00  0.00     0.001 A 
BRANCH   9  18
ATOM     18  S   UNL A   1      27.971  28.567  22.690  1.00  0.00    -0.103 SA
BRANCH  18  19
ATOM     19  C   UNL A   1      27.696  30.394  22.538  1.00  0.00     0.052 C 
ATOM     20  C   UNL A   1      27.603  31.126  23.876  1.00  0.00     0.020 C 
BRANCH  19  21
ATOM     21  C   UNL A   1      28.518  31.143  21.473  1.00  0.00     0.043 C 
BRANCH  21  22
ATOM     22  C   UNL A   1      28.772  32.626  21.694  1.00  0.00     0.157 C 
BRANCH  22  23
ATOM     23  O   UNL A   1      27.646  33.362  21.240  1.00  0.00    -0.396 OA
ATOM     24  H   UNL A   1      27.716  33.504  20.283  1.00  0.00     0.210 HD
ENDBRANCH  22  23
ENDBRANCH  21  22
ENDBRANCH  19  21
ENDBRANCH  18  19
ENDBRANCH   9  18
ENDBRANCH   6   8
ENDBRANCH   5   6
ENDBRANCH   4   5
ENDBRANCH   3   4
ENDBRANCH   2   3
ENDBRANCH   1   2
BRANCH   1  25
ATOM     25  C   UNL A   1      35.977  21.630  24.581  1.00  0.00     0.188 C 
BRANCH  25  26
ATOM     26  O   UNL A   1      36.825  21.421  25.699  1.00  0.00    -0.377 OA
BRANCH  26  27
ATOM     27  C   UNL A   1      38.161  21.922  25.679  1.00  0.00     0.188 C 
BRANCH  27  28
ATOM     28  C   UNL A   1      39.388  21.058  26.065  1.00  0.00     0.188 C 
BRANCH  28  29
ATOM     29  O   UNL A   1      40.086  21.485  27.221  1.00  0.00    -0.376 OA
BRANCH  29  30
ATOM     30  C   UNL A   1      41.496  21.370  27.236  1.00  0.00     0.202 C 
BRANCH  30  31
ATOM     31  C   UNL A   1      42.275  22.360  26.360  1.00  0.00     0.261 C 
BRANCH  31  32
ATOM     32  O   UNL A   1      41.577  23.565  26.012  1.00  0.00    -0.460 OA
BRANCH  32  33
ATOM     33  C   UNL A   1      42.322  24.682  25.899  1.00  0.00     0.338 C 
ATOM     34  O   UNL A   1      43.232  24.886  25.107  1.00  0.00    -0.246 OA
BRANCH  33  35
ATOM     35  C   UNL A   1      41.738  25.716  26.772  1.00  0.00     0.060 A 
ATOM     36  C   UNL A   1      42.211  27.030  26.670  1.00  0.00     0.016 A 
ATOM     37  C   UNL A   1      40.745  25.387  27.698  1.00  0.00     0.016 A 
ATOM     38  C   UNL A   1      41.735  28.008  27.539  1.00  0.00     0.010 A 
ATOM     39  C   UNL A   1      40.282  26.366  28.582  1.00  0.00     0.010 A 
ATOM     40  C   UNL A   1      40.811  27.667  28.536  1.00  0.00    -0.014 A 
BRANCH  40  41
ATOM     41  C   UNL A   1      40.592  28.612  29.658  1.00  0.00     0.031 A 
ATOM     42  C   UNL A   1      41.527  28.546  30.836  1.00  0.00     0.074 A 
ATOM     43  C   UNL A   1      39.634  29.553  29.604  1.00  0.00     0.049 A 
ATOM     44  N   UNL A   1      41.557  29.282  31.918  1.00  0.00    -0.248 NA
ATOM     45  C   UNL A   1      42.570  27.509  30.786  1.00  0.00     0.031 C 
ATOM     46  C   UNL A   1      38.696  29.743  28.501  1.00  0.00     0.029 A 
ATOM     47  N   UNL A   1      39.301  30.530  30.507  1.00  0.00    -0.354 N 
ATOM     48  C   UNL A   1      42.617  28.795  32.674  1.00  0.00     0.074 A 
ATOM     49  C   UNL A   1      43.178  27.677  31.949  1.00  0.00     0.031 C 
ATOM     50  C   UNL A   1      37.887  30.779  28.794  1.00  0.00     0.029 A 
ATOM     51  C   UNL A   1      38.235  31.302  30.113  1.00  0.00     0.049 A 
ATOM     52  H   UNL A   1      39.780  30.667  31.356  1.00  0.00     0.167 HD
ATOM     53  C   UNL A   1      43.090  29.248  33.859  1.00  0.00     0.037 A 
ATOM     54  C   UNL A   1      37.609  32.307  30.755  1.00  0.00     0.037 A 
ATOM     55  C   UNL A   1      42.528  30.359  34.581  1.00  0.00     0.049 A 
ATOM     56  C   UNL A   1      38.111  32.748  32.106  1.00  0.00     0.074 A 
ATOM     57  C   UNL A   1      42.941  30.903  35.784  1.00  0.00     0.029 A 
ATOM     58  N   UNL A   1      41.422  31.089  34.169  1.00  0.00    -0.354 N 
ATOM     59  N   UNL A   1      39.130  32.301  32.800  1.00  0.00    -0.248 NA
ATOM     60  C   UNL A   1      37.379  33.845  32.755  1.00  0.00     0.031 C 
ATOM     61  C   UNL A   1      42.049  31.923  36.130  1.00  0.00     0.029 A 
ATOM     62  C   UNL A   1      41.122  32.062  35.109  1.00  0.00     0.049 A 
ATOM     63  H   UNL A   1      40.925  30.938  33.333  1.00  0.00     0.167 HD
ATOM     64  C   UNL A   1      39.181  33.080  33.950  1.00  0.00     0.074 A 
ATOM     65  C   UNL A   1      38.102  34.041  33.849  1.00  0.00     0.031 C 
ATOM     66  C   UNL A   1      40.044  33.012  34.995  1.00  0.00     0.037 A 
BRANCH  53  67
ATOM     67  C   UNL A   1      44.254  28.514  34.462  1.00  0.00     0.057 A 
ATOM     68  C   UNL A   1      45.567  28.998  34.375  1.00  0.00     0.134 A 
ATOM     69  C   UNL A   1      44.055  27.312  35.153  1.00  0.00     0.134 A 
ATOM     70  F   UNL A   1      45.831  30.133  33.712  1.00  0.00    -0.206 F 
ATOM     71  C   UNL A   1      46.641  28.299  34.931  1.00  0.00     0.040 A 
ATOM     72  C   UNL A   1      45.117  26.621  35.740  1.00  0.00     0.040 A 
ATOM     73  F   UNL A   1      42.825  26.792  35.277  1.00  0.00    -0.206 F 
ATOM     74  C   UNL A   1      46.416  27.111  35.622  1.00  0.00     0.006 A 
ENDBRANCH  53  67
BRANCH  54  75
ATOM     75  C   UNL A   1      36.429  32.967  30.135  1.00  0.00     0.057 A 
ATOM     76  C   UNL A   1      36.572  33.880  29.084  1.00  0.00     0.134 A 
ATOM     77  C   UNL A   1      35.132  32.723  30.603  1.00  0.00     0.134 A 
ATOM     78  F   UNL A   1      37.790  34.176  28.608  1.00  0.00    -0.206 F 
ATOM     79  C   UNL A   1      35.472  34.544  28.537  1.00  0.00     0.040 A 
ATOM     80  C   UNL A   1      34.021  33.357  30.046  1.00  0.00     0.040 A 
ATOM     81  F   UNL A   1      34.926  31.858  31.607  1.00  0.00    -0.206 F 
ATOM     82  C   UNL A   1      34.191  34.279  29.016  1.00  0.00     0.006 A 
ENDBRANCH  54  75
BRANCH  66  83
ATOM     83  C   UNL A   1      39.882  34.032  36.089  1.00  0.00     0.057 A 
ATOM     84  C   UNL A   1      40.396  35.331  35.980  1.00  0.00     0.134 A 
ATOM     85  C   UNL A   1      39.191  33.710  37.265  1.00  0.00     0.134 A 
ATOM     86  F   UNL A   1      41.076  35.705  34.886  1.00  0.00    -0.206 F 
ATOM     87  C   UNL A   1      40.265  36.257  37.018  1.00  0.00     0.040 A 
ATOM     88  C   UNL A   1      39.023  34.638  38.293  1.00  0.00     0.040 A 
ATOM     89  F   UNL A   1      38.660  32.489  37.432  1.00  0.00    -0.206 F 
ATOM     90  C   UNL A   1      39.573  35.912  38.176  1.00  0.00     0.006 A 
ENDBRANCH  66  83
ENDBRANCH  40  41
ENDBRANCH  33  35
ENDBRANCH  32  33
ENDBRANCH  31  32
ENDBRANCH  30  31
ENDBRANCH  29  30
ENDBRANCH  28  29
ENDBRANCH  27  28
ENDBRANCH  26  27
ENDBRANCH  25  26
ENDBRANCH   1  25
TORSDOF 25
ENDMDL
MODEL 3
REMARK VINA RESULT:      -9.3      1.886      6.920
REMARK SMILES C[C@@H](CCO)Sc1cc(C(=O)OCCOCCOCCOCCOC(=O)c2ccc(-c3c4nc(c(-c5c(F)cccc5F)c5ccc([nH]5)c(-c5c(F)cccc5F)c5nc(c(-c6c(F)cccc6F)c6ccc3[nH]6)C=C5)C=C4)cc2)c2ccccc2n1
REMARK SMILES IDX 16 1 15 2 14 3 13 4 12 5 10 6 11 7 9 8 7 9 8 10 87 11 86 12
REMARK SMILES IDX 81 13 85 14 82 15 84 16 83 17 6 18 2 19 1 20 3 21 4 22 5 23
REMARK SMILES IDX 17 25 18 26 19 27 20 28 21 29 22 30 23 31 24 32 25 33 26 34
REMARK SMILES IDX 27 35 28 36 80 37 29 38 79 39 30 40 31 41 32 42 73 43 33 44
REMARK SMILES IDX 78 45 72 46 74 47 34 48 77 49 71 50 70 51 35 53 61 54 44 55
REMARK SMILES IDX 60 56 45 57 48 58 59 59 75 60 46 61 47 62 58 64 76 65 49 66
REMARK SMILES IDX 36 67 37 68 42 69 38 70 39 71 41 72 43 73 40 74 62 75 63 76
REMARK SMILES IDX 68 77 64 78 65 79 67 80 69 81 66 82 50 83 51 84 56 85 52 86
REMARK SMILES IDX 53 87 55 88 57 89 54 90
REMARK H PARENT 5 24 74 52 48 63
REMARK Flexibility Score: inf
ROOT
ATOM      1  C   UNL A   1      34.113  22.457  25.215  1.00  0.00     0.188 C 
ENDROOT
BRANCH   1   2
ATOM      2  O   UNL A   1      33.325  22.108  24.093  1.00  0.00    -0.376 OA
BRANCH   2   3
ATOM      3  C   UNL A   1      31.976  22.523  24.000  1.00  0.00     0.202 C 
BRANCH   3   4
ATOM      4  C   UNL A   1      31.527  23.921  24.447  1.00  0.00     0.261 C 
BRANCH   4   5
ATOM      5  O   UNL A   1      31.456  24.914  23.424  1.00  0.00    -0.460 OA
BRANCH   5   6
ATOM      6  C   UNL A   1      32.428  25.846  23.372  1.00  0.00     0.338 C 
ATOM      7  O   UNL A   1      33.556  25.688  22.938  1.00  0.00    -0.246 OA
BRANCH   6   8
ATOM      8  C   UNL A   1      31.849  27.169  23.723  1.00  0.00     0.072 A 
ATOM      9  C   UNL A   1      30.467  28.986  23.008  1.00  0.00     0.098 A 
ATOM     10  C   UNL A   1      31.042  27.760  22.739  1.00  0.00     0.052 A 
ATOM     11  N   UNL A   1      30.759  29.674  24.126  1.00  0.00    -0.241 NA
ATOM     12  C   UNL A   1      31.524  29.106  25.080  1.00  0.00     0.072 A 
ATOM     13  C   UNL A   1      32.054  27.808  24.972  1.00  0.00     0.015 A 
ATOM     14  C   UNL A   1      31.785  29.842  26.230  1.00  0.00     0.029 A 
ATOM     15  C   UNL A   1      32.728  27.263  26.101  1.00  0.00     0.011 A 
ATOM     16  C   UNL A   1      32.463  29.307  27.322  1.00  0.00     0.002 A 
ATOM     17  C   UNL A   1      32.904  27.998  27.273  1.00  0.00     0.001 A 
BRANCH   9  18
ATOM     18  S   UNL A   1      29.449  29.793  21.796  1.00  0.00    -0.103 SA
BRANCH  18  19
ATOM     19  C   UNL A   1      27.795  30.038  22.596  1.00  0.00     0.052 C 
ATOM     20  C   UNL A   1      27.275  28.812  23.346  1.00  0.00     0.020 C 
BRANCH  19  21
ATOM     21  C   UNL A   1      27.562  31.368  23.337  1.00  0.00     0.043 C 
BRANCH  21  22
ATOM     22  C   UNL A   1      28.553  32.494  23.090  1.00  0.00     0.157 C 
BRANCH  22  23
ATOM     23  O   UNL A   1      28.293  33.071  21.819  1.00  0.00    -0.396 OA
ATOM     24  H   UNL A   1      28.815  32.613  21.142  1.00  0.00     0.210 HD
ENDBRANCH  22  23
ENDBRANCH  21  22
ENDBRANCH  19  21
ENDBRANCH  18  19
ENDBRANCH   9  18
ENDBRANCH   6   8
ENDBRANCH   5   6
ENDBRANCH   4   5
ENDBRANCH   3   4
ENDBRANCH   2   3
ENDBRANCH   1   2
BRANCH   1  25
ATOM     25  C   UNL A   1      35.130  21.366  25.621  1.00  0.00     0.188 C 
BRANCH  25  26
ATOM     26  O   UNL A   1      36.488  21.756  25.757  1.00  0.00    -0.377 OA
BRANCH  26  27
ATOM     27  C   UNL A   1      37.484  21.156  24.929  1.00  0.00     0.188 C 
BRANCH  27  28
ATOM     28  C   UNL A   1      38.870  20.719  25.467  1.00  0.00     0.188 C 
BRANCH  28  29
ATOM     29  O   UNL A   1      39.502  21.647  26.329  1.00  0.00    -0.376 OA
BRANCH  29  30
ATOM     30  C   UNL A   1      40.772  21.317  26.858  1.00  0.00     0.202 C 
BRANCH  30  31
ATOM     31  C   UNL A   1      41.993  21.807  26.069  1.00  0.00     0.261 C 
BRANCH  31  32
ATOM     32  O   UNL A   1      41.943  23.173  25.631  1.00  0.00    -0.460 OA
BRANCH  32  33
ATOM     33  C   UNL A   1      42.977  23.960  25.987  1.00  0.00     0.338 C 
ATOM     34  O   UNL A   1      44.130  23.892  25.583  1.00  0.00    -0.246 OA
BRANCH  33  35
ATOM     35  C   UNL A   1      42.455  25.060  26.818  1.00  0.00     0.060 A 
ATOM     36  C   UNL A   1      43.152  26.274  26.845  1.00  0.00     0.016 A 
ATOM     37  C   UNL A   1      41.297  24.887  27.581  1.00  0.00     0.016 A 
ATOM     38  C   UNL A   1      42.727  27.300  27.683  1.00  0.00     0.010 A 
ATOM     39  C   UNL A   1      40.882  25.912  28.436  1.00  0.00     0.010 A 
ATOM     40  C   UNL A   1      41.624  27.102  28.526  1.00  0.00    -0.014 A 
BRANCH  40  41
ATOM     41  C   UNL A   1      41.408  28.046  29.649  1.00  0.00     0.031 A 
ATOM     42  C   UNL A   1      40.257  29.012  29.555  1.00  0.00     0.074 A 
ATOM     43  C   UNL A   1      42.166  27.999  30.758  1.00  0.00     0.049 A 
ATOM     44  N   UNL A   1      39.850  29.908  30.417  1.00  0.00    -0.248 NA
ATOM     45  C   UNL A   1      39.459  28.959  28.319  1.00  0.00     0.031 C 
ATOM     46  C   UNL A   1      43.279  27.082  30.985  1.00  0.00     0.029 A 
ATOM     47  N   UNL A   1      42.102  28.749  31.906  1.00  0.00    -0.354 N 
ATOM     48  C   UNL A   1      38.753  30.525  29.826  1.00  0.00     0.074 A 
ATOM     49  C   UNL A   1      38.583  29.931  28.519  1.00  0.00     0.031 C 
ATOM     50  C   UNL A   1      43.798  27.323  32.203  1.00  0.00     0.029 A 
ATOM     51  C   UNL A   1      43.070  28.428  32.825  1.00  0.00     0.049 A 
ATOM     52  H   UNL A   1      41.426  29.448  32.058  1.00  0.00     0.167 HD
ATOM     53  C   UNL A   1      37.949  31.489  30.333  1.00  0.00     0.037 A 
ATOM     54  C   UNL A   1      43.342  28.976  34.026  1.00  0.00     0.037 A 
ATOM     55  C   UNL A   1      38.120  32.082  31.633  1.00  0.00     0.049 A 
ATOM     56  C   UNL A   1      42.475  30.097  34.539  1.00  0.00     0.074 A 
ATOM     57  C   UNL A   1      37.354  33.058  32.244  1.00  0.00     0.029 A 
ATOM     58  N   UNL A   1      39.139  31.760  32.518  1.00  0.00    -0.354 N 
ATOM     59  N   UNL A   1      41.423  30.654  33.987  1.00  0.00    -0.248 NA
ATOM     60  C   UNL A   1      42.828  30.655  35.852  1.00  0.00     0.031 C 
ATOM     61  C   UNL A   1      37.943  33.370  33.473  1.00  0.00     0.029 A 
ATOM     62  C   UNL A   1      39.036  32.539  33.660  1.00  0.00     0.049 A 
ATOM     63  H   UNL A   1      39.832  31.080  32.359  1.00  0.00     0.167 HD
ATOM     64  C   UNL A   1      40.972  31.604  34.896  1.00  0.00     0.074 A 
ATOM     65  C   UNL A   1      41.852  31.532  36.044  1.00  0.00     0.031 C 
ATOM     66  C   UNL A   1      39.921  32.457  34.795  1.00  0.00     0.037 A 
BRANCH  53  67
ATOM     67  C   UNL A   1      36.831  31.985  29.459  1.00  0.00     0.057 A 
ATOM     68  C   UNL A   1      35.647  31.256  29.277  1.00  0.00     0.134 A 
ATOM     69  C   UNL A   1      36.936  33.218  28.802  1.00  0.00     0.134 A 
ATOM     70  F   UNL A   1      35.488  30.059  29.861  1.00  0.00    -0.206 F 
ATOM     71  C   UNL A   1      34.622  31.724  28.452  1.00  0.00     0.040 A 
ATOM     72  C   UNL A   1      35.905  33.710  28.001  1.00  0.00     0.040 A 
ATOM     73  F   UNL A   1      38.041  33.968  28.933  1.00  0.00    -0.206 F 
ATOM     74  C   UNL A   1      34.747  32.958  27.818  1.00  0.00     0.006 A 
ENDBRANCH  53  67
BRANCH  54  75
ATOM     75  C   UNL A   1      44.491  28.482  34.829  1.00  0.00     0.057 A 
ATOM     76  C   UNL A   1      45.720  29.152  34.833  1.00  0.00     0.134 A 
ATOM     77  C   UNL A   1      44.397  27.308  35.586  1.00  0.00     0.134 A 
ATOM     78  F   UNL A   1      45.882  30.269  34.109  1.00  0.00    -0.206 F 
ATOM     79  C   UNL A   1      46.819  28.661  35.541  1.00  0.00     0.040 A 
ATOM     80  C   UNL A   1      45.478  26.822  36.322  1.00  0.00     0.040 A 
ATOM     81  F   UNL A   1      43.247  26.618  35.626  1.00  0.00    -0.206 F 
ATOM     82  C   UNL A   1      46.697  27.494  36.293  1.00  0.00     0.006 A 
ENDBRANCH  54  75
BRANCH  66  83
ATOM     83  C   UNL A   1      39.642  33.348  35.974  1.00  0.00     0.057 A 
ATOM     84  C   UNL A   1      40.185  34.635  36.082  1.00  0.00     0.134 A 
ATOM     85  C   UNL A   1      38.806  32.914  37.011  1.00  0.00     0.134 A 
ATOM     86  F   UNL A   1      41.001  35.112  35.130  1.00  0.00    -0.206 F 
ATOM     87  C   UNL A   1      39.943  35.439  37.198  1.00  0.00     0.040 A 
ATOM     88  C   UNL A   1      38.527  33.722  38.115  1.00  0.00     0.040 A 
ATOM     89  F   UNL A   1      38.239  31.699  36.968  1.00  0.00    -0.206 F 
ATOM     90  C   UNL A   1      39.108  34.984  38.216  1.00  0.00     0.006 A 
ENDBRANCH  66  83
ENDBRANCH  40  41
ENDBRANCH  33  35
ENDBRANCH  32  33
ENDBRANCH  31  32
ENDBRANCH  30  31
ENDBRANCH  29  30
ENDBRANCH  28  29
ENDBRANCH  27  28
ENDBRANCH  26  27
ENDBRANCH  25  26
ENDBRANCH   1  25
TORSDOF 25
ENDMDL
