MODEL 1
REMARK VINA RESULT:     -10.5      0.000      0.000
REMARK SMILES Cc1c(Br)c(C)c2c(c1Br)O[C@H](C(F)(F)F)C(C(=O)OCCOCCOCCOCCOC(=O)c1ccc(-c3c4nc(c(-c5c(F)cccc5F)c5ccc([nH]5)c(-c5c(F)cccc5F)c5nc(c(-c6c(F)cccc6F)c6ccc3[nH]6)C=C5)C=C4)cc1)=C2
REMARK SMILES IDX 27 1 26 2 25 3 24 4 23 5 22 6 21 7 20 8 18 9 19 10 17 11
REMARK SMILES IDX 1 12 2 13 3 14 9 15 4 16 5 17 8 18 10 19 6 20 7 21 11 22
REMARK SMILES IDX 89 23 12 24 13 25 14 26 15 27 16 28 28 29 29 30 30 31 31 32
REMARK SMILES IDX 32 33 33 34 34 35 35 36 36 37 88 38 37 39 87 40 38 41 39 42
REMARK SMILES IDX 40 43 81 44 41 45 86 46 80 47 82 48 42 49 85 50 79 51 78 52
REMARK SMILES IDX 43 54 69 55 52 56 68 57 53 58 56 59 67 60 83 61 54 62 55 63
REMARK SMILES IDX 66 65 84 66 57 67 44 68 45 69 50 70 46 71 47 72 49 73 51 74
REMARK SMILES IDX 48 75 70 76 71 77 76 78 72 79 73 80 75 81 77 82 74 83 58 84
REMARK SMILES IDX 59 85 64 86 60 87 61 88 63 89 65 90 62 91
REMARK H PARENT 82 53 56 64
REMARK Flexibility Score: inf
ROOT
ATOM      1  C   UNL A   1      37.991  33.927  29.891  1.00  0.00     0.188 C 
ENDROOT
BRANCH   1   2
ATOM      2  O   UNL A   1      36.733  34.219  29.278  1.00  0.00    -0.377 OA
BRANCH   2   3
ATOM      3  C   UNL A   1      36.230  33.280  28.340  1.00  0.00     0.188 C 
BRANCH   3   4
ATOM      4  C   UNL A   1      34.733  33.481  28.028  1.00  0.00     0.188 C 
BRANCH   4   5
ATOM      5  O   UNL A   1      33.951  32.305  28.083  1.00  0.00    -0.376 OA
BRANCH   5   6
ATOM      6  C   UNL A   1      34.313  31.108  27.416  1.00  0.00     0.202 C 
BRANCH   6   7
ATOM      7  C   UNL A   1      33.383  29.925  27.080  1.00  0.00     0.261 C 
BRANCH   7   8
ATOM      8  O   UNL A   1      33.981  28.662  26.800  1.00  0.00    -0.460 OA
BRANCH   8   9
ATOM      9  C   UNL A   1      33.768  28.137  25.581  1.00  0.00     0.338 C 
ATOM     10  O   UNL A   1      33.985  28.666  24.506  1.00  0.00    -0.246 OA
BRANCH   9  11
ATOM     11  C   UNL A   1      33.391  26.720  25.770  1.00  0.00     0.087 C 
ATOM     12  C   UNL A   1      32.773  20.257  25.453  1.00  0.00     0.047 C 
ATOM     13  C   UNL A   1      33.255  21.674  25.664  1.00  0.00    -0.019 A 
ATOM     14  C   UNL A   1      34.613  22.040  25.494  1.00  0.00     0.025 A 
ATOM     15  C   UNL A   1      32.322  22.693  25.949  1.00  0.00     0.064 A 
ATOM     16  Br  UNL A   1      35.904  20.690  25.050  1.00  0.00    -0.050 Br
ATOM     17  C   UNL A   1      35.030  23.392  25.594  1.00  0.00    -0.026 A 
ATOM     18  C   UNL A   1      32.712  24.042  26.007  1.00  0.00     0.142 A 
ATOM     19  Br  UNL A   1      30.462  22.284  26.192  1.00  0.00    -0.046 Br
ATOM     20  C   UNL A   1      36.487  23.802  25.518  1.00  0.00     0.046 C 
ATOM     21  C   UNL A   1      34.047  24.396  25.774  1.00  0.00     0.022 A 
ATOM     22  O   UNL A   1      31.734  24.958  26.289  1.00  0.00    -0.474 OA
ATOM     23  C   UNL A   1      34.366  25.815  25.633  1.00  0.00     0.027 C 
ATOM     24  C   UNL A   1      31.989  26.376  26.173  1.00  0.00     0.316 C 
BRANCH  24  25
ATOM     25  C   UNL A   1      30.942  26.977  25.224  1.00  0.00     0.430 C 
ATOM     26  F   UNL A   1      30.770  28.300  25.452  1.00  0.00    -0.167 F 
ATOM     27  F   UNL A   1      31.305  26.852  23.925  1.00  0.00    -0.167 F 
ATOM     28  F   UNL A   1      29.738  26.378  25.366  1.00  0.00    -0.167 F 
ENDBRANCH  24  25
ENDBRANCH   9  11
ENDBRANCH   8   9
ENDBRANCH   7   8
ENDBRANCH   6   7
ENDBRANCH   5   6
ENDBRANCH   4   5
ENDBRANCH   3   4
ENDBRANCH   2   3
ENDBRANCH   1   2
BRANCH   1  29
ATOM     29  C   UNL A   1      38.265  34.286  31.372  1.00  0.00     0.188 C 
BRANCH  29  30
ATOM     30  O   UNL A   1      37.149  34.844  32.052  1.00  0.00    -0.376 OA
BRANCH  30  31
ATOM     31  C   UNL A   1      36.931  34.504  33.410  1.00  0.00     0.202 C 
BRANCH  31  32
ATOM     32  C   UNL A   1      35.721  33.608  33.705  1.00  0.00     0.261 C 
BRANCH  32  33
ATOM     33  O   UNL A   1      35.887  32.215  33.404  1.00  0.00    -0.460 OA
BRANCH  33  34
ATOM     34  C   UNL A   1      35.487  31.794  32.187  1.00  0.00     0.338 C 
ATOM     35  O   UNL A   1      34.462  32.095  31.599  1.00  0.00    -0.246 OA
BRANCH  34  36
ATOM     36  C   UNL A   1      36.605  31.036  31.592  1.00  0.00     0.060 A 
ATOM     37  C   UNL A   1      37.697  30.683  32.395  1.00  0.00     0.016 A 
ATOM     38  C   UNL A   1      36.565  30.670  30.245  1.00  0.00     0.016 A 
ATOM     39  C   UNL A   1      38.774  29.991  31.840  1.00  0.00     0.010 A 
ATOM     40  C   UNL A   1      37.652  29.999  29.685  1.00  0.00     0.010 A 
ATOM     41  C   UNL A   1      38.775  29.688  30.472  1.00  0.00    -0.014 A 
BRANCH  41  42
ATOM     42  C   UNL A   1      40.021  29.228  29.817  1.00  0.00     0.031 A 
ATOM     43  C   UNL A   1      41.138  30.218  29.641  1.00  0.00     0.074 A 
ATOM     44  C   UNL A   1      40.164  27.959  29.398  1.00  0.00     0.049 A 
ATOM     45  N   UNL A   1      42.285  30.077  29.032  1.00  0.00    -0.248 NA
ATOM     46  C   UNL A   1      40.931  31.550  30.238  1.00  0.00     0.031 C 
ATOM     47  C   UNL A   1      39.176  26.895  29.565  1.00  0.00     0.029 A 
ATOM     48  N   UNL A   1      41.203  27.355  28.735  1.00  0.00    -0.354 N 
ATOM     49  C   UNL A   1      42.935  31.298  29.168  1.00  0.00     0.074 A 
ATOM     50  C   UNL A   1      42.043  32.178  29.890  1.00  0.00     0.031 C 
ATOM     51  C   UNL A   1      39.654  25.769  29.009  1.00  0.00     0.029 A 
ATOM     52  C   UNL A   1      40.961  26.042  28.414  1.00  0.00     0.049 A 
ATOM     53  H   UNL A   1      42.043  27.819  28.512  1.00  0.00     0.167 HD
ATOM     54  C   UNL A   1      44.169  31.647  28.739  1.00  0.00     0.037 A 
ATOM     55  C   UNL A   1      41.703  25.172  27.701  1.00  0.00     0.037 A 
ATOM     56  C   UNL A   1      45.048  30.767  28.015  1.00  0.00     0.049 A 
ATOM     57  C   UNL A   1      43.034  25.614  27.149  1.00  0.00     0.074 A 
ATOM     58  C   UNL A   1      46.316  31.031  27.527  1.00  0.00     0.029 A 
ATOM     59  N   UNL A   1      44.749  29.458  27.671  1.00  0.00    -0.354 N 
ATOM     60  N   UNL A   1      43.641  26.770  27.277  1.00  0.00    -0.248 NA
ATOM     61  C   UNL A   1      43.784  24.631  26.352  1.00  0.00     0.031 C 
ATOM     62  C   UNL A   1      46.763  29.899  26.842  1.00  0.00     0.029 A 
ATOM     63  C   UNL A   1      45.802  28.907  26.960  1.00  0.00     0.049 A 
ATOM     64  H   UNL A   1      43.914  28.990  27.898  1.00  0.00     0.167 HD
ATOM     65  C   UNL A   1      44.856  26.641  26.614  1.00  0.00     0.074 A 
ATOM     66  C   UNL A   1      44.903  25.293  26.089  1.00  0.00     0.031 C 
ATOM     67  C   UNL A   1      45.843  27.557  26.457  1.00  0.00     0.037 A 
BRANCH  54  68
ATOM     68  C   UNL A   1      44.642  33.042  29.026  1.00  0.00     0.057 A 
ATOM     69  C   UNL A   1      44.400  34.100  28.142  1.00  0.00     0.134 A 
ATOM     70  C   UNL A   1      45.287  33.341  30.233  1.00  0.00     0.134 A 
ATOM     71  F   UNL A   1      43.803  33.877  26.961  1.00  0.00    -0.206 F 
ATOM     72  C   UNL A   1      44.787  35.406  28.444  1.00  0.00     0.040 A 
ATOM     73  C   UNL A   1      45.654  34.648  30.558  1.00  0.00     0.040 A 
ATOM     74  F   UNL A   1      45.550  32.374  31.123  1.00  0.00    -0.206 F 
ATOM     75  C   UNL A   1      45.405  35.685  29.662  1.00  0.00     0.006 A 
ENDBRANCH  54  68
BRANCH  55  76
ATOM     76  C   UNL A   1      41.206  23.790  27.470  1.00  0.00     0.057 A 
ATOM     77  C   UNL A   1      40.215  23.527  26.517  1.00  0.00     0.134 A 
ATOM     78  C   UNL A   1      41.706  22.701  28.195  1.00  0.00     0.134 A 
ATOM     79  F   UNL A   1      39.677  24.531  25.809  1.00  0.00    -0.206 F 
ATOM     80  C   UNL A   1      39.732  22.235  26.299  1.00  0.00     0.040 A 
ATOM     81  C   UNL A   1      41.254  21.400  27.967  1.00  0.00     0.040 A 
ATOM     82  F   UNL A   1      42.655  22.884  29.124  1.00  0.00    -0.206 F 
ATOM     83  C   UNL A   1      40.260  21.166  27.019  1.00  0.00     0.006 A 
ENDBRANCH  55  76
BRANCH  67  84
ATOM     84  C   UNL A   1      47.088  27.128  25.733  1.00  0.00     0.057 A 
ATOM     85  C   UNL A   1      47.302  27.425  24.381  1.00  0.00     0.134 A 
ATOM     86  C   UNL A   1      48.121  26.476  26.423  1.00  0.00     0.134 A 
ATOM     87  F   UNL A   1      46.353  28.042  23.662  1.00  0.00    -0.206 F 
ATOM     88  C   UNL A   1      48.490  27.071  23.737  1.00  0.00     0.040 A 
ATOM     89  C   UNL A   1      49.324  26.147  25.797  1.00  0.00     0.040 A 
ATOM     90  F   UNL A   1      47.988  26.175  27.723  1.00  0.00    -0.206 F 
ATOM     91  C   UNL A   1      49.508  26.440  24.448  1.00  0.00     0.006 A 
ENDBRANCH  67  84
ENDBRANCH  41  42
ENDBRANCH  34  36
ENDBRANCH  33  34
ENDBRANCH  32  33
ENDBRANCH  31  32
ENDBRANCH  30  31
ENDBRANCH  29  30
ENDBRANCH   1  29
TORSDOF 21
ENDMDL
MODEL 2
REMARK VINA RESULT:      -9.5      1.296      6.139
REMARK SMILES Cc1c(Br)c(C)c2c(c1Br)O[C@H](C(F)(F)F)C(C(=O)OCCOCCOCCOCCOC(=O)c1ccc(-c3c4nc(c(-c5c(F)cccc5F)c5ccc([nH]5)c(-c5c(F)cccc5F)c5nc(c(-c6c(F)cccc6F)c6ccc3[nH]6)C=C5)C=C4)cc1)=C2
REMARK SMILES IDX 27 1 26 2 25 3 24 4 23 5 22 6 21 7 20 8 18 9 19 10 17 11
REMARK SMILES IDX 1 12 2 13 3 14 9 15 4 16 5 17 8 18 10 19 6 20 7 21 11 22
REMARK SMILES IDX 89 23 12 24 13 25 14 26 15 27 16 28 28 29 29 30 30 31 31 32
REMARK SMILES IDX 32 33 33 34 34 35 35 36 36 37 88 38 37 39 87 40 38 41 39 42
REMARK SMILES IDX 40 43 81 44 41 45 86 46 80 47 82 48 42 49 85 50 79 51 78 52
REMARK SMILES IDX 43 54 69 55 52 56 68 57 53 58 56 59 67 60 83 61 54 62 55 63
REMARK SMILES IDX 66 65 84 66 57 67 44 68 45 69 50 70 46 71 47 72 49 73 51 74
REMARK SMILES IDX 48 75 70 76 71 77 76 78 72 79 73 80 75 81 77 82 74 83 58 84
REMARK SMILES IDX 59 85 64 86 60 87 61 88 63 89 65 90 62 91
REMARK H PARENT 82 53 56 64
REMARK Flexibility Score: inf
ROOT
ATOM      1  C   UNL A   1      38.275  33.860  29.813  1.00  0.00     0.188 C 
ENDROOT
BRANCH   1   2
ATOM      2  O   UNL A   1      37.019  34.154  29.198  1.00  0.00    -0.377 OA
BRANCH   2   3
ATOM      3  C   UNL A   1      36.451  33.159  28.361  1.00  0.00     0.188 C 
BRANCH   3   4
ATOM      4  C   UNL A   1      34.963  33.411  28.048  1.00  0.00     0.188 C 
BRANCH   4   5
ATOM      5  O   UNL A   1      34.142  32.261  28.091  1.00  0.00    -0.376 OA
BRANCH   5   6
ATOM      6  C   UNL A   1      34.439  31.076  27.371  1.00  0.00     0.202 C 
BRANCH   6   7
ATOM      7  C   UNL A   1      33.487  29.888  27.124  1.00  0.00     0.261 C 
BRANCH   7   8
ATOM      8  O   UNL A   1      34.064  28.626  26.802  1.00  0.00    -0.460 OA
BRANCH   8   9
ATOM      9  C   UNL A   1      33.806  28.125  25.581  1.00  0.00     0.338 C 
ATOM     10  O   UNL A   1      33.988  28.674  24.509  1.00  0.00    -0.246 OA
BRANCH   9  11
ATOM     11  C   UNL A   1      33.429  26.706  25.755  1.00  0.00     0.087 C 
ATOM     12  C   UNL A   1      32.823  20.245  25.380  1.00  0.00     0.047 C 
ATOM     13  C   UNL A   1      33.301  21.661  25.606  1.00  0.00    -0.019 A 
ATOM     14  C   UNL A   1      34.660  22.030  25.449  1.00  0.00     0.025 A 
ATOM     15  C   UNL A   1      32.366  22.676  25.895  1.00  0.00     0.064 A 
ATOM     16  Br  UNL A   1      35.956  20.685  25.001  1.00  0.00    -0.050 Br
ATOM     17  C   UNL A   1      35.075  23.382  25.562  1.00  0.00    -0.026 A 
ATOM     18  C   UNL A   1      32.753  24.025  25.966  1.00  0.00     0.142 A 
ATOM     19  Br  UNL A   1      30.505  22.263  26.122  1.00  0.00    -0.046 Br
ATOM     20  C   UNL A   1      36.531  23.794  25.499  1.00  0.00     0.046 C 
ATOM     21  C   UNL A   1      34.089  24.383  25.745  1.00  0.00     0.022 A 
ATOM     22  O   UNL A   1      31.772  24.937  26.249  1.00  0.00    -0.474 OA
ATOM     23  C   UNL A   1      34.407  25.804  25.617  1.00  0.00     0.027 C 
ATOM     24  C   UNL A   1      32.026  26.357  26.147  1.00  0.00     0.316 C 
BRANCH  24  25
ATOM     25  C   UNL A   1      30.984  26.964  25.196  1.00  0.00     0.430 C 
ATOM     26  F   UNL A   1      30.772  28.273  25.467  1.00  0.00    -0.167 F 
ATOM     27  F   UNL A   1      31.378  26.895  23.903  1.00  0.00    -0.167 F 
ATOM     28  F   UNL A   1      29.794  26.330  25.290  1.00  0.00    -0.167 F 
ENDBRANCH  24  25
ENDBRANCH   9  11
ENDBRANCH   8   9
ENDBRANCH   7   8
ENDBRANCH   6   7
ENDBRANCH   5   6
ENDBRANCH   4   5
ENDBRANCH   3   4
ENDBRANCH   2   3
ENDBRANCH   1   2
BRANCH   1  29
ATOM     29  C   UNL A   1      38.509  34.105  31.323  1.00  0.00     0.188 C 
BRANCH  29  30
ATOM     30  O   UNL A   1      37.315  34.263  32.078  1.00  0.00    -0.376 OA
BRANCH  30  31
ATOM     31  C   UNL A   1      37.145  33.506  33.263  1.00  0.00     0.202 C 
BRANCH  31  32
ATOM     32  C   UNL A   1      36.253  32.262  33.157  1.00  0.00     0.261 C 
BRANCH  32  33
ATOM     33  O   UNL A   1      36.885  31.083  32.639  1.00  0.00    -0.460 OA
BRANCH  33  34
ATOM     34  C   UNL A   1      36.595  30.733  31.369  1.00  0.00     0.338 C 
ATOM     35  O   UNL A   1      35.583  30.996  30.741  1.00  0.00    -0.246 OA
BRANCH  34  36
ATOM     36  C   UNL A   1      37.809  30.126  30.790  1.00  0.00     0.060 A 
ATOM     37  C   UNL A   1      38.769  29.567  31.644  1.00  0.00     0.016 A 
ATOM     38  C   UNL A   1      37.990  30.104  29.406  1.00  0.00     0.016 A 
ATOM     39  C   UNL A   1      39.935  29.015  31.113  1.00  0.00     0.010 A 
ATOM     40  C   UNL A   1      39.166  29.572  28.877  1.00  0.00     0.010 A 
ATOM     41  C   UNL A   1      40.158  29.057  29.731  1.00  0.00    -0.014 A 
BRANCH  41  42
ATOM     42  C   UNL A   1      41.501  28.751  29.188  1.00  0.00     0.031 A 
ATOM     43  C   UNL A   1      41.771  27.353  28.707  1.00  0.00     0.074 A 
ATOM     44  C   UNL A   1      42.457  29.693  29.113  1.00  0.00     0.049 A 
ATOM     45  N   UNL A   1      42.883  26.826  28.269  1.00  0.00    -0.248 NA
ATOM     46  C   UNL A   1      40.627  26.425  28.721  1.00  0.00     0.031 C 
ATOM     47  C   UNL A   1      42.296  31.095  29.494  1.00  0.00     0.029 A 
ATOM     48  N   UNL A   1      43.761  29.603  28.695  1.00  0.00    -0.354 N 
ATOM     49  C   UNL A   1      42.576  25.507  27.957  1.00  0.00     0.074 A 
ATOM     50  C   UNL A   1      41.182  25.304  28.286  1.00  0.00     0.031 C 
ATOM     51  C   UNL A   1      43.463  31.733  29.299  1.00  0.00     0.029 A 
ATOM     52  C   UNL A   1      44.460  30.778  28.820  1.00  0.00     0.049 A 
ATOM     53  H   UNL A   1      44.157  28.775  28.338  1.00  0.00     0.167 HD
ATOM     54  C   UNL A   1      43.382  24.555  27.434  1.00  0.00     0.037 A 
ATOM     55  C   UNL A   1      45.763  31.041  28.595  1.00  0.00     0.037 A 
ATOM     56  C   UNL A   1      44.770  24.762  27.115  1.00  0.00     0.049 A 
ATOM     57  C   UNL A   1      46.666  29.939  28.103  1.00  0.00     0.074 A 
ATOM     58  C   UNL A   1      45.674  23.856  26.590  1.00  0.00     0.029 A 
ATOM     59  N   UNL A   1      45.453  25.954  27.297  1.00  0.00    -0.354 N 
ATOM     60  N   UNL A   1      46.370  28.693  27.815  1.00  0.00    -0.248 NA
ATOM     61  C   UNL A   1      48.083  30.277  27.905  1.00  0.00     0.031 C 
ATOM     62  C   UNL A   1      46.918  24.485  26.504  1.00  0.00     0.029 A 
ATOM     63  C   UNL A   1      46.775  25.802  26.912  1.00  0.00     0.049 A 
ATOM     64  H   UNL A   1      45.059  26.785  27.647  1.00  0.00     0.167 HD
ATOM     65  C   UNL A   1      47.551  28.112  27.366  1.00  0.00     0.074 A 
ATOM     66  C   UNL A   1      48.567  29.143  27.415  1.00  0.00     0.031 C 
ATOM     67  C   UNL A   1      47.772  26.841  26.950  1.00  0.00     0.037 A 
BRANCH  54  68
ATOM     68  C   UNL A   1      42.792  23.198  27.183  1.00  0.00     0.057 A 
ATOM     69  C   UNL A   1      42.493  22.752  25.889  1.00  0.00     0.134 A 
ATOM     70  C   UNL A   1      42.586  22.303  28.240  1.00  0.00     0.134 A 
ATOM     71  F   UNL A   1      42.649  23.566  24.835  1.00  0.00    -0.206 F 
ATOM     72  C   UNL A   1      42.003  21.466  25.657  1.00  0.00     0.040 A 
ATOM     73  C   UNL A   1      42.124  21.006  28.018  1.00  0.00     0.040 A 
ATOM     74  F   UNL A   1      42.853  22.667  29.503  1.00  0.00    -0.206 F 
ATOM     75  C   UNL A   1      41.830  20.584  26.722  1.00  0.00     0.006 A 
ENDBRANCH  54  68
BRANCH  55  76
ATOM     76  C   UNL A   1      46.294  32.410  28.828  1.00  0.00     0.057 A 
ATOM     77  C   UNL A   1      46.637  32.844  30.114  1.00  0.00     0.134 A 
ATOM     78  C   UNL A   1      46.469  33.317  27.775  1.00  0.00     0.134 A 
ATOM     79  F   UNL A   1      46.468  32.032  31.168  1.00  0.00    -0.206 F 
ATOM     80  C   UNL A   1      47.126  34.131  30.346  1.00  0.00     0.040 A 
ATOM     81  C   UNL A   1      46.984  34.597  27.989  1.00  0.00     0.040 A 
ATOM     82  F   UNL A   1      46.158  32.965  26.519  1.00  0.00    -0.206 F 
ATOM     83  C   UNL A   1      47.310  35.007  29.280  1.00  0.00     0.006 A 
ENDBRANCH  55  76
BRANCH  67  84
ATOM     84  C   UNL A   1      49.150  26.494  26.460  1.00  0.00     0.057 A 
ATOM     85  C   UNL A   1      50.094  25.865  27.281  1.00  0.00     0.134 A 
ATOM     86  C   UNL A   1      49.506  26.724  25.124  1.00  0.00     0.134 A 
ATOM     87  F   UNL A   1      49.818  25.621  28.571  1.00  0.00    -0.206 F 
ATOM     88  C   UNL A   1      51.350  25.494  26.796  1.00  0.00     0.040 A 
ATOM     89  C   UNL A   1      50.747  26.329  24.620  1.00  0.00     0.040 A 
ATOM     90  F   UNL A   1      48.645  27.309  24.279  1.00  0.00    -0.206 F 
ATOM     91  C   UNL A   1      51.674  25.717  25.459  1.00  0.00     0.006 A 
ENDBRANCH  67  84
ENDBRANCH  41  42
ENDBRANCH  34  36
ENDBRANCH  33  34
ENDBRANCH  32  33
ENDBRANCH  31  32
ENDBRANCH  30  31
ENDBRANCH  29  30
ENDBRANCH   1  29
TORSDOF 21
ENDMDL
MODEL 3
REMARK VINA RESULT:      -9.4      4.540      8.091
REMARK SMILES Cc1c(Br)c(C)c2c(c1Br)O[C@H](C(F)(F)F)C(C(=O)OCCOCCOCCOCCOC(=O)c1ccc(-c3c4nc(c(-c5c(F)cccc5F)c5ccc([nH]5)c(-c5c(F)cccc5F)c5nc(c(-c6c(F)cccc6F)c6ccc3[nH]6)C=C5)C=C4)cc1)=C2
REMARK SMILES IDX 27 1 26 2 25 3 24 4 23 5 22 6 21 7 20 8 18 9 19 10 17 11
REMARK SMILES IDX 1 12 2 13 3 14 9 15 4 16 5 17 8 18 10 19 6 20 7 21 11 22
REMARK SMILES IDX 89 23 12 24 13 25 14 26 15 27 16 28 28 29 29 30 30 31 31 32
REMARK SMILES IDX 32 33 33 34 34 35 35 36 36 37 88 38 37 39 87 40 38 41 39 42
REMARK SMILES IDX 40 43 81 44 41 45 86 46 80 47 82 48 42 49 85 50 79 51 78 52
REMARK SMILES IDX 43 54 69 55 52 56 68 57 53 58 56 59 67 60 83 61 54 62 55 63
REMARK SMILES IDX 66 65 84 66 57 67 44 68 45 69 50 70 46 71 47 72 49 73 51 74
REMARK SMILES IDX 48 75 70 76 71 77 76 78 72 79 73 80 75 81 77 82 74 83 58 84
REMARK SMILES IDX 59 85 64 86 60 87 61 88 63 89 65 90 62 91
REMARK H PARENT 82 53 56 64
REMARK Flexibility Score: inf
ROOT
ATOM      1  C   UNL A   1      35.400  32.298  30.088  1.00  0.00     0.188 C 
ENDROOT
BRANCH   1   2
ATOM      2  O   UNL A   1      36.595  31.553  30.329  1.00  0.00    -0.377 OA
BRANCH   2   3
ATOM      3  C   UNL A   1      36.605  30.189  29.938  1.00  0.00     0.188 C 
BRANCH   3   4
ATOM      4  C   UNL A   1      37.981  29.718  29.425  1.00  0.00     0.188 C 
BRANCH   4   5
ATOM      5  O   UNL A   1      38.225  28.333  29.562  1.00  0.00    -0.376 OA
BRANCH   5   6
ATOM      6  C   UNL A   1      39.525  27.794  29.738  1.00  0.00     0.202 C 
BRANCH   6   7
ATOM      7  C   UNL A   1      40.787  28.155  28.929  1.00  0.00     0.261 C 
BRANCH   7   8
ATOM      8  O   UNL A   1      41.409  27.125  28.166  1.00  0.00    -0.460 OA
BRANCH   8   9
ATOM      9  C   UNL A   1      41.383  27.251  26.828  1.00  0.00     0.338 C 
ATOM     10  O   UNL A   1      40.901  28.167  26.185  1.00  0.00    -0.246 OA
BRANCH   9  11
ATOM     11  C   UNL A   1      42.210  26.162  26.265  1.00  0.00     0.087 C 
ATOM     12  C   UNL A   1      45.315  20.585  25.035  1.00  0.00     0.047 C 
ATOM     13  C   UNL A   1      44.290  21.678  25.236  1.00  0.00    -0.019 A 
ATOM     14  C   UNL A   1      42.993  21.410  25.738  1.00  0.00     0.025 A 
ATOM     15  C   UNL A   1      44.650  23.022  25.007  1.00  0.00     0.064 A 
ATOM     16  Br  UNL A   1      42.485  19.597  26.114  1.00  0.00    -0.050 Br
ATOM     17  C   UNL A   1      42.080  22.458  26.018  1.00  0.00    -0.026 A 
ATOM     18  C   UNL A   1      43.773  24.075  25.322  1.00  0.00     0.142 A 
ATOM     19  Br  UNL A   1      46.388  23.474  24.329  1.00  0.00    -0.046 Br
ATOM     20  C   UNL A   1      40.654  22.199  26.460  1.00  0.00     0.046 C 
ATOM     21  C   UNL A   1      42.518  23.798  25.877  1.00  0.00     0.022 A 
ATOM     22  O   UNL A   1      44.213  25.346  25.065  1.00  0.00    -0.474 OA
ATOM     23  C   UNL A   1      41.729  24.920  26.384  1.00  0.00     0.027 C 
ATOM     24  C   UNL A   1      43.476  26.497  25.536  1.00  0.00     0.316 C 
BRANCH  24  25
ATOM     25  C   UNL A   1      44.423  27.365  26.375  1.00  0.00     0.430 C 
ATOM     26  F   UNL A   1      44.590  26.856  27.618  1.00  0.00    -0.167 F 
ATOM     27  F   UNL A   1      45.656  27.449  25.822  1.00  0.00    -0.167 F 
ATOM     28  F   UNL A   1      43.955  28.627  26.510  1.00  0.00    -0.167 F 
ENDBRANCH  24  25
ENDBRANCH   9  11
ENDBRANCH   8   9
ENDBRANCH   7   8
ENDBRANCH   6   7
ENDBRANCH   5   6
ENDBRANCH   4   5
ENDBRANCH   3   4
ENDBRANCH   2   3
ENDBRANCH   1   2
BRANCH   1  29
ATOM     29  C   UNL A   1      35.088  33.596  30.872  1.00  0.00     0.188 C 
BRANCH  29  30
ATOM     30  O   UNL A   1      33.979  33.490  31.754  1.00  0.00    -0.376 OA
BRANCH  30  31
ATOM     31  C   UNL A   1      34.214  33.422  33.149  1.00  0.00     0.202 C 
BRANCH  31  32
ATOM     32  C   UNL A   1      35.676  33.530  33.604  1.00  0.00     0.261 C 
BRANCH  32  33
ATOM     33  O   UNL A   1      36.333  32.288  33.891  1.00  0.00    -0.460 OA
BRANCH  33  34
ATOM     34  C   UNL A   1      37.302  32.304  34.829  1.00  0.00     0.338 C 
ATOM     35  O   UNL A   1      37.206  32.672  35.987  1.00  0.00    -0.246 OA
BRANCH  34  36
ATOM     36  C   UNL A   1      38.477  31.616  34.261  1.00  0.00     0.060 A 
ATOM     37  C   UNL A   1      39.761  31.992  34.681  1.00  0.00     0.016 A 
ATOM     38  C   UNL A   1      38.307  30.595  33.323  1.00  0.00     0.016 A 
ATOM     39  C   UNL A   1      40.882  31.369  34.132  1.00  0.00     0.010 A 
ATOM     40  C   UNL A   1      39.429  29.989  32.758  1.00  0.00     0.010 A 
ATOM     41  C   UNL A   1      40.721  30.398  33.135  1.00  0.00    -0.014 A 
BRANCH  41  42
ATOM     42  C   UNL A   1      41.889  29.950  32.343  1.00  0.00     0.031 A 
ATOM     43  C   UNL A   1      42.580  28.681  32.753  1.00  0.00     0.074 A 
ATOM     44  C   UNL A   1      42.320  30.647  31.277  1.00  0.00     0.049 A 
ATOM     45  N   UNL A   1      43.663  28.131  32.270  1.00  0.00    -0.248 NA
ATOM     46  C   UNL A   1      41.963  27.928  33.859  1.00  0.00     0.031 C 
ATOM     47  C   UNL A   1      41.697  31.859  30.749  1.00  0.00     0.029 A 
ATOM     48  N   UNL A   1      43.396  30.432  30.452  1.00  0.00    -0.354 N 
ATOM     49  C   UNL A   1      43.858  26.972  33.011  1.00  0.00     0.074 A 
ATOM     50  C   UNL A   1      42.803  26.913  33.997  1.00  0.00     0.031 C 
ATOM     51  C   UNL A   1      42.409  32.286  29.692  1.00  0.00     0.029 A 
ATOM     52  C   UNL A   1      43.556  31.403  29.495  1.00  0.00     0.049 A 
ATOM     53  H   UNL A   1      43.994  29.655  30.539  1.00  0.00     0.167 HD
ATOM     54  C   UNL A   1      44.826  26.037  32.873  1.00  0.00     0.037 A 
ATOM     55  C   UNL A   1      44.534  31.567  28.581  1.00  0.00     0.037 A 
ATOM     56  C   UNL A   1      45.878  26.106  31.893  1.00  0.00     0.049 A 
ATOM     57  C   UNL A   1      45.655  30.564  28.509  1.00  0.00     0.074 A 
ATOM     58  C   UNL A   1      46.912  25.213  31.680  1.00  0.00     0.029 A 
ATOM     59  N   UNL A   1      46.031  27.128  30.969  1.00  0.00    -0.354 N 
ATOM     60  N   UNL A   1      45.837  29.473  29.216  1.00  0.00    -0.248 NA
ATOM     61  C   UNL A   1      46.709  30.812  27.514  1.00  0.00     0.031 C 
ATOM     62  C   UNL A   1      47.722  25.720  30.662  1.00  0.00     0.029 A 
ATOM     63  C   UNL A   1      47.156  26.897  30.195  1.00  0.00     0.049 A 
ATOM     64  H   UNL A   1      45.432  27.902  30.877  1.00  0.00     0.167 HD
ATOM     65  C   UNL A   1      46.999  28.887  28.726  1.00  0.00     0.074 A 
ATOM     66  C   UNL A   1      47.477  29.741  27.658  1.00  0.00     0.031 C 
ATOM     67  C   UNL A   1      47.612  27.745  29.124  1.00  0.00     0.037 A 
BRANCH  54  68
ATOM     68  C   UNL A   1      44.805  24.864  33.808  1.00  0.00     0.057 A 
ATOM     69  C   UNL A   1      45.273  24.961  35.124  1.00  0.00     0.134 A 
ATOM     70  C   UNL A   1      44.247  23.643  33.407  1.00  0.00     0.134 A 
ATOM     71  F   UNL A   1      45.836  26.096  35.564  1.00  0.00    -0.206 F 
ATOM     72  C   UNL A   1      45.194  23.883  36.008  1.00  0.00     0.040 A 
ATOM     73  C   UNL A   1      44.136  22.568  34.290  1.00  0.00     0.040 A 
ATOM     74  F   UNL A   1      43.781  23.483  32.161  1.00  0.00    -0.206 F 
ATOM     75  C   UNL A   1      44.611  22.687  35.595  1.00  0.00     0.006 A 
ENDBRANCH  54  68
BRANCH  55  76
ATOM     76  C   UNL A   1      44.493  32.729  27.654  1.00  0.00     0.057 A 
ATOM     77  C   UNL A   1      43.976  32.605  26.360  1.00  0.00     0.134 A 
ATOM     78  C   UNL A   1      44.972  33.989  28.037  1.00  0.00     0.134 A 
ATOM     79  F   UNL A   1      43.526  31.418  25.924  1.00  0.00    -0.206 F 
ATOM     80  C   UNL A   1      43.943  33.685  25.477  1.00  0.00     0.040 A 
ATOM     81  C   UNL A   1      44.919  35.085  27.175  1.00  0.00     0.040 A 
ATOM     82  F   UNL A   1      45.483  34.175  29.263  1.00  0.00    -0.206 F 
ATOM     83  C   UNL A   1      44.406  34.933  25.888  1.00  0.00     0.006 A 
ENDBRANCH  55  76
BRANCH  67  84
ATOM     84  C   UNL A   1      48.840  27.312  28.374  1.00  0.00     0.057 A 
ATOM     85  C   UNL A   1      50.118  27.780  28.707  1.00  0.00     0.134 A 
ATOM     86  C   UNL A   1      48.748  26.352  27.357  1.00  0.00     0.134 A 
ATOM     87  F   UNL A   1      50.276  28.703  29.667  1.00  0.00    -0.206 F 
ATOM     88  C   UNL A   1      51.257  27.323  28.040  1.00  0.00     0.040 A 
ATOM     89  C   UNL A   1      49.883  25.865  26.706  1.00  0.00     0.040 A 
ATOM     90  F   UNL A   1      47.557  25.850  26.998  1.00  0.00    -0.206 F 
ATOM     91  C   UNL A   1      51.141  26.356  27.044  1.00  0.00     0.006 A 
ENDBRANCH  67  84
ENDBRANCH  41  42
ENDBRANCH  34  36
ENDBRANCH  33  34
ENDBRANCH  32  33
ENDBRANCH  31  32
ENDBRANCH  30  31
ENDBRANCH  29  30
ENDBRANCH   1  29
TORSDOF 21
ENDMDL
