MODEL 1
REMARK VINA RESULT:      -7.7      0.000      0.000
REMARK SMILES CCc1sc(NC(=O)[C@H]2CC(C)=C(C)C[C@H]2C(=O)OCCOCCOCCOCCOC(=O)c2ccc(-c3c4nc(c(-c5c(F)cccc5F)c5ccc([nH]5)c(-c5c(F)cccc5F)c5nc(c(-c6c(F)cccc6F)c6ccc3[nH]6)C=C5)C=C4)cc2)nc1-c1ccccc1
REMARK SMILES IDX 24 1 23 2 22 3 21 4 20 5 19 6 17 7 18 8 16 9 9 10 10 11
REMARK SMILES IDX 11 12 15 13 12 14 13 15 14 16 7 17 6 18 8 20 5 21 3 22 4 23
REMARK SMILES IDX 89 24 88 25 2 26 1 27 90 28 91 29 95 30 92 31 94 32 93 33
REMARK SMILES IDX 25 34 26 35 27 36 28 37 29 38 30 39 31 40 32 41 33 42 34 43
REMARK SMILES IDX 35 44 87 45 36 46 86 47 37 48 38 49 39 50 80 51 40 52 85 53
REMARK SMILES IDX 79 54 81 55 41 56 84 57 78 58 77 59 42 61 68 62 51 63 67 64
REMARK SMILES IDX 52 65 55 66 66 67 82 68 53 69 54 70 65 72 83 73 56 74 43 75
REMARK SMILES IDX 44 76 49 77 45 78 46 79 48 80 50 81 47 82 69 83 70 84 75 85
REMARK SMILES IDX 71 86 72 87 74 88 76 89 73 90 57 91 58 92 63 93 59 94 60 95
REMARK SMILES IDX 62 96 64 97 61 98
REMARK H PARENT 6 19 81 60 55 71
REMARK Flexibility Score: inf
ROOT
ATOM      1  C   UNL A   1      41.928  23.516  28.594  1.00  0.00     0.188 C 
ENDROOT
BRANCH   1   2
ATOM      2  C   UNL A   1      42.047  24.997  28.159  1.00  0.00     0.188 C 
BRANCH   2   3
ATOM      3  O   UNL A   1      40.769  25.589  27.927  1.00  0.00    -0.376 OA
BRANCH   3   4
ATOM      4  C   UNL A   1      40.349  26.710  28.709  1.00  0.00     0.202 C 
BRANCH   4   5
ATOM      5  C   UNL A   1      39.214  27.582  28.043  1.00  0.00     0.261 C 
BRANCH   5   6
ATOM      6  O   UNL A   1      38.935  29.230  28.406  1.00  0.00    -0.463 OA
BRANCH   6   7
ATOM      7  C   UNL A   1      37.814  30.553  29.293  1.00  0.00     0.310 C 
ATOM      8  O   UNL A   1      36.596  30.776  29.017  1.00  0.00    -0.252 OA
BRANCH   7   9
ATOM      9  C   UNL A   1      38.282  31.618  30.608  1.00  0.00     0.116 C 
ATOM     10  C   UNL A   1      38.353  31.534  32.153  1.00  0.00     0.097 C 
ATOM     11  C   UNL A   1      39.499  30.698  32.752  1.00  0.00     0.045 C 
ATOM     12  C   UNL A   1      40.740  30.656  31.897  1.00  0.00    -0.074 C 
ATOM     13  C   UNL A   1      39.671  32.210  30.242  1.00  0.00     0.046 C 
ATOM     14  C   UNL A   1      41.800  29.711  32.410  1.00  0.00     0.039 C 
ATOM     15  C   UNL A   1      40.824  31.362  30.747  1.00  0.00    -0.073 C 
ATOM     16  C   UNL A   1      42.030  31.329  29.855  1.00  0.00     0.039 C 
BRANCH  10  17
ATOM     17  C   UNL A   1      37.072  31.087  32.763  1.00  0.00     0.230 C 
ATOM     18  N   UNL A   1      36.442  32.093  33.418  1.00  0.00    -0.302 N 
ATOM     19  H   UNL A   1      35.465  32.204  33.383  1.00  0.00     0.172 HD
ATOM     20  O   UNL A   1      36.545  30.017  32.483  1.00  0.00    -0.274 OA
BRANCH  18  21
ATOM     21  C   UNL A   1      37.233  32.931  34.118  1.00  0.00     0.190 A 
ATOM     22  C   UNL A   1      39.222  33.786  36.580  1.00  0.00     0.034 A 
ATOM     23  S   UNL A   1      37.963  31.933  36.086  1.00  0.00    -0.101 S 
ATOM     24  C   UNL A   1      39.192  34.976  35.260  1.00  0.00     0.087 A 
ATOM     25  N   UNL A   1      37.876  34.494  33.957  1.00  0.00    -0.220 NA
BRANCH  22  26
ATOM     26  C   UNL A   1      39.754  33.825  37.977  1.00  0.00     0.046 C 
ATOM     27  C   UNL A   1      39.403  35.136  38.671  1.00  0.00     0.010 C 
ENDBRANCH  22  26
BRANCH  24  28
ATOM     28  C   UNL A   1      40.535  35.542  34.936  1.00  0.00     0.001 A 
ATOM     29  C   UNL A   1      41.172  35.084  33.750  1.00  0.00     0.010 A 
ATOM     30  C   UNL A   1      41.186  36.522  35.670  1.00  0.00     0.010 A 
ATOM     31  C   UNL A   1      42.430  35.517  33.343  1.00  0.00     0.001 A 
ATOM     32  C   UNL A   1      42.460  36.972  35.255  1.00  0.00     0.001 A 
ATOM     33  C   UNL A   1      43.084  36.461  34.109  1.00  0.00     0.000 A 
ENDBRANCH  24  28
ENDBRANCH  18  21
ENDBRANCH  10  17
ENDBRANCH   7   9
ENDBRANCH   6   7
ENDBRANCH   5   6
ENDBRANCH   4   5
ENDBRANCH   3   4
ENDBRANCH   2   3
ENDBRANCH   1   2
BRANCH   1  34
ATOM     34  O   UNL A   1      40.916  22.760  27.925  1.00  0.00    -0.377 OA
BRANCH  34  35
ATOM     35  C   UNL A   1      41.171  21.365  27.725  1.00  0.00     0.188 C 
BRANCH  35  36
ATOM     36  C   UNL A   1      41.382  20.768  26.310  1.00  0.00     0.188 C 
BRANCH  36  37
ATOM     37  O   UNL A   1      42.708  20.784  25.829  1.00  0.00    -0.376 OA
BRANCH  37  38
ATOM     38  C   UNL A   1      43.218  22.015  25.339  1.00  0.00     0.202 C 
BRANCH  38  39
ATOM     39  C   UNL A   1      44.109  22.019  24.082  1.00  0.00     0.261 C 
BRANCH  39  40
ATOM     40  O   UNL A   1      44.881  23.206  23.818  1.00  0.00    -0.460 OA
BRANCH  40  41
ATOM     41  C   UNL A   1      46.062  23.357  24.456  1.00  0.00     0.338 C 
ATOM     42  O   UNL A   1      47.064  22.682  24.305  1.00  0.00    -0.246 OA
BRANCH  41  43
ATOM     43  C   UNL A   1      46.022  24.635  25.211  1.00  0.00     0.060 A 
ATOM     44  C   UNL A   1      47.187  25.074  25.863  1.00  0.00     0.016 A 
ATOM     45  C   UNL A   1      44.858  25.406  25.264  1.00  0.00     0.016 A 
ATOM     46  C   UNL A   1      47.175  26.245  26.621  1.00  0.00     0.010 A 
ATOM     47  C   UNL A   1      44.832  26.556  26.064  1.00  0.00     0.010 A 
ATOM     48  C   UNL A   1      45.975  26.943  26.790  1.00  0.00    -0.014 A 
BRANCH  48  49
ATOM     49  C   UNL A   1      45.835  27.837  27.965  1.00  0.00     0.031 A 
ATOM     50  C   UNL A   1      45.706  27.184  29.316  1.00  0.00     0.074 A 
ATOM     51  C   UNL A   1      45.875  29.176  27.866  1.00  0.00     0.049 A 
ATOM     52  N   UNL A   1      45.538  27.722  30.496  1.00  0.00    -0.248 NA
ATOM     53  C   UNL A   1      45.775  25.713  29.330  1.00  0.00     0.031 C 
ATOM     54  C   UNL A   1      46.078  29.933  26.635  1.00  0.00     0.029 A 
ATOM     55  N   UNL A   1      45.744  30.135  28.839  1.00  0.00    -0.354 N 
ATOM     56  C   UNL A   1      45.473  26.656  31.387  1.00  0.00     0.074 A 
ATOM     57  C   UNL A   1      45.578  25.443  30.608  1.00  0.00     0.031 C 
ATOM     58  C   UNL A   1      46.052  31.247  26.927  1.00  0.00     0.029 A 
ATOM     59  C   UNL A   1      45.796  31.419  28.357  1.00  0.00     0.049 A 
ATOM     60  H   UNL A   1      45.625  29.923  29.794  1.00  0.00     0.167 HD
ATOM     61  C   UNL A   1      45.345  26.681  32.734  1.00  0.00     0.037 A 
ATOM     62  C   UNL A   1      45.634  32.593  28.999  1.00  0.00     0.037 A 
ATOM     63  C   UNL A   1      45.218  27.888  33.506  1.00  0.00     0.049 A 
ATOM     64  C   UNL A   1      45.366  32.599  30.482  1.00  0.00     0.074 A 
ATOM     65  C   UNL A   1      45.078  28.027  34.874  1.00  0.00     0.029 A 
ATOM     66  N   UNL A   1      45.197  29.167  32.968  1.00  0.00    -0.354 N 
ATOM     67  N   UNL A   1      45.311  31.591  31.321  1.00  0.00    -0.248 NA
ATOM     68  C   UNL A   1      45.134  33.910  31.108  1.00  0.00     0.031 C 
ATOM     69  C   UNL A   1      44.906  29.386  35.158  1.00  0.00     0.029 A 
ATOM     70  C   UNL A   1      45.010  30.101  33.975  1.00  0.00     0.049 A 
ATOM     71  H   UNL A   1      45.301  29.381  32.013  1.00  0.00     0.167 HD
ATOM     72  C   UNL A   1      45.077  32.147  32.575  1.00  0.00     0.074 A 
ATOM     73  C   UNL A   1      45.006  33.582  32.386  1.00  0.00     0.031 C 
ATOM     74  C   UNL A   1      44.942  31.527  33.775  1.00  0.00     0.037 A 
BRANCH  61  75
ATOM     75  C   UNL A   1      45.278  25.354  33.435  1.00  0.00     0.057 A 
ATOM     76  C   UNL A   1      44.070  24.809  33.893  1.00  0.00     0.134 A 
ATOM     77  C   UNL A   1      46.448  24.625  33.686  1.00  0.00     0.134 A 
ATOM     78  F   UNL A   1      42.914  25.464  33.704  1.00  0.00    -0.206 F 
ATOM     79  C   UNL A   1      44.033  23.617  34.618  1.00  0.00     0.040 A 
ATOM     80  C   UNL A   1      46.420  23.413  34.378  1.00  0.00     0.040 A 
ATOM     81  F   UNL A   1      47.639  25.083  33.274  1.00  0.00    -0.206 F 
ATOM     82  C   UNL A   1      45.211  22.914  34.859  1.00  0.00     0.006 A 
ENDBRANCH  61  75
BRANCH  62  83
ATOM     83  C   UNL A   1      45.725  33.869  28.243  1.00  0.00     0.057 A 
ATOM     84  C   UNL A   1      44.600  34.418  27.618  1.00  0.00     0.134 A 
ATOM     85  C   UNL A   1      46.934  34.565  28.122  1.00  0.00     0.134 A 
ATOM     86  F   UNL A   1      43.420  33.784  27.676  1.00  0.00    -0.206 F 
ATOM     87  C   UNL A   1      44.674  35.609  26.894  1.00  0.00     0.040 A 
ATOM     88  C   UNL A   1      47.017  35.770  27.422  1.00  0.00     0.040 A 
ATOM     89  F   UNL A   1      48.051  34.091  28.694  1.00  0.00    -0.206 F 
ATOM     90  C   UNL A   1      45.885  36.293  26.801  1.00  0.00     0.006 A 
ENDBRANCH  62  83
BRANCH  74  91
ATOM     91  C   UNL A   1      44.746  32.395  34.988  1.00  0.00     0.057 A 
ATOM     92  C   UNL A   1      45.820  32.984  35.666  1.00  0.00     0.134 A 
ATOM     93  C   UNL A   1      43.455  32.680  35.455  1.00  0.00     0.134 A 
ATOM     94  F   UNL A   1      47.082  32.745  35.280  1.00  0.00    -0.206 F 
ATOM     95  C   UNL A   1      45.619  33.802  36.780  1.00  0.00     0.040 A 
ATOM     96  C   UNL A   1      43.241  33.523  36.546  1.00  0.00     0.040 A 
ATOM     97  F   UNL A   1      42.379  32.160  34.845  1.00  0.00    -0.206 F 
ATOM     98  C   UNL A   1      44.326  34.081  37.218  1.00  0.00     0.006 A 
ENDBRANCH  74  91
ENDBRANCH  48  49
ENDBRANCH  41  43
ENDBRANCH  40  41
ENDBRANCH  39  40
ENDBRANCH  38  39
ENDBRANCH  37  38
ENDBRANCH  36  37
ENDBRANCH  35  36
ENDBRANCH  34  35
ENDBRANCH   1  34
TORSDOF 24
ENDMDL
MODEL 2
REMARK VINA RESULT:      -7.6      4.678     10.343
REMARK SMILES CCc1sc(NC(=O)[C@H]2CC(C)=C(C)C[C@H]2C(=O)OCCOCCOCCOCCOC(=O)c2ccc(-c3c4nc(c(-c5c(F)cccc5F)c5ccc([nH]5)c(-c5c(F)cccc5F)c5nc(c(-c6c(F)cccc6F)c6ccc3[nH]6)C=C5)C=C4)cc2)nc1-c1ccccc1
REMARK SMILES IDX 24 1 23 2 22 3 21 4 20 5 19 6 17 7 18 8 16 9 9 10 10 11
REMARK SMILES IDX 11 12 15 13 12 14 13 15 14 16 7 17 6 18 8 20 5 21 3 22 4 23
REMARK SMILES IDX 89 24 88 25 2 26 1 27 90 28 91 29 95 30 92 31 94 32 93 33
REMARK SMILES IDX 25 34 26 35 27 36 28 37 29 38 30 39 31 40 32 41 33 42 34 43
REMARK SMILES IDX 35 44 87 45 36 46 86 47 37 48 38 49 39 50 80 51 40 52 85 53
REMARK SMILES IDX 79 54 81 55 41 56 84 57 78 58 77 59 42 61 68 62 51 63 67 64
REMARK SMILES IDX 52 65 55 66 66 67 82 68 53 69 54 70 65 72 83 73 56 74 43 75
REMARK SMILES IDX 44 76 49 77 45 78 46 79 48 80 50 81 47 82 69 83 70 84 75 85
REMARK SMILES IDX 71 86 72 87 74 88 76 89 73 90 57 91 58 92 63 93 59 94 60 95
REMARK SMILES IDX 62 96 64 97 61 98
REMARK H PARENT 6 19 81 60 55 71
REMARK Flexibility Score: inf
ROOT
ATOM      1  C   UNL A   1      41.507  31.710  35.036  1.00  0.00     0.188 C 
ENDROOT
BRANCH   1   2
ATOM      2  C   UNL A   1      41.347  33.240  34.864  1.00  0.00     0.188 C 
BRANCH   2   3
ATOM      3  O   UNL A   1      42.407  33.803  34.090  1.00  0.00    -0.376 OA
BRANCH   3   4
ATOM      4  C   UNL A   1      42.549  33.451  32.712  1.00  0.00     0.202 C 
BRANCH   4   5
ATOM      5  C   UNL A   1      42.268  34.632  31.704  1.00  0.00     0.261 C 
BRANCH   5   6
ATOM      6  O   UNL A   1      43.487  35.610  31.009  1.00  0.00    -0.463 OA
BRANCH   6   7
ATOM      7  C   UNL A   1      44.185  37.404  30.707  1.00  0.00     0.310 C 
ATOM      8  O   UNL A   1      44.660  38.160  31.608  1.00  0.00    -0.252 OA
BRANCH   7   9
ATOM      9  C   UNL A   1      44.293  38.247  29.171  1.00  0.00     0.116 C 
ATOM     10  C   UNL A   1      45.281  38.291  27.979  1.00  0.00     0.097 C 
ATOM     11  C   UNL A   1      45.282  37.077  27.031  1.00  0.00     0.045 C 
ATOM     12  C   UNL A   1      43.953  36.372  26.934  1.00  0.00    -0.074 C 
ATOM     13  C   UNL A   1      42.922  38.076  28.460  1.00  0.00     0.046 C 
ATOM     14  C   UNL A   1      43.999  35.095  26.131  1.00  0.00     0.039 C 
ATOM     15  C   UNL A   1      42.862  36.840  27.582  1.00  0.00    -0.073 C 
ATOM     16  C   UNL A   1      41.528  36.155  27.533  1.00  0.00     0.039 C 
BRANCH  10  17
ATOM     17  C   UNL A   1      46.681  38.562  28.403  1.00  0.00     0.230 C 
ATOM     18  N   UNL A   1      47.073  39.821  28.091  1.00  0.00    -0.302 N 
ATOM     19  H   UNL A   1      47.628  40.359  28.701  1.00  0.00     0.172 HD
ATOM     20  O   UNL A   1      47.295  37.822  29.163  1.00  0.00    -0.274 OA
BRANCH  18  21
ATOM     21  C   UNL A   1      46.658  40.292  26.898  1.00  0.00     0.190 A 
ATOM     22  C   UNL A   1      44.943  42.247  24.902  1.00  0.00     0.034 A 
ATOM     23  S   UNL A   1      45.011  41.908  27.170  1.00  0.00    -0.101 S 
ATOM     24  C   UNL A   1      46.194  41.309  24.056  1.00  0.00     0.087 A 
ATOM     25  N   UNL A   1      47.020  40.066  25.254  1.00  0.00    -0.220 NA
BRANCH  22  26
ATOM     26  C   UNL A   1      43.782  43.061  24.427  1.00  0.00     0.046 C 
ATOM     27  C   UNL A   1      42.580  42.181  24.101  1.00  0.00     0.010 C 
ENDBRANCH  22  26
BRANCH  24  28
ATOM     28  C   UNL A   1      46.923  42.091  23.014  1.00  0.00     0.001 A 
ATOM     29  C   UNL A   1      46.771  41.684  21.660  1.00  0.00     0.010 A 
ATOM     30  C   UNL A   1      47.693  43.220  23.257  1.00  0.00     0.010 A 
ATOM     31  C   UNL A   1      47.409  42.315  20.597  1.00  0.00     0.001 A 
ATOM     32  C   UNL A   1      48.335  43.869  22.179  1.00  0.00     0.001 A 
ATOM     33  C   UNL A   1      48.207  43.411  20.861  1.00  0.00     0.000 A 
ENDBRANCH  24  28
ENDBRANCH  18  21
ENDBRANCH  10  17
ENDBRANCH   7   9
ENDBRANCH   6   7
ENDBRANCH   5   6
ENDBRANCH   4   5
ENDBRANCH   3   4
ENDBRANCH   2   3
ENDBRANCH   1   2
BRANCH   1  34
ATOM     34  O   UNL A   1      40.741  31.129  36.093  1.00  0.00    -0.377 OA
BRANCH  34  35
ATOM     35  C   UNL A   1      39.494  31.756  36.415  1.00  0.00     0.188 C 
BRANCH  35  36
ATOM     36  C   UNL A   1      38.154  31.265  35.812  1.00  0.00     0.188 C 
BRANCH  36  37
ATOM     37  O   UNL A   1      38.153  31.039  34.419  1.00  0.00    -0.376 OA
BRANCH  37  38
ATOM     38  C   UNL A   1      37.631  32.062  33.585  1.00  0.00     0.202 C 
BRANCH  38  39
ATOM     39  C   UNL A   1      36.332  31.806  32.795  1.00  0.00     0.261 C 
BRANCH  39  40
ATOM     40  O   UNL A   1      36.228  30.566  32.070  1.00  0.00    -0.460 OA
BRANCH  40  41
ATOM     41  C   UNL A   1      36.193  30.615  30.721  1.00  0.00     0.338 C 
ATOM     42  O   UNL A   1      35.469  31.311  30.034  1.00  0.00    -0.246 OA
BRANCH  41  43
ATOM     43  C   UNL A   1      37.352  29.846  30.198  1.00  0.00     0.060 A 
ATOM     44  C   UNL A   1      38.159  29.136  31.103  1.00  0.00     0.016 A 
ATOM     45  C   UNL A   1      37.633  29.806  28.830  1.00  0.00     0.016 A 
ATOM     46  C   UNL A   1      39.283  28.442  30.655  1.00  0.00     0.010 A 
ATOM     47  C   UNL A   1      38.788  29.150  28.386  1.00  0.00     0.010 A 
ATOM     48  C   UNL A   1      39.645  28.517  29.307  1.00  0.00    -0.014 A 
BRANCH  48  49
ATOM     49  C   UNL A   1      41.056  28.246  28.936  1.00  0.00     0.031 A 
ATOM     50  C   UNL A   1      41.388  26.857  28.459  1.00  0.00     0.074 A 
ATOM     51  C   UNL A   1      42.007  29.195  28.961  1.00  0.00     0.049 A 
ATOM     52  N   UNL A   1      42.538  26.343  28.108  1.00  0.00    -0.248 NA
ATOM     53  C   UNL A   1      40.257  25.918  28.371  1.00  0.00     0.031 C 
ATOM     54  C   UNL A   1      41.804  30.594  29.322  1.00  0.00     0.029 A 
ATOM     55  N   UNL A   1      43.346  29.106  28.671  1.00  0.00    -0.354 N 
ATOM     56  C   UNL A   1      42.268  25.022  27.766  1.00  0.00     0.074 A 
ATOM     57  C   UNL A   1      40.857  24.804  27.991  1.00  0.00     0.031 C 
ATOM     58  C   UNL A   1      42.984  31.237  29.237  1.00  0.00     0.029 A 
ATOM     59  C   UNL A   1      44.026  30.285  28.851  1.00  0.00     0.049 A 
ATOM     60  H   UNL A   1      43.778  28.277  28.363  1.00  0.00     0.167 HD
ATOM     61  C   UNL A   1      43.114  24.075  27.299  1.00  0.00     0.037 A 
ATOM     62  C   UNL A   1      45.342  30.552  28.736  1.00  0.00     0.037 A 
ATOM     63  C   UNL A   1      44.522  24.286  27.095  1.00  0.00     0.049 A 
ATOM     64  C   UNL A   1      46.292  29.452  28.336  1.00  0.00     0.074 A 
ATOM     65  C   UNL A   1      45.471  23.394  26.631  1.00  0.00     0.029 A 
ATOM     66  N   UNL A   1      45.186  25.475  27.364  1.00  0.00    -0.354 N 
ATOM     67  N   UNL A   1      46.033  28.208  28.008  1.00  0.00    -0.248 NA
ATOM     68  C   UNL A   1      47.722  29.796  28.292  1.00  0.00     0.031 C 
ATOM     69  C   UNL A   1      46.720  24.023  26.683  1.00  0.00     0.029 A 
ATOM     70  C   UNL A   1      46.540  25.328  27.110  1.00  0.00     0.049 A 
ATOM     71  H   UNL A   1      44.759  26.300  27.688  1.00  0.00     0.167 HD
ATOM     72  C   UNL A   1      47.257  27.633  27.684  1.00  0.00     0.074 A 
ATOM     73  C   UNL A   1      48.258  28.667  27.850  1.00  0.00     0.031 C 
ATOM     74  C   UNL A   1      47.527  26.366  27.278  1.00  0.00     0.037 A 
BRANCH  61  75
ATOM     75  C   UNL A   1      42.533  22.714  27.038  1.00  0.00     0.057 A 
ATOM     76  C   UNL A   1      42.188  21.836  28.075  1.00  0.00     0.134 A 
ATOM     77  C   UNL A   1      42.350  22.261  25.725  1.00  0.00     0.134 A 
ATOM     78  F   UNL A   1      42.356  22.198  29.357  1.00  0.00    -0.206 F 
ATOM     79  C   UNL A   1      41.730  20.543  27.817  1.00  0.00     0.040 A 
ATOM     80  C   UNL A   1      41.858  20.983  25.454  1.00  0.00     0.040 A 
ATOM     81  F   UNL A   1      42.657  23.048  24.682  1.00  0.00    -0.206 F 
ATOM     82  C   UNL A   1      41.561  20.115  26.502  1.00  0.00     0.006 A 
ENDBRANCH  61  75
BRANCH  62  83
ATOM     83  C   UNL A   1      45.845  31.925  28.998  1.00  0.00     0.057 A 
ATOM     84  C   UNL A   1      45.980  32.405  30.305  1.00  0.00     0.134 A 
ATOM     85  C   UNL A   1      46.195  32.791  27.953  1.00  0.00     0.134 A 
ATOM     86  F   UNL A   1      45.636  31.634  31.346  1.00  0.00    -0.206 F 
ATOM     87  C   UNL A   1      46.439  33.698  30.566  1.00  0.00     0.040 A 
ATOM     88  C   UNL A   1      46.679  34.077  28.200  1.00  0.00     0.040 A 
ATOM     89  F   UNL A   1      46.084  32.393  26.677  1.00  0.00    -0.206 F 
ATOM     90  C   UNL A   1      46.797  34.535  29.511  1.00  0.00     0.006 A 
ENDBRANCH  62  83
BRANCH  74  91
ATOM     91  C   UNL A   1      48.955  26.033  26.941  1.00  0.00     0.057 A 
ATOM     92  C   UNL A   1      49.507  26.299  25.682  1.00  0.00     0.134 A 
ATOM     93  C   UNL A   1      49.802  25.478  27.912  1.00  0.00     0.134 A 
ATOM     94  F   UNL A   1      48.752  26.820  24.704  1.00  0.00    -0.206 F 
ATOM     95  C   UNL A   1      50.841  26.001  25.392  1.00  0.00     0.040 A 
ATOM     96  C   UNL A   1      51.144  25.207  27.644  1.00  0.00     0.040 A 
ATOM     97  F   UNL A   1      49.343  25.209  29.144  1.00  0.00    -0.206 F 
ATOM     98  C   UNL A   1      51.665  25.461  26.377  1.00  0.00     0.006 A 
ENDBRANCH  74  91
ENDBRANCH  48  49
ENDBRANCH  41  43
ENDBRANCH  40  41
ENDBRANCH  39  40
ENDBRANCH  38  39
ENDBRANCH  37  38
ENDBRANCH  36  37
ENDBRANCH  35  36
ENDBRANCH  34  35
ENDBRANCH   1  34
TORSDOF 24
ENDMDL
MODEL 3
REMARK VINA RESULT:      -7.5      5.509      9.318
REMARK SMILES CCc1sc(NC(=O)[C@H]2CC(C)=C(C)C[C@H]2C(=O)OCCOCCOCCOCCOC(=O)c2ccc(-c3c4nc(c(-c5c(F)cccc5F)c5ccc([nH]5)c(-c5c(F)cccc5F)c5nc(c(-c6c(F)cccc6F)c6ccc3[nH]6)C=C5)C=C4)cc2)nc1-c1ccccc1
REMARK SMILES IDX 24 1 23 2 22 3 21 4 20 5 19 6 17 7 18 8 16 9 9 10 10 11
REMARK SMILES IDX 11 12 15 13 12 14 13 15 14 16 7 17 6 18 8 20 5 21 3 22 4 23
REMARK SMILES IDX 89 24 88 25 2 26 1 27 90 28 91 29 95 30 92 31 94 32 93 33
REMARK SMILES IDX 25 34 26 35 27 36 28 37 29 38 30 39 31 40 32 41 33 42 34 43
REMARK SMILES IDX 35 44 87 45 36 46 86 47 37 48 38 49 39 50 80 51 40 52 85 53
REMARK SMILES IDX 79 54 81 55 41 56 84 57 78 58 77 59 42 61 68 62 51 63 67 64
REMARK SMILES IDX 52 65 55 66 66 67 82 68 53 69 54 70 65 72 83 73 56 74 43 75
REMARK SMILES IDX 44 76 49 77 45 78 46 79 48 80 50 81 47 82 69 83 70 84 75 85
REMARK SMILES IDX 71 86 72 87 74 88 76 89 73 90 57 91 58 92 63 93 59 94 60 95
REMARK SMILES IDX 62 96 64 97 61 98
REMARK H PARENT 6 19 81 60 55 71
REMARK Flexibility Score: inf
ROOT
ATOM      1  C   UNL A   1      41.446  21.218  26.106  1.00  0.00     0.188 C 
ENDROOT
BRANCH   1   2
ATOM      2  C   UNL A   1      41.035  19.726  26.075  1.00  0.00     0.188 C 
BRANCH   2   3
ATOM      3  O   UNL A   1      39.633  19.555  26.286  1.00  0.00    -0.376 OA
BRANCH   3   4
ATOM      4  C   UNL A   1      38.703  20.437  25.654  1.00  0.00     0.202 C 
BRANCH   4   5
ATOM      5  C   UNL A   1      37.635  19.716  24.743  1.00  0.00     0.261 C 
BRANCH   5   6
ATOM      6  O   UNL A   1      35.986  19.533  25.161  1.00  0.00    -0.463 OA
BRANCH   6   7
ATOM      7  C   UNL A   1      34.156  20.167  24.954  1.00  0.00     0.310 C 
ATOM      8  O   UNL A   1      33.119  19.449  25.094  1.00  0.00    -0.252 OA
BRANCH   7   9
ATOM      9  C   UNL A   1      33.644  21.802  24.573  1.00  0.00     0.116 C 
ATOM     10  C   UNL A   1      33.236  23.067  25.368  1.00  0.00     0.097 C 
ATOM     11  C   UNL A   1      34.368  23.848  26.062  1.00  0.00     0.045 C 
ATOM     12  C   UNL A   1      35.702  23.743  25.367  1.00  0.00    -0.074 C 
ATOM     13  C   UNL A   1      34.661  22.369  23.544  1.00  0.00     0.046 C 
ATOM     14  C   UNL A   1      36.837  24.377  26.134  1.00  0.00     0.039 C 
ATOM     15  C   UNL A   1      35.834  23.072  24.201  1.00  0.00    -0.073 C 
ATOM     16  C   UNL A   1      37.147  22.923  23.490  1.00  0.00     0.039 C 
BRANCH  10  17
ATOM     17  C   UNL A   1      32.165  22.799  26.365  1.00  0.00     0.230 C 
ATOM     18  N   UNL A   1      30.960  23.262  25.956  1.00  0.00    -0.302 N 
ATOM     19  H   UNL A   1      30.129  22.759  26.112  1.00  0.00     0.172 HD
ATOM     20  O   UNL A   1      32.319  22.031  27.308  1.00  0.00    -0.274 OA
BRANCH  18  21
ATOM     21  C   UNL A   1      30.967  24.452  25.322  1.00  0.00     0.190 A 
ATOM     22  C   UNL A   1      31.357  26.457  22.757  1.00  0.00     0.034 A 
ATOM     23  S   UNL A   1      31.731  24.226  23.139  1.00  0.00    -0.101 S 
ATOM     24  C   UNL A   1      30.568  27.241  24.144  1.00  0.00     0.087 A 
ATOM     25  N   UNL A   1      30.545  26.064  25.652  1.00  0.00    -0.220 NA
BRANCH  22  26
ATOM     26  C   UNL A   1      31.960  26.984  21.494  1.00  0.00     0.046 C 
ATOM     27  C   UNL A   1      33.379  27.491  21.722  1.00  0.00     0.010 C 
ENDBRANCH  22  26
BRANCH  24  28
ATOM     28  C   UNL A   1      29.442  28.143  23.758  1.00  0.00     0.001 A 
ATOM     29  C   UNL A   1      29.738  29.521  23.571  1.00  0.00     0.010 A 
ATOM     30  C   UNL A   1      28.140  27.732  23.511  1.00  0.00     0.010 A 
ATOM     31  C   UNL A   1      28.778  30.468  23.228  1.00  0.00     0.001 A 
ATOM     32  C   UNL A   1      27.164  28.689  23.154  1.00  0.00     0.001 A 
ATOM     33  C   UNL A   1      27.477  30.050  23.029  1.00  0.00     0.000 A 
ENDBRANCH  24  28
ENDBRANCH  18  21
ENDBRANCH  10  17
ENDBRANCH   7   9
ENDBRANCH   6   7
ENDBRANCH   5   6
ENDBRANCH   4   5
ENDBRANCH   3   4
ENDBRANCH   2   3
ENDBRANCH   1   2
BRANCH   1  34
ATOM     34  O   UNL A   1      41.678  21.763  27.406  1.00  0.00    -0.377 OA
BRANCH  34  35
ATOM     35  C   UNL A   1      42.798  22.644  27.554  1.00  0.00     0.188 C 
BRANCH  35  36
ATOM     36  C   UNL A   1      43.735  22.979  26.366  1.00  0.00     0.188 C 
BRANCH  36  37
ATOM     37  O   UNL A   1      44.891  22.179  26.251  1.00  0.00    -0.376 OA
BRANCH  37  38
ATOM     38  C   UNL A   1      45.576  22.185  25.008  1.00  0.00     0.202 C 
BRANCH  38  39
ATOM     39  C   UNL A   1      46.202  23.496  24.493  1.00  0.00     0.261 C 
BRANCH  39  40
ATOM     40  O   UNL A   1      46.822  24.362  25.463  1.00  0.00    -0.460 OA
BRANCH  40  41
ATOM     41  C   UNL A   1      46.869  25.686  25.201  1.00  0.00     0.338 C 
ATOM     42  O   UNL A   1      47.511  26.235  24.324  1.00  0.00    -0.246 OA
BRANCH  41  43
ATOM     43  C   UNL A   1      45.820  26.357  26.012  1.00  0.00     0.060 A 
ATOM     44  C   UNL A   1      45.373  27.631  25.622  1.00  0.00     0.016 A 
ATOM     45  C   UNL A   1      45.266  25.734  27.133  1.00  0.00     0.016 A 
ATOM     46  C   UNL A   1      44.424  28.312  26.384  1.00  0.00     0.010 A 
ATOM     47  C   UNL A   1      44.349  26.437  27.925  1.00  0.00     0.010 A 
ATOM     48  C   UNL A   1      43.972  27.750  27.582  1.00  0.00    -0.014 A 
BRANCH  48  49
ATOM     49  C   UNL A   1      43.405  28.649  28.616  1.00  0.00     0.031 A 
ATOM     50  C   UNL A   1      44.340  29.140  29.690  1.00  0.00     0.074 A 
ATOM     51  C   UNL A   1      42.129  29.069  28.591  1.00  0.00     0.049 A 
ATOM     52  N   UNL A   1      44.102  29.901  30.726  1.00  0.00    -0.248 NA
ATOM     53  C   UNL A   1      45.742  28.704  29.573  1.00  0.00     0.031 C 
ATOM     54  C   UNL A   1      41.144  28.738  27.567  1.00  0.00     0.029 A 
ATOM     55  N   UNL A   1      41.451  29.876  29.470  1.00  0.00    -0.354 N 
ATOM     56  C   UNL A   1      45.320  30.027  31.386  1.00  0.00     0.074 A 
ATOM     57  C   UNL A   1      46.283  29.232  30.657  1.00  0.00     0.031 C 
ATOM     58  C   UNL A   1      39.979  29.334  27.880  1.00  0.00     0.029 A 
ATOM     59  C   UNL A   1      40.130  30.057  29.143  1.00  0.00     0.049 A 
ATOM     60  H   UNL A   1      41.871  30.286  30.261  1.00  0.00     0.167 HD
ATOM     61  C   UNL A   1      45.617  30.745  32.494  1.00  0.00     0.037 A 
ATOM     62  C   UNL A   1      39.157  30.716  29.801  1.00  0.00     0.037 A 
ATOM     63  C   UNL A   1      44.654  31.518  33.231  1.00  0.00     0.049 A 
ATOM     64  C   UNL A   1      39.476  31.407  31.103  1.00  0.00     0.074 A 
ATOM     65  C   UNL A   1      44.847  32.278  34.370  1.00  0.00     0.029 A 
ATOM     66  N   UNL A   1      43.307  31.612  32.908  1.00  0.00    -0.354 N 
ATOM     67  N   UNL A   1      40.628  31.529  31.719  1.00  0.00    -0.248 NA
ATOM     68  C   UNL A   1      38.353  32.051  31.803  1.00  0.00     0.031 C 
ATOM     69  C   UNL A   1      43.604  32.778  34.774  1.00  0.00     0.029 A 
ATOM     70  C   UNL A   1      42.649  32.390  33.847  1.00  0.00     0.049 A 
ATOM     71  H   UNL A   1      42.883  31.190  32.127  1.00  0.00     0.167 HD
ATOM     72  C   UNL A   1      40.378  32.292  32.855  1.00  0.00     0.074 A 
ATOM     73  C   UNL A   1      38.964  32.609  32.839  1.00  0.00     0.031 C 
ATOM     74  C   UNL A   1      41.241  32.700  33.820  1.00  0.00     0.037 A 
BRANCH  61  75
ATOM     75  C   UNL A   1      47.031  30.667  32.995  1.00  0.00     0.057 A 
ATOM     76  C   UNL A   1      47.425  29.760  33.989  1.00  0.00     0.134 A 
ATOM     77  C   UNL A   1      48.008  31.540  32.499  1.00  0.00     0.134 A 
ATOM     78  F   UNL A   1      46.536  28.908  34.522  1.00  0.00    -0.206 F 
ATOM     79  C   UNL A   1      48.722  29.757  34.506  1.00  0.00     0.040 A 
ATOM     80  C   UNL A   1      49.318  31.523  32.982  1.00  0.00     0.040 A 
ATOM     81  F   UNL A   1      47.704  32.433  31.545  1.00  0.00    -0.206 F 
ATOM     82  C   UNL A   1      49.673  30.639  33.999  1.00  0.00     0.006 A 
ENDBRANCH  61  75
BRANCH  62  83
ATOM     83  C   UNL A   1      37.782  30.762  29.240  1.00  0.00     0.057 A 
ATOM     84  C   UNL A   1      37.285  31.926  28.644  1.00  0.00     0.134 A 
ATOM     85  C   UNL A   1      36.931  29.650  29.291  1.00  0.00     0.134 A 
ATOM     86  F   UNL A   1      38.042  33.031  28.589  1.00  0.00    -0.206 F 
ATOM     87  C   UNL A   1      35.991  31.987  28.125  1.00  0.00     0.040 A 
ATOM     88  C   UNL A   1      35.643  29.689  28.753  1.00  0.00     0.040 A 
ATOM     89  F   UNL A   1      37.345  28.504  29.853  1.00  0.00    -0.206 F 
ATOM     90  C   UNL A   1      35.168  30.863  28.173  1.00  0.00     0.006 A 
ENDBRANCH  62  83
BRANCH  74  91
ATOM     91  C   UNL A   1      40.696  33.571  34.918  1.00  0.00     0.057 A 
ATOM     92  C   UNL A   1      40.607  34.963  34.792  1.00  0.00     0.134 A 
ATOM     93  C   UNL A   1      40.210  32.999  36.102  1.00  0.00     0.134 A 
ATOM     94  F   UNL A   1      41.062  35.577  33.690  1.00  0.00    -0.206 F 
ATOM     95  C   UNL A   1      40.081  35.756  35.814  1.00  0.00     0.040 A 
ATOM     96  C   UNL A   1      39.652  33.779  37.117  1.00  0.00     0.040 A 
ATOM     97  F   UNL A   1      40.252  31.671  36.285  1.00  0.00    -0.206 F 
ATOM     98  C   UNL A   1      39.593  35.163  36.977  1.00  0.00     0.006 A 
ENDBRANCH  74  91
ENDBRANCH  48  49
ENDBRANCH  41  43
ENDBRANCH  40  41
ENDBRANCH  39  40
ENDBRANCH  38  39
ENDBRANCH  37  38
ENDBRANCH  36  37
ENDBRANCH  35  36
ENDBRANCH  34  35
ENDBRANCH   1  34
TORSDOF 24
ENDMDL
