MODEL 1
REMARK VINA RESULT:      -9.7      0.000      0.000
REMARK SMILES CCOC(=O)c1c(S(=O)(=O)N2CCC[C@@H](C(=O)OCCOCCOCCOCCOC(=O)c3ccc(-c4c5nc(c(-c6c(F)cccc6F)c6ccc([nH]6)c(-c6c(F)cccc6F)c6nc(c(-c7c(F)cccc7F)c7ccc4[nH]7)C=C6)C=C5)cc3)C2)c(C)n(C)c1C
REMARK SMILES IDX 22 1 21 2 20 3 19 4 18 5 16 6 17 7 15 8 11 9 12 10 87 11
REMARK SMILES IDX 13 12 14 13 8 14 9 15 10 16 7 17 6 18 92 19 88 20 90 21
REMARK SMILES IDX 93 22 89 23 91 24 4 25 5 26 3 27 2 28 1 29 23 30 24 31 25 32
REMARK SMILES IDX 26 33 27 34 28 35 29 36 30 37 31 38 32 39 33 40 34 41 86 42
REMARK SMILES IDX 35 43 85 44 36 45 37 46 38 47 79 48 39 49 84 50 78 51 80 52
REMARK SMILES IDX 40 53 83 54 77 55 76 56 41 58 67 59 50 60 66 61 51 62 54 63
REMARK SMILES IDX 65 64 81 65 52 66 53 67 64 69 82 70 55 71 42 72 43 73 48 74
REMARK SMILES IDX 44 75 45 76 47 77 49 78 46 79 68 80 69 81 74 82 70 83 71 84
REMARK SMILES IDX 73 85 75 86 72 87 56 88 57 89 62 90 58 91 59 92 61 93 63 94
REMARK SMILES IDX 60 95
REMARK H PARENT 80 57 54 68
REMARK Flexibility Score: inf
ROOT
ATOM      1  C   UNL A   1      34.530  29.196  27.650  1.00  0.00     0.188 C 
ENDROOT
BRANCH   1   2
ATOM      2  O   UNL A   1      33.729  28.492  26.719  1.00  0.00    -0.376 OA
BRANCH   2   3
ATOM      3  C   UNL A   1      32.441  28.983  26.413  1.00  0.00     0.202 C 
BRANCH   3   4
ATOM      4  C   UNL A   1      32.152  29.446  24.976  1.00  0.00     0.261 C 
BRANCH   4   5
ATOM      5  O   UNL A   1      32.170  28.419  23.974  1.00  0.00    -0.463 OA
BRANCH   5   6
ATOM      6  C   UNL A   1      33.349  28.248  23.336  1.00  0.00     0.310 C 
ATOM      7  O   UNL A   1      34.247  29.078  23.332  1.00  0.00    -0.252 OA
BRANCH   6   8
ATOM      8  C   UNL A   1      33.424  26.898  22.641  1.00  0.00     0.114 C 
ATOM      9  N   UNL A   1      33.349  24.573  23.646  1.00  0.00    -0.197 NA
ATOM     10  C   UNL A   1      32.316  24.131  22.706  1.00  0.00     0.102 C 
ATOM     11  C   UNL A   1      33.841  25.952  23.740  1.00  0.00     0.117 C 
ATOM     12  C   UNL A   1      32.145  25.054  21.522  1.00  0.00     0.018 C 
ATOM     13  C   UNL A   1      32.118  26.505  21.954  1.00  0.00     0.018 C 
BRANCH   9  14
ATOM     14  S   UNL A   1      33.432  23.744  25.106  1.00  0.00     0.245 S 
ATOM     15  O   UNL A   1      32.166  23.043  25.218  1.00  0.00    -0.207 OA
ATOM     16  O   UNL A   1      33.885  24.641  26.145  1.00  0.00    -0.207 OA
BRANCH  14  17
ATOM     17  C   UNL A   1      34.604  22.439  25.120  1.00  0.00     0.118 A 
ATOM     18  C   UNL A   1      34.473  21.015  24.904  1.00  0.00     0.101 A 
ATOM     19  C   UNL A   1      35.772  20.495  25.009  1.00  0.00     0.030 A 
ATOM     20  C   UNL A   1      35.942  22.702  25.408  1.00  0.00     0.035 A 
ATOM     21  N   UNL A   1      36.635  21.524  25.306  1.00  0.00    -0.350 N 
ATOM     22  C   UNL A   1      36.267  19.100  24.787  1.00  0.00     0.065 C 
ATOM     23  C   UNL A   1      36.580  24.009  25.762  1.00  0.00     0.066 C 
ATOM     24  C   UNL A   1      38.075  21.419  25.437  1.00  0.00     0.149 C 
BRANCH  18  25
ATOM     25  C   UNL A   1      33.340  20.158  24.527  1.00  0.00     0.341 C 
ATOM     26  O   UNL A   1      32.625  20.378  23.564  1.00  0.00    -0.246 OA
BRANCH  25  27
ATOM     27  O   UNL A   1      33.284  19.003  25.265  1.00  0.00    -0.462 OA
BRANCH  27  28
ATOM     28  C   UNL A   1      32.481  17.916  24.762  1.00  0.00     0.230 C 
ATOM     29  C   UNL A   1      33.304  16.765  24.219  1.00  0.00     0.049 C 
ENDBRANCH  27  28
ENDBRANCH  25  27
ENDBRANCH  18  25
ENDBRANCH  14  17
ENDBRANCH   9  14
ENDBRANCH   6   8
ENDBRANCH   5   6
ENDBRANCH   4   5
ENDBRANCH   3   4
ENDBRANCH   2   3
ENDBRANCH   1   2
BRANCH   1  30
ATOM     30  C   UNL A   1      34.593  30.728  27.424  1.00  0.00     0.188 C 
BRANCH  30  31
ATOM     31  O   UNL A   1      33.952  31.627  28.317  1.00  0.00    -0.377 OA
BRANCH  31  32
ATOM     32  C   UNL A   1      34.491  32.925  28.514  1.00  0.00     0.188 C 
BRANCH  32  33
ATOM     33  C   UNL A   1      34.461  33.610  29.908  1.00  0.00     0.188 C 
BRANCH  33  34
ATOM     34  O   UNL A   1      35.696  34.147  30.358  1.00  0.00    -0.376 OA
BRANCH  34  35
ATOM     35  C   UNL A   1      36.933  33.499  30.137  1.00  0.00     0.202 C 
BRANCH  35  36
ATOM     36  C   UNL A   1      37.310  32.335  31.048  1.00  0.00     0.261 C 
BRANCH  36  37
ATOM     37  O   UNL A   1      37.790  31.209  30.345  1.00  0.00    -0.460 OA
BRANCH  37  38
ATOM     38  C   UNL A   1      36.996  30.136  30.420  1.00  0.00     0.338 C 
ATOM     39  O   UNL A   1      35.922  30.044  31.016  1.00  0.00    -0.246 OA
BRANCH  38  40
ATOM     40  C   UNL A   1      37.660  29.022  29.755  1.00  0.00     0.060 A 
ATOM     41  C   UNL A   1      38.268  28.105  30.610  1.00  0.00     0.016 A 
ATOM     42  C   UNL A   1      38.065  29.221  28.427  1.00  0.00     0.016 A 
ATOM     43  C   UNL A   1      39.516  27.672  30.258  1.00  0.00     0.010 A 
ATOM     44  C   UNL A   1      39.324  28.815  28.090  1.00  0.00     0.010 A 
ATOM     45  C   UNL A   1      40.064  28.153  29.064  1.00  0.00    -0.014 A 
BRANCH  45  46
ATOM     46  C   UNL A   1      41.457  27.892  28.832  1.00  0.00     0.031 A 
ATOM     47  C   UNL A   1      41.665  26.586  28.186  1.00  0.00     0.074 A 
ATOM     48  C   UNL A   1      42.407  28.799  29.115  1.00  0.00     0.049 A 
ATOM     49  N   UNL A   1      42.206  25.532  28.694  1.00  0.00    -0.248 NA
ATOM     50  C   UNL A   1      40.995  26.367  26.892  1.00  0.00     0.031 C 
ATOM     51  C   UNL A   1      42.250  30.210  29.483  1.00  0.00     0.029 A 
ATOM     52  N   UNL A   1      43.751  28.656  29.023  1.00  0.00    -0.354 N 
ATOM     53  C   UNL A   1      42.150  24.583  27.683  1.00  0.00     0.074 A 
ATOM     54  C   UNL A   1      41.214  25.067  26.706  1.00  0.00     0.031 C 
ATOM     55  C   UNL A   1      43.443  30.835  29.344  1.00  0.00     0.029 A 
ATOM     56  C   UNL A   1      44.456  29.851  29.003  1.00  0.00     0.049 A 
ATOM     57  H   UNL A   1      44.192  27.777  28.972  1.00  0.00     0.167 HD
ATOM     58  C   UNL A   1      43.113  23.633  27.577  1.00  0.00     0.037 A 
ATOM     59  C   UNL A   1      45.748  29.978  28.612  1.00  0.00     0.037 A 
ATOM     60  C   UNL A   1      43.789  23.422  28.833  1.00  0.00     0.049 A 
ATOM     61  C   UNL A   1      46.358  28.618  28.659  1.00  0.00     0.074 A 
ATOM     62  C   UNL A   1      43.366  23.085  30.106  1.00  0.00     0.029 A 
ATOM     63  N   UNL A   1      45.049  23.947  28.992  1.00  0.00    -0.354 N 
ATOM     64  N   UNL A   1      46.595  27.965  29.764  1.00  0.00    -0.248 NA
ATOM     65  C   UNL A   1      46.257  27.797  27.460  1.00  0.00     0.031 C 
ATOM     66  C   UNL A   1      44.164  23.876  30.984  1.00  0.00     0.029 A 
ATOM     67  C   UNL A   1      45.067  24.596  30.203  1.00  0.00     0.049 A 
ATOM     68  H   UNL A   1      45.798  23.872  28.358  1.00  0.00     0.167 HD
ATOM     69  C   UNL A   1      46.258  26.649  29.480  1.00  0.00     0.074 A 
ATOM     70  C   UNL A   1      46.120  26.595  28.026  1.00  0.00     0.031 C 
ATOM     71  C   UNL A   1      45.831  25.795  30.456  1.00  0.00     0.037 A 
BRANCH  58  72
ATOM     72  C   UNL A   1      43.681  23.223  26.244  1.00  0.00     0.057 A 
ATOM     73  C   UNL A   1      43.711  21.863  25.906  1.00  0.00     0.134 A 
ATOM     74  C   UNL A   1      44.438  24.070  25.402  1.00  0.00     0.134 A 
ATOM     75  F   UNL A   1      43.061  20.955  26.649  1.00  0.00    -0.206 F 
ATOM     76  C   UNL A   1      44.480  21.377  24.841  1.00  0.00     0.040 A 
ATOM     77  C   UNL A   1      45.157  23.603  24.303  1.00  0.00     0.040 A 
ATOM     78  F   UNL A   1      44.611  25.373  25.650  1.00  0.00    -0.206 F 
ATOM     79  C   UNL A   1      45.206  22.247  24.037  1.00  0.00     0.006 A 
ENDBRANCH  58  72
BRANCH  59  80
ATOM     80  C   UNL A   1      46.370  31.085  27.847  1.00  0.00     0.057 A 
ATOM     81  C   UNL A   1      45.668  31.723  26.815  1.00  0.00     0.134 A 
ATOM     82  C   UNL A   1      47.539  31.732  28.286  1.00  0.00     0.134 A 
ATOM     83  F   UNL A   1      44.520  31.204  26.350  1.00  0.00    -0.206 F 
ATOM     84  C   UNL A   1      46.080  32.949  26.277  1.00  0.00     0.040 A 
ATOM     85  C   UNL A   1      47.967  32.952  27.752  1.00  0.00     0.040 A 
ATOM     86  F   UNL A   1      48.257  31.256  29.313  1.00  0.00    -0.206 F 
ATOM     87  C   UNL A   1      47.227  33.574  26.755  1.00  0.00     0.006 A 
ENDBRANCH  59  80
BRANCH  71  88
ATOM     88  C   UNL A   1      45.945  26.246  31.889  1.00  0.00     0.057 A 
ATOM     89  C   UNL A   1      44.903  26.855  32.607  1.00  0.00     0.134 A 
ATOM     90  C   UNL A   1      47.098  25.920  32.610  1.00  0.00     0.134 A 
ATOM     91  F   UNL A   1      43.720  27.107  32.034  1.00  0.00    -0.206 F 
ATOM     92  C   UNL A   1      45.028  27.175  33.963  1.00  0.00     0.040 A 
ATOM     93  C   UNL A   1      47.223  26.201  33.973  1.00  0.00     0.040 A 
ATOM     94  F   UNL A   1      48.114  25.281  32.008  1.00  0.00    -0.206 F 
ATOM     95  C   UNL A   1      46.191  26.842  34.652  1.00  0.00     0.006 A 
ENDBRANCH  71  88
ENDBRANCH  45  46
ENDBRANCH  38  40
ENDBRANCH  37  38
ENDBRANCH  36  37
ENDBRANCH  35  36
ENDBRANCH  34  35
ENDBRANCH  33  34
ENDBRANCH  32  33
ENDBRANCH  31  32
ENDBRANCH  30  31
ENDBRANCH   1  30
TORSDOF 25
ENDMDL
MODEL 2
REMARK VINA RESULT:      -9.6      3.450      9.091
REMARK SMILES CCOC(=O)c1c(S(=O)(=O)N2CCC[C@@H](C(=O)OCCOCCOCCOCCOC(=O)c3ccc(-c4c5nc(c(-c6c(F)cccc6F)c6ccc([nH]6)c(-c6c(F)cccc6F)c6nc(c(-c7c(F)cccc7F)c7ccc4[nH]7)C=C6)C=C5)cc3)C2)c(C)n(C)c1C
REMARK SMILES IDX 22 1 21 2 20 3 19 4 18 5 16 6 17 7 15 8 11 9 12 10 87 11
REMARK SMILES IDX 13 12 14 13 8 14 9 15 10 16 7 17 6 18 92 19 88 20 90 21
REMARK SMILES IDX 93 22 89 23 91 24 4 25 5 26 3 27 2 28 1 29 23 30 24 31 25 32
REMARK SMILES IDX 26 33 27 34 28 35 29 36 30 37 31 38 32 39 33 40 34 41 86 42
REMARK SMILES IDX 35 43 85 44 36 45 37 46 38 47 79 48 39 49 84 50 78 51 80 52
REMARK SMILES IDX 40 53 83 54 77 55 76 56 41 58 67 59 50 60 66 61 51 62 54 63
REMARK SMILES IDX 65 64 81 65 52 66 53 67 64 69 82 70 55 71 42 72 43 73 48 74
REMARK SMILES IDX 44 75 45 76 47 77 49 78 46 79 68 80 69 81 74 82 70 83 71 84
REMARK SMILES IDX 73 85 75 86 72 87 56 88 57 89 62 90 58 91 59 92 61 93 63 94
REMARK SMILES IDX 60 95
REMARK H PARENT 80 57 54 68
REMARK Flexibility Score: inf
ROOT
ATOM      1  C   UNL A   1      40.512  20.026  26.557  1.00  0.00     0.188 C 
ENDROOT
BRANCH   1   2
ATOM      2  O   UNL A   1      39.489  20.709  25.857  1.00  0.00    -0.376 OA
BRANCH   2   3
ATOM      3  C   UNL A   1      38.488  19.960  25.200  1.00  0.00     0.202 C 
BRANCH   3   4
ATOM      4  C   UNL A   1      37.182  20.665  24.803  1.00  0.00     0.261 C 
BRANCH   4   5
ATOM      5  O   UNL A   1      35.972  19.956  25.107  1.00  0.00    -0.463 OA
BRANCH   5   6
ATOM      6  C   UNL A   1      34.831  20.674  24.999  1.00  0.00     0.310 C 
ATOM      7  O   UNL A   1      33.713  20.192  25.102  1.00  0.00    -0.252 OA
BRANCH   6   8
ATOM      8  C   UNL A   1      35.113  22.146  24.747  1.00  0.00     0.114 C 
ATOM      9  N   UNL A   1      33.601  24.149  25.102  1.00  0.00    -0.197 NA
ATOM     10  C   UNL A   1      34.631  24.875  25.847  1.00  0.00     0.102 C 
ATOM     11  C   UNL A   1      33.738  22.761  24.646  1.00  0.00     0.117 C 
ATOM     12  C   UNL A   1      36.015  24.288  25.689  1.00  0.00     0.018 C 
ATOM     13  C   UNL A   1      35.992  22.779  25.823  1.00  0.00     0.018 C 
BRANCH   9  14
ATOM     14  S   UNL A   1      32.008  24.582  25.418  1.00  0.00     0.245 S 
ATOM     15  O   UNL A   1      31.907  24.637  26.865  1.00  0.00    -0.207 OA
ATOM     16  O   UNL A   1      31.118  23.752  24.637  1.00  0.00    -0.207 OA
BRANCH  14  17
ATOM     17  C   UNL A   1      31.604  26.220  24.936  1.00  0.00     0.118 A 
ATOM     18  C   UNL A   1      31.558  27.464  25.672  1.00  0.00     0.101 A 
ATOM     19  C   UNL A   1      31.202  28.445  24.734  1.00  0.00     0.030 A 
ATOM     20  C   UNL A   1      31.215  26.489  23.625  1.00  0.00     0.035 A 
ATOM     21  N   UNL A   1      31.006  27.839  23.516  1.00  0.00    -0.350 N 
ATOM     22  C   UNL A   1      31.092  29.930  24.895  1.00  0.00     0.065 C 
ATOM     23  C   UNL A   1      31.044  25.530  22.488  1.00  0.00     0.066 C 
ATOM     24  C   UNL A   1      30.687  28.510  22.271  1.00  0.00     0.149 C 
BRANCH  18  25
ATOM     25  C   UNL A   1      31.895  27.823  27.056  1.00  0.00     0.341 C 
ATOM     26  O   UNL A   1      31.072  27.873  27.956  1.00  0.00    -0.246 OA
BRANCH  25  27
ATOM     27  O   UNL A   1      33.248  27.925  27.261  1.00  0.00    -0.462 OA
BRANCH  27  28
ATOM     28  C   UNL A   1      33.858  29.223  27.124  1.00  0.00     0.230 C 
ATOM     29  C   UNL A   1      35.254  29.294  27.711  1.00  0.00     0.049 C 
ENDBRANCH  27  28
ENDBRANCH  25  27
ENDBRANCH  18  25
ENDBRANCH  14  17
ENDBRANCH   9  14
ENDBRANCH   6   8
ENDBRANCH   5   6
ENDBRANCH   4   5
ENDBRANCH   3   4
ENDBRANCH   2   3
ENDBRANCH   1   2
BRANCH   1  30
ATOM     30  C   UNL A   1      41.924  20.157  25.933  1.00  0.00     0.188 C 
BRANCH  30  31
ATOM     31  O   UNL A   1      42.464  19.126  25.119  1.00  0.00    -0.377 OA
BRANCH  31  32
ATOM     32  C   UNL A   1      43.806  18.706  25.315  1.00  0.00     0.188 C 
BRANCH  32  33
ATOM     33  C   UNL A   1      44.951  19.196  24.387  1.00  0.00     0.188 C 
BRANCH  33  34
ATOM     34  O   UNL A   1      45.495  20.470  24.698  1.00  0.00    -0.376 OA
BRANCH  34  35
ATOM     35  C   UNL A   1      44.863  21.679  24.327  1.00  0.00     0.202 C 
BRANCH  35  36
ATOM     36  C   UNL A   1      44.484  22.663  25.430  1.00  0.00     0.261 C 
BRANCH  36  37
ATOM     37  O   UNL A   1      43.246  23.302  25.207  1.00  0.00    -0.460 OA
BRANCH  37  38
ATOM     38  C   UNL A   1      43.288  24.634  25.325  1.00  0.00     0.338 C 
ATOM     39  O   UNL A   1      44.082  25.405  24.787  1.00  0.00    -0.246 OA
BRANCH  38  40
ATOM     40  C   UNL A   1      42.283  25.042  26.299  1.00  0.00     0.060 A 
ATOM     41  C   UNL A   1      41.305  25.904  25.807  1.00  0.00     0.016 A 
ATOM     42  C   UNL A   1      42.643  24.980  27.654  1.00  0.00     0.016 A 
ATOM     43  C   UNL A   1      40.966  26.964  26.600  1.00  0.00     0.010 A 
ATOM     44  C   UNL A   1      42.330  26.055  28.433  1.00  0.00     0.010 A 
ATOM     45  C   UNL A   1      41.598  27.080  27.844  1.00  0.00    -0.014 A 
BRANCH  45  46
ATOM     46  C   UNL A   1      41.423  28.317  28.553  1.00  0.00     0.031 A 
ATOM     47  C   UNL A   1      42.492  29.279  28.241  1.00  0.00     0.074 A 
ATOM     48  C   UNL A   1      40.352  28.544  29.332  1.00  0.00     0.049 A 
ATOM     49  N   UNL A   1      43.427  29.701  29.022  1.00  0.00    -0.248 NA
ATOM     50  C   UNL A   1      42.663  29.650  26.825  1.00  0.00     0.031 C 
ATOM     51  C   UNL A   1      39.123  27.754  29.457  1.00  0.00     0.029 A 
ATOM     52  N   UNL A   1      40.101  29.622  30.113  1.00  0.00    -0.354 N 
ATOM     53  C   UNL A   1      44.168  30.579  28.244  1.00  0.00     0.074 A 
ATOM     54  C   UNL A   1      43.801  30.338  26.875  1.00  0.00     0.031 C 
ATOM     55  C   UNL A   1      38.179  28.504  30.073  1.00  0.00     0.029 A 
ATOM     56  C   UNL A   1      38.773  29.762  30.490  1.00  0.00     0.049 A 
ATOM     57  H   UNL A   1      40.803  30.254  30.390  1.00  0.00     0.167 HD
ATOM     58  C   UNL A   1      44.784  31.648  28.810  1.00  0.00     0.037 A 
ATOM     59  C   UNL A   1      38.231  30.898  30.995  1.00  0.00     0.037 A 
ATOM     60  C   UNL A   1      45.011  31.442  30.219  1.00  0.00     0.049 A 
ATOM     61  C   UNL A   1      39.358  31.748  31.476  1.00  0.00     0.074 A 
ATOM     62  C   UNL A   1      45.663  30.468  30.954  1.00  0.00     0.029 A 
ATOM     63  N   UNL A   1      44.195  32.092  31.113  1.00  0.00    -0.354 N 
ATOM     64  N   UNL A   1      40.099  31.458  32.510  1.00  0.00    -0.248 NA
ATOM     65  C   UNL A   1      39.959  32.668  30.518  1.00  0.00     0.031 C 
ATOM     66  C   UNL A   1      44.845  30.260  32.103  1.00  0.00     0.029 A 
ATOM     67  C   UNL A   1      43.783  31.161  32.034  1.00  0.00     0.049 A 
ATOM     68  H   UNL A   1      43.953  33.045  31.097  1.00  0.00     0.167 HD
ATOM     69  C   UNL A   1      41.390  31.807  32.135  1.00  0.00     0.074 A 
ATOM     70  C   UNL A   1      41.231  32.609  30.923  1.00  0.00     0.031 C 
ATOM     71  C   UNL A   1      42.480  31.177  32.660  1.00  0.00     0.037 A 
BRANCH  58  72
ATOM     72  C   UNL A   1      44.789  33.002  28.152  1.00  0.00     0.057 A 
ATOM     73  C   UNL A   1      45.970  33.465  27.555  1.00  0.00     0.134 A 
ATOM     74  C   UNL A   1      43.776  33.974  28.314  1.00  0.00     0.134 A 
ATOM     75  F   UNL A   1      47.018  32.646  27.379  1.00  0.00    -0.206 F 
ATOM     76  C   UNL A   1      46.146  34.806  27.195  1.00  0.00     0.040 A 
ATOM     77  C   UNL A   1      43.919  35.298  27.903  1.00  0.00     0.040 A 
ATOM     78  F   UNL A   1      42.634  33.730  28.968  1.00  0.00    -0.206 F 
ATOM     79  C   UNL A   1      45.120  35.727  27.369  1.00  0.00     0.006 A 
ENDBRANCH  58  72
BRANCH  59  80
ATOM     80  C   UNL A   1      36.883  31.461  30.746  1.00  0.00     0.057 A 
ATOM     81  C   UNL A   1      35.990  31.669  31.807  1.00  0.00     0.134 A 
ATOM     82  C   UNL A   1      36.540  32.070  29.526  1.00  0.00     0.134 A 
ATOM     83  F   UNL A   1      36.246  31.160  33.022  1.00  0.00    -0.206 F 
ATOM     84  C   UNL A   1      34.845  32.466  31.674  1.00  0.00     0.040 A 
ATOM     85  C   UNL A   1      35.395  32.860  29.377  1.00  0.00     0.040 A 
ATOM     86  F   UNL A   1      37.349  32.001  28.459  1.00  0.00    -0.206 F 
ATOM     87  C   UNL A   1      34.552  33.075  30.459  1.00  0.00     0.006 A 
ENDBRANCH  59  80
BRANCH  71  88
ATOM     88  C   UNL A   1      42.267  30.244  33.823  1.00  0.00     0.057 A 
ATOM     89  C   UNL A   1      42.198  30.660  35.163  1.00  0.00     0.134 A 
ATOM     90  C   UNL A   1      41.977  28.900  33.566  1.00  0.00     0.134 A 
ATOM     91  F   UNL A   1      42.352  31.946  35.499  1.00  0.00    -0.206 F 
ATOM     92  C   UNL A   1      41.908  29.767  36.200  1.00  0.00     0.040 A 
ATOM     93  C   UNL A   1      41.651  28.006  34.589  1.00  0.00     0.040 A 
ATOM     94  F   UNL A   1      41.962  28.440  32.305  1.00  0.00    -0.206 F 
ATOM     95  C   UNL A   1      41.628  28.434  35.913  1.00  0.00     0.006 A 
ENDBRANCH  71  88
ENDBRANCH  45  46
ENDBRANCH  38  40
ENDBRANCH  37  38
ENDBRANCH  36  37
ENDBRANCH  35  36
ENDBRANCH  34  35
ENDBRANCH  33  34
ENDBRANCH  32  33
ENDBRANCH  31  32
ENDBRANCH  30  31
ENDBRANCH   1  30
TORSDOF 25
ENDMDL
MODEL 3
REMARK VINA RESULT:      -9.6      3.238      8.666
REMARK SMILES CCOC(=O)c1c(S(=O)(=O)N2CCC[C@@H](C(=O)OCCOCCOCCOCCOC(=O)c3ccc(-c4c5nc(c(-c6c(F)cccc6F)c6ccc([nH]6)c(-c6c(F)cccc6F)c6nc(c(-c7c(F)cccc7F)c7ccc4[nH]7)C=C6)C=C5)cc3)C2)c(C)n(C)c1C
REMARK SMILES IDX 22 1 21 2 20 3 19 4 18 5 16 6 17 7 15 8 11 9 12 10 87 11
REMARK SMILES IDX 13 12 14 13 8 14 9 15 10 16 7 17 6 18 92 19 88 20 90 21
REMARK SMILES IDX 93 22 89 23 91 24 4 25 5 26 3 27 2 28 1 29 23 30 24 31 25 32
REMARK SMILES IDX 26 33 27 34 28 35 29 36 30 37 31 38 32 39 33 40 34 41 86 42
REMARK SMILES IDX 35 43 85 44 36 45 37 46 38 47 79 48 39 49 84 50 78 51 80 52
REMARK SMILES IDX 40 53 83 54 77 55 76 56 41 58 67 59 50 60 66 61 51 62 54 63
REMARK SMILES IDX 65 64 81 65 52 66 53 67 64 69 82 70 55 71 42 72 43 73 48 74
REMARK SMILES IDX 44 75 45 76 47 77 49 78 46 79 68 80 69 81 74 82 70 83 71 84
REMARK SMILES IDX 73 85 75 86 72 87 56 88 57 89 62 90 58 91 59 92 61 93 63 94
REMARK SMILES IDX 60 95
REMARK H PARENT 80 57 54 68
REMARK Flexibility Score: inf
ROOT
ATOM      1  C   UNL A   1      41.723  21.710  27.235  1.00  0.00     0.188 C 
ENDROOT
BRANCH   1   2
ATOM      2  O   UNL A   1      40.822  22.612  26.621  1.00  0.00    -0.376 OA
BRANCH   2   3
ATOM      3  C   UNL A   1      39.435  22.454  26.841  1.00  0.00     0.202 C 
BRANCH   3   4
ATOM      4  C   UNL A   1      38.466  22.784  25.697  1.00  0.00     0.261 C 
BRANCH   4   5
ATOM      5  O   UNL A   1      37.174  22.162  25.773  1.00  0.00    -0.463 OA
BRANCH   5   6
ATOM      6  C   UNL A   1      36.127  22.950  25.443  1.00  0.00     0.310 C 
ATOM      7  O   UNL A   1      35.970  23.444  24.336  1.00  0.00    -0.252 OA
BRANCH   6   8
ATOM      8  C   UNL A   1      35.168  23.133  26.608  1.00  0.00     0.114 C 
ATOM      9  N   UNL A   1      32.827  24.104  26.620  1.00  0.00    -0.197 NA
ATOM     10  C   UNL A   1      32.288  22.962  27.362  1.00  0.00     0.102 C 
ATOM     11  C   UNL A   1      34.203  24.184  26.117  1.00  0.00     0.117 C 
ATOM     12  C   UNL A   1      33.355  22.102  28.000  1.00  0.00     0.018 C 
ATOM     13  C   UNL A   1      34.494  21.833  27.038  1.00  0.00     0.018 C 
BRANCH   9  14
ATOM     14  S   UNL A   1      31.732  24.965  25.679  1.00  0.00     0.245 S 
ATOM     15  O   UNL A   1      31.967  26.360  26.001  1.00  0.00    -0.207 OA
ATOM     16  O   UNL A   1      30.417  24.378  25.810  1.00  0.00    -0.207 OA
BRANCH  14  17
ATOM     17  C   UNL A   1      32.063  24.900  23.958  1.00  0.00     0.118 A 
ATOM     18  C   UNL A   1      32.074  25.920  22.933  1.00  0.00     0.101 A 
ATOM     19  C   UNL A   1      32.448  25.265  21.750  1.00  0.00     0.030 A 
ATOM     20  C   UNL A   1      32.359  23.683  23.346  1.00  0.00     0.035 A 
ATOM     21  N   UNL A   1      32.617  23.928  22.023  1.00  0.00    -0.350 N 
ATOM     22  C   UNL A   1      32.716  25.825  20.388  1.00  0.00     0.065 C 
ATOM     23  C   UNL A   1      32.413  22.319  23.961  1.00  0.00     0.066 C 
ATOM     24  C   UNL A   1      33.062  22.916  21.085  1.00  0.00     0.149 C 
BRANCH  18  25
ATOM     25  C   UNL A   1      31.885  27.377  22.967  1.00  0.00     0.341 C 
ATOM     26  O   UNL A   1      32.789  28.165  23.198  1.00  0.00    -0.246 OA
BRANCH  25  27
ATOM     27  O   UNL A   1      30.637  27.759  22.544  1.00  0.00    -0.462 OA
BRANCH  27  28
ATOM     28  C   UNL A   1      30.406  29.159  22.293  1.00  0.00     0.230 C 
ATOM     29  C   UNL A   1      29.598  29.837  23.382  1.00  0.00     0.049 C 
ENDBRANCH  27  28
ENDBRANCH  25  27
ENDBRANCH  18  25
ENDBRANCH  14  17
ENDBRANCH   9  14
ENDBRANCH   6   8
ENDBRANCH   5   6
ENDBRANCH   4   5
ENDBRANCH   3   4
ENDBRANCH   2   3
ENDBRANCH   1   2
BRANCH   1  30
ATOM     30  C   UNL A   1      41.279  20.226  27.202  1.00  0.00     0.188 C 
BRANCH  30  31
ATOM     31  O   UNL A   1      42.229  19.175  27.288  1.00  0.00    -0.377 OA
BRANCH  31  32
ATOM     32  C   UNL A   1      42.542  18.413  26.132  1.00  0.00     0.188 C 
BRANCH  32  33
ATOM     33  C   UNL A   1      43.787  18.736  25.263  1.00  0.00     0.188 C 
BRANCH  33  34
ATOM     34  O   UNL A   1      45.006  18.144  25.686  1.00  0.00    -0.376 OA
BRANCH  34  35
ATOM     35  C   UNL A   1      46.260  18.776  25.512  1.00  0.00     0.202 C 
BRANCH  35  36
ATOM     36  C   UNL A   1      46.314  20.054  24.680  1.00  0.00     0.261 C 
BRANCH  36  37
ATOM     37  O   UNL A   1      46.166  21.227  25.450  1.00  0.00    -0.460 OA
BRANCH  37  38
ATOM     38  C   UNL A   1      45.312  22.118  24.934  1.00  0.00     0.338 C 
ATOM     39  O   UNL A   1      44.339  21.887  24.215  1.00  0.00    -0.246 OA
BRANCH  38  40
ATOM     40  C   UNL A   1      45.778  23.456  25.276  1.00  0.00     0.060 A 
ATOM     41  C   UNL A   1      46.448  23.551  26.493  1.00  0.00     0.016 A 
ATOM     42  C   UNL A   1      45.113  24.536  24.676  1.00  0.00     0.016 A 
ATOM     43  C   UNL A   1      46.127  24.615  27.289  1.00  0.00     0.010 A 
ATOM     44  C   UNL A   1      44.766  25.581  25.482  1.00  0.00     0.010 A 
ATOM     45  C   UNL A   1      45.184  25.531  26.808  1.00  0.00    -0.014 A 
BRANCH  45  46
ATOM     46  C   UNL A   1      44.673  26.495  27.743  1.00  0.00     0.031 A 
ATOM     47  C   UNL A   1      45.603  27.621  27.925  1.00  0.00     0.074 A 
ATOM     48  C   UNL A   1      43.453  26.374  28.293  1.00  0.00     0.049 A 
ATOM     49  N   UNL A   1      46.292  27.914  28.974  1.00  0.00    -0.248 NA
ATOM     50  C   UNL A   1      45.969  28.386  26.720  1.00  0.00     0.031 C 
ATOM     51  C   UNL A   1      42.374  25.447  27.941  1.00  0.00     0.029 A 
ATOM     52  N   UNL A   1      42.884  27.158  29.239  1.00  0.00    -0.354 N 
ATOM     53  C   UNL A   1      47.005  29.052  28.624  1.00  0.00     0.074 A 
ATOM     54  C   UNL A   1      46.944  29.159  27.192  1.00  0.00     0.031 C 
ATOM     55  C   UNL A   1      41.219  25.884  28.495  1.00  0.00     0.029 A 
ATOM     56  C   UNL A   1      41.504  27.037  29.332  1.00  0.00     0.049 A 
ATOM     57  H   UNL A   1      43.404  27.765  29.814  1.00  0.00     0.167 HD
ATOM     58  C   UNL A   1      47.315  29.985  29.559  1.00  0.00     0.037 A 
ATOM     59  C   UNL A   1      40.694  27.920  29.967  1.00  0.00     0.037 A 
ATOM     60  C   UNL A   1      47.308  29.425  30.888  1.00  0.00     0.049 A 
ATOM     61  C   UNL A   1      41.552  28.726  30.883  1.00  0.00     0.074 A 
ATOM     62  C   UNL A   1      47.968  28.366  31.487  1.00  0.00     0.029 A 
ATOM     63  N   UNL A   1      46.242  29.704  31.708  1.00  0.00    -0.354 N 
ATOM     64  N   UNL A   1      42.126  28.246  31.952  1.00  0.00    -0.248 NA
ATOM     65  C   UNL A   1      42.155  29.936  30.341  1.00  0.00     0.031 C 
ATOM     66  C   UNL A   1      46.998  27.757  32.335  1.00  0.00     0.029 A 
ATOM     67  C   UNL A   1      45.830  28.514  32.255  1.00  0.00     0.049 A 
ATOM     68  H   UNL A   1      45.849  30.591  31.874  1.00  0.00     0.167 HD
ATOM     69  C   UNL A   1      43.385  28.831  31.973  1.00  0.00     0.074 A 
ATOM     70  C   UNL A   1      43.321  29.913  30.993  1.00  0.00     0.031 C 
ATOM     71  C   UNL A   1      44.450  28.208  32.558  1.00  0.00     0.037 A 
BRANCH  58  72
ATOM     72  C   UNL A   1      47.213  31.459  29.274  1.00  0.00     0.057 A 
ATOM     73  C   UNL A   1      48.280  32.297  29.627  1.00  0.00     0.134 A 
ATOM     74  C   UNL A   1      46.017  32.125  28.921  1.00  0.00     0.134 A 
ATOM     75  F   UNL A   1      49.457  31.784  30.016  1.00  0.00    -0.206 F 
ATOM     76  C   UNL A   1      48.150  33.690  29.675  1.00  0.00     0.040 A 
ATOM     77  C   UNL A   1      45.896  33.514  28.906  1.00  0.00     0.040 A 
ATOM     78  F   UNL A   1      44.873  31.478  28.671  1.00  0.00    -0.206 F 
ATOM     79  C   UNL A   1      46.955  34.302  29.315  1.00  0.00     0.006 A 
ENDBRANCH  58  72
BRANCH  59  80
ATOM     80  C   UNL A   1      39.340  28.372  29.569  1.00  0.00     0.057 A 
ATOM     81  C   UNL A   1      38.298  28.418  30.507  1.00  0.00     0.134 A 
ATOM     82  C   UNL A   1      39.099  29.034  28.352  1.00  0.00     0.134 A 
ATOM     83  F   UNL A   1      38.443  27.848  31.713  1.00  0.00    -0.206 F 
ATOM     84  C   UNL A   1      37.106  29.114  30.267  1.00  0.00     0.040 A 
ATOM     85  C   UNL A   1      37.910  29.724  28.095  1.00  0.00     0.040 A 
ATOM     86  F   UNL A   1      40.044  29.118  27.405  1.00  0.00    -0.206 F 
ATOM     87  C   UNL A   1      36.914  29.781  29.062  1.00  0.00     0.006 A 
ENDBRANCH  59  80
BRANCH  71  88
ATOM     88  C   UNL A   1      44.185  26.972  33.376  1.00  0.00     0.057 A 
ATOM     89  C   UNL A   1      43.749  26.990  34.711  1.00  0.00     0.134 A 
ATOM     90  C   UNL A   1      44.234  25.723  32.748  1.00  0.00     0.134 A 
ATOM     91  F   UNL A   1      43.565  28.144  35.365  1.00  0.00    -0.206 F 
ATOM     92  C   UNL A   1      43.430  25.816  35.401  1.00  0.00     0.040 A 
ATOM     93  C   UNL A   1      43.884  24.546  33.414  1.00  0.00     0.040 A 
ATOM     94  F   UNL A   1      44.582  25.629  31.454  1.00  0.00    -0.206 F 
ATOM     95  C   UNL A   1      43.493  24.588  34.749  1.00  0.00     0.006 A 
ENDBRANCH  71  88
ENDBRANCH  45  46
ENDBRANCH  38  40
ENDBRANCH  37  38
ENDBRANCH  36  37
ENDBRANCH  35  36
ENDBRANCH  34  35
ENDBRANCH  33  34
ENDBRANCH  32  33
ENDBRANCH  31  32
ENDBRANCH  30  31
ENDBRANCH   1  30
TORSDOF 25
ENDMDL
