MODEL 1
REMARK VINA RESULT:      -9.2      0.000      0.000
REMARK SMILES COCCCC(=O)N[C@H]1CC[C@@H](C(=O)OCCOCCOCCOCCOC(=O)c2ccc(-c3c4nc(c(-c5c(F)cccc5F)c5ccc([nH]5)c(-c5c(F)cccc5F)c5nc(c(-c6c(F)cccc6F)c6ccc3[nH]6)C=C5)C=C4)cc2)CC1
REMARK SMILES IDX 19 1 18 2 17 3 16 4 15 5 13 6 14 7 12 8 9 9 10 10 85 11
REMARK SMILES IDX 11 12 84 13 8 14 6 15 7 16 5 18 4 19 3 20 2 21 1 22 20 23
REMARK SMILES IDX 21 24 22 25 23 26 24 27 25 28 26 29 27 30 28 31 29 32 30 33
REMARK SMILES IDX 31 34 83 35 32 36 82 37 33 38 34 39 35 40 76 41 36 42 81 43
REMARK SMILES IDX 75 44 77 45 37 46 80 47 74 48 73 49 38 51 64 52 47 53 63 54
REMARK SMILES IDX 48 55 51 56 62 57 78 58 49 59 50 60 61 62 79 63 52 64 39 65
REMARK SMILES IDX 40 66 45 67 41 68 42 69 44 70 46 71 43 72 65 73 66 74 71 75
REMARK SMILES IDX 67 76 68 77 70 78 72 79 69 80 53 81 54 82 59 83 55 84 56 85
REMARK SMILES IDX 58 86 60 87 57 88
REMARK H PARENT 8 17 77 50 51 61
REMARK Flexibility Score: inf
ROOT
ATOM      1  C   UNL A   1      34.140  30.463  27.313  1.00  0.00     0.188 C 
ENDROOT
BRANCH   1   2
ATOM      2  O   UNL A   1      32.922  30.454  26.607  1.00  0.00    -0.376 OA
BRANCH   2   3
ATOM      3  C   UNL A   1      32.507  29.295  25.918  1.00  0.00     0.202 C 
BRANCH   3   4
ATOM      4  C   UNL A   1      33.444  28.467  25.025  1.00  0.00     0.261 C 
BRANCH   4   5
ATOM      5  O   UNL A   1      33.468  27.050  25.198  1.00  0.00    -0.463 OA
BRANCH   5   6
ATOM      6  C   UNL A   1      32.770  26.318  24.299  1.00  0.00     0.309 C 
ATOM      7  O   UNL A   1      33.204  25.982  23.202  1.00  0.00    -0.252 OA
BRANCH   6   8
ATOM      8  C   UNL A   1      31.329  26.060  24.718  1.00  0.00     0.099 C 
ATOM      9  C   UNL A   1      30.862  23.238  25.460  1.00  0.00     0.082 C 
ATOM     10  C   UNL A   1      31.740  24.142  26.329  1.00  0.00     0.026 C 
ATOM     11  C   UNL A   1      30.887  23.630  23.995  1.00  0.00     0.026 C 
ATOM     12  C   UNL A   1      31.354  25.616  26.185  1.00  0.00     0.017 C 
ATOM     13  C   UNL A   1      30.462  25.096  23.894  1.00  0.00     0.017 C 
BRANCH   9  14
ATOM     14  N   UNL A   1      31.140  21.849  25.711  1.00  0.00    -0.353 N 
ATOM     15  C   UNL A   1      32.224  21.130  25.309  1.00  0.00     0.220 C 
ATOM     16  O   UNL A   1      32.164  19.902  25.411  1.00  0.00    -0.275 OA
ATOM     17  H   UNL A   1      30.465  21.360  26.235  1.00  0.00     0.163 HD
BRANCH  15  18
ATOM     18  C   UNL A   1      33.519  21.813  24.872  1.00  0.00     0.102 C 
BRANCH  18  19
ATOM     19  C   UNL A   1      34.846  21.563  25.603  1.00  0.00     0.038 C 
BRANCH  19  20
ATOM     20  C   UNL A   1      36.032  20.787  24.999  1.00  0.00     0.160 C 
BRANCH  20  21
ATOM     21  O   UNL A   1      37.143  21.415  24.371  1.00  0.00    -0.385 OA
ATOM     22  C   UNL A   1      37.009  22.680  23.763  1.00  0.00     0.194 C 
ENDBRANCH  20  21
ENDBRANCH  19  20
ENDBRANCH  18  19
ENDBRANCH  15  18
ENDBRANCH   9  14
ENDBRANCH   6   8
ENDBRANCH   5   6
ENDBRANCH   4   5
ENDBRANCH   3   4
ENDBRANCH   2   3
ENDBRANCH   1   2
BRANCH   1  23
ATOM     23  C   UNL A   1      34.457  31.813  27.975  1.00  0.00     0.188 C 
BRANCH  23  24
ATOM     24  O   UNL A   1      33.457  32.825  28.043  1.00  0.00    -0.377 OA
BRANCH  24  25
ATOM     25  C   UNL A   1      33.815  34.149  28.443  1.00  0.00     0.188 C 
BRANCH  25  26
ATOM     26  C   UNL A   1      34.570  34.387  29.771  1.00  0.00     0.188 C 
BRANCH  26  27
ATOM     27  O   UNL A   1      33.736  34.531  30.905  1.00  0.00    -0.376 OA
BRANCH  27  28
ATOM     28  C   UNL A   1      34.333  34.433  32.187  1.00  0.00     0.202 C 
BRANCH  28  29
ATOM     29  C   UNL A   1      34.415  33.054  32.861  1.00  0.00     0.261 C 
BRANCH  29  30
ATOM     30  O   UNL A   1      35.432  32.161  32.384  1.00  0.00    -0.460 OA
BRANCH  30  31
ATOM     31  C   UNL A   1      36.566  32.045  33.104  1.00  0.00     0.338 C 
ATOM     32  O   UNL A   1      36.737  32.331  34.279  1.00  0.00    -0.246 OA
BRANCH  31  33
ATOM     33  C   UNL A   1      37.549  31.349  32.256  1.00  0.00     0.060 A 
ATOM     34  C   UNL A   1      38.667  30.738  32.840  1.00  0.00     0.016 A 
ATOM     35  C   UNL A   1      37.358  31.318  30.873  1.00  0.00     0.016 A 
ATOM     36  C   UNL A   1      39.627  30.126  32.033  1.00  0.00     0.010 A 
ATOM     37  C   UNL A   1      38.329  30.728  30.067  1.00  0.00     0.010 A 
ATOM     38  C   UNL A   1      39.486  30.169  30.641  1.00  0.00    -0.014 A 
BRANCH  38  39
ATOM     39  C   UNL A   1      40.642  29.882  29.762  1.00  0.00     0.031 A 
ATOM     40  C   UNL A   1      40.749  28.497  29.190  1.00  0.00     0.074 A 
ATOM     41  C   UNL A   1      41.590  30.798  29.513  1.00  0.00     0.049 A 
ATOM     42  N   UNL A   1      41.741  27.929  28.556  1.00  0.00    -0.248 NA
ATOM     43  C   UNL A   1      39.575  27.628  29.378  1.00  0.00     0.031 C 
ATOM     44  C   UNL A   1      41.570  32.185  29.967  1.00  0.00     0.029 A 
ATOM     45  N   UNL A   1      42.778  30.677  28.837  1.00  0.00    -0.354 N 
ATOM     46  C   UNL A   1      41.318  26.632  28.291  1.00  0.00     0.074 A 
ATOM     47  C   UNL A   1      39.996  26.488  28.857  1.00  0.00     0.031 C 
ATOM     48  C   UNL A   1      42.713  32.781  29.588  1.00  0.00     0.029 A 
ATOM     49  C   UNL A   1      43.561  31.802  28.908  1.00  0.00     0.049 A 
ATOM     50  H   UNL A   1      43.043  29.864  28.349  1.00  0.00     0.167 HD
ATOM     51  C   UNL A   1      41.977  25.649  27.633  1.00  0.00     0.037 A 
ATOM     52  C   UNL A   1      44.835  31.998  28.511  1.00  0.00     0.037 A 
ATOM     53  C   UNL A   1      43.299  25.799  27.090  1.00  0.00     0.049 A 
ATOM     54  C   UNL A   1      45.588  30.868  27.858  1.00  0.00     0.074 A 
ATOM     55  C   UNL A   1      44.062  24.871  26.406  1.00  0.00     0.029 A 
ATOM     56  N   UNL A   1      44.060  26.956  27.183  1.00  0.00    -0.354 N 
ATOM     57  N   UNL A   1      45.189  29.644  27.605  1.00  0.00    -0.248 NA
ATOM     58  C   UNL A   1      46.969  31.144  27.434  1.00  0.00     0.031 C 
ATOM     59  C   UNL A   1      45.307  25.446  26.137  1.00  0.00     0.029 A 
ATOM     60  C   UNL A   1      45.293  26.758  26.587  1.00  0.00     0.049 A 
ATOM     61  H   UNL A   1      43.766  27.794  27.609  1.00  0.00     0.167 HD
ATOM     62  C   UNL A   1      46.250  29.020  26.958  1.00  0.00     0.074 A 
ATOM     63  C   UNL A   1      47.312  29.997  26.863  1.00  0.00     0.031 C 
ATOM     64  C   UNL A   1      46.331  27.753  26.479  1.00  0.00     0.037 A 
BRANCH  51  65
ATOM     65  C   UNL A   1      41.287  24.320  27.518  1.00  0.00     0.057 A 
ATOM     66  C   UNL A   1      41.691  23.203  28.265  1.00  0.00     0.134 A 
ATOM     67  C   UNL A   1      40.211  24.150  26.637  1.00  0.00     0.134 A 
ATOM     68  F   UNL A   1      42.726  23.291  29.114  1.00  0.00    -0.206 F 
ATOM     69  C   UNL A   1      41.076  21.959  28.109  1.00  0.00     0.040 A 
ATOM     70  C   UNL A   1      39.567  22.920  26.499  1.00  0.00     0.040 A 
ATOM     71  F   UNL A   1      39.771  25.176  25.894  1.00  0.00    -0.206 F 
ATOM     72  C   UNL A   1      40.007  21.818  27.227  1.00  0.00     0.006 A 
ENDBRANCH  51  65
BRANCH  52  73
ATOM     73  C   UNL A   1      45.485  33.312  28.747  1.00  0.00     0.057 A 
ATOM     74  C   UNL A   1      46.272  33.542  29.881  1.00  0.00     0.134 A 
ATOM     75  C   UNL A   1      45.341  34.369  27.838  1.00  0.00     0.134 A 
ATOM     76  F   UNL A   1      46.428  32.578  30.800  1.00  0.00    -0.206 F 
ATOM     77  C   UNL A   1      46.885  34.776  30.108  1.00  0.00     0.040 A 
ATOM     78  C   UNL A   1      45.973  35.597  28.037  1.00  0.00     0.040 A 
ATOM     79  F   UNL A   1      44.595  34.214  26.735  1.00  0.00    -0.206 F 
ATOM     80  C   UNL A   1      46.743  35.805  29.179  1.00  0.00     0.006 A 
ENDBRANCH  52  73
BRANCH  64  81
ATOM     81  C   UNL A   1      47.579  27.361  25.739  1.00  0.00     0.057 A 
ATOM     82  C   UNL A   1      47.720  27.542  24.359  1.00  0.00     0.134 A 
ATOM     83  C   UNL A   1      48.690  26.879  26.446  1.00  0.00     0.134 A 
ATOM     84  F   UNL A   1      46.693  27.992  23.622  1.00  0.00    -0.206 F 
ATOM     85  C   UNL A   1      48.919  27.249  23.706  1.00  0.00     0.040 A 
ATOM     86  C   UNL A   1      49.901  26.610  25.810  1.00  0.00     0.040 A 
ATOM     87  F   UNL A   1      48.625  26.694  27.774  1.00  0.00    -0.206 F 
ATOM     88  C   UNL A   1      50.018  26.793  24.434  1.00  0.00     0.006 A 
ENDBRANCH  64  81
ENDBRANCH  38  39
ENDBRANCH  31  33
ENDBRANCH  30  31
ENDBRANCH  29  30
ENDBRANCH  28  29
ENDBRANCH  27  28
ENDBRANCH  26  27
ENDBRANCH  25  26
ENDBRANCH  24  25
ENDBRANCH  23  24
ENDBRANCH   1  23
TORSDOF 25
ENDMDL
MODEL 2
REMARK VINA RESULT:      -9.0      4.365     10.579
REMARK SMILES COCCCC(=O)N[C@H]1CC[C@@H](C(=O)OCCOCCOCCOCCOC(=O)c2ccc(-c3c4nc(c(-c5c(F)cccc5F)c5ccc([nH]5)c(-c5c(F)cccc5F)c5nc(c(-c6c(F)cccc6F)c6ccc3[nH]6)C=C5)C=C4)cc2)CC1
REMARK SMILES IDX 19 1 18 2 17 3 16 4 15 5 13 6 14 7 12 8 9 9 10 10 85 11
REMARK SMILES IDX 11 12 84 13 8 14 6 15 7 16 5 18 4 19 3 20 2 21 1 22 20 23
REMARK SMILES IDX 21 24 22 25 23 26 24 27 25 28 26 29 27 30 28 31 29 32 30 33
REMARK SMILES IDX 31 34 83 35 32 36 82 37 33 38 34 39 35 40 76 41 36 42 81 43
REMARK SMILES IDX 75 44 77 45 37 46 80 47 74 48 73 49 38 51 64 52 47 53 63 54
REMARK SMILES IDX 48 55 51 56 62 57 78 58 49 59 50 60 61 62 79 63 52 64 39 65
REMARK SMILES IDX 40 66 45 67 41 68 42 69 44 70 46 71 43 72 65 73 66 74 71 75
REMARK SMILES IDX 67 76 68 77 70 78 72 79 69 80 53 81 54 82 59 83 55 84 56 85
REMARK SMILES IDX 58 86 60 87 57 88
REMARK H PARENT 8 17 77 50 51 61
REMARK Flexibility Score: inf
ROOT
ATOM      1  C   UNL A   1      42.470  21.405  26.021  1.00  0.00     0.188 C 
ENDROOT
BRANCH   1   2
ATOM      2  O   UNL A   1      41.825  21.736  27.227  1.00  0.00    -0.376 OA
BRANCH   2   3
ATOM      3  C   UNL A   1      40.416  21.748  27.301  1.00  0.00     0.202 C 
BRANCH   3   4
ATOM      4  C   UNL A   1      39.518  22.206  26.141  1.00  0.00     0.261 C 
BRANCH   4   5
ATOM      5  O   UNL A   1      38.109  21.998  26.253  1.00  0.00    -0.463 OA
BRANCH   5   6
ATOM      6  C   UNL A   1      37.438  21.768  25.100  1.00  0.00     0.309 C 
ATOM      7  O   UNL A   1      37.267  20.654  24.616  1.00  0.00    -0.252 OA
BRANCH   6   8
ATOM      8  C   UNL A   1      37.026  23.042  24.376  1.00  0.00     0.099 C 
ATOM      9  C   UNL A   1      34.107  23.493  24.469  1.00  0.00     0.082 C 
ATOM     10  C   UNL A   1      34.958  23.600  25.737  1.00  0.00     0.026 C 
ATOM     11  C   UNL A   1      34.678  22.516  23.460  1.00  0.00     0.026 C 
ATOM     12  C   UNL A   1      36.406  23.979  25.419  1.00  0.00     0.017 C 
ATOM     13  C   UNL A   1      36.111  22.951  23.145  1.00  0.00     0.017 C 
BRANCH   9  14
ATOM     14  N   UNL A   1      32.722  23.278  24.790  1.00  0.00    -0.353 N 
ATOM     15  C   UNL A   1      31.739  24.213  24.913  1.00  0.00     0.220 C 
ATOM     16  O   UNL A   1      30.677  23.860  25.432  1.00  0.00    -0.275 OA
ATOM     17  H   UNL A   1      32.452  22.343  24.939  1.00  0.00     0.163 HD
BRANCH  15  18
ATOM     18  C   UNL A   1      31.888  25.612  24.316  1.00  0.00     0.102 C 
BRANCH  18  19
ATOM     19  C   UNL A   1      31.919  26.865  25.202  1.00  0.00     0.038 C 
BRANCH  19  20
ATOM     20  C   UNL A   1      33.074  27.219  26.157  1.00  0.00     0.160 C 
BRANCH  20  21
ATOM     21  O   UNL A   1      33.035  28.311  27.067  1.00  0.00    -0.385 OA
ATOM     22  C   UNL A   1      31.805  28.820  27.531  1.00  0.00     0.194 C 
ENDBRANCH  20  21
ENDBRANCH  19  20
ENDBRANCH  18  19
ENDBRANCH  15  18
ENDBRANCH   9  14
ENDBRANCH   6   8
ENDBRANCH   5   6
ENDBRANCH   4   5
ENDBRANCH   3   4
ENDBRANCH   2   3
ENDBRANCH   1   2
BRANCH   1  23
ATOM     23  C   UNL A   1      42.640  19.892  25.809  1.00  0.00     0.188 C 
BRANCH  23  24
ATOM     24  O   UNL A   1      43.433  19.408  24.731  1.00  0.00    -0.377 OA
BRANCH  24  25
ATOM     25  C   UNL A   1      44.735  18.881  24.990  1.00  0.00     0.188 C 
BRANCH  25  26
ATOM     26  C   UNL A   1      45.996  19.702  24.636  1.00  0.00     0.188 C 
BRANCH  26  27
ATOM     27  O   UNL A   1      45.797  21.103  24.601  1.00  0.00    -0.376 OA
BRANCH  27  28
ATOM     28  C   UNL A   1      45.968  21.831  25.806  1.00  0.00     0.202 C 
BRANCH  28  29
ATOM     29  C   UNL A   1      46.048  23.364  25.736  1.00  0.00     0.261 C 
BRANCH  29  30
ATOM     30  O   UNL A   1      45.052  24.097  26.464  1.00  0.00    -0.460 OA
BRANCH  30  31
ATOM     31  C   UNL A   1      44.117  24.769  25.763  1.00  0.00     0.338 C 
ATOM     32  O   UNL A   1      43.817  24.623  24.588  1.00  0.00    -0.246 OA
BRANCH  31  33
ATOM     33  C   UNL A   1      43.389  25.623  26.717  1.00  0.00     0.060 A 
ATOM     34  C   UNL A   1      43.815  26.939  26.944  1.00  0.00     0.016 A 
ATOM     35  C   UNL A   1      42.286  25.102  27.396  1.00  0.00     0.016 A 
ATOM     36  C   UNL A   1      43.160  27.730  27.888  1.00  0.00     0.010 A 
ATOM     37  C   UNL A   1      41.648  25.884  28.356  1.00  0.00     0.010 A 
ATOM     38  C   UNL A   1      42.110  27.184  28.635  1.00  0.00    -0.014 A 
BRANCH  38  39
ATOM     39  C   UNL A   1      41.656  27.842  29.881  1.00  0.00     0.031 A 
ATOM     40  C   UNL A   1      40.472  28.762  29.786  1.00  0.00     0.074 A 
ATOM     41  C   UNL A   1      42.294  27.670  31.049  1.00  0.00     0.049 A 
ATOM     42  N   UNL A   1      39.990  29.599  30.667  1.00  0.00    -0.248 NA
ATOM     43  C   UNL A   1      39.741  28.744  28.507  1.00  0.00     0.031 C 
ATOM     44  C   UNL A   1      43.418  26.768  31.276  1.00  0.00     0.029 A 
ATOM     45  N   UNL A   1      42.098  28.284  32.260  1.00  0.00    -0.354 N 
ATOM     46  C   UNL A   1      38.917  30.221  30.041  1.00  0.00     0.074 A 
ATOM     47  C   UNL A   1      38.836  29.689  28.700  1.00  0.00     0.031 C 
ATOM     48  C   UNL A   1      43.840  26.913  32.544  1.00  0.00     0.029 A 
ATOM     49  C   UNL A   1      43.044  27.952  33.198  1.00  0.00     0.049 A 
ATOM     50  H   UNL A   1      41.353  28.903  32.439  1.00  0.00     0.167 HD
ATOM     51  C   UNL A   1      38.075  31.155  30.542  1.00  0.00     0.037 A 
ATOM     52  C   UNL A   1      43.267  28.466  34.424  1.00  0.00     0.037 A 
ATOM     53  C   UNL A   1      38.178  31.689  31.873  1.00  0.00     0.049 A 
ATOM     54  C   UNL A   1      42.375  29.567  34.938  1.00  0.00     0.074 A 
ATOM     55  C   UNL A   1      37.380  32.639  32.485  1.00  0.00     0.029 A 
ATOM     56  N   UNL A   1      39.151  31.326  32.793  1.00  0.00    -0.354 N 
ATOM     57  N   UNL A   1      41.360  30.153  34.349  1.00  0.00    -0.248 NA
ATOM     58  C   UNL A   1      42.658  30.080  36.286  1.00  0.00     0.031 C 
ATOM     59  C   UNL A   1      37.906  32.893  33.755  1.00  0.00     0.029 A 
ATOM     60  C   UNL A   1      38.986  32.048  33.962  1.00  0.00     0.049 A 
ATOM     61  H   UNL A   1      39.853  30.654  32.639  1.00  0.00     0.167 HD
ATOM     62  C   UNL A   1      40.860  31.070  35.266  1.00  0.00     0.074 A 
ATOM     63  C   UNL A   1      41.687  30.967  36.450  1.00  0.00     0.031 C 
ATOM     64  C   UNL A   1      39.805  31.915  35.142  1.00  0.00     0.037 A 
BRANCH  51  65
ATOM     65  C   UNL A   1      37.011  31.682  29.624  1.00  0.00     0.057 A 
ATOM     66  C   UNL A   1      35.814  30.988  29.394  1.00  0.00     0.134 A 
ATOM     67  C   UNL A   1      37.191  32.896  28.949  1.00  0.00     0.134 A 
ATOM     68  F   UNL A   1      35.584  29.810  29.994  1.00  0.00    -0.206 F 
ATOM     69  C   UNL A   1      34.855  31.462  28.496  1.00  0.00     0.040 A 
ATOM     70  C   UNL A   1      36.225  33.397  28.075  1.00  0.00     0.040 A 
ATOM     71  F   UNL A   1      38.311  33.614  29.123  1.00  0.00    -0.206 F 
ATOM     72  C   UNL A   1      35.059  32.674  27.838  1.00  0.00     0.006 A 
ENDBRANCH  51  65
BRANCH  52  73
ATOM     73  C   UNL A   1      44.402  27.961  35.238  1.00  0.00     0.057 A 
ATOM     74  C   UNL A   1      44.237  26.904  36.140  1.00  0.00     0.134 A 
ATOM     75  C   UNL A   1      45.683  28.518  35.126  1.00  0.00     0.134 A 
ATOM     76  F   UNL A   1      43.030  26.345  36.310  1.00  0.00    -0.206 F 
ATOM     77  C   UNL A   1      45.300  26.424  36.908  1.00  0.00     0.040 A 
ATOM     78  C   UNL A   1      46.761  28.029  35.864  1.00  0.00     0.040 A 
ATOM     79  F   UNL A   1      45.905  29.536  34.282  1.00  0.00    -0.206 F 
ATOM     80  C   UNL A   1      46.569  26.982  36.764  1.00  0.00     0.006 A 
ENDBRANCH  52  73
BRANCH  64  81
ATOM     81  C   UNL A   1      39.427  32.746  36.334  1.00  0.00     0.057 A 
ATOM     82  C   UNL A   1      39.975  34.012  36.570  1.00  0.00     0.134 A 
ATOM     83  C   UNL A   1      38.426  32.301  37.209  1.00  0.00     0.134 A 
ATOM     84  F   UNL A   1      40.944  34.493  35.776  1.00  0.00    -0.206 F 
ATOM     85  C   UNL A   1      39.547  34.802  37.639  1.00  0.00     0.040 A 
ATOM     86  C   UNL A   1      37.969  33.093  38.262  1.00  0.00     0.040 A 
ATOM     87  F   UNL A   1      37.850  31.102  37.032  1.00  0.00    -0.206 F 
ATOM     88  C   UNL A   1      38.533  34.348  38.481  1.00  0.00     0.006 A 
ENDBRANCH  64  81
ENDBRANCH  38  39
ENDBRANCH  31  33
ENDBRANCH  30  31
ENDBRANCH  29  30
ENDBRANCH  28  29
ENDBRANCH  27  28
ENDBRANCH  26  27
ENDBRANCH  25  26
ENDBRANCH  24  25
ENDBRANCH  23  24
ENDBRANCH   1  23
TORSDOF 25
ENDMDL
MODEL 3
REMARK VINA RESULT:      -8.9      4.892     10.454
REMARK SMILES COCCCC(=O)N[C@H]1CC[C@@H](C(=O)OCCOCCOCCOCCOC(=O)c2ccc(-c3c4nc(c(-c5c(F)cccc5F)c5ccc([nH]5)c(-c5c(F)cccc5F)c5nc(c(-c6c(F)cccc6F)c6ccc3[nH]6)C=C5)C=C4)cc2)CC1
REMARK SMILES IDX 19 1 18 2 17 3 16 4 15 5 13 6 14 7 12 8 9 9 10 10 85 11
REMARK SMILES IDX 11 12 84 13 8 14 6 15 7 16 5 18 4 19 3 20 2 21 1 22 20 23
REMARK SMILES IDX 21 24 22 25 23 26 24 27 25 28 26 29 27 30 28 31 29 32 30 33
REMARK SMILES IDX 31 34 83 35 32 36 82 37 33 38 34 39 35 40 76 41 36 42 81 43
REMARK SMILES IDX 75 44 77 45 37 46 80 47 74 48 73 49 38 51 64 52 47 53 63 54
REMARK SMILES IDX 48 55 51 56 62 57 78 58 49 59 50 60 61 62 79 63 52 64 39 65
REMARK SMILES IDX 40 66 45 67 41 68 42 69 44 70 46 71 43 72 65 73 66 74 71 75
REMARK SMILES IDX 67 76 68 77 70 78 72 79 69 80 53 81 54 82 59 83 55 84 56 85
REMARK SMILES IDX 58 86 60 87 57 88
REMARK H PARENT 8 17 77 50 51 61
REMARK Flexibility Score: inf
ROOT
ATOM      1  C   UNL A   1      42.489  21.409  26.014  1.00  0.00     0.188 C 
ENDROOT
BRANCH   1   2
ATOM      2  O   UNL A   1      41.824  21.709  27.217  1.00  0.00    -0.376 OA
BRANCH   2   3
ATOM      3  C   UNL A   1      40.413  21.700  27.273  1.00  0.00     0.202 C 
BRANCH   3   4
ATOM      4  C   UNL A   1      39.524  22.186  26.118  1.00  0.00     0.261 C 
BRANCH   4   5
ATOM      5  O   UNL A   1      38.118  21.941  26.197  1.00  0.00    -0.463 OA
BRANCH   5   6
ATOM      6  C   UNL A   1      37.465  21.786  25.023  1.00  0.00     0.309 C 
ATOM      7  O   UNL A   1      37.308  20.708  24.461  1.00  0.00    -0.252 OA
BRANCH   6   8
ATOM      8  C   UNL A   1      37.053  23.105  24.382  1.00  0.00     0.099 C 
ATOM      9  C   UNL A   1      34.148  23.603  24.602  1.00  0.00     0.082 C 
ATOM     10  C   UNL A   1      35.044  23.626  25.843  1.00  0.00     0.026 C 
ATOM     11  C   UNL A   1      34.665  22.670  23.523  1.00  0.00     0.026 C 
ATOM     12  C   UNL A   1      36.488  23.995  25.494  1.00  0.00     0.017 C 
ATOM     13  C   UNL A   1      36.094  23.097  23.181  1.00  0.00     0.017 C 
BRANCH   9  14
ATOM     14  N   UNL A   1      32.771  23.395  24.960  1.00  0.00    -0.353 N 
ATOM     15  C   UNL A   1      32.223  22.307  25.569  1.00  0.00     0.220 C 
ATOM     16  O   UNL A   1      30.992  22.212  25.570  1.00  0.00    -0.275 OA
ATOM     17  H   UNL A   1      32.150  24.126  24.739  1.00  0.00     0.163 HD
BRANCH  15  18
ATOM     18  C   UNL A   1      33.082  21.304  26.338  1.00  0.00     0.102 C 
BRANCH  18  19
ATOM     19  C   UNL A   1      33.204  19.840  25.891  1.00  0.00     0.038 C 
BRANCH  19  20
ATOM     20  C   UNL A   1      33.932  19.386  24.611  1.00  0.00     0.160 C 
BRANCH  20  21
ATOM     21  O   UNL A   1      33.921  18.046  24.135  1.00  0.00    -0.385 OA
ATOM     22  C   UNL A   1      32.863  17.174  24.460  1.00  0.00     0.194 C 
ENDBRANCH  20  21
ENDBRANCH  19  20
ENDBRANCH  18  19
ENDBRANCH  15  18
ENDBRANCH   9  14
ENDBRANCH   6   8
ENDBRANCH   5   6
ENDBRANCH   4   5
ENDBRANCH   3   4
ENDBRANCH   2   3
ENDBRANCH   1   2
BRANCH   1  23
ATOM     23  C   UNL A   1      42.690  19.902  25.783  1.00  0.00     0.188 C 
BRANCH  23  24
ATOM     24  O   UNL A   1      43.499  19.450  24.702  1.00  0.00    -0.377 OA
BRANCH  24  25
ATOM     25  C   UNL A   1      44.815  18.957  24.960  1.00  0.00     0.188 C 
BRANCH  25  26
ATOM     26  C   UNL A   1      46.053  19.812  24.607  1.00  0.00     0.188 C 
BRANCH  26  27
ATOM     27  O   UNL A   1      45.816  21.206  24.573  1.00  0.00    -0.376 OA
BRANCH  27  28
ATOM     28  C   UNL A   1      45.977  21.940  25.775  1.00  0.00     0.202 C 
BRANCH  28  29
ATOM     29  C   UNL A   1      46.037  23.474  25.702  1.00  0.00     0.261 C 
BRANCH  29  30
ATOM     30  O   UNL A   1      45.040  24.196  26.441  1.00  0.00    -0.460 OA
BRANCH  30  31
ATOM     31  C   UNL A   1      44.100  24.871  25.750  1.00  0.00     0.338 C 
ATOM     32  O   UNL A   1      43.783  24.723  24.581  1.00  0.00    -0.246 OA
BRANCH  31  33
ATOM     33  C   UNL A   1      43.391  25.733  26.712  1.00  0.00     0.060 A 
ATOM     34  C   UNL A   1      43.824  27.050  26.921  1.00  0.00     0.016 A 
ATOM     35  C   UNL A   1      42.300  25.220  27.414  1.00  0.00     0.016 A 
ATOM     36  C   UNL A   1      43.188  27.850  27.871  1.00  0.00     0.010 A 
ATOM     37  C   UNL A   1      41.680  26.010  28.380  1.00  0.00     0.010 A 
ATOM     38  C   UNL A   1      42.149  27.311  28.641  1.00  0.00    -0.014 A 
BRANCH  38  39
ATOM     39  C   UNL A   1      41.719  27.979  29.889  1.00  0.00     0.031 A 
ATOM     40  C   UNL A   1      40.542  28.909  29.807  1.00  0.00     0.074 A 
ATOM     41  C   UNL A   1      42.372  27.806  31.049  1.00  0.00     0.049 A 
ATOM     42  N   UNL A   1      40.081  29.754  30.691  1.00  0.00    -0.248 NA
ATOM     43  C   UNL A   1      39.793  28.891  28.539  1.00  0.00     0.031 C 
ATOM     44  C   UNL A   1      43.491  26.894  31.265  1.00  0.00     0.029 A 
ATOM     45  N   UNL A   1      42.199  28.428  32.261  1.00  0.00    -0.354 N 
ATOM     46  C   UNL A   1      39.005  30.383  30.077  1.00  0.00     0.074 A 
ATOM     47  C   UNL A   1      38.900  29.846  28.740  1.00  0.00     0.031 C 
ATOM     48  C   UNL A   1      43.932  27.042  32.526  1.00  0.00     0.029 A 
ATOM     49  C   UNL A   1      43.155  28.090  33.186  1.00  0.00     0.049 A 
ATOM     50  H   UNL A   1      41.462  29.054  32.447  1.00  0.00     0.167 HD
ATOM     51  C   UNL A   1      38.179  31.327  30.586  1.00  0.00     0.037 A 
ATOM     52  C   UNL A   1      43.400  28.608  34.407  1.00  0.00     0.037 A 
ATOM     53  C   UNL A   1      38.305  31.867  31.913  1.00  0.00     0.049 A 
ATOM     54  C   UNL A   1      42.526  29.720  34.928  1.00  0.00     0.074 A 
ATOM     55  C   UNL A   1      37.525  32.826  32.531  1.00  0.00     0.029 A 
ATOM     56  N   UNL A   1      39.287  31.498  32.821  1.00  0.00    -0.354 N 
ATOM     57  N   UNL A   1      41.508  30.312  34.351  1.00  0.00    -0.248 NA
ATOM     58  C   UNL A   1      42.832  30.236  36.270  1.00  0.00     0.031 C 
ATOM     59  C   UNL A   1      38.071  33.081  33.793  1.00  0.00     0.029 A 
ATOM     60  C   UNL A   1      39.146  32.228  33.989  1.00  0.00     0.049 A 
ATOM     61  H   UNL A   1      39.981  30.819  32.659  1.00  0.00     0.167 HD
ATOM     62  C   UNL A   1      41.029  31.238  35.271  1.00  0.00     0.074 A 
ATOM     63  C   UNL A   1      41.872  31.133  36.443  1.00  0.00     0.031 C 
ATOM     64  C   UNL A   1      39.980  32.092  35.157  1.00  0.00     0.037 A 
BRANCH  51  65
ATOM     65  C   UNL A   1      37.106  31.860  29.680  1.00  0.00     0.057 A 
ATOM     66  C   UNL A   1      35.894  31.183  29.482  1.00  0.00     0.134 A 
ATOM     67  C   UNL A   1      37.294  33.062  28.985  1.00  0.00     0.134 A 
ATOM     68  F   UNL A   1      35.656  30.018  30.102  1.00  0.00    -0.206 F 
ATOM     69  C   UNL A   1      34.927  31.661  28.595  1.00  0.00     0.040 A 
ATOM     70  C   UNL A   1      36.320  33.567  28.123  1.00  0.00     0.040 A 
ATOM     71  F   UNL A   1      38.429  33.763  29.130  1.00  0.00    -0.206 F 
ATOM     72  C   UNL A   1      35.138  32.860  27.917  1.00  0.00     0.006 A 
ENDBRANCH  51  65
BRANCH  52  73
ATOM     73  C   UNL A   1      44.542  28.096  35.207  1.00  0.00     0.057 A 
ATOM     74  C   UNL A   1      44.379  27.045  36.117  1.00  0.00     0.134 A 
ATOM     75  C   UNL A   1      45.826  28.640  35.074  1.00  0.00     0.134 A 
ATOM     76  F   UNL A   1      43.169  26.499  36.307  1.00  0.00    -0.206 F 
ATOM     77  C   UNL A   1      45.449  26.560  36.872  1.00  0.00     0.040 A 
ATOM     78  C   UNL A   1      46.910  28.145  35.799  1.00  0.00     0.040 A 
ATOM     79  F   UNL A   1      46.045  29.652  34.222  1.00  0.00    -0.206 F 
ATOM     80  C   UNL A   1      46.721  27.105  36.707  1.00  0.00     0.006 A 
ENDBRANCH  52  73
BRANCH  64  81
ATOM     81  C   UNL A   1      39.627  32.932  36.351  1.00  0.00     0.057 A 
ATOM     82  C   UNL A   1      40.184  34.196  36.570  1.00  0.00     0.134 A 
ATOM     83  C   UNL A   1      38.638  32.498  37.245  1.00  0.00     0.134 A 
ATOM     84  F   UNL A   1      41.142  34.668  35.757  1.00  0.00    -0.206 F 
ATOM     85  C   UNL A   1      39.779  34.995  37.641  1.00  0.00     0.040 A 
ATOM     86  C   UNL A   1      38.203  33.298  38.301  1.00  0.00     0.040 A 
ATOM     87  F   UNL A   1      38.053  31.300  37.085  1.00  0.00    -0.206 F 
ATOM     88  C   UNL A   1      38.777  34.550  38.503  1.00  0.00     0.006 A 
ENDBRANCH  64  81
ENDBRANCH  38  39
ENDBRANCH  31  33
ENDBRANCH  30  31
ENDBRANCH  29  30
ENDBRANCH  28  29
ENDBRANCH  27  28
ENDBRANCH  26  27
ENDBRANCH  25  26
ENDBRANCH  24  25
ENDBRANCH  23  24
ENDBRANCH   1  23
TORSDOF 25
ENDMDL
