MODEL 1
REMARK VINA RESULT:     -10.9      0.000      0.000
REMARK SMILES Cc1cc(C(=O)OCCOCCOCCOCCOC(=O)c2ccc(-c3c4nc(c(-c5c(F)cccc5F)c5ccc([nH]5)c(-c5c(F)cccc5F)c5nc(c(-c6c(F)cccc6F)c6ccc3[nH]6)C=C5)C=C4)cc2)nc(N2CCN(c3ccccc3Cl)CC2)n1
REMARK SMILES IDX 13 1 12 2 11 3 10 4 9 5 8 6 7 7 5 8 6 9 4 10 1 11 2 12 3 13
REMARK SMILES IDX 91 14 77 15 76 16 78 17 79 18 90 19 80 20 89 21 81 22 82 23
REMARK SMILES IDX 83 24 87 25 84 26 86 27 88 28 85 29 14 30 15 31 16 32 17 33
REMARK SMILES IDX 18 34 19 35 20 36 21 37 22 38 23 39 75 40 24 41 74 42 25 43
REMARK SMILES IDX 26 44 27 45 68 46 28 47 73 48 67 49 69 50 29 51 72 52 66 53
REMARK SMILES IDX 65 54 30 56 56 57 39 58 55 59 40 60 43 61 54 62 70 63 41 64
REMARK SMILES IDX 42 65 53 67 71 68 44 69 31 70 32 71 37 72 33 73 34 74 36 75
REMARK SMILES IDX 38 76 35 77 57 78 58 79 63 80 59 81 60 82 62 83 64 84 61 85
REMARK SMILES IDX 45 86 46 87 51 88 47 89 48 90 50 91 52 92 49 93
REMARK H PARENT 69 55 43 66
REMARK Flexibility Score: inf
ROOT
ATOM      1  O   UNL A   1      39.713  22.151  26.877  1.00  0.00    -0.377 OA
ENDROOT
BRANCH   1   2
ATOM      2  C   UNL A   1      39.390  23.534  26.870  1.00  0.00     0.188 C 
BRANCH   2   3
ATOM      3  C   UNL A   1      38.051  23.900  26.199  1.00  0.00     0.188 C 
BRANCH   3   4
ATOM      4  O   UNL A   1      37.236  22.765  25.950  1.00  0.00    -0.376 OA
BRANCH   4   5
ATOM      5  C   UNL A   1      37.231  22.174  24.664  1.00  0.00     0.202 C 
BRANCH   5   6
ATOM      6  C   UNL A   1      36.162  22.542  23.619  1.00  0.00     0.261 C 
BRANCH   6   7
ATOM      7  O   UNL A   1      34.931  23.079  24.113  1.00  0.00    -0.459 OA
BRANCH   7   8
ATOM      8  C   UNL A   1      34.009  23.447  23.194  1.00  0.00     0.357 C 
ATOM      9  O   UNL A   1      34.089  23.287  21.989  1.00  0.00    -0.244 OA
BRANCH   8  10
ATOM     10  C   UNL A   1      32.802  23.906  23.939  1.00  0.00     0.154 A 
ATOM     11  C   UNL A   1      30.434  22.961  26.652  1.00  0.00     0.067 C 
ATOM     12  C   UNL A   1      31.111  23.667  25.516  1.00  0.00     0.044 A 
ATOM     13  C   UNL A   1      32.253  23.148  24.949  1.00  0.00     0.059 A 
ATOM     14  N   UNL A   1      30.575  24.842  25.114  1.00  0.00    -0.218 NA
ATOM     15  C   UNL A   1      31.158  25.483  24.089  1.00  0.00     0.226 A 
ATOM     16  N   UNL A   1      32.261  25.050  23.481  1.00  0.00    -0.206 NA
BRANCH  15  17
ATOM     17  N   UNL A   1      30.640  26.654  23.615  1.00  0.00    -0.337 N 
ATOM     18  C   UNL A   1      31.528  27.797  23.436  1.00  0.00     0.141 C 
ATOM     19  C   UNL A   1      29.258  26.968  23.986  1.00  0.00     0.141 C 
ATOM     20  C   UNL A   1      30.932  28.719  22.343  1.00  0.00     0.138 C 
ATOM     21  C   UNL A   1      28.641  27.934  22.945  1.00  0.00     0.138 C 
ATOM     22  N   UNL A   1      29.547  29.068  22.694  1.00  0.00    -0.367 N 
BRANCH  22  23
ATOM     23  C   UNL A   1      29.059  30.343  22.497  1.00  0.00     0.056 A 
ATOM     24  C   UNL A   1      28.351  30.657  21.324  1.00  0.00     0.027 A 
ATOM     25  C   UNL A   1      29.274  31.388  23.420  1.00  0.00     0.064 A 
ATOM     26  C   UNL A   1      27.881  31.950  21.076  1.00  0.00     0.002 A 
ATOM     27  C   UNL A   1      28.811  32.685  23.171  1.00  0.00     0.023 A 
ATOM     28  Cl  UNL A   1      30.198  31.150  24.869  1.00  0.00    -0.082 Cl
ATOM     29  C   UNL A   1      28.116  32.967  21.997  1.00  0.00     0.002 A 
ENDBRANCH  22  23
ENDBRANCH  15  17
ENDBRANCH   8  10
ENDBRANCH   7   8
ENDBRANCH   6   7
ENDBRANCH   5   6
ENDBRANCH   4   5
ENDBRANCH   3   4
ENDBRANCH   2   3
ENDBRANCH   1   2
BRANCH   1  30
ATOM     30  C   UNL A   1      40.750  21.669  26.017  1.00  0.00     0.188 C 
BRANCH  30  31
ATOM     31  C   UNL A   1      42.133  21.193  26.533  1.00  0.00     0.188 C 
BRANCH  31  32
ATOM     32  O   UNL A   1      42.977  20.631  25.543  1.00  0.00    -0.376 OA
BRANCH  32  33
ATOM     33  C   UNL A   1      44.245  21.220  25.326  1.00  0.00     0.202 C 
BRANCH  33  34
ATOM     34  C   UNL A   1      44.313  22.321  24.261  1.00  0.00     0.261 C 
BRANCH  34  35
ATOM     35  O   UNL A   1      43.709  23.574  24.615  1.00  0.00    -0.460 OA
BRANCH  35  36
ATOM     36  C   UNL A   1      44.535  24.558  25.038  1.00  0.00     0.338 C 
ATOM     37  O   UNL A   1      45.648  24.813  24.632  1.00  0.00    -0.246 OA
BRANCH  36  38
ATOM     38  C   UNL A   1      43.768  25.403  25.979  1.00  0.00     0.060 A 
ATOM     39  C   UNL A   1      43.899  26.797  25.910  1.00  0.00     0.016 A 
ATOM     40  C   UNL A   1      42.917  24.817  26.920  1.00  0.00     0.016 A 
ATOM     41  C   UNL A   1      43.205  27.608  26.809  1.00  0.00     0.010 A 
ATOM     42  C   UNL A   1      42.238  25.630  27.830  1.00  0.00     0.010 A 
ATOM     43  C   UNL A   1      42.404  27.026  27.801  1.00  0.00    -0.014 A 
BRANCH  43  44
ATOM     44  C   UNL A   1      41.896  27.854  28.922  1.00  0.00     0.031 A 
ATOM     45  C   UNL A   1      42.624  27.795  30.238  1.00  0.00     0.074 A 
ATOM     46  C   UNL A   1      40.821  28.650  28.778  1.00  0.00     0.049 A 
ATOM     47  N   UNL A   1      42.332  28.370  31.377  1.00  0.00    -0.248 NA
ATOM     48  C   UNL A   1      43.845  26.975  30.272  1.00  0.00     0.031 C 
ATOM     49  C   UNL A   1      40.057  28.827  27.546  1.00  0.00     0.029 A 
ATOM     50  N   UNL A   1      40.181  29.452  29.691  1.00  0.00    -0.354 N 
ATOM     51  C   UNL A   1      43.328  27.975  32.262  1.00  0.00     0.074 A 
ATOM     52  C   UNL A   1      44.212  27.087  31.539  1.00  0.00     0.031 C 
ATOM     53  C   UNL A   1      39.040  29.675  27.784  1.00  0.00     0.029 A 
ATOM     54  C   UNL A   1      39.061  30.069  29.191  1.00  0.00     0.049 A 
ATOM     55  H   UNL A   1      40.497  29.573  30.616  1.00  0.00     0.167 HD
ATOM     56  C   UNL A   1      43.497  28.329  33.558  1.00  0.00     0.037 A 
ATOM     57  C   UNL A   1      38.144  30.839  29.810  1.00  0.00     0.037 A 
ATOM     58  C   UNL A   1      42.613  29.209  34.276  1.00  0.00     0.049 A 
ATOM     59  C   UNL A   1      38.306  31.149  31.278  1.00  0.00     0.074 A 
ATOM     60  C   UNL A   1      42.705  29.637  35.589  1.00  0.00     0.029 A 
ATOM     61  N   UNL A   1      41.473  29.789  33.743  1.00  0.00    -0.354 N 
ATOM     62  N   UNL A   1      39.264  30.790  32.100  1.00  0.00    -0.248 NA
ATOM     63  C   UNL A   1      37.260  31.971  31.903  1.00  0.00     0.031 C 
ATOM     64  C   UNL A   1      41.588  30.429  35.867  1.00  0.00     0.029 A 
ATOM     65  C   UNL A   1      40.836  30.550  34.710  1.00  0.00     0.049 A 
ATOM     66  H   UNL A   1      41.161  29.678  32.817  1.00  0.00     0.167 HD
ATOM     67  C   UNL A   1      38.953  31.373  33.325  1.00  0.00     0.074 A 
ATOM     68  C   UNL A   1      37.728  32.119  33.134  1.00  0.00     0.031 C 
ATOM     69  C   UNL A   1      39.622  31.298  34.502  1.00  0.00     0.037 A 
BRANCH  56  70
ATOM     70  C   UNL A   1      44.667  27.741  34.292  1.00  0.00     0.057 A 
ATOM     71  C   UNL A   1      45.944  28.314  34.231  1.00  0.00     0.134 A 
ATOM     72  C   UNL A   1      44.504  26.611  35.103  1.00  0.00     0.134 A 
ATOM     73  F   UNL A   1      46.172  29.388  33.460  1.00  0.00    -0.206 F 
ATOM     74  C   UNL A   1      47.020  27.773  34.936  1.00  0.00     0.040 A 
ATOM     75  C   UNL A   1      45.565  26.079  35.836  1.00  0.00     0.040 A 
ATOM     76  F   UNL A   1      43.307  26.015  35.209  1.00  0.00    -0.206 F 
ATOM     77  C   UNL A   1      46.831  26.658  35.750  1.00  0.00     0.006 A 
ENDBRANCH  56  70
BRANCH  57  78
ATOM     78  C   UNL A   1      36.969  31.360  29.061  1.00  0.00     0.057 A 
ATOM     79  C   UNL A   1      36.920  32.685  28.613  1.00  0.00     0.134 A 
ATOM     80  C   UNL A   1      35.845  30.559  28.821  1.00  0.00     0.134 A 
ATOM     81  F   UNL A   1      37.953  33.511  28.833  1.00  0.00    -0.206 F 
ATOM     82  C   UNL A   1      35.789  33.203  27.979  1.00  0.00     0.040 A 
ATOM     83  C   UNL A   1      34.720  31.054  28.162  1.00  0.00     0.040 A 
ATOM     84  F   UNL A   1      35.825  29.280  29.225  1.00  0.00    -0.206 F 
ATOM     85  C   UNL A   1      34.685  32.385  27.749  1.00  0.00     0.006 A 
ENDBRANCH  57  78
BRANCH  69  86
ATOM     86  C   UNL A   1      39.076  32.081  35.663  1.00  0.00     0.057 A 
ATOM     87  C   UNL A   1      38.250  31.498  36.632  1.00  0.00     0.134 A 
ATOM     88  C   UNL A   1      39.421  33.429  35.836  1.00  0.00     0.134 A 
ATOM     89  F   UNL A   1      37.873  30.215  36.522  1.00  0.00    -0.206 F 
ATOM     90  C   UNL A   1      37.763  32.234  37.715  1.00  0.00     0.040 A 
ATOM     91  C   UNL A   1      38.967  34.165  36.932  1.00  0.00     0.040 A 
ATOM     92  F   UNL A   1      40.219  34.047  34.954  1.00  0.00    -0.206 F 
ATOM     93  C   UNL A   1      38.129  33.570  37.870  1.00  0.00     0.006 A 
ENDBRANCH  69  86
ENDBRANCH  43  44
ENDBRANCH  36  38
ENDBRANCH  35  36
ENDBRANCH  34  35
ENDBRANCH  33  34
ENDBRANCH  32  33
ENDBRANCH  31  32
ENDBRANCH  30  31
ENDBRANCH   1  30
TORSDOF 22
ENDMDL
MODEL 2
REMARK VINA RESULT:     -10.3      3.894      9.628
REMARK SMILES Cc1cc(C(=O)OCCOCCOCCOCCOC(=O)c2ccc(-c3c4nc(c(-c5c(F)cccc5F)c5ccc([nH]5)c(-c5c(F)cccc5F)c5nc(c(-c6c(F)cccc6F)c6ccc3[nH]6)C=C5)C=C4)cc2)nc(N2CCN(c3ccccc3Cl)CC2)n1
REMARK SMILES IDX 13 1 12 2 11 3 10 4 9 5 8 6 7 7 5 8 6 9 4 10 1 11 2 12 3 13
REMARK SMILES IDX 91 14 77 15 76 16 78 17 79 18 90 19 80 20 89 21 81 22 82 23
REMARK SMILES IDX 83 24 87 25 84 26 86 27 88 28 85 29 14 30 15 31 16 32 17 33
REMARK SMILES IDX 18 34 19 35 20 36 21 37 22 38 23 39 75 40 24 41 74 42 25 43
REMARK SMILES IDX 26 44 27 45 68 46 28 47 73 48 67 49 69 50 29 51 72 52 66 53
REMARK SMILES IDX 65 54 30 56 56 57 39 58 55 59 40 60 43 61 54 62 70 63 41 64
REMARK SMILES IDX 42 65 53 67 71 68 44 69 31 70 32 71 37 72 33 73 34 74 36 75
REMARK SMILES IDX 38 76 35 77 57 78 58 79 63 80 59 81 60 82 62 83 64 84 61 85
REMARK SMILES IDX 45 86 46 87 51 88 47 89 48 90 50 91 52 92 49 93
REMARK H PARENT 69 55 43 66
REMARK Flexibility Score: inf
ROOT
ATOM      1  O   UNL A   1      34.552  30.605  27.697  1.00  0.00    -0.377 OA
ENDROOT
BRANCH   1   2
ATOM      2  C   UNL A   1      33.397  30.450  26.886  1.00  0.00     0.188 C 
BRANCH   2   3
ATOM      3  C   UNL A   1      33.434  29.269  25.896  1.00  0.00     0.188 C 
BRANCH   3   4
ATOM      4  O   UNL A   1      32.185  28.603  25.790  1.00  0.00    -0.376 OA
BRANCH   4   5
ATOM      5  C   UNL A   1      31.398  28.771  24.626  1.00  0.00     0.202 C 
BRANCH   5   6
ATOM      6  C   UNL A   1      32.002  28.597  23.221  1.00  0.00     0.261 C 
BRANCH   6   7
ATOM      7  O   UNL A   1      32.726  27.389  22.972  1.00  0.00    -0.459 OA
BRANCH   7   8
ATOM      8  C   UNL A   1      32.010  26.315  22.565  1.00  0.00     0.357 C 
ATOM      9  O   UNL A   1      31.568  26.126  21.446  1.00  0.00    -0.244 OA
BRANCH   8  10
ATOM     10  C   UNL A   1      32.027  25.325  23.680  1.00  0.00     0.154 A 
ATOM     11  C   UNL A   1      30.009  23.973  26.501  1.00  0.00     0.067 C 
ATOM     12  C   UNL A   1      31.121  24.262  25.537  1.00  0.00     0.044 A 
ATOM     13  C   UNL A   1      30.948  25.174  24.521  1.00  0.00     0.059 A 
ATOM     14  N   UNL A   1      32.267  23.559  25.691  1.00  0.00    -0.218 NA
ATOM     15  C   UNL A   1      33.279  23.814  24.847  1.00  0.00     0.226 A 
ATOM     16  N   UNL A   1      33.198  24.682  23.840  1.00  0.00    -0.206 NA
BRANCH  15  17
ATOM     17  N   UNL A   1      34.472  23.163  24.974  1.00  0.00    -0.337 N 
ATOM     18  C   UNL A   1      34.685  22.297  26.128  1.00  0.00     0.141 C 
ATOM     19  C   UNL A   1      35.661  23.846  24.459  1.00  0.00     0.141 C 
ATOM     20  C   UNL A   1      35.736  21.222  25.754  1.00  0.00     0.138 C 
ATOM     21  C   UNL A   1      36.759  22.808  24.122  1.00  0.00     0.138 C 
ATOM     22  N   UNL A   1      36.951  21.878  25.247  1.00  0.00    -0.367 N 
BRANCH  22  23
ATOM     23  C   UNL A   1      38.206  21.420  25.590  1.00  0.00     0.056 A 
ATOM     24  C   UNL A   1      38.554  20.076  25.374  1.00  0.00     0.027 A 
ATOM     25  C   UNL A   1      39.174  22.247  26.201  1.00  0.00     0.064 A 
ATOM     26  C   UNL A   1      39.804  19.573  25.751  1.00  0.00     0.002 A 
ATOM     27  C   UNL A   1      40.422  21.744  26.586  1.00  0.00     0.023 A 
ATOM     28  Cl  UNL A   1      38.841  23.905  26.591  1.00  0.00    -0.082 Cl
ATOM     29  C   UNL A   1      40.736  20.406  26.362  1.00  0.00     0.002 A 
ENDBRANCH  22  23
ENDBRANCH  15  17
ENDBRANCH   8  10
ENDBRANCH   7   8
ENDBRANCH   6   7
ENDBRANCH   5   6
ENDBRANCH   4   5
ENDBRANCH   3   4
ENDBRANCH   2   3
ENDBRANCH   1   2
BRANCH   1  30
ATOM     30  C   UNL A   1      34.684  31.771  28.514  1.00  0.00     0.188 C 
BRANCH  30  31
ATOM     31  C   UNL A   1      34.071  33.147  28.142  1.00  0.00     0.188 C 
BRANCH  31  32
ATOM     32  O   UNL A   1      34.460  34.219  28.982  1.00  0.00    -0.376 OA
BRANCH  32  33
ATOM     33  C   UNL A   1      33.995  35.519  28.673  1.00  0.00     0.202 C 
BRANCH  33  34
ATOM     34  C   UNL A   1      32.907  36.091  29.590  1.00  0.00     0.261 C 
BRANCH  34  35
ATOM     35  O   UNL A   1      32.471  35.234  30.655  1.00  0.00    -0.460 OA
BRANCH  35  36
ATOM     36  C   UNL A   1      32.634  35.690  31.918  1.00  0.00     0.338 C 
ATOM     37  O   UNL A   1      31.889  36.413  32.543  1.00  0.00    -0.246 OA
BRANCH  36  38
ATOM     38  C   UNL A   1      33.813  35.002  32.487  1.00  0.00     0.060 A 
ATOM     39  C   UNL A   1      35.073  35.605  32.383  1.00  0.00     0.016 A 
ATOM     40  C   UNL A   1      33.668  33.768  33.127  1.00  0.00     0.016 A 
ATOM     41  C   UNL A   1      36.201  34.956  32.888  1.00  0.00     0.010 A 
ATOM     42  C   UNL A   1      34.800  33.113  33.616  1.00  0.00     0.010 A 
ATOM     43  C   UNL A   1      36.076  33.687  33.470  1.00  0.00    -0.014 A 
BRANCH  43  44
ATOM     44  C   UNL A   1      37.286  32.877  33.748  1.00  0.00     0.031 A 
ATOM     45  C   UNL A   1      38.050  33.149  35.016  1.00  0.00     0.074 A 
ATOM     46  C   UNL A   1      37.697  31.913  32.905  1.00  0.00     0.049 A 
ATOM     47  N   UNL A   1      39.170  32.624  35.442  1.00  0.00    -0.248 NA
ATOM     48  C   UNL A   1      37.471  34.152  35.925  1.00  0.00     0.031 C 
ATOM     49  C   UNL A   1      37.023  31.525  31.669  1.00  0.00     0.029 A 
ATOM     50  N   UNL A   1      38.797  31.092  32.962  1.00  0.00    -0.354 N 
ATOM     51  C   UNL A   1      39.432  33.236  36.662  1.00  0.00     0.074 A 
ATOM     52  C   UNL A   1      38.374  34.195  36.892  1.00  0.00     0.031 C 
ATOM     53  C   UNL A   1      37.732  30.549  31.075  1.00  0.00     0.029 A 
ATOM     54  C   UNL A   1      38.927  30.270  31.869  1.00  0.00     0.049 A 
ATOM     55  H   UNL A   1      39.430  31.093  33.716  1.00  0.00     0.167 HD
ATOM     56  C   UNL A   1      40.456  33.013  37.518  1.00  0.00     0.037 A 
ATOM     57  C   UNL A   1      39.914  29.414  31.538  1.00  0.00     0.037 A 
ATOM     58  C   UNL A   1      41.510  32.061  37.285  1.00  0.00     0.049 A 
ATOM     59  C   UNL A   1      41.090  29.246  32.468  1.00  0.00     0.074 A 
ATOM     60  C   UNL A   1      42.588  31.753  38.098  1.00  0.00     0.029 A 
ATOM     61  N   UNL A   1      41.623  31.270  36.153  1.00  0.00    -0.354 N 
ATOM     62  N   UNL A   1      41.317  29.812  33.630  1.00  0.00    -0.248 NA
ATOM     63  C   UNL A   1      42.149  28.318  32.040  1.00  0.00     0.031 C 
ATOM     64  C   UNL A   1      43.384  30.819  37.430  1.00  0.00     0.029 A 
ATOM     65  C   UNL A   1      42.768  30.494  36.232  1.00  0.00     0.049 A 
ATOM     66  H   UNL A   1      40.985  31.260  35.403  1.00  0.00     0.167 HD
ATOM     67  C   UNL A   1      42.520  29.282  34.085  1.00  0.00     0.074 A 
ATOM     68  C   UNL A   1      42.968  28.340  33.082  1.00  0.00     0.031 C 
ATOM     69  C   UNL A   1      43.195  29.550  35.230  1.00  0.00     0.037 A 
BRANCH  56  70
ATOM     70  C   UNL A   1      40.502  33.831  38.776  1.00  0.00     0.057 A 
ATOM     71  C   UNL A   1      39.828  33.440  39.940  1.00  0.00     0.134 A 
ATOM     72  C   UNL A   1      41.265  35.004  38.835  1.00  0.00     0.134 A 
ATOM     73  F   UNL A   1      39.067  32.335  39.947  1.00  0.00    -0.206 F 
ATOM     74  C   UNL A   1      39.896  34.196  41.111  1.00  0.00     0.040 A 
ATOM     75  C   UNL A   1      41.364  35.753  40.008  1.00  0.00     0.040 A 
ATOM     76  F   UNL A   1      41.938  35.434  37.757  1.00  0.00    -0.206 F 
ATOM     77  C   UNL A   1      40.674  35.351  41.151  1.00  0.00     0.006 A 
ENDBRANCH  56  70
BRANCH  57  78
ATOM     78  C   UNL A   1      39.858  28.660  30.258  1.00  0.00     0.057 A 
ATOM     79  C   UNL A   1      40.459  29.156  29.094  1.00  0.00     0.134 A 
ATOM     80  C   UNL A   1      39.158  27.451  30.154  1.00  0.00     0.134 A 
ATOM     81  F   UNL A   1      41.122  30.321  29.120  1.00  0.00    -0.206 F 
ATOM     82  C   UNL A   1      40.343  28.493  27.871  1.00  0.00     0.040 A 
ATOM     83  C   UNL A   1      39.061  26.763  28.945  1.00  0.00     0.040 A 
ATOM     84  F   UNL A   1      38.558  26.921  31.230  1.00  0.00    -0.206 F 
ATOM     85  C   UNL A   1      39.645  27.290  27.794  1.00  0.00     0.006 A 
ENDBRANCH  57  78
BRANCH  69  86
ATOM     86  C   UNL A   1      44.460  28.781  35.489  1.00  0.00     0.057 A 
ATOM     87  C   UNL A   1      45.704  29.212  35.011  1.00  0.00     0.134 A 
ATOM     88  C   UNL A   1      44.437  27.615  36.266  1.00  0.00     0.134 A 
ATOM     89  F   UNL A   1      45.797  30.314  34.252  1.00  0.00    -0.206 F 
ATOM     90  C   UNL A   1      46.874  28.495  35.272  1.00  0.00     0.040 A 
ATOM     91  C   UNL A   1      45.604  26.909  36.561  1.00  0.00     0.040 A 
ATOM     92  F   UNL A   1      43.281  27.152  36.766  1.00  0.00    -0.206 F 
ATOM     93  C   UNL A   1      46.826  27.344  36.057  1.00  0.00     0.006 A 
ENDBRANCH  69  86
ENDBRANCH  43  44
ENDBRANCH  36  38
ENDBRANCH  35  36
ENDBRANCH  34  35
ENDBRANCH  33  34
ENDBRANCH  32  33
ENDBRANCH  31  32
ENDBRANCH  30  31
ENDBRANCH   1  30
TORSDOF 22
ENDMDL
MODEL 3
REMARK VINA RESULT:     -10.2      4.273      9.435
REMARK SMILES Cc1cc(C(=O)OCCOCCOCCOCCOC(=O)c2ccc(-c3c4nc(c(-c5c(F)cccc5F)c5ccc([nH]5)c(-c5c(F)cccc5F)c5nc(c(-c6c(F)cccc6F)c6ccc3[nH]6)C=C5)C=C4)cc2)nc(N2CCN(c3ccccc3Cl)CC2)n1
REMARK SMILES IDX 13 1 12 2 11 3 10 4 9 5 8 6 7 7 5 8 6 9 4 10 1 11 2 12 3 13
REMARK SMILES IDX 91 14 77 15 76 16 78 17 79 18 90 19 80 20 89 21 81 22 82 23
REMARK SMILES IDX 83 24 87 25 84 26 86 27 88 28 85 29 14 30 15 31 16 32 17 33
REMARK SMILES IDX 18 34 19 35 20 36 21 37 22 38 23 39 75 40 24 41 74 42 25 43
REMARK SMILES IDX 26 44 27 45 68 46 28 47 73 48 67 49 69 50 29 51 72 52 66 53
REMARK SMILES IDX 65 54 30 56 56 57 39 58 55 59 40 60 43 61 54 62 70 63 41 64
REMARK SMILES IDX 42 65 53 67 71 68 44 69 31 70 32 71 37 72 33 73 34 74 36 75
REMARK SMILES IDX 38 76 35 77 57 78 58 79 63 80 59 81 60 82 62 83 64 84 61 85
REMARK SMILES IDX 45 86 46 87 51 88 47 89 48 90 50 91 52 92 49 93
REMARK H PARENT 69 55 43 66
REMARK Flexibility Score: inf
ROOT
ATOM      1  O   UNL A   1      32.113  30.763  27.183  1.00  0.00    -0.377 OA
ENDROOT
BRANCH   1   2
ATOM      2  C   UNL A   1      31.298  31.397  26.209  1.00  0.00     0.188 C 
BRANCH   2   3
ATOM      3  C   UNL A   1      31.034  30.580  24.929  1.00  0.00     0.188 C 
BRANCH   3   4
ATOM      4  O   UNL A   1      29.760  30.845  24.362  1.00  0.00    -0.376 OA
BRANCH   4   5
ATOM      5  C   UNL A   1      29.494  30.465  23.025  1.00  0.00     0.202 C 
BRANCH   5   6
ATOM      6  C   UNL A   1      28.609  29.248  22.700  1.00  0.00     0.261 C 
BRANCH   6   7
ATOM      7  O   UNL A   1      28.969  28.004  23.308  1.00  0.00    -0.459 OA
BRANCH   7   8
ATOM      8  C   UNL A   1      30.119  27.426  22.890  1.00  0.00     0.357 C 
ATOM      9  O   UNL A   1      30.629  27.549  21.790  1.00  0.00    -0.244 OA
BRANCH   8  10
ATOM     10  C   UNL A   1      30.742  26.774  24.078  1.00  0.00     0.154 A 
ATOM     11  C   UNL A   1      31.981  27.420  27.528  1.00  0.00     0.067 C 
ATOM     12  C   UNL A   1      31.649  26.772  26.217  1.00  0.00     0.044 A 
ATOM     13  C   UNL A   1      31.028  27.488  25.219  1.00  0.00     0.059 A 
ATOM     14  N   UNL A   1      31.946  25.459  26.087  1.00  0.00    -0.218 NA
ATOM     15  C   UNL A   1      31.670  24.864  24.916  1.00  0.00     0.226 A 
ATOM     16  N   UNL A   1      31.075  25.483  23.897  1.00  0.00    -0.206 NA
BRANCH  15  17
ATOM     17  N   UNL A   1      31.980  23.550  24.712  1.00  0.00    -0.337 N 
ATOM     18  C   UNL A   1      32.052  22.655  25.860  1.00  0.00     0.141 C 
ATOM     19  C   UNL A   1      32.892  23.247  23.605  1.00  0.00     0.141 C 
ATOM     20  C   UNL A   1      31.764  21.210  25.380  1.00  0.00     0.138 C 
ATOM     21  C   UNL A   1      32.673  21.789  23.129  1.00  0.00     0.138 C 
ATOM     22  N   UNL A   1      32.675  20.867  24.278  1.00  0.00    -0.367 N 
BRANCH  22  23
ATOM     23  C   UNL A   1      33.251  19.617  24.189  1.00  0.00     0.056 A 
ATOM     24  C   UNL A   1      32.491  18.515  23.761  1.00  0.00     0.027 A 
ATOM     25  C   UNL A   1      34.593  19.373  24.554  1.00  0.00     0.064 A 
ATOM     26  C   UNL A   1      33.036  17.228  23.702  1.00  0.00     0.002 A 
ATOM     27  C   UNL A   1      35.138  18.085  24.503  1.00  0.00     0.023 A 
ATOM     28  Cl  UNL A   1      35.614  20.633  25.171  1.00  0.00    -0.082 Cl
ATOM     29  C   UNL A   1      34.358  17.012  24.078  1.00  0.00     0.002 A 
ENDBRANCH  22  23
ENDBRANCH  15  17
ENDBRANCH   8  10
ENDBRANCH   7   8
ENDBRANCH   6   7
ENDBRANCH   5   6
ENDBRANCH   4   5
ENDBRANCH   3   4
ENDBRANCH   2   3
ENDBRANCH   1   2
BRANCH   1  30
ATOM     30  C   UNL A   1      33.536  30.811  27.045  1.00  0.00     0.188 C 
BRANCH  30  31
ATOM     31  C   UNL A   1      34.428  31.852  27.770  1.00  0.00     0.188 C 
BRANCH  31  32
ATOM     32  O   UNL A   1      33.739  32.704  28.669  1.00  0.00    -0.376 OA
BRANCH  32  33
ATOM     33  C   UNL A   1      33.357  33.989  28.219  1.00  0.00     0.202 C 
BRANCH  33  34
ATOM     34  C   UNL A   1      33.376  35.112  29.264  1.00  0.00     0.261 C 
BRANCH  34  35
ATOM     35  O   UNL A   1      32.522  34.924  30.401  1.00  0.00    -0.460 OA
BRANCH  35  36
ATOM     36  C   UNL A   1      32.844  35.595  31.531  1.00  0.00     0.338 C 
ATOM     37  O   UNL A   1      32.231  36.500  32.053  1.00  0.00    -0.246 OA
BRANCH  36  38
ATOM     38  C   UNL A   1      34.007  34.906  32.136  1.00  0.00     0.060 A 
ATOM     39  C   UNL A   1      35.271  35.506  32.062  1.00  0.00     0.016 A 
ATOM     40  C   UNL A   1      33.841  33.677  32.779  1.00  0.00     0.016 A 
ATOM     41  C   UNL A   1      36.382  34.857  32.602  1.00  0.00     0.010 A 
ATOM     42  C   UNL A   1      34.958  33.021  33.301  1.00  0.00     0.010 A 
ATOM     43  C   UNL A   1      36.238  33.592  33.187  1.00  0.00    -0.014 A 
BRANCH  43  44
ATOM     44  C   UNL A   1      37.439  32.781  33.502  1.00  0.00     0.031 A 
ATOM     45  C   UNL A   1      38.180  33.071  34.780  1.00  0.00     0.074 A 
ATOM     46  C   UNL A   1      37.860  31.800  32.684  1.00  0.00     0.049 A 
ATOM     47  N   UNL A   1      39.289  32.547  35.236  1.00  0.00    -0.248 NA
ATOM     48  C   UNL A   1      37.589  34.093  35.659  1.00  0.00     0.031 C 
ATOM     49  C   UNL A   1      37.207  31.393  31.443  1.00  0.00     0.029 A 
ATOM     50  N   UNL A   1      38.954  30.974  32.777  1.00  0.00    -0.354 N 
ATOM     51  C   UNL A   1      39.532  33.180  36.449  1.00  0.00     0.074 A 
ATOM     52  C   UNL A   1      38.475  34.149  36.642  1.00  0.00     0.031 C 
ATOM     53  C   UNL A   1      37.921  30.402  30.880  1.00  0.00     0.029 A 
ATOM     54  C   UNL A   1      39.099  30.132  31.701  1.00  0.00     0.049 A 
ATOM     55  H   UNL A   1      39.573  30.984  33.542  1.00  0.00     0.167 HD
ATOM     56  C   UNL A   1      40.538  32.967  37.329  1.00  0.00     0.037 A 
ATOM     57  C   UNL A   1      40.088  29.265  31.404  1.00  0.00     0.037 A 
ATOM     58  C   UNL A   1      41.591  32.005  37.132  1.00  0.00     0.049 A 
ATOM     59  C   UNL A   1      41.245  29.107  32.359  1.00  0.00     0.074 A 
ATOM     60  C   UNL A   1      42.651  31.707  37.970  1.00  0.00     0.029 A 
ATOM     61  N   UNL A   1      41.720  31.194  36.017  1.00  0.00    -0.354 N 
ATOM     62  N   UNL A   1      41.453  29.692  33.515  1.00  0.00    -0.248 NA
ATOM     63  C   UNL A   1      42.306  28.166  31.968  1.00  0.00     0.031 C 
ATOM     64  C   UNL A   1      43.454  30.756  37.335  1.00  0.00     0.029 A 
ATOM     65  C   UNL A   1      42.859  30.413  36.132  1.00  0.00     0.049 A 
ATOM     66  H   UNL A   1      41.097  31.174  35.256  1.00  0.00     0.167 HD
ATOM     67  C   UNL A   1      42.645  29.164  34.002  1.00  0.00     0.074 A 
ATOM     68  C   UNL A   1      43.106  28.202  33.024  1.00  0.00     0.031 C 
ATOM     69  C   UNL A   1      43.299  29.449  35.155  1.00  0.00     0.037 A 
BRANCH  56  70
ATOM     70  C   UNL A   1      40.565  33.807  38.572  1.00  0.00     0.057 A 
ATOM     71  C   UNL A   1      41.296  35.000  38.646  1.00  0.00     0.134 A 
ATOM     72  C   UNL A   1      39.815  33.439  39.696  1.00  0.00     0.134 A 
ATOM     73  F   UNL A   1      42.048  35.402  37.610  1.00  0.00    -0.206 F 
ATOM     74  C   UNL A   1      41.295  35.786  39.799  1.00  0.00     0.040 A 
ATOM     75  C   UNL A   1      39.782  34.232  40.844  1.00  0.00     0.040 A 
ATOM     76  F   UNL A   1      39.089  32.311  39.692  1.00  0.00    -0.206 F 
ATOM     77  C   UNL A   1      40.528  35.408  40.900  1.00  0.00     0.006 A 
ENDBRANCH  56  70
BRANCH  57  78
ATOM     78  C   UNL A   1      40.052  28.488  30.137  1.00  0.00     0.057 A 
ATOM     79  C   UNL A   1      40.727  28.930  28.992  1.00  0.00     0.134 A 
ATOM     80  C   UNL A   1      39.299  27.312  30.024  1.00  0.00     0.134 A 
ATOM     81  F   UNL A   1      41.444  30.063  29.027  1.00  0.00    -0.206 F 
ATOM     82  C   UNL A   1      40.633  28.249  27.778  1.00  0.00     0.040 A 
ATOM     83  C   UNL A   1      39.221  26.605  28.824  1.00  0.00     0.040 A 
ATOM     84  F   UNL A   1      38.627  26.833  31.081  1.00  0.00    -0.206 F 
ATOM     85  C   UNL A   1      39.881  27.079  27.692  1.00  0.00     0.006 A 
ENDBRANCH  57  78
BRANCH  69  86
ATOM     86  C   UNL A   1      44.555  28.678  35.450  1.00  0.00     0.057 A 
ATOM     87  C   UNL A   1      44.534  27.450  36.124  1.00  0.00     0.134 A 
ATOM     88  C   UNL A   1      45.799  29.151  35.013  1.00  0.00     0.134 A 
ATOM     89  F   UNL A   1      43.378  26.943  36.579  1.00  0.00    -0.206 F 
ATOM     90  C   UNL A   1      45.708  26.736  36.378  1.00  0.00     0.040 A 
ATOM     91  C   UNL A   1      46.975  28.431  35.232  1.00  0.00     0.040 A 
ATOM     92  F   UNL A   1      45.891  30.314  34.350  1.00  0.00    -0.206 F 
ATOM     93  C   UNL A   1      46.931  27.224  35.923  1.00  0.00     0.006 A 
ENDBRANCH  69  86
ENDBRANCH  43  44
ENDBRANCH  36  38
ENDBRANCH  35  36
ENDBRANCH  34  35
ENDBRANCH  33  34
ENDBRANCH  32  33
ENDBRANCH  31  32
ENDBRANCH  30  31
ENDBRANCH   1  30
TORSDOF 22
ENDMDL
