MODEL 1
REMARK VINA RESULT:     -10.0      0.000      0.000
REMARK SMILES CC1=C(C(=O)OCCOCCOCCOCCOC(=O)c2ccc(-c3c4nc(c(-c5c(F)cccc5F)c5ccc([nH]5)c(-c5c(F)cccc5F)c5nc(c(-c6c(F)cccc6F)c6ccc3[nH]6)C=C5)C=C4)cc2)N2C(=O)[C@H](NC(=O)c3c(Cl)c(C(F)(F)F)nn3C)[C@@H]2SC1
REMARK SMILES IDX 11 1 10 2 9 3 8 4 7 5 6 6 4 7 5 8 3 9 1 10 2 11 95 12 75 13
REMARK SMILES IDX 94 14 76 15 93 16 77 17 78 18 79 19 80 20 81 22 82 23 83 24
REMARK SMILES IDX 91 25 84 26 85 27 90 28 92 29 86 30 87 31 88 32 89 33 12 34
REMARK SMILES IDX 13 35 14 36 15 37 16 38 17 39 18 40 19 41 20 42 21 43 22 44
REMARK SMILES IDX 74 45 23 46 73 47 24 48 25 49 26 50 67 51 27 52 72 53 66 54
REMARK SMILES IDX 68 55 28 56 71 57 65 58 64 59 29 61 55 62 38 63 54 64 39 65
REMARK SMILES IDX 42 66 53 67 69 68 40 69 41 70 52 72 70 73 43 74 30 75 31 76
REMARK SMILES IDX 36 77 32 78 33 79 35 80 37 81 34 82 56 83 57 84 62 85 58 86
REMARK SMILES IDX 59 87 61 88 63 89 60 90 44 91 45 92 50 93 46 94 47 95 49 96
REMARK SMILES IDX 51 97 48 98
REMARK H PARENT 79 21 68 60 42 71
REMARK Flexibility Score: inf
ROOT
ATOM      1  C   UNL A   1      33.874  24.751  23.210  1.00  0.00     0.188 C 
ENDROOT
BRANCH   1   2
ATOM      2  C   UNL A   1      34.031  25.970  22.280  1.00  0.00     0.188 C 
BRANCH   2   3
ATOM      3  O   UNL A   1      33.956  27.233  22.935  1.00  0.00    -0.376 OA
BRANCH   3   4
ATOM      4  C   UNL A   1      33.443  28.297  22.140  1.00  0.00     0.202 C 
BRANCH   4   5
ATOM      5  C   UNL A   1      32.671  29.325  22.967  1.00  0.00     0.261 C 
BRANCH   5   6
ATOM      6  O   UNL A   1      31.274  29.338  22.637  1.00  0.00    -0.459 OA
BRANCH   6   7
ATOM      7  C   UNL A   1      30.399  29.520  23.653  1.00  0.00     0.355 C 
ATOM      8  O   UNL A   1      29.241  29.883  23.548  1.00  0.00    -0.244 OA
BRANCH   7   9
ATOM      9  C   UNL A   1      31.060  29.096  24.935  1.00  0.00     0.131 C 
ATOM     10  C   UNL A   1      31.286  31.486  25.704  1.00  0.00     0.043 C 
ATOM     11  C   UNL A   1      31.410  29.992  25.894  1.00  0.00    -0.032 C 
ATOM     12  C   UNL A   1      31.975  29.609  27.250  1.00  0.00     0.105 C 
ATOM     13  N   UNL A   1      31.326  27.771  25.100  1.00  0.00    -0.289 N 
ATOM     14  S   UNL A   1      31.706  27.864  27.704  1.00  0.00    -0.129 SA
ATOM     15  C   UNL A   1      31.184  26.613  24.420  1.00  0.00     0.253 C 
ATOM     16  C   UNL A   1      32.246  27.262  26.093  1.00  0.00     0.181 C 
ATOM     17  O   UNL A   1      30.751  26.340  23.330  1.00  0.00    -0.272 OA
ATOM     18  C   UNL A   1      31.820  25.831  25.639  1.00  0.00     0.206 C 
BRANCH  18  19
ATOM     19  N   UNL A   1      30.838  25.106  26.483  1.00  0.00    -0.336 N 
ATOM     20  C   UNL A   1      30.578  23.763  26.581  1.00  0.00     0.271 C 
ATOM     21  H   UNL A   1      30.287  25.679  27.063  1.00  0.00     0.164 HD
ATOM     22  O   UNL A   1      29.612  23.415  27.255  1.00  0.00    -0.267 OA
BRANCH  20  23
ATOM     23  C   UNL A   1      31.430  22.822  25.908  1.00  0.00     0.145 A 
ATOM     24  C   UNL A   1      32.534  22.157  26.413  1.00  0.00     0.104 A 
ATOM     25  N   UNL A   1      31.431  22.522  24.572  1.00  0.00    -0.261 N 
ATOM     26  Cl  UNL A   1      33.138  22.199  28.001  1.00  0.00    -0.079 Cl
ATOM     27  C   UNL A   1      33.087  21.423  25.335  1.00  0.00     0.185 A 
ATOM     28  N   UNL A   1      32.355  21.609  24.217  1.00  0.00    -0.166 NA
ATOM     29  C   UNL A   1      30.628  23.109  23.524  1.00  0.00     0.174 C 
BRANCH  27  30
ATOM     30  C   UNL A   1      34.320  20.566  25.379  1.00  0.00     0.436 C 
ATOM     31  F   UNL A   1      35.148  20.924  26.398  1.00  0.00    -0.164 F 
ATOM     32  F   UNL A   1      34.022  19.252  25.561  1.00  0.00    -0.164 F 
ATOM     33  F   UNL A   1      35.063  20.635  24.240  1.00  0.00    -0.164 F 
ENDBRANCH  27  30
ENDBRANCH  20  23
ENDBRANCH  18  19
ENDBRANCH   7   9
ENDBRANCH   6   7
ENDBRANCH   5   6
ENDBRANCH   4   5
ENDBRANCH   3   4
ENDBRANCH   2   3
ENDBRANCH   1   2
BRANCH   1  34
ATOM     34  O   UNL A   1      34.856  24.489  24.198  1.00  0.00    -0.377 OA
BRANCH  34  35
ATOM     35  C   UNL A   1      35.901  23.566  23.912  1.00  0.00     0.188 C 
BRANCH  35  36
ATOM     36  C   UNL A   1      37.024  23.303  24.937  1.00  0.00     0.188 C 
BRANCH  36  37
ATOM     37  O   UNL A   1      37.811  22.146  24.680  1.00  0.00    -0.376 OA
BRANCH  37  38
ATOM     38  C   UNL A   1      38.251  21.419  25.819  1.00  0.00     0.202 C 
BRANCH  38  39
ATOM     39  C   UNL A   1      39.056  20.160  25.474  1.00  0.00     0.261 C 
BRANCH  39  40
ATOM     40  O   UNL A   1      39.974  19.741  26.497  1.00  0.00    -0.460 OA
BRANCH  40  41
ATOM     41  C   UNL A   1      41.271  19.641  26.134  1.00  0.00     0.338 C 
ATOM     42  O   UNL A   1      41.808  18.720  25.546  1.00  0.00    -0.246 OA
BRANCH  41  43
ATOM     43  C   UNL A   1      41.925  20.929  26.420  1.00  0.00     0.060 A 
ATOM     44  C   UNL A   1      42.172  21.275  27.753  1.00  0.00     0.016 A 
ATOM     45  C   UNL A   1      42.259  21.799  25.380  1.00  0.00     0.016 A 
ATOM     46  C   UNL A   1      42.704  22.526  28.054  1.00  0.00     0.010 A 
ATOM     47  C   UNL A   1      42.777  23.059  25.683  1.00  0.00     0.010 A 
ATOM     48  C   UNL A   1      42.958  23.442  27.023  1.00  0.00    -0.014 A 
BRANCH  48  49
ATOM     49  C   UNL A   1      43.186  24.864  27.362  1.00  0.00     0.031 A 
ATOM     50  C   UNL A   1      44.554  25.440  27.112  1.00  0.00     0.074 A 
ATOM     51  C   UNL A   1      42.199  25.638  27.844  1.00  0.00     0.049 A 
ATOM     52  N   UNL A   1      44.993  26.656  27.310  1.00  0.00    -0.248 NA
ATOM     53  C   UNL A   1      45.562  24.516  26.565  1.00  0.00     0.031 C 
ATOM     54  C   UNL A   1      40.830  25.202  28.104  1.00  0.00     0.029 A 
ATOM     55  N   UNL A   1      42.209  26.962  28.203  1.00  0.00    -0.354 N 
ATOM     56  C   UNL A   1      46.323  26.643  26.909  1.00  0.00     0.074 A 
ATOM     57  C   UNL A   1      46.631  25.293  26.493  1.00  0.00     0.031 C 
ATOM     58  C   UNL A   1      40.128  26.243  28.587  1.00  0.00     0.029 A 
ATOM     59  C   UNL A   1      41.005  27.409  28.687  1.00  0.00     0.049 A 
ATOM     60  H   UNL A   1      43.004  27.536  28.121  1.00  0.00     0.167 HD
ATOM     61  C   UNL A   1      47.206  27.667  26.875  1.00  0.00     0.037 A 
ATOM     62  C   UNL A   1      40.659  28.621  29.163  1.00  0.00     0.037 A 
ATOM     63  C   UNL A   1      46.904  29.008  27.295  1.00  0.00     0.049 A 
ATOM     64  C   UNL A   1      41.678  29.731  29.173  1.00  0.00     0.074 A 
ATOM     65  C   UNL A   1      47.726  30.121  27.290  1.00  0.00     0.029 A 
ATOM     66  N   UNL A   1      45.680  29.415  27.804  1.00  0.00    -0.354 N 
ATOM     67  N   UNL A   1      42.921  29.719  28.756  1.00  0.00    -0.248 NA
ATOM     68  C   UNL A   1      41.240  31.027  29.712  1.00  0.00     0.031 C 
ATOM     69  C   UNL A   1      47.013  31.192  27.837  1.00  0.00     0.029 A 
ATOM     70  C   UNL A   1      45.731  30.758  28.138  1.00  0.00     0.049 A 
ATOM     71  H   UNL A   1      44.892  28.836  27.914  1.00  0.00     0.167 HD
ATOM     72  C   UNL A   1      43.403  31.008  28.953  1.00  0.00     0.074 A 
ATOM     73  C   UNL A   1      42.314  31.779  29.517  1.00  0.00     0.031 C 
ATOM     74  C   UNL A   1      44.635  31.510  28.690  1.00  0.00     0.037 A 
BRANCH  61  75
ATOM     75  C   UNL A   1      48.590  27.362  26.384  1.00  0.00     0.057 A 
ATOM     76  C   UNL A   1      49.616  26.980  27.259  1.00  0.00     0.134 A 
ATOM     77  C   UNL A   1      48.897  27.442  25.021  1.00  0.00     0.134 A 
ATOM     78  F   UNL A   1      49.390  26.905  28.580  1.00  0.00    -0.206 F 
ATOM     79  C   UNL A   1      50.904  26.709  26.796  1.00  0.00     0.040 A 
ATOM     80  C   UNL A   1      50.176  27.150  24.544  1.00  0.00     0.040 A 
ATOM     81  F   UNL A   1      47.961  27.805  24.131  1.00  0.00    -0.206 F 
ATOM     82  C   UNL A   1      51.185  26.788  25.434  1.00  0.00     0.006 A 
ENDBRANCH  61  75
BRANCH  62  83
ATOM     83  C   UNL A   1      39.285  28.857  29.670  1.00  0.00     0.057 A 
ATOM     84  C   UNL A   1      38.276  29.351  28.834  1.00  0.00     0.134 A 
ATOM     85  C   UNL A   1      38.955  28.624  31.011  1.00  0.00     0.134 A 
ATOM     86  F   UNL A   1      38.539  29.616  27.546  1.00  0.00    -0.206 F 
ATOM     87  C   UNL A   1      36.995  29.623  29.316  1.00  0.00     0.040 A 
ATOM     88  C   UNL A   1      37.671  28.870  31.501  1.00  0.00     0.040 A 
ATOM     89  F   UNL A   1      39.876  28.151  31.863  1.00  0.00    -0.206 F 
ATOM     90  C   UNL A   1      36.689  29.379  30.653  1.00  0.00     0.006 A 
ENDBRANCH  62  83
BRANCH  74  91
ATOM     91  C   UNL A   1      44.859  32.968  28.972  1.00  0.00     0.057 A 
ATOM     92  C   UNL A   1      44.476  33.965  28.066  1.00  0.00     0.134 A 
ATOM     93  C   UNL A   1      45.427  33.379  30.185  1.00  0.00     0.134 A 
ATOM     94  F   UNL A   1      43.935  33.636  26.883  1.00  0.00    -0.206 F 
ATOM     95  C   UNL A   1      44.674  35.318  28.345  1.00  0.00     0.040 A 
ATOM     96  C   UNL A   1      45.605  34.729  30.486  1.00  0.00     0.040 A 
ATOM     97  F   UNL A   1      45.805  32.475  31.101  1.00  0.00    -0.206 F 
ATOM     98  C   UNL A   1      45.234  35.703  29.562  1.00  0.00     0.006 A 
ENDBRANCH  74  91
ENDBRANCH  48  49
ENDBRANCH  41  43
ENDBRANCH  40  41
ENDBRANCH  39  40
ENDBRANCH  38  39
ENDBRANCH  37  38
ENDBRANCH  36  37
ENDBRANCH  35  36
ENDBRANCH  34  35
ENDBRANCH   1  34
TORSDOF 23
ENDMDL
MODEL 2
REMARK VINA RESULT:      -9.5      4.432      9.260
REMARK SMILES CC1=C(C(=O)OCCOCCOCCOCCOC(=O)c2ccc(-c3c4nc(c(-c5c(F)cccc5F)c5ccc([nH]5)c(-c5c(F)cccc5F)c5nc(c(-c6c(F)cccc6F)c6ccc3[nH]6)C=C5)C=C4)cc2)N2C(=O)[C@H](NC(=O)c3c(Cl)c(C(F)(F)F)nn3C)[C@@H]2SC1
REMARK SMILES IDX 11 1 10 2 9 3 8 4 7 5 6 6 4 7 5 8 3 9 1 10 2 11 95 12 75 13
REMARK SMILES IDX 94 14 76 15 93 16 77 17 78 18 79 19 80 20 81 22 82 23 83 24
REMARK SMILES IDX 91 25 84 26 85 27 90 28 92 29 86 30 87 31 88 32 89 33 12 34
REMARK SMILES IDX 13 35 14 36 15 37 16 38 17 39 18 40 19 41 20 42 21 43 22 44
REMARK SMILES IDX 74 45 23 46 73 47 24 48 25 49 26 50 67 51 27 52 72 53 66 54
REMARK SMILES IDX 68 55 28 56 71 57 65 58 64 59 29 61 55 62 38 63 54 64 39 65
REMARK SMILES IDX 42 66 53 67 69 68 40 69 41 70 52 72 70 73 43 74 30 75 31 76
REMARK SMILES IDX 36 77 32 78 33 79 35 80 37 81 34 82 56 83 57 84 62 85 58 86
REMARK SMILES IDX 59 87 61 88 63 89 60 90 44 91 45 92 50 93 46 94 47 95 49 96
REMARK SMILES IDX 51 97 48 98
REMARK H PARENT 79 21 68 60 42 71
REMARK Flexibility Score: inf
ROOT
ATOM      1  C   UNL A   1      39.953  27.236  27.539  1.00  0.00     0.188 C 
ENDROOT
BRANCH   1   2
ATOM      2  C   UNL A   1      39.222  27.579  28.852  1.00  0.00     0.188 C 
BRANCH   2   3
ATOM      3  O   UNL A   1      40.010  27.431  30.029  1.00  0.00    -0.376 OA
BRANCH   3   4
ATOM      4  C   UNL A   1      40.166  28.615  30.806  1.00  0.00     0.202 C 
BRANCH   4   5
ATOM      5  C   UNL A   1      40.156  28.334  32.308  1.00  0.00     0.261 C 
BRANCH   5   6
ATOM      6  O   UNL A   1      39.494  29.373  33.043  1.00  0.00    -0.459 OA
BRANCH   6   7
ATOM      7  C   UNL A   1      38.158  29.252  33.222  1.00  0.00     0.355 C 
ATOM      8  O   UNL A   1      37.540  28.209  33.337  1.00  0.00    -0.244 OA
BRANCH   7   9
ATOM      9  C   UNL A   1      37.569  30.627  33.366  1.00  0.00     0.131 C 
ATOM     10  C   UNL A   1      38.683  30.960  35.602  1.00  0.00     0.043 C 
ATOM     11  C   UNL A   1      37.857  31.426  34.426  1.00  0.00    -0.032 C 
ATOM     12  C   UNL A   1      37.381  32.861  34.564  1.00  0.00     0.105 C 
ATOM     13  N   UNL A   1      36.703  31.047  32.402  1.00  0.00    -0.289 N 
ATOM     14  S   UNL A   1      36.804  33.608  33.005  1.00  0.00    -0.129 SA
ATOM     15  C   UNL A   1      36.146  30.583  31.263  1.00  0.00     0.253 C 
ATOM     16  C   UNL A   1      35.807  32.171  32.572  1.00  0.00     0.181 C 
ATOM     17  O   UNL A   1      36.221  29.537  30.671  1.00  0.00    -0.272 OA
ATOM     18  C   UNL A   1      35.390  31.960  31.083  1.00  0.00     0.206 C 
BRANCH  18  19
ATOM     19  N   UNL A   1      35.988  32.862  30.068  1.00  0.00    -0.336 N 
ATOM     20  C   UNL A   1      35.806  32.907  28.709  1.00  0.00     0.271 C 
ATOM     21  H   UNL A   1      36.614  33.532  30.425  1.00  0.00     0.164 HD
ATOM     22  O   UNL A   1      36.527  33.660  28.060  1.00  0.00    -0.267 OA
BRANCH  20  23
ATOM     23  C   UNL A   1      34.794  32.089  28.099  1.00  0.00     0.145 A 
ATOM     24  C   UNL A   1      34.939  30.839  27.523  1.00  0.00     0.104 A 
ATOM     25  N   UNL A   1      33.509  32.456  27.801  1.00  0.00    -0.261 N 
ATOM     26  Cl  UNL A   1      36.340  29.879  27.460  1.00  0.00    -0.079 Cl
ATOM     27  C   UNL A   1      33.676  30.500  26.978  1.00  0.00     0.185 A 
ATOM     28  N   UNL A   1      32.785  31.484  27.214  1.00  0.00    -0.166 NA
ATOM     29  C   UNL A   1      32.885  33.748  27.974  1.00  0.00     0.174 C 
BRANCH  27  30
ATOM     30  C   UNL A   1      33.340  29.248  26.220  1.00  0.00     0.436 C 
ATOM     31  F   UNL A   1      33.331  29.459  24.875  1.00  0.00    -0.164 F 
ATOM     32  F   UNL A   1      34.237  28.253  26.453  1.00  0.00    -0.164 F 
ATOM     33  F   UNL A   1      32.117  28.741  26.535  1.00  0.00    -0.164 F 
ENDBRANCH  27  30
ENDBRANCH  20  23
ENDBRANCH  18  19
ENDBRANCH   7   9
ENDBRANCH   6   7
ENDBRANCH   5   6
ENDBRANCH   4   5
ENDBRANCH   3   4
ENDBRANCH   2   3
ENDBRANCH   1   2
BRANCH   1  34
ATOM     34  O   UNL A   1      40.356  25.901  27.288  1.00  0.00    -0.377 OA
BRANCH  34  35
ATOM     35  C   UNL A   1      39.615  24.830  27.863  1.00  0.00     0.188 C 
BRANCH  35  36
ATOM     36  C   UNL A   1      38.969  23.748  26.972  1.00  0.00     0.188 C 
BRANCH  36  37
ATOM     37  O   UNL A   1      39.520  22.445  27.117  1.00  0.00    -0.376 OA
BRANCH  37  38
ATOM     38  C   UNL A   1      40.135  21.891  25.962  1.00  0.00     0.202 C 
BRANCH  38  39
ATOM     39  C   UNL A   1      41.628  21.590  26.143  1.00  0.00     0.261 C 
BRANCH  39  40
ATOM     40  O   UNL A   1      42.469  22.754  26.193  1.00  0.00    -0.460 OA
BRANCH  40  41
ATOM     41  C   UNL A   1      42.814  23.193  27.423  1.00  0.00     0.338 C 
ATOM     42  O   UNL A   1      42.699  22.601  28.480  1.00  0.00    -0.246 OA
BRANCH  41  43
ATOM     43  C   UNL A   1      43.524  24.473  27.267  1.00  0.00     0.060 A 
ATOM     44  C   UNL A   1      43.845  24.910  25.977  1.00  0.00     0.016 A 
ATOM     45  C   UNL A   1      43.899  25.215  28.389  1.00  0.00     0.016 A 
ATOM     46  C   UNL A   1      44.598  26.069  25.808  1.00  0.00     0.010 A 
ATOM     47  C   UNL A   1      44.666  26.368  28.220  1.00  0.00     0.010 A 
ATOM     48  C   UNL A   1      45.056  26.772  26.931  1.00  0.00    -0.014 A 
BRANCH  48  49
ATOM     49  C   UNL A   1      46.125  27.781  26.764  1.00  0.00     0.031 A 
ATOM     50  C   UNL A   1      45.738  29.235  26.800  1.00  0.00     0.074 A 
ATOM     51  C   UNL A   1      47.412  27.423  26.620  1.00  0.00     0.049 A 
ATOM     52  N   UNL A   1      46.491  30.299  26.693  1.00  0.00    -0.248 NA
ATOM     53  C   UNL A   1      44.305  29.525  26.980  1.00  0.00     0.031 C 
ATOM     54  C   UNL A   1      47.913  26.051  26.596  1.00  0.00     0.029 A 
ATOM     55  N   UNL A   1      48.534  28.197  26.465  1.00  0.00    -0.354 N 
ATOM     56  C   UNL A   1      45.626  31.381  26.798  1.00  0.00     0.074 A 
ATOM     57  C   UNL A   1      44.289  30.848  26.936  1.00  0.00     0.031 C 
ATOM     58  C   UNL A   1      49.247  26.080  26.430  1.00  0.00     0.029 A 
ATOM     59  C   UNL A   1      49.688  27.470  26.318  1.00  0.00     0.049 A 
ATOM     60  H   UNL A   1      48.512  29.182  26.460  1.00  0.00     0.167 HD
ATOM     61  C   UNL A   1      45.919  32.702  26.793  1.00  0.00     0.037 A 
ATOM     62  C   UNL A   1      50.953  27.885  26.109  1.00  0.00     0.037 A 
ATOM     63  C   UNL A   1      47.246  33.234  26.647  1.00  0.00     0.049 A 
ATOM     64  C   UNL A   1      51.247  29.361  26.047  1.00  0.00     0.074 A 
ATOM     65  C   UNL A   1      47.650  34.557  26.641  1.00  0.00     0.029 A 
ATOM     66  N   UNL A   1      48.387  32.464  26.475  1.00  0.00    -0.354 N 
ATOM     67  N   UNL A   1      50.428  30.377  26.185  1.00  0.00    -0.248 NA
ATOM     68  C   UNL A   1      52.645  29.749  25.809  1.00  0.00     0.031 C 
ATOM     69  C   UNL A   1      49.031  34.590  26.421  1.00  0.00     0.029 A 
ATOM     70  C   UNL A   1      49.493  33.285  26.338  1.00  0.00     0.049 A 
ATOM     71  H   UNL A   1      48.407  31.481  26.451  1.00  0.00     0.167 HD
ATOM     72  C   UNL A   1      51.213  31.519  26.081  1.00  0.00     0.074 A 
ATOM     73  C   UNL A   1      52.576  31.071  25.879  1.00  0.00     0.031 C 
ATOM     74  C   UNL A   1      50.843  32.821  26.147  1.00  0.00     0.037 A 
BRANCH  61  75
ATOM     75  C   UNL A   1      44.772  33.659  26.929  1.00  0.00     0.057 A 
ATOM     76  C   UNL A   1      44.330  34.109  28.180  1.00  0.00     0.134 A 
ATOM     77  C   UNL A   1      44.109  34.143  25.795  1.00  0.00     0.134 A 
ATOM     78  F   UNL A   1      44.911  33.665  29.306  1.00  0.00    -0.206 F 
ATOM     79  C   UNL A   1      43.254  34.989  28.299  1.00  0.00     0.040 A 
ATOM     80  C   UNL A   1      43.048  35.043  25.901  1.00  0.00     0.040 A 
ATOM     81  F   UNL A   1      44.482  33.749  24.568  1.00  0.00    -0.206 F 
ATOM     82  C   UNL A   1      42.614  35.464  27.156  1.00  0.00     0.006 A 
ENDBRANCH  61  75
BRANCH  62  83
ATOM     83  C   UNL A   1      52.044  26.894  25.945  1.00  0.00     0.057 A 
ATOM     84  C   UNL A   1      52.821  26.480  27.035  1.00  0.00     0.134 A 
ATOM     85  C   UNL A   1      52.357  26.358  24.690  1.00  0.00     0.134 A 
ATOM     86  F   UNL A   1      52.584  26.976  28.258  1.00  0.00    -0.206 F 
ATOM     87  C   UNL A   1      53.881  25.586  26.879  1.00  0.00     0.040 A 
ATOM     88  C   UNL A   1      53.401  25.446  24.523  1.00  0.00     0.040 A 
ATOM     89  F   UNL A   1      51.651  26.714  23.606  1.00  0.00    -0.206 F 
ATOM     90  C   UNL A   1      54.171  25.064  25.620  1.00  0.00     0.006 A 
ENDBRANCH  62  83
BRANCH  74  91
ATOM     91  C   UNL A   1      51.929  33.852  26.041  1.00  0.00     0.057 A 
ATOM     92  C   UNL A   1      52.355  34.354  24.805  1.00  0.00     0.134 A 
ATOM     93  C   UNL A   1      52.525  34.379  27.194  1.00  0.00     0.134 A 
ATOM     94  F   UNL A   1      51.831  33.885  23.663  1.00  0.00    -0.206 F 
ATOM     95  C   UNL A   1      53.356  35.325  24.719  1.00  0.00     0.040 A 
ATOM     96  C   UNL A   1      53.506  35.368  27.121  1.00  0.00     0.040 A 
ATOM     97  F   UNL A   1      52.153  33.950  28.410  1.00  0.00    -0.206 F 
ATOM     98  C   UNL A   1      53.928  35.839  25.880  1.00  0.00     0.006 A 
ENDBRANCH  74  91
ENDBRANCH  48  49
ENDBRANCH  41  43
ENDBRANCH  40  41
ENDBRANCH  39  40
ENDBRANCH  38  39
ENDBRANCH  37  38
ENDBRANCH  36  37
ENDBRANCH  35  36
ENDBRANCH  34  35
ENDBRANCH   1  34
TORSDOF 23
ENDMDL
MODEL 3
REMARK VINA RESULT:      -9.4      4.412      7.230
REMARK SMILES CC1=C(C(=O)OCCOCCOCCOCCOC(=O)c2ccc(-c3c4nc(c(-c5c(F)cccc5F)c5ccc([nH]5)c(-c5c(F)cccc5F)c5nc(c(-c6c(F)cccc6F)c6ccc3[nH]6)C=C5)C=C4)cc2)N2C(=O)[C@H](NC(=O)c3c(Cl)c(C(F)(F)F)nn3C)[C@@H]2SC1
REMARK SMILES IDX 11 1 10 2 9 3 8 4 7 5 6 6 4 7 5 8 3 9 1 10 2 11 95 12 75 13
REMARK SMILES IDX 94 14 76 15 93 16 77 17 78 18 79 19 80 20 81 22 82 23 83 24
REMARK SMILES IDX 91 25 84 26 85 27 90 28 92 29 86 30 87 31 88 32 89 33 12 34
REMARK SMILES IDX 13 35 14 36 15 37 16 38 17 39 18 40 19 41 20 42 21 43 22 44
REMARK SMILES IDX 74 45 23 46 73 47 24 48 25 49 26 50 67 51 27 52 72 53 66 54
REMARK SMILES IDX 68 55 28 56 71 57 65 58 64 59 29 61 55 62 38 63 54 64 39 65
REMARK SMILES IDX 42 66 53 67 69 68 40 69 41 70 52 72 70 73 43 74 30 75 31 76
REMARK SMILES IDX 36 77 32 78 33 79 35 80 37 81 34 82 56 83 57 84 62 85 58 86
REMARK SMILES IDX 59 87 61 88 63 89 60 90 44 91 45 92 50 93 46 94 47 95 49 96
REMARK SMILES IDX 51 97 48 98
REMARK H PARENT 79 21 68 60 42 71
REMARK Flexibility Score: inf
ROOT
ATOM      1  C   UNL A   1      33.303  26.550  25.621  1.00  0.00     0.188 C 
ENDROOT
BRANCH   1   2
ATOM      2  C   UNL A   1      33.694  28.038  25.716  1.00  0.00     0.188 C 
BRANCH   2   3
ATOM      3  O   UNL A   1      33.673  28.577  27.034  1.00  0.00    -0.376 OA
BRANCH   3   4
ATOM      4  C   UNL A   1      34.672  29.555  27.304  1.00  0.00     0.202 C 
BRANCH   4   5
ATOM      5  C   UNL A   1      34.089  30.958  27.466  1.00  0.00     0.261 C 
BRANCH   5   6
ATOM      6  O   UNL A   1      34.515  31.578  28.688  1.00  0.00    -0.459 OA
BRANCH   6   7
ATOM      7  C   UNL A   1      35.308  32.669  28.586  1.00  0.00     0.355 C 
ATOM      8  O   UNL A   1      35.580  33.267  27.560  1.00  0.00    -0.244 OA
BRANCH   7   9
ATOM      9  C   UNL A   1      35.717  33.095  29.968  1.00  0.00     0.131 C 
ATOM     10  C   UNL A   1      33.884  34.823  30.067  1.00  0.00     0.043 C 
ATOM     11  C   UNL A   1      35.029  34.037  30.664  1.00  0.00    -0.032 C 
ATOM     12  C   UNL A   1      35.329  34.422  32.102  1.00  0.00     0.105 C 
ATOM     13  N   UNL A   1      36.829  32.519  30.503  1.00  0.00    -0.289 N 
ATOM     14  S   UNL A   1      36.352  33.209  32.999  1.00  0.00    -0.129 SA
ATOM     15  C   UNL A   1      37.772  31.616  30.159  1.00  0.00     0.253 C 
ATOM     16  C   UNL A   1      37.533  33.058  31.646  1.00  0.00     0.181 C 
ATOM     17  O   UNL A   1      37.977  30.970  29.164  1.00  0.00    -0.272 OA
ATOM     18  C   UNL A   1      38.448  31.796  31.578  1.00  0.00     0.206 C 
BRANCH  18  19
ATOM     19  N   UNL A   1      38.172  30.695  32.533  1.00  0.00    -0.336 N 
ATOM     20  C   UNL A   1      38.750  29.456  32.645  1.00  0.00     0.271 C 
ATOM     21  H   UNL A   1      37.464  30.883  33.190  1.00  0.00     0.164 HD
ATOM     22  O   UNL A   1      38.249  28.661  33.435  1.00  0.00    -0.267 OA
BRANCH  20  23
ATOM     23  C   UNL A   1      39.904  29.134  31.850  1.00  0.00     0.145 A 
ATOM     24  C   UNL A   1      39.967  28.332  30.724  1.00  0.00     0.104 A 
ATOM     25  N   UNL A   1      41.211  29.412  32.148  1.00  0.00    -0.261 N 
ATOM     26  Cl  UNL A   1      38.681  27.577  29.910  1.00  0.00    -0.079 Cl
ATOM     27  C   UNL A   1      41.336  28.250  30.368  1.00  0.00     0.185 A 
ATOM     28  N   UNL A   1      42.086  28.975  31.222  1.00  0.00    -0.166 NA
ATOM     29  C   UNL A   1      41.744  30.035  33.337  1.00  0.00     0.174 C 
BRANCH  27  30
ATOM     30  C   UNL A   1      41.915  27.462  29.228  1.00  0.00     0.436 C 
ATOM     31  F   UNL A   1      43.066  26.830  29.584  1.00  0.00    -0.164 F 
ATOM     32  F   UNL A   1      41.061  26.499  28.788  1.00  0.00    -0.164 F 
ATOM     33  F   UNL A   1      42.218  28.228  28.145  1.00  0.00    -0.164 F 
ENDBRANCH  27  30
ENDBRANCH  20  23
ENDBRANCH  18  19
ENDBRANCH   7   9
ENDBRANCH   6   7
ENDBRANCH   5   6
ENDBRANCH   4   5
ENDBRANCH   3   4
ENDBRANCH   2   3
ENDBRANCH   1   2
BRANCH   1  34
ATOM     34  O   UNL A   1      34.301  25.552  25.749  1.00  0.00    -0.377 OA
BRANCH  34  35
ATOM     35  C   UNL A   1      34.337  24.478  24.816  1.00  0.00     0.188 C 
BRANCH  35  36
ATOM     36  C   UNL A   1      35.656  23.736  24.515  1.00  0.00     0.188 C 
BRANCH  36  37
ATOM     37  O   UNL A   1      36.135  22.914  25.572  1.00  0.00    -0.376 OA
BRANCH  37  38
ATOM     38  C   UNL A   1      36.100  21.512  25.344  1.00  0.00     0.202 C 
BRANCH  38  39
ATOM     39  C   UNL A   1      37.471  20.904  25.024  1.00  0.00     0.261 C 
BRANCH  39  40
ATOM     40  O   UNL A   1      38.556  21.439  25.800  1.00  0.00    -0.460 OA
BRANCH  40  41
ATOM     41  C   UNL A   1      39.668  20.677  25.882  1.00  0.00     0.338 C 
ATOM     42  O   UNL A   1      39.774  19.490  25.630  1.00  0.00    -0.246 OA
BRANCH  41  43
ATOM     43  C   UNL A   1      40.807  21.563  26.173  1.00  0.00     0.060 A 
ATOM     44  C   UNL A   1      42.086  21.003  26.268  1.00  0.00     0.016 A 
ATOM     45  C   UNL A   1      40.606  22.929  26.382  1.00  0.00     0.016 A 
ATOM     46  C   UNL A   1      43.165  21.803  26.634  1.00  0.00     0.010 A 
ATOM     47  C   UNL A   1      41.684  23.727  26.763  1.00  0.00     0.010 A 
ATOM     48  C   UNL A   1      42.957  23.157  26.934  1.00  0.00    -0.014 A 
BRANCH  48  49
ATOM     49  C   UNL A   1      44.015  23.908  27.647  1.00  0.00     0.031 A 
ATOM     50  C   UNL A   1      45.027  24.657  26.822  1.00  0.00     0.074 A 
ATOM     51  C   UNL A   1      44.059  23.956  28.988  1.00  0.00     0.049 A 
ATOM     52  N   UNL A   1      46.033  25.397  27.212  1.00  0.00    -0.248 NA
ATOM     53  C   UNL A   1      44.883  24.556  25.360  1.00  0.00     0.031 C 
ATOM     54  C   UNL A   1      43.122  23.295  29.892  1.00  0.00     0.029 A 
ATOM     55  N   UNL A   1      44.941  24.597  29.822  1.00  0.00    -0.354 N 
ATOM     56  C   UNL A   1      46.636  25.851  26.046  1.00  0.00     0.074 A 
ATOM     57  C   UNL A   1      45.911  25.274  24.936  1.00  0.00     0.031 C 
ATOM     58  C   UNL A   1      43.482  23.561  31.160  1.00  0.00     0.029 A 
ATOM     59  C   UNL A   1      44.684  24.395  31.154  1.00  0.00     0.049 A 
ATOM     60  H   UNL A   1      45.686  25.150  29.494  1.00  0.00     0.167 HD
ATOM     61  C   UNL A   1      47.693  26.686  25.910  1.00  0.00     0.037 A 
ATOM     62  C   UNL A   1      45.351  24.829  32.241  1.00  0.00     0.037 A 
ATOM     63  C   UNL A   1      48.420  27.253  27.012  1.00  0.00     0.049 A 
ATOM     64  C   UNL A   1      46.562  25.708  32.064  1.00  0.00     0.074 A 
ATOM     65  C   UNL A   1      49.498  28.119  26.980  1.00  0.00     0.029 A 
ATOM     66  N   UNL A   1      48.145  27.003  28.348  1.00  0.00    -0.354 N 
ATOM     67  N   UNL A   1      47.102  26.163  30.958  1.00  0.00    -0.248 NA
ATOM     68  C   UNL A   1      47.250  26.142  33.288  1.00  0.00     0.031 C 
ATOM     69  C   UNL A   1      49.904  28.359  28.296  1.00  0.00     0.029 A 
ATOM     70  C   UNL A   1      49.048  27.680  29.150  1.00  0.00     0.049 A 
ATOM     71  H   UNL A   1      47.417  26.428  28.677  1.00  0.00     0.167 HD
ATOM     72  C   UNL A   1      48.171  26.959  31.353  1.00  0.00     0.074 A 
ATOM     73  C   UNL A   1      48.197  26.933  32.802  1.00  0.00     0.031 C 
ATOM     74  C   UNL A   1      49.052  27.650  30.589  1.00  0.00     0.037 A 
BRANCH  61  75
ATOM     75  C   UNL A   1      48.132  27.013  24.514  1.00  0.00     0.057 A 
ATOM     76  C   UNL A   1      49.302  26.475  23.963  1.00  0.00     0.134 A 
ATOM     77  C   UNL A   1      47.369  27.867  23.708  1.00  0.00     0.134 A 
ATOM     78  F   UNL A   1      50.087  25.666  24.691  1.00  0.00    -0.206 F 
ATOM     79  C   UNL A   1      49.710  26.794  22.667  1.00  0.00     0.040 A 
ATOM     80  C   UNL A   1      47.755  28.173  22.402  1.00  0.00     0.040 A 
ATOM     81  F   UNL A   1      46.239  28.417  24.177  1.00  0.00    -0.206 F 
ATOM     82  C   UNL A   1      48.932  27.641  21.881  1.00  0.00     0.006 A 
ENDBRANCH  61  75
BRANCH  62  83
ATOM     83  C   UNL A   1      44.894  24.445  33.599  1.00  0.00     0.057 A 
ATOM     84  C   UNL A   1      43.945  25.208  34.290  1.00  0.00     0.134 A 
ATOM     85  C   UNL A   1      45.417  23.322  34.251  1.00  0.00     0.134 A 
ATOM     86  F   UNL A   1      43.425  26.308  33.726  1.00  0.00    -0.206 F 
ATOM     87  C   UNL A   1      43.547  24.881  35.587  1.00  0.00     0.040 A 
ATOM     88  C   UNL A   1      45.011  22.969  35.540  1.00  0.00     0.040 A 
ATOM     89  F   UNL A   1      46.330  22.549  33.644  1.00  0.00    -0.206 F 
ATOM     90  C   UNL A   1      44.079  23.756  36.214  1.00  0.00     0.006 A 
ENDBRANCH  62  83
BRANCH  74  91
ATOM     91  C   UNL A   1      50.092  28.465  31.303  1.00  0.00     0.057 A 
ATOM     92  C   UNL A   1      49.876  29.807  31.641  1.00  0.00     0.134 A 
ATOM     93  C   UNL A   1      51.306  27.885  31.692  1.00  0.00     0.134 A 
ATOM     94  F   UNL A   1      48.738  30.422  31.289  1.00  0.00    -0.206 F 
ATOM     95  C   UNL A   1      50.844  30.551  32.319  1.00  0.00     0.040 A 
ATOM     96  C   UNL A   1      52.269  28.612  32.393  1.00  0.00     0.040 A 
ATOM     97  F   UNL A   1      51.570  26.601  31.409  1.00  0.00    -0.206 F 
ATOM     98  C   UNL A   1      52.042  29.951  32.703  1.00  0.00     0.006 A 
ENDBRANCH  74  91
ENDBRANCH  48  49
ENDBRANCH  41  43
ENDBRANCH  40  41
ENDBRANCH  39  40
ENDBRANCH  38  39
ENDBRANCH  37  38
ENDBRANCH  36  37
ENDBRANCH  35  36
ENDBRANCH  34  35
ENDBRANCH   1  34
TORSDOF 23
ENDMDL
