MODEL 1
REMARK VINA RESULT:      -9.5      0.000      0.000
REMARK SMILES C[C@H](CNS(=O)(=O)c1ccc(C(=O)OCCOCCOCCOCCOC(=O)c2ccc(-c3c4nc(c(-c5c(F)cccc5F)c5ccc([nH]5)c(-c5c(F)cccc5F)c5nc(c(-c6c(F)cccc6F)c6ccc3[nH]6)C=C5)C=C4)cc2)cc1F)[NH+](C)C
REMARK SMILES IDX 18 1 17 2 16 3 15 4 14 5 12 6 13 7 11 8 8 9 9 10 84 11 10 12
REMARK SMILES IDX 83 13 85 14 5 15 6 16 7 17 4 18 3 20 2 21 1 22 86 23 87 24
REMARK SMILES IDX 88 25 19 27 20 28 21 29 22 30 23 31 24 32 25 33 26 34 27 35
REMARK SMILES IDX 28 36 29 37 30 38 82 39 31 40 81 41 32 42 33 43 34 44 75 45
REMARK SMILES IDX 35 46 80 47 74 48 76 49 36 50 79 51 73 52 72 53 37 55 63 56
REMARK SMILES IDX 46 57 62 58 47 59 50 60 61 61 77 62 48 63 49 64 60 66 78 67
REMARK SMILES IDX 51 68 38 69 39 70 44 71 40 72 41 73 43 74 45 75 42 76 64 77
REMARK SMILES IDX 65 78 70 79 66 80 67 81 69 82 71 83 68 84 52 85 53 86 58 87
REMARK SMILES IDX 54 88 55 89 57 90 59 91 56 92
REMARK H PARENT 4 19 86 26 76 54 50 65
REMARK Flexibility Score: inf
ROOT
ATOM      1  C   UNL A   1      35.909  23.563  25.770  1.00  0.00     0.188 C 
ENDROOT
BRANCH   1   2
ATOM      2  O   UNL A   1      35.237  22.411  26.269  1.00  0.00    -0.376 OA
BRANCH   2   3
ATOM      3  C   UNL A   1      34.558  22.563  27.508  1.00  0.00     0.202 C 
BRANCH   3   4
ATOM      4  C   UNL A   1      33.134  21.991  27.537  1.00  0.00     0.261 C 
BRANCH   4   5
ATOM      5  O   UNL A   1      32.090  22.973  27.645  1.00  0.00    -0.460 OA
BRANCH   5   6
ATOM      6  C   UNL A   1      31.341  23.194  26.544  1.00  0.00     0.338 C 
ATOM      7  O   UNL A   1      30.388  22.540  26.158  1.00  0.00    -0.246 OA
BRANCH   6   8
ATOM      8  C   UNL A   1      31.737  24.502  25.977  1.00  0.00     0.063 A 
ATOM      9  C   UNL A   1      32.409  26.943  24.794  1.00  0.00     0.118 A 
ATOM     10  C   UNL A   1      32.757  25.736  24.166  1.00  0.00     0.026 A 
ATOM     11  C   UNL A   1      31.727  26.919  26.005  1.00  0.00     0.144 A 
ATOM     12  C   UNL A   1      32.435  24.517  24.765  1.00  0.00     0.017 A 
ATOM     13  C   UNL A   1      31.372  25.703  26.592  1.00  0.00     0.056 A 
ATOM     14  F   UNL A   1      31.381  28.037  26.651  1.00  0.00    -0.205 F 
BRANCH   9  15
ATOM     15  S   UNL A   1      32.868  28.428  23.965  1.00  0.00     0.243 S 
ATOM     16  O   UNL A   1      33.416  28.048  22.681  1.00  0.00    -0.207 OA
ATOM     17  O   UNL A   1      33.647  29.192  24.915  1.00  0.00    -0.207 OA
BRANCH  15  18
ATOM     18  N   UNL A   1      31.498  29.339  23.683  1.00  0.00    -0.205 NA
ATOM     19  H   UNL A   1      30.784  29.011  24.333  1.00  0.00     0.141 HD
BRANCH  18  20
ATOM     20  C   UNL A   1      30.891  29.333  22.342  1.00  0.00     0.163 C 
BRANCH  20  21
ATOM     21  C   UNL A   1      29.466  28.693  22.326  1.00  0.00     0.195 C 
ATOM     22  C   UNL A   1      29.183  27.772  23.525  1.00  0.00     0.076 C 
BRANCH  21  23
ATOM     23  N   UNL A   1      28.406  29.699  22.061  1.00  0.00    -0.337 N 
ATOM     24  C   UNL A   1      27.307  29.626  23.024  1.00  0.00     0.332 C 
ATOM     25  C   UNL A   1      28.884  31.073  21.934  1.00  0.00     0.332 C 
ATOM     26  H   UNL A   1      28.051  29.436  21.141  1.00  0.00     0.347 HD
ENDBRANCH  21  23
ENDBRANCH  20  21
ENDBRANCH  18  20
ENDBRANCH  15  18
ENDBRANCH   9  15
ENDBRANCH   6   8
ENDBRANCH   5   6
ENDBRANCH   4   5
ENDBRANCH   3   4
ENDBRANCH   2   3
ENDBRANCH   1   2
BRANCH   1  27
ATOM     27  C   UNL A   1      37.231  23.245  25.049  1.00  0.00     0.188 C 
BRANCH  27  28
ATOM     28  O   UNL A   1      37.617  21.882  24.999  1.00  0.00    -0.377 OA
BRANCH  28  29
ATOM     29  C   UNL A   1      38.737  21.441  25.764  1.00  0.00     0.188 C 
BRANCH  29  30
ATOM     30  C   UNL A   1      39.606  22.403  26.607  1.00  0.00     0.188 C 
BRANCH  30  31
ATOM     31  O   UNL A   1      40.919  22.614  26.109  1.00  0.00    -0.376 OA
BRANCH  31  32
ATOM     32  C   UNL A   1      41.741  21.463  25.988  1.00  0.00     0.202 C 
BRANCH  32  33
ATOM     33  C   UNL A   1      43.178  21.789  25.567  1.00  0.00     0.261 C 
BRANCH  33  34
ATOM     34  O   UNL A   1      43.396  23.158  25.189  1.00  0.00    -0.460 OA
BRANCH  34  35
ATOM     35  C   UNL A   1      44.304  23.854  25.906  1.00  0.00     0.338 C 
ATOM     36  O   UNL A   1      45.516  23.847  25.780  1.00  0.00    -0.246 OA
BRANCH  35  37
ATOM     37  C   UNL A   1      43.565  24.781  26.783  1.00  0.00     0.060 A 
ATOM     38  C   UNL A   1      43.611  26.154  26.514  1.00  0.00     0.016 A 
ATOM     39  C   UNL A   1      42.830  24.289  27.863  1.00  0.00     0.016 A 
ATOM     40  C   UNL A   1      42.946  27.046  27.354  1.00  0.00     0.010 A 
ATOM     41  C   UNL A   1      42.181  25.183  28.712  1.00  0.00     0.010 A 
ATOM     42  C   UNL A   1      42.263  26.567  28.480  1.00  0.00    -0.014 A 
BRANCH  42  43
ATOM     43  C   UNL A   1      41.799  27.508  29.525  1.00  0.00     0.031 A 
ATOM     44  C   UNL A   1      42.510  27.507  30.849  1.00  0.00     0.074 A 
ATOM     45  C   UNL A   1      40.771  28.346  29.307  1.00  0.00     0.049 A 
ATOM     46  N   UNL A   1      42.245  28.186  31.934  1.00  0.00    -0.248 NA
ATOM     47  C   UNL A   1      43.677  26.615  30.965  1.00  0.00     0.031 C 
ATOM     48  C   UNL A   1      40.031  28.470  28.053  1.00  0.00     0.029 A 
ATOM     49  N   UNL A   1      40.169  29.249  30.147  1.00  0.00    -0.354 N 
ATOM     50  C   UNL A   1      43.211  27.808  32.857  1.00  0.00     0.074 A 
ATOM     51  C   UNL A   1      44.049  26.817  32.220  1.00  0.00     0.031 C 
ATOM     52  C   UNL A   1      39.067  29.394  28.209  1.00  0.00     0.029 A 
ATOM     53  C   UNL A   1      39.101  29.899  29.581  1.00  0.00     0.049 A 
ATOM     54  H   UNL A   1      40.475  29.415  31.068  1.00  0.00     0.167 HD
ATOM     55  C   UNL A   1      43.389  28.255  34.121  1.00  0.00     0.037 A 
ATOM     56  C   UNL A   1      38.238  30.786  30.118  1.00  0.00     0.037 A 
ATOM     57  C   UNL A   1      42.552  29.237  34.756  1.00  0.00     0.049 A 
ATOM     58  C   UNL A   1      38.404  31.204  31.557  1.00  0.00     0.074 A 
ATOM     59  C   UNL A   1      42.657  29.758  36.033  1.00  0.00     0.029 A 
ATOM     60  N   UNL A   1      41.455  29.840  34.163  1.00  0.00    -0.354 N 
ATOM     61  N   UNL A   1      39.326  30.849  32.420  1.00  0.00    -0.248 NA
ATOM     62  C   UNL A   1      37.409  32.143  32.097  1.00  0.00     0.031 C 
ATOM     63  C   UNL A   1      41.595  30.643  36.230  1.00  0.00     0.029 A 
ATOM     64  C   UNL A   1      40.859  30.712  35.058  1.00  0.00     0.049 A 
ATOM     65  H   UNL A   1      41.146  29.674  33.244  1.00  0.00     0.167 HD
ATOM     66  C   UNL A   1      39.038  31.538  33.593  1.00  0.00     0.074 A 
ATOM     67  C   UNL A   1      37.861  32.338  33.330  1.00  0.00     0.031 C 
ATOM     68  C   UNL A   1      39.693  31.511  34.778  1.00  0.00     0.037 A 
BRANCH  55  69
ATOM     69  C   UNL A   1      44.524  27.677  34.910  1.00  0.00     0.057 A 
ATOM     70  C   UNL A   1      44.340  26.533  35.695  1.00  0.00     0.134 A 
ATOM     71  C   UNL A   1      45.784  28.288  34.939  1.00  0.00     0.134 A 
ATOM     72  F   UNL A   1      43.156  25.902  35.711  1.00  0.00    -0.206 F 
ATOM     73  C   UNL A   1      45.364  26.026  36.495  1.00  0.00     0.040 A 
ATOM     74  C   UNL A   1      46.823  27.777  35.716  1.00  0.00     0.040 A 
ATOM     75  F   UNL A   1      46.030  29.378  34.195  1.00  0.00    -0.206 F 
ATOM     76  C   UNL A   1      46.611  26.648  36.506  1.00  0.00     0.006 A 
ENDBRANCH  55  69
BRANCH  56  77
ATOM     77  C   UNL A   1      37.134  31.336  29.294  1.00  0.00     0.057 A 
ATOM     78  C   UNL A   1      37.198  32.628  28.756  1.00  0.00     0.134 A 
ATOM     79  C   UNL A   1      35.988  30.582  29.021  1.00  0.00     0.134 A 
ATOM     80  F   UNL A   1      38.270  33.402  28.977  1.00  0.00    -0.206 F 
ATOM     81  C   UNL A   1      36.155  33.155  27.993  1.00  0.00     0.040 A 
ATOM     82  C   UNL A   1      34.948  31.088  28.241  1.00  0.00     0.040 A 
ATOM     83  F   UNL A   1      35.880  29.329  29.487  1.00  0.00    -0.206 F 
ATOM     84  C   UNL A   1      35.026  32.382  27.730  1.00  0.00     0.006 A 
ENDBRANCH  56  77
BRANCH  68  85
ATOM     85  C   UNL A   1      39.181  32.386  35.884  1.00  0.00     0.057 A 
ATOM     86  C   UNL A   1      39.652  33.697  36.030  1.00  0.00     0.134 A 
ATOM     87  C   UNL A   1      38.300  31.902  36.859  1.00  0.00     0.134 A 
ATOM     88  F   UNL A   1      40.509  34.217  35.138  1.00  0.00    -0.206 F 
ATOM     89  C   UNL A   1      39.281  34.491  37.117  1.00  0.00     0.040 A 
ATOM     90  C   UNL A   1      37.901  32.695  37.938  1.00  0.00     0.040 A 
ATOM     91  F   UNL A   1      37.806  30.659  36.773  1.00  0.00    -0.206 F 
ATOM     92  C   UNL A   1      38.402  33.989  38.074  1.00  0.00     0.006 A 
ENDBRANCH  68  85
ENDBRANCH  42  43
ENDBRANCH  35  37
ENDBRANCH  34  35
ENDBRANCH  33  34
ENDBRANCH  32  33
ENDBRANCH  31  32
ENDBRANCH  30  31
ENDBRANCH  29  30
ENDBRANCH  28  29
ENDBRANCH  27  28
ENDBRANCH   1  27
TORSDOF 25
ENDMDL
MODEL 2
REMARK VINA RESULT:      -9.4      1.353      2.535
REMARK SMILES C[C@H](CNS(=O)(=O)c1ccc(C(=O)OCCOCCOCCOCCOC(=O)c2ccc(-c3c4nc(c(-c5c(F)cccc5F)c5ccc([nH]5)c(-c5c(F)cccc5F)c5nc(c(-c6c(F)cccc6F)c6ccc3[nH]6)C=C5)C=C4)cc2)cc1F)[NH+](C)C
REMARK SMILES IDX 18 1 17 2 16 3 15 4 14 5 12 6 13 7 11 8 8 9 9 10 84 11 10 12
REMARK SMILES IDX 83 13 85 14 5 15 6 16 7 17 4 18 3 20 2 21 1 22 86 23 87 24
REMARK SMILES IDX 88 25 19 27 20 28 21 29 22 30 23 31 24 32 25 33 26 34 27 35
REMARK SMILES IDX 28 36 29 37 30 38 82 39 31 40 81 41 32 42 33 43 34 44 75 45
REMARK SMILES IDX 35 46 80 47 74 48 76 49 36 50 79 51 73 52 72 53 37 55 63 56
REMARK SMILES IDX 46 57 62 58 47 59 50 60 61 61 77 62 48 63 49 64 60 66 78 67
REMARK SMILES IDX 51 68 38 69 39 70 44 71 40 72 41 73 43 74 45 75 42 76 64 77
REMARK SMILES IDX 65 78 70 79 66 80 67 81 69 82 71 83 68 84 52 85 53 86 58 87
REMARK SMILES IDX 54 88 55 89 57 90 59 91 56 92
REMARK H PARENT 4 19 86 26 76 54 50 65
REMARK Flexibility Score: inf
ROOT
ATOM      1  C   UNL A   1      35.968  23.143  26.203  1.00  0.00     0.188 C 
ENDROOT
BRANCH   1   2
ATOM      2  O   UNL A   1      35.097  22.018  26.133  1.00  0.00    -0.376 OA
BRANCH   2   3
ATOM      3  C   UNL A   1      34.141  21.895  27.176  1.00  0.00     0.202 C 
BRANCH   3   4
ATOM      4  C   UNL A   1      32.696  22.215  26.767  1.00  0.00     0.261 C 
BRANCH   4   5
ATOM      5  O   UNL A   1      32.124  23.363  27.416  1.00  0.00    -0.460 OA
BRANCH   5   6
ATOM      6  C   UNL A   1      30.916  23.776  26.977  1.00  0.00     0.338 C 
ATOM      7  O   UNL A   1      29.825  23.355  27.321  1.00  0.00    -0.246 OA
BRANCH   6   8
ATOM      8  C   UNL A   1      31.118  24.985  26.150  1.00  0.00     0.063 A 
ATOM      9  C   UNL A   1      31.623  27.219  24.550  1.00  0.00     0.118 A 
ATOM     10  C   UNL A   1      32.473  26.916  25.625  1.00  0.00     0.026 A 
ATOM     11  C   UNL A   1      30.531  26.403  24.282  1.00  0.00     0.144 A 
ATOM     12  C   UNL A   1      32.212  25.810  26.434  1.00  0.00     0.017 A 
ATOM     13  C   UNL A   1      30.284  25.275  25.066  1.00  0.00     0.056 A 
ATOM     14  F   UNL A   1      29.684  26.651  23.278  1.00  0.00    -0.205 F 
BRANCH   9  15
ATOM     15  S   UNL A   1      32.032  28.643  23.595  1.00  0.00     0.243 S 
ATOM     16  O   UNL A   1      32.961  29.429  24.376  1.00  0.00    -0.207 OA
ATOM     17  O   UNL A   1      30.773  29.199  23.148  1.00  0.00    -0.207 OA
BRANCH  15  18
ATOM     18  N   UNL A   1      32.819  28.157  22.205  1.00  0.00    -0.205 NA
ATOM     19  H   UNL A   1      32.116  28.104  21.468  1.00  0.00     0.141 HD
BRANCH  18  20
ATOM     20  C   UNL A   1      33.546  26.878  22.198  1.00  0.00     0.163 C 
BRANCH  20  21
ATOM     21  C   UNL A   1      32.651  25.676  21.754  1.00  0.00     0.195 C 
ATOM     22  C   UNL A   1      32.549  25.506  20.228  1.00  0.00     0.076 C 
BRANCH  21  23
ATOM     23  N   UNL A   1      32.986  24.431  22.489  1.00  0.00    -0.337 N 
ATOM     24  C   UNL A   1      33.198  23.290  21.598  1.00  0.00     0.332 C 
ATOM     25  C   UNL A   1      34.094  24.555  23.432  1.00  0.00     0.332 C 
ATOM     26  H   UNL A   1      32.153  24.254  23.052  1.00  0.00     0.347 HD
ENDBRANCH  21  23
ENDBRANCH  20  21
ENDBRANCH  18  20
ENDBRANCH  15  18
ENDBRANCH   9  15
ENDBRANCH   6   8
ENDBRANCH   5   6
ENDBRANCH   4   5
ENDBRANCH   3   4
ENDBRANCH   2   3
ENDBRANCH   1   2
BRANCH   1  27
ATOM     27  C   UNL A   1      37.264  22.973  25.389  1.00  0.00     0.188 C 
BRANCH  27  28
ATOM     28  O   UNL A   1      37.532  21.677  24.881  1.00  0.00    -0.377 OA
BRANCH  28  29
ATOM     29  C   UNL A   1      38.666  20.957  25.359  1.00  0.00     0.188 C 
BRANCH  29  30
ATOM     30  C   UNL A   1      39.585  21.492  26.481  1.00  0.00     0.188 C 
BRANCH  30  31
ATOM     31  O   UNL A   1      40.720  22.217  26.030  1.00  0.00    -0.376 OA
BRANCH  31  32
ATOM     32  C   UNL A   1      41.959  21.524  26.043  1.00  0.00     0.202 C 
BRANCH  32  33
ATOM     33  C   UNL A   1      43.074  22.267  25.300  1.00  0.00     0.261 C 
BRANCH  33  34
ATOM     34  O   UNL A   1      42.809  23.658  25.057  1.00  0.00    -0.460 OA
BRANCH  34  35
ATOM     35  C   UNL A   1      43.832  24.519  25.249  1.00  0.00     0.338 C 
ATOM     36  O   UNL A   1      44.771  24.737  24.505  1.00  0.00    -0.246 OA
BRANCH  35  37
ATOM     37  C   UNL A   1      43.535  25.301  26.463  1.00  0.00     0.060 A 
ATOM     38  C   UNL A   1      42.687  24.754  27.434  1.00  0.00     0.016 A 
ATOM     39  C   UNL A   1      44.096  26.568  26.636  1.00  0.00     0.016 A 
ATOM     40  C   UNL A   1      42.369  25.496  28.572  1.00  0.00     0.010 A 
ATOM     41  C   UNL A   1      43.763  27.315  27.765  1.00  0.00     0.010 A 
ATOM     42  C   UNL A   1      42.873  26.795  28.721  1.00  0.00    -0.014 A 
BRANCH  42  43
ATOM     43  C   UNL A   1      42.326  27.689  29.766  1.00  0.00     0.031 A 
ATOM     44  C   UNL A   1      43.007  27.717  31.106  1.00  0.00     0.074 A 
ATOM     45  C   UNL A   1      41.251  28.462  29.535  1.00  0.00     0.049 A 
ATOM     46  N   UNL A   1      42.674  28.363  32.193  1.00  0.00    -0.248 NA
ATOM     47  C   UNL A   1      44.227  26.902  31.238  1.00  0.00     0.031 C 
ATOM     48  C   UNL A   1      40.532  28.555  28.266  1.00  0.00     0.029 A 
ATOM     49  N   UNL A   1      40.573  29.312  30.372  1.00  0.00    -0.354 N 
ATOM     50  C   UNL A   1      43.642  28.036  33.133  1.00  0.00     0.074 A 
ATOM     51  C   UNL A   1      44.557  27.110  32.503  1.00  0.00     0.031 C 
ATOM     52  C   UNL A   1      39.506  29.411  28.411  1.00  0.00     0.029 A 
ATOM     53  C   UNL A   1      39.477  29.899  29.790  1.00  0.00     0.049 A 
ATOM     54  H   UNL A   1      40.847  29.486  31.302  1.00  0.00     0.167 HD
ATOM     55  C   UNL A   1      43.762  28.476  34.406  1.00  0.00     0.037 A 
ATOM     56  C   UNL A   1      38.547  30.720  30.317  1.00  0.00     0.037 A 
ATOM     57  C   UNL A   1      42.850  29.393  35.033  1.00  0.00     0.049 A 
ATOM     58  C   UNL A   1      38.653  31.128  31.765  1.00  0.00     0.074 A 
ATOM     59  C   UNL A   1      42.892  29.902  36.319  1.00  0.00     0.029 A 
ATOM     60  N   UNL A   1      41.728  29.932  34.423  1.00  0.00    -0.354 N 
ATOM     61  N   UNL A   1      39.576  30.824  32.644  1.00  0.00    -0.248 NA
ATOM     62  C   UNL A   1      37.587  31.993  32.293  1.00  0.00     0.031 C 
ATOM     63  C   UNL A   1      41.770  30.714  36.502  1.00  0.00     0.029 A 
ATOM     64  C   UNL A   1      41.057  30.750  35.315  1.00  0.00     0.049 A 
ATOM     65  H   UNL A   1      41.451  29.758  33.495  1.00  0.00     0.167 HD
ATOM     66  C   UNL A   1      39.218  31.476  33.818  1.00  0.00     0.074 A 
ATOM     67  C   UNL A   1      37.997  32.201  33.538  1.00  0.00     0.031 C 
ATOM     68  C   UNL A   1      39.848  31.475  35.018  1.00  0.00     0.037 A 
BRANCH  55  69
ATOM     69  C   UNL A   1      44.915  27.964  35.214  1.00  0.00     0.057 A 
ATOM     70  C   UNL A   1      46.165  28.591  35.153  1.00  0.00     0.134 A 
ATOM     71  C   UNL A   1      44.805  26.813  36.005  1.00  0.00     0.134 A 
ATOM     72  F   UNL A   1      46.337  29.696  34.411  1.00  0.00    -0.206 F 
ATOM     73  C   UNL A   1      47.270  28.082  35.837  1.00  0.00     0.040 A 
ATOM     74  C   UNL A   1      45.895  26.310  36.714  1.00  0.00     0.040 A 
ATOM     75  F   UNL A   1      43.628  26.177  36.120  1.00  0.00    -0.206 F 
ATOM     76  C   UNL A   1      47.136  26.939  36.622  1.00  0.00     0.006 A 
ENDBRANCH  55  69
BRANCH  56  77
ATOM     77  C   UNL A   1      37.427  31.209  29.474  1.00  0.00     0.057 A 
ATOM     78  C   UNL A   1      36.299  30.417  29.226  1.00  0.00     0.134 A 
ATOM     79  C   UNL A   1      37.459  32.483  28.897  1.00  0.00     0.134 A 
ATOM     80  F   UNL A   1      36.206  29.187  29.752  1.00  0.00    -0.206 F 
ATOM     81  C   UNL A   1      35.252  30.867  28.421  1.00  0.00     0.040 A 
ATOM     82  C   UNL A   1      36.409  32.955  28.109  1.00  0.00     0.040 A 
ATOM     83  F   UNL A   1      38.501  33.298  29.119  1.00  0.00    -0.206 F 
ATOM     84  C   UNL A   1      35.303  32.143  27.862  1.00  0.00     0.006 A 
ENDBRANCH  56  77
BRANCH  68  85
ATOM     85  C   UNL A   1      39.255  32.301  36.122  1.00  0.00     0.057 A 
ATOM     86  C   UNL A   1      38.230  31.784  36.926  1.00  0.00     0.134 A 
ATOM     87  C   UNL A   1      39.626  33.635  36.325  1.00  0.00     0.134 A 
ATOM     88  F   UNL A   1      37.818  30.516  36.772  1.00  0.00    -0.206 F 
ATOM     89  C   UNL A   1      37.583  32.569  37.880  1.00  0.00     0.040 A 
ATOM     90  C   UNL A   1      39.003  34.425  37.295  1.00  0.00     0.040 A 
ATOM     91  F   UNL A   1      40.606  34.187  35.595  1.00  0.00    -0.206 F 
ATOM     92  C   UNL A   1      37.971  33.895  38.067  1.00  0.00     0.006 A 
ENDBRANCH  68  85
ENDBRANCH  42  43
ENDBRANCH  35  37
ENDBRANCH  34  35
ENDBRANCH  33  34
ENDBRANCH  32  33
ENDBRANCH  31  32
ENDBRANCH  30  31
ENDBRANCH  29  30
ENDBRANCH  28  29
ENDBRANCH  27  28
ENDBRANCH   1  27
TORSDOF 25
ENDMDL
MODEL 3
REMARK VINA RESULT:      -8.7      3.305     10.207
REMARK SMILES C[C@H](CNS(=O)(=O)c1ccc(C(=O)OCCOCCOCCOCCOC(=O)c2ccc(-c3c4nc(c(-c5c(F)cccc5F)c5ccc([nH]5)c(-c5c(F)cccc5F)c5nc(c(-c6c(F)cccc6F)c6ccc3[nH]6)C=C5)C=C4)cc2)cc1F)[NH+](C)C
REMARK SMILES IDX 18 1 17 2 16 3 15 4 14 5 12 6 13 7 11 8 8 9 9 10 84 11 10 12
REMARK SMILES IDX 83 13 85 14 5 15 6 16 7 17 4 18 3 20 2 21 1 22 86 23 87 24
REMARK SMILES IDX 88 25 19 27 20 28 21 29 22 30 23 31 24 32 25 33 26 34 27 35
REMARK SMILES IDX 28 36 29 37 30 38 82 39 31 40 81 41 32 42 33 43 34 44 75 45
REMARK SMILES IDX 35 46 80 47 74 48 76 49 36 50 79 51 73 52 72 53 37 55 63 56
REMARK SMILES IDX 46 57 62 58 47 59 50 60 61 61 77 62 48 63 49 64 60 66 78 67
REMARK SMILES IDX 51 68 38 69 39 70 44 71 40 72 41 73 43 74 45 75 42 76 64 77
REMARK SMILES IDX 65 78 70 79 66 80 67 81 69 82 71 83 68 84 52 85 53 86 58 87
REMARK SMILES IDX 54 88 55 89 57 90 59 91 56 92
REMARK H PARENT 4 19 86 26 76 54 50 65
REMARK Flexibility Score: inf
ROOT
ATOM      1  C   UNL A   1      35.743  23.830  24.844  1.00  0.00     0.188 C 
ENDROOT
BRANCH   1   2
ATOM      2  O   UNL A   1      36.954  23.848  25.594  1.00  0.00    -0.376 OA
BRANCH   2   3
ATOM      3  C   UNL A   1      37.809  22.724  25.440  1.00  0.00     0.202 C 
BRANCH   3   4
ATOM      4  C   UNL A   1      38.860  22.557  26.546  1.00  0.00     0.261 C 
BRANCH   4   5
ATOM      5  O   UNL A   1      40.003  21.767  26.179  1.00  0.00    -0.460 OA
BRANCH   5   6
ATOM      6  C   UNL A   1      40.937  21.561  27.132  1.00  0.00     0.338 C 
ATOM      7  O   UNL A   1      40.828  20.877  28.134  1.00  0.00    -0.246 OA
BRANCH   6   8
ATOM      8  C   UNL A   1      42.212  22.142  26.656  1.00  0.00     0.063 A 
ATOM      9  C   UNL A   1      44.686  23.137  25.823  1.00  0.00     0.118 A 
ATOM     10  C   UNL A   1      44.385  23.054  27.192  1.00  0.00     0.026 A 
ATOM     11  C   UNL A   1      43.751  22.720  24.884  1.00  0.00     0.144 A 
ATOM     12  C   UNL A   1      43.142  22.572  27.607  1.00  0.00     0.017 A 
ATOM     13  C   UNL A   1      42.520  22.205  25.294  1.00  0.00     0.056 A 
ATOM     14  F   UNL A   1      43.982  22.787  23.569  1.00  0.00    -0.205 F 
BRANCH   9  15
ATOM     15  S   UNL A   1      46.276  23.770  25.400  1.00  0.00     0.243 S 
ATOM     16  O   UNL A   1      46.074  25.082  24.828  1.00  0.00    -0.207 OA
ATOM     17  O   UNL A   1      46.937  22.721  24.655  1.00  0.00    -0.207 OA
BRANCH  15  18
ATOM     18  N   UNL A   1      47.175  23.956  26.794  1.00  0.00    -0.205 NA
ATOM     19  H   UNL A   1      46.693  23.439  27.530  1.00  0.00     0.141 HD
BRANCH  18  20
ATOM     20  C   UNL A   1      47.426  25.309  27.315  1.00  0.00     0.163 C 
BRANCH  20  21
ATOM     21  C   UNL A   1      48.932  25.718  27.233  1.00  0.00     0.195 C 
ATOM     22  C   UNL A   1      49.476  25.808  25.797  1.00  0.00     0.076 C 
BRANCH  21  23
ATOM     23  N   UNL A   1      49.235  26.900  28.079  1.00  0.00    -0.337 N 
ATOM     24  C   UNL A   1      48.425  28.067  27.728  1.00  0.00     0.332 C 
ATOM     25  C   UNL A   1      49.181  26.654  29.518  1.00  0.00     0.332 C 
ATOM     26  H   UNL A   1      50.212  27.105  27.863  1.00  0.00     0.347 HD
ENDBRANCH  21  23
ENDBRANCH  20  21
ENDBRANCH  18  20
ENDBRANCH  15  18
ENDBRANCH   9  15
ENDBRANCH   6   8
ENDBRANCH   5   6
ENDBRANCH   4   5
ENDBRANCH   3   4
ENDBRANCH   2   3
ENDBRANCH   1   2
BRANCH   1  27
ATOM     27  C   UNL A   1      34.546  24.451  25.586  1.00  0.00     0.188 C 
BRANCH  27  28
ATOM     28  O   UNL A   1      33.312  24.479  24.891  1.00  0.00    -0.377 OA
BRANCH  28  29
ATOM     29  C   UNL A   1      33.242  25.096  23.607  1.00  0.00     0.188 C 
BRANCH  29  30
ATOM     30  C   UNL A   1      33.583  26.586  23.376  1.00  0.00     0.188 C 
BRANCH  30  31
ATOM     31  O   UNL A   1      32.474  27.472  23.445  1.00  0.00    -0.376 OA
BRANCH  31  32
ATOM     32  C   UNL A   1      32.071  27.880  24.743  1.00  0.00     0.202 C 
BRANCH  32  33
ATOM     33  C   UNL A   1      32.014  29.402  24.907  1.00  0.00     0.261 C 
BRANCH  33  34
ATOM     34  O   UNL A   1      33.144  29.974  25.587  1.00  0.00    -0.460 OA
BRANCH  34  35
ATOM     35  C   UNL A   1      32.881  30.859  26.573  1.00  0.00     0.338 C 
ATOM     36  O   UNL A   1      31.860  31.502  26.743  1.00  0.00    -0.246 OA
BRANCH  35  37
ATOM     37  C   UNL A   1      33.995  30.799  27.536  1.00  0.00     0.060 A 
ATOM     38  C   UNL A   1      34.732  31.960  27.798  1.00  0.00     0.016 A 
ATOM     39  C   UNL A   1      34.305  29.597  28.176  1.00  0.00     0.016 A 
ATOM     40  C   UNL A   1      35.810  31.911  28.681  1.00  0.00     0.010 A 
ATOM     41  C   UNL A   1      35.394  29.545  29.044  1.00  0.00     0.010 A 
ATOM     42  C   UNL A   1      36.171  30.694  29.275  1.00  0.00    -0.014 A 
BRANCH  42  43
ATOM     43  C   UNL A   1      37.466  30.565  29.980  1.00  0.00     0.031 A 
ATOM     44  C   UNL A   1      38.586  29.845  29.283  1.00  0.00     0.074 A 
ATOM     45  C   UNL A   1      37.648  31.076  31.209  1.00  0.00     0.049 A 
ATOM     46  N   UNL A   1      39.781  29.548  29.722  1.00  0.00    -0.248 NA
ATOM     47  C   UNL A   1      38.319  29.395  27.906  1.00  0.00     0.031 C 
ATOM     48  C   UNL A   1      36.655  31.832  31.968  1.00  0.00     0.029 A 
ATOM     49  N   UNL A   1      38.742  31.026  32.038  1.00  0.00    -0.354 N 
ATOM     50  C   UNL A   1      40.408  28.881  28.676  1.00  0.00     0.074 A 
ATOM     51  C   UNL A   1      39.454  28.788  27.594  1.00  0.00     0.031 C 
ATOM     52  C   UNL A   1      37.183  32.169  33.158  1.00  0.00     0.029 A 
ATOM     53  C   UNL A   1      38.537  31.625  33.256  1.00  0.00     0.049 A 
ATOM     54  H   UNL A   1      39.592  30.600  31.782  1.00  0.00     0.167 HD
ATOM     55  C   UNL A   1      41.670  28.400  28.622  1.00  0.00     0.037 A 
ATOM     56  C   UNL A   1      39.344  31.705  34.332  1.00  0.00     0.037 A 
ATOM     57  C   UNL A   1      42.617  28.489  29.700  1.00  0.00     0.049 A 
ATOM     58  C   UNL A   1      40.717  31.083  34.278  1.00  0.00     0.074 A 
ATOM     59  C   UNL A   1      43.923  28.035  29.736  1.00  0.00     0.029 A 
ATOM     60  N   UNL A   1      42.356  29.066  30.932  1.00  0.00    -0.354 N 
ATOM     61  N   UNL A   1      41.306  30.465  33.283  1.00  0.00    -0.248 NA
ATOM     62  C   UNL A   1      41.536  31.170  35.497  1.00  0.00     0.031 C 
ATOM     63  C   UNL A   1      44.439  28.295  31.007  1.00  0.00     0.029 A 
ATOM     64  C   UNL A   1      43.471  28.958  31.745  1.00  0.00     0.049 A 
ATOM     65  H   UNL A   1      41.507  29.489  31.191  1.00  0.00     0.167 HD
ATOM     66  C   UNL A   1      42.568  30.111  33.745  1.00  0.00     0.074 A 
ATOM     67  C   UNL A   1      42.665  30.591  35.107  1.00  0.00     0.031 C 
ATOM     68  C   UNL A   1      43.557  29.451  33.097  1.00  0.00     0.037 A 
BRANCH  55  69
ATOM     69  C   UNL A   1      42.101  27.719  27.358  1.00  0.00     0.057 A 
ATOM     70  C   UNL A   1      42.687  28.450  26.317  1.00  0.00     0.134 A 
ATOM     71  C   UNL A   1      41.881  26.352  27.147  1.00  0.00     0.134 A 
ATOM     72  F   UNL A   1      42.922  29.763  26.455  1.00  0.00    -0.206 F 
ATOM     73  C   UNL A   1      43.023  27.847  25.104  1.00  0.00     0.040 A 
ATOM     74  C   UNL A   1      42.235  25.734  25.948  1.00  0.00     0.040 A 
ATOM     75  F   UNL A   1      41.339  25.593  28.113  1.00  0.00    -0.206 F 
ATOM     76  C   UNL A   1      42.798  26.485  24.918  1.00  0.00     0.006 A 
ENDBRANCH  55  69
BRANCH  56  77
ATOM     77  C   UNL A   1      38.876  32.397  35.559  1.00  0.00     0.057 A 
ATOM     78  C   UNL A   1      38.184  31.713  36.565  1.00  0.00     0.134 A 
ATOM     79  C   UNL A   1      39.111  33.763  35.754  1.00  0.00     0.134 A 
ATOM     80  F   UNL A   1      37.928  30.402  36.441  1.00  0.00    -0.206 F 
ATOM     81  C   UNL A   1      37.727  32.364  37.712  1.00  0.00     0.040 A 
ATOM     82  C   UNL A   1      38.682  34.422  36.906  1.00  0.00     0.040 A 
ATOM     83  F   UNL A   1      39.791  34.467  34.837  1.00  0.00    -0.206 F 
ATOM     84  C   UNL A   1      37.980  33.723  37.887  1.00  0.00     0.006 A 
ENDBRANCH  56  77
BRANCH  68  85
ATOM     85  C   UNL A   1      44.848  29.224  33.828  1.00  0.00     0.057 A 
ATOM     86  C   UNL A   1      45.914  30.122  33.686  1.00  0.00     0.134 A 
ATOM     87  C   UNL A   1      45.069  28.071  34.590  1.00  0.00     0.134 A 
ATOM     88  F   UNL A   1      45.771  31.239  32.957  1.00  0.00    -0.206 F 
ATOM     89  C   UNL A   1      47.160  29.873  34.261  1.00  0.00     0.040 A 
ATOM     90  C   UNL A   1      46.306  27.823  35.192  1.00  0.00     0.040 A 
ATOM     91  F   UNL A   1      44.088  27.176  34.772  1.00  0.00    -0.206 F 
ATOM     92  C   UNL A   1      47.358  28.720  35.017  1.00  0.00     0.006 A 
ENDBRANCH  68  85
ENDBRANCH  42  43
ENDBRANCH  35  37
ENDBRANCH  34  35
ENDBRANCH  33  34
ENDBRANCH  32  33
ENDBRANCH  31  32
ENDBRANCH  30  31
ENDBRANCH  29  30
ENDBRANCH  28  29
ENDBRANCH  27  28
ENDBRANCH   1  27
TORSDOF 25
ENDMDL
