MODEL 1
REMARK VINA RESULT:     -10.0      0.000      0.000
REMARK SMILES O=C(OCCOCCOCCOCCOC(=O)[C@@H]1CCCCN1c1ccccc1[N+](=O)[O-])c1ccc(-c2c3nc(c(-c4c(F)cccc4F)c4ccc([nH]4)c(-c4c(F)cccc4F)c4nc(c(-c5c(F)cccc5F)c5ccc2[nH]5)C=C4)C=C3)cc1
REMARK SMILES IDX 9 1 8 2 7 3 6 4 5 5 4 6 3 7 2 8 1 9 33 10 34 11 86 12 35 13
REMARK SMILES IDX 85 14 36 15 37 16 38 17 79 18 39 19 84 20 78 21 80 22 40 23
REMARK SMILES IDX 83 24 77 25 76 26 41 28 67 29 50 30 66 31 51 32 54 33 65 34
REMARK SMILES IDX 81 35 52 36 53 37 64 39 82 40 55 41 42 42 43 43 48 44 44 45
REMARK SMILES IDX 45 46 47 47 49 48 46 49 68 50 69 51 74 52 70 53 71 54 73 55
REMARK SMILES IDX 75 56 72 57 56 58 57 59 62 60 58 61 59 62 61 63 63 64 60 65
REMARK SMILES IDX 10 66 11 67 12 68 13 69 14 70 15 71 16 72 17 73 18 74 19 75
REMARK SMILES IDX 23 76 20 77 22 78 21 79 24 80 25 81 29 82 26 83 28 84 27 85
REMARK SMILES IDX 30 86 31 87 32 88
REMARK H PARENT 80 27 54 38
REMARK Flexibility Score: inf
ROOT
ATOM      1  O   UNL A   1      40.495  20.551  27.305  1.00  0.00    -0.377 OA
ENDROOT
BRANCH   1   2
ATOM      2  C   UNL A   1      41.814  20.032  27.252  1.00  0.00     0.188 C 
BRANCH   2   3
ATOM      3  C   UNL A   1      42.351  19.747  25.846  1.00  0.00     0.188 C 
BRANCH   3   4
ATOM      4  O   UNL A   1      43.777  19.615  25.790  1.00  0.00    -0.376 OA
BRANCH   4   5
ATOM      5  C   UNL A   1      44.482  20.389  24.812  1.00  0.00     0.202 C 
BRANCH   5   6
ATOM      6  C   UNL A   1      45.065  21.730  25.265  1.00  0.00     0.261 C 
BRANCH   6   7
ATOM      7  O   UNL A   1      44.100  22.674  25.747  1.00  0.00    -0.460 OA
BRANCH   7   8
ATOM      8  C   UNL A   1      44.072  24.022  25.610  1.00  0.00     0.338 C 
ATOM      9  O   UNL A   1      44.787  24.527  24.745  1.00  0.00    -0.246 OA
BRANCH   8  10
ATOM     10  C   UNL A   1      43.281  24.948  26.485  1.00  0.00     0.060 A 
ATOM     11  C   UNL A   1      43.490  26.320  26.601  1.00  0.00     0.016 A 
ATOM     12  C   UNL A   1      42.215  24.394  27.218  1.00  0.00     0.016 A 
ATOM     13  C   UNL A   1      42.689  27.130  27.374  1.00  0.00     0.010 A 
ATOM     14  C   UNL A   1      41.432  25.189  28.063  1.00  0.00     0.010 A 
ATOM     15  C   UNL A   1      41.697  26.557  28.151  1.00  0.00    -0.014 A 
BRANCH  15  16
ATOM     16  C   UNL A   1      41.239  27.402  29.256  1.00  0.00     0.031 A 
ATOM     17  C   UNL A   1      42.129  27.462  30.461  1.00  0.00     0.074 A 
ATOM     18  C   UNL A   1      40.249  28.284  29.046  1.00  0.00     0.049 A 
ATOM     19  N   UNL A   1      41.991  28.138  31.565  1.00  0.00    -0.248 NA
ATOM     20  C   UNL A   1      43.378  26.676  30.389  1.00  0.00     0.031 C 
ATOM     21  C   UNL A   1      39.514  28.446  27.788  1.00  0.00     0.029 A 
ATOM     22  N   UNL A   1      39.734  29.250  29.862  1.00  0.00    -0.354 N 
ATOM     23  C   UNL A   1      43.106  27.824  32.332  1.00  0.00     0.074 A 
ATOM     24  C   UNL A   1      43.926  26.918  31.567  1.00  0.00     0.031 C 
ATOM     25  C   UNL A   1      38.642  29.459  27.918  1.00  0.00     0.029 A 
ATOM     26  C   UNL A   1      38.710  29.959  29.285  1.00  0.00     0.049 A 
ATOM     27  H   UNL A   1      40.065  29.420  30.773  1.00  0.00     0.167 HD
ATOM     28  C   UNL A   1      43.395  28.248  33.581  1.00  0.00     0.037 A 
ATOM     29  C   UNL A   1      37.900  30.876  29.842  1.00  0.00     0.037 A 
ATOM     30  C   UNL A   1      42.536  29.146  34.300  1.00  0.00     0.049 A 
ATOM     31  C   UNL A   1      38.140  31.209  31.290  1.00  0.00     0.074 A 
ATOM     32  C   UNL A   1      42.623  29.576  35.608  1.00  0.00     0.029 A 
ATOM     33  N   UNL A   1      41.413  29.749  33.744  1.00  0.00    -0.354 N 
ATOM     34  N   UNL A   1      39.117  30.814  32.078  1.00  0.00    -0.248 NA
ATOM     35  C   UNL A   1      37.163  32.089  31.937  1.00  0.00     0.031 C 
ATOM     36  C   UNL A   1      41.518  30.400  35.857  1.00  0.00     0.029 A 
ATOM     37  C   UNL A   1      40.779  30.531  34.688  1.00  0.00     0.049 A 
ATOM     38  H   UNL A   1      41.114  29.634  32.813  1.00  0.00     0.167 HD
ATOM     39  C   UNL A   1      38.885  31.413  33.306  1.00  0.00     0.074 A 
ATOM     40  C   UNL A   1      37.683  32.211  33.150  1.00  0.00     0.031 C 
ATOM     41  C   UNL A   1      39.589  31.316  34.462  1.00  0.00     0.037 A 
BRANCH  28  42
ATOM     42  C   UNL A   1      44.594  27.634  34.240  1.00  0.00     0.057 A 
ATOM     43  C   UNL A   1      45.874  28.198  34.162  1.00  0.00     0.134 A 
ATOM     44  C   UNL A   1      44.476  26.393  34.880  1.00  0.00     0.134 A 
ATOM     45  F   UNL A   1      46.067  29.362  33.523  1.00  0.00    -0.206 F 
ATOM     46  C   UNL A   1      46.998  27.533  34.663  1.00  0.00     0.040 A 
ATOM     47  C   UNL A   1      45.586  25.732  35.408  1.00  0.00     0.040 A 
ATOM     48  F   UNL A   1      43.283  25.786  34.975  1.00  0.00    -0.206 F 
ATOM     49  C   UNL A   1      46.854  26.297  35.289  1.00  0.00     0.006 A 
ENDBRANCH  28  42
BRANCH  29  50
ATOM     50  C   UNL A   1      36.767  31.460  29.077  1.00  0.00     0.057 A 
ATOM     51  C   UNL A   1      36.770  32.798  28.670  1.00  0.00     0.134 A 
ATOM     52  C   UNL A   1      35.634  30.698  28.756  1.00  0.00     0.134 A 
ATOM     53  F   UNL A   1      37.815  33.588  28.957  1.00  0.00    -0.206 F 
ATOM     54  C   UNL A   1      35.685  33.362  27.992  1.00  0.00     0.040 A 
ATOM     55  C   UNL A   1      34.555  31.238  28.056  1.00  0.00     0.040 A 
ATOM     56  F   UNL A   1      35.560  29.407  29.117  1.00  0.00    -0.206 F 
ATOM     57  C   UNL A   1      34.574  32.580  27.681  1.00  0.00     0.006 A 
ENDBRANCH  29  50
BRANCH  41  58
ATOM     58  C   UNL A   1      39.095  32.135  35.615  1.00  0.00     0.057 A 
ATOM     59  C   UNL A   1      38.213  31.614  36.567  1.00  0.00     0.134 A 
ATOM     60  C   UNL A   1      39.557  33.444  35.793  1.00  0.00     0.134 A 
ATOM     61  F   UNL A   1      37.728  30.370  36.438  1.00  0.00    -0.206 F 
ATOM     62  C   UNL A   1      37.787  32.380  37.651  1.00  0.00     0.040 A 
ATOM     63  C   UNL A   1      39.164  34.207  36.889  1.00  0.00     0.040 A 
ATOM     64  F   UNL A   1      40.415  33.990  34.917  1.00  0.00    -0.206 F 
ATOM     65  C   UNL A   1      38.271  33.677  37.819  1.00  0.00     0.006 A 
ENDBRANCH  41  58
ENDBRANCH  15  16
ENDBRANCH   8  10
ENDBRANCH   7   8
ENDBRANCH   6   7
ENDBRANCH   5   6
ENDBRANCH   4   5
ENDBRANCH   3   4
ENDBRANCH   2   3
ENDBRANCH   1   2
BRANCH   1  66
ATOM     66  C   UNL A   1      40.070  21.221  26.136  1.00  0.00     0.188 C 
BRANCH  66  67
ATOM     67  C   UNL A   1      38.556  21.315  25.831  1.00  0.00     0.188 C 
BRANCH  67  68
ATOM     68  O   UNL A   1      38.201  22.464  25.079  1.00  0.00    -0.376 OA
BRANCH  68  69
ATOM     69  C   UNL A   1      37.415  23.432  25.770  1.00  0.00     0.202 C 
BRANCH  69  70
ATOM     70  C   UNL A   1      35.896  23.192  25.878  1.00  0.00     0.261 C 
BRANCH  70  71
ATOM     71  O   UNL A   1      35.090  24.392  25.767  1.00  0.00    -0.462 OA
BRANCH  71  72
ATOM     72  C   UNL A   1      34.533  24.689  24.565  1.00  0.00     0.328 C 
ATOM     73  O   UNL A   1      35.125  24.481  23.505  1.00  0.00    -0.250 OA
BRANCH  72  74
ATOM     74  C   UNL A   1      33.088  25.318  24.699  1.00  0.00     0.192 C 
ATOM     75  C   UNL A   1      32.889  26.235  25.912  1.00  0.00     0.037 C 
ATOM     76  N   UNL A   1      31.986  24.325  24.816  1.00  0.00    -0.353 N 
ATOM     77  C   UNL A   1      31.497  26.841  26.061  1.00  0.00     0.005 C 
ATOM     78  C   UNL A   1      30.622  24.847  24.795  1.00  0.00     0.118 C 
ATOM     79  C   UNL A   1      30.425  25.756  26.009  1.00  0.00     0.022 C 
BRANCH  76  80
ATOM     80  C   UNL A   1      32.224  22.979  24.651  1.00  0.00     0.116 A 
ATOM     81  C   UNL A   1      32.173  22.473  23.337  1.00  0.00     0.033 A 
ATOM     82  C   UNL A   1      32.414  22.053  25.690  1.00  0.00     0.292 A 
ATOM     83  C   UNL A   1      32.255  21.105  23.071  1.00  0.00     0.003 A 
ATOM     84  C   UNL A   1      32.500  20.674  25.429  1.00  0.00     0.088 A 
ATOM     85  C   UNL A   1      32.407  20.203  24.120  1.00  0.00     0.007 A 
BRANCH  82  86
ATOM     86  N   UNL A   1      32.513  22.475  27.090  1.00  0.00     0.064 N 
ATOM     87  O   UNL A   1      33.390  21.928  27.776  1.00  0.00    -0.258 OA
ATOM     88  O   UNL A   1      31.733  23.336  27.526  1.00  0.00    -0.258 OA
ENDBRANCH  82  86
ENDBRANCH  76  80
ENDBRANCH  72  74
ENDBRANCH  71  72
ENDBRANCH  70  71
ENDBRANCH  69  70
ENDBRANCH  68  69
ENDBRANCH  67  68
ENDBRANCH  66  67
ENDBRANCH   1  66
TORSDOF 22
ENDMDL
MODEL 2
REMARK VINA RESULT:     -10.0      1.704      6.676
REMARK SMILES O=C(OCCOCCOCCOCCOC(=O)[C@@H]1CCCCN1c1ccccc1[N+](=O)[O-])c1ccc(-c2c3nc(c(-c4c(F)cccc4F)c4ccc([nH]4)c(-c4c(F)cccc4F)c4nc(c(-c5c(F)cccc5F)c5ccc2[nH]5)C=C4)C=C3)cc1
REMARK SMILES IDX 9 1 8 2 7 3 6 4 5 5 4 6 3 7 2 8 1 9 33 10 34 11 86 12 35 13
REMARK SMILES IDX 85 14 36 15 37 16 38 17 79 18 39 19 84 20 78 21 80 22 40 23
REMARK SMILES IDX 83 24 77 25 76 26 41 28 67 29 50 30 66 31 51 32 54 33 65 34
REMARK SMILES IDX 81 35 52 36 53 37 64 39 82 40 55 41 42 42 43 43 48 44 44 45
REMARK SMILES IDX 45 46 47 47 49 48 46 49 68 50 69 51 74 52 70 53 71 54 73 55
REMARK SMILES IDX 75 56 72 57 56 58 57 59 62 60 58 61 59 62 61 63 63 64 60 65
REMARK SMILES IDX 10 66 11 67 12 68 13 69 14 70 15 71 16 72 17 73 18 74 19 75
REMARK SMILES IDX 23 76 20 77 22 78 21 79 24 80 25 81 29 82 26 83 28 84 27 85
REMARK SMILES IDX 30 86 31 87 32 88
REMARK H PARENT 80 27 54 38
REMARK Flexibility Score: inf
ROOT
ATOM      1  O   UNL A   1      40.388  20.944  27.394  1.00  0.00    -0.377 OA
ENDROOT
BRANCH   1   2
ATOM      2  C   UNL A   1      41.803  20.857  27.446  1.00  0.00     0.188 C 
BRANCH   2   3
ATOM      3  C   UNL A   1      42.459  20.121  26.273  1.00  0.00     0.188 C 
BRANCH   3   4
ATOM      4  O   UNL A   1      43.209  20.978  25.402  1.00  0.00    -0.376 OA
BRANCH   4   5
ATOM      5  C   UNL A   1      43.739  22.190  25.952  1.00  0.00     0.202 C 
BRANCH   5   6
ATOM      6  C   UNL A   1      43.341  23.502  25.273  1.00  0.00     0.261 C 
BRANCH   6   7
ATOM      7  O   UNL A   1      42.772  24.485  26.148  1.00  0.00    -0.460 OA
BRANCH   7   8
ATOM      8  C   UNL A   1      42.331  25.735  25.868  1.00  0.00     0.338 C 
ATOM      9  O   UNL A   1      42.398  26.120  24.700  1.00  0.00    -0.246 OA
BRANCH   8  10
ATOM     10  C   UNL A   1      41.831  26.709  26.892  1.00  0.00     0.060 A 
ATOM     11  C   UNL A   1      42.214  28.045  26.988  1.00  0.00     0.016 A 
ATOM     12  C   UNL A   1      40.864  26.248  27.805  1.00  0.00     0.016 A 
ATOM     13  C   UNL A   1      41.671  28.908  27.912  1.00  0.00     0.010 A 
ATOM     14  C   UNL A   1      40.349  27.092  28.796  1.00  0.00     0.010 A 
ATOM     15  C   UNL A   1      40.783  28.419  28.854  1.00  0.00    -0.014 A 
BRANCH  15  16
ATOM     16  C   UNL A   1      40.639  29.266  30.040  1.00  0.00     0.031 A 
ATOM     17  C   UNL A   1      39.472  30.207  30.049  1.00  0.00     0.074 A 
ATOM     18  C   UNL A   1      41.337  28.973  31.149  1.00  0.00     0.049 A 
ATOM     19  N   UNL A   1      39.087  31.048  30.966  1.00  0.00    -0.248 NA
ATOM     20  C   UNL A   1      38.587  30.159  28.866  1.00  0.00     0.031 C 
ATOM     21  C   UNL A   1      42.313  27.885  31.270  1.00  0.00     0.029 A 
ATOM     22  N   UNL A   1      41.291  29.523  32.398  1.00  0.00    -0.354 N 
ATOM     23  C   UNL A   1      37.949  31.657  30.453  1.00  0.00     0.074 A 
ATOM     24  C   UNL A   1      37.686  31.080  29.158  1.00  0.00     0.031 C 
ATOM     25  C   UNL A   1      42.769  27.846  32.533  1.00  0.00     0.029 A 
ATOM     26  C   UNL A   1      42.175  28.949  33.277  1.00  0.00     0.049 A 
ATOM     27  H   UNL A   1      40.684  30.258  32.642  1.00  0.00     0.167 HD
ATOM     28  C   UNL A   1      37.209  32.634  31.020  1.00  0.00     0.037 A 
ATOM     29  C   UNL A   1      42.485  29.327  34.529  1.00  0.00     0.037 A 
ATOM     30  C   UNL A   1      37.523  33.178  32.311  1.00  0.00     0.049 A 
ATOM     31  C   UNL A   1      41.760  30.527  35.078  1.00  0.00     0.074 A 
ATOM     32  C   UNL A   1      36.949  34.244  32.971  1.00  0.00     0.029 A 
ATOM     33  N   UNL A   1      38.523  32.675  33.136  1.00  0.00    -0.354 N 
ATOM     34  N   UNL A   1      40.767  31.207  34.548  1.00  0.00    -0.248 NA
ATOM     35  C   UNL A   1      42.209  31.031  36.380  1.00  0.00     0.031 C 
ATOM     36  C   UNL A   1      37.642  34.419  34.176  1.00  0.00     0.029 A 
ATOM     37  C   UNL A   1      38.604  33.423  34.293  1.00  0.00     0.049 A 
ATOM     38  H   UNL A   1      39.091  31.899  32.926  1.00  0.00     0.167 HD
ATOM     39  C   UNL A   1      40.456  32.204  35.459  1.00  0.00     0.074 A 
ATOM     40  C   UNL A   1      41.358  32.027  36.582  1.00  0.00     0.031 C 
ATOM     41  C   UNL A   1      39.519  33.184  35.383  1.00  0.00     0.037 A 
BRANCH  28  42
ATOM     42  C   UNL A   1      36.114  33.222  30.181  1.00  0.00     0.057 A 
ATOM     43  C   UNL A   1      36.361  34.118  29.132  1.00  0.00     0.134 A 
ATOM     44  C   UNL A   1      34.775  32.962  30.503  1.00  0.00     0.134 A 
ATOM     45  F   UNL A   1      37.619  34.448  28.801  1.00  0.00    -0.206 F 
ATOM     46  C   UNL A   1      35.318  34.761  28.459  1.00  0.00     0.040 A 
ATOM     47  C   UNL A   1      33.725  33.578  29.821  1.00  0.00     0.040 A 
ATOM     48  F   UNL A   1      34.466  32.130  31.508  1.00  0.00    -0.206 F 
ATOM     49  C   UNL A   1      33.995  34.490  28.803  1.00  0.00     0.006 A 
ENDBRANCH  28  42
BRANCH  29  50
ATOM     50  C   UNL A   1      43.558  28.638  35.292  1.00  0.00     0.057 A 
ATOM     51  C   UNL A   1      44.900  29.016  35.176  1.00  0.00     0.134 A 
ATOM     52  C   UNL A   1      43.271  27.558  36.141  1.00  0.00     0.134 A 
ATOM     53  F   UNL A   1      45.247  30.030  34.369  1.00  0.00    -0.206 F 
ATOM     54  C   UNL A   1      45.915  28.338  35.855  1.00  0.00     0.040 A 
ATOM     55  C   UNL A   1      44.271  26.889  36.848  1.00  0.00     0.040 A 
ATOM     56  F   UNL A   1      42.007  27.138  36.300  1.00  0.00    -0.206 F 
ATOM     57  C   UNL A   1      45.601  27.272  36.697  1.00  0.00     0.006 A 
ENDBRANCH  29  50
BRANCH  41  58
ATOM     58  C   UNL A   1      39.402  34.089  36.570  1.00  0.00     0.057 A 
ATOM     59  C   UNL A   1      38.714  33.705  37.726  1.00  0.00     0.134 A 
ATOM     60  C   UNL A   1      40.035  35.337  36.566  1.00  0.00     0.134 A 
ATOM     61  F   UNL A   1      38.077  32.525  37.780  1.00  0.00    -0.206 F 
ATOM     62  C   UNL A   1      38.640  34.547  38.834  1.00  0.00     0.040 A 
ATOM     63  C   UNL A   1      39.995  36.172  37.679  1.00  0.00     0.040 A 
ATOM     64  F   UNL A   1      40.720  35.751  35.488  1.00  0.00    -0.206 F 
ATOM     65  C   UNL A   1      39.290  35.780  38.815  1.00  0.00     0.006 A 
ENDBRANCH  41  58
ENDBRANCH  15  16
ENDBRANCH   8  10
ENDBRANCH   7   8
ENDBRANCH   6   7
ENDBRANCH   5   6
ENDBRANCH   4   5
ENDBRANCH   3   4
ENDBRANCH   2   3
ENDBRANCH   1   2
BRANCH   1  66
ATOM     66  C   UNL A   1      39.833  20.862  26.097  1.00  0.00     0.188 C 
BRANCH  66  67
ATOM     67  C   UNL A   1      38.577  21.701  25.762  1.00  0.00     0.188 C 
BRANCH  67  68
ATOM     68  O   UNL A   1      37.626  21.004  24.974  1.00  0.00    -0.376 OA
BRANCH  68  69
ATOM     69  C   UNL A   1      36.292  21.506  25.032  1.00  0.00     0.202 C 
BRANCH  69  70
ATOM     70  C   UNL A   1      35.835  22.206  26.328  1.00  0.00     0.261 C 
BRANCH  70  71
ATOM     71  O   UNL A   1      35.246  23.515  26.124  1.00  0.00    -0.462 OA
BRANCH  71  72
ATOM     72  C   UNL A   1      34.798  23.838  24.883  1.00  0.00     0.328 C 
ATOM     73  O   UNL A   1      35.552  24.280  24.016  1.00  0.00    -0.250 OA
BRANCH  72  74
ATOM     74  C   UNL A   1      33.246  23.589  24.710  1.00  0.00     0.192 C 
ATOM     75  C   UNL A   1      32.854  22.759  23.481  1.00  0.00     0.037 C 
ATOM     76  N   UNL A   1      32.428  24.826  24.584  1.00  0.00    -0.353 N 
ATOM     77  C   UNL A   1      31.359  22.520  23.295  1.00  0.00     0.005 C 
ATOM     78  C   UNL A   1      30.977  24.659  24.569  1.00  0.00     0.118 C 
ATOM     79  C   UNL A   1      30.589  23.837  23.339  1.00  0.00     0.022 C 
BRANCH  76  80
ATOM     80  C   UNL A   1      32.989  26.069  24.772  1.00  0.00     0.116 A 
ATOM     81  C   UNL A   1      33.257  26.460  26.099  1.00  0.00     0.033 A 
ATOM     82  C   UNL A   1      33.224  27.017  23.761  1.00  0.00     0.292 A 
ATOM     83  C   UNL A   1      33.688  27.751  26.413  1.00  0.00     0.003 A 
ATOM     84  C   UNL A   1      33.661  28.317  24.070  1.00  0.00     0.088 A 
ATOM     85  C   UNL A   1      33.879  28.683  25.398  1.00  0.00     0.007 A 
BRANCH  82  86
ATOM     86  N   UNL A   1      33.008  26.704  22.346  1.00  0.00     0.064 N 
ATOM     87  O   UNL A   1      31.907  27.018  21.867  1.00  0.00    -0.258 OA
ATOM     88  O   UNL A   1      33.908  26.147  21.699  1.00  0.00    -0.258 OA
ENDBRANCH  82  86
ENDBRANCH  76  80
ENDBRANCH  72  74
ENDBRANCH  71  72
ENDBRANCH  70  71
ENDBRANCH  69  70
ENDBRANCH  68  69
ENDBRANCH  67  68
ENDBRANCH  66  67
ENDBRANCH   1  66
TORSDOF 22
ENDMDL
MODEL 3
REMARK VINA RESULT:     -10.0      1.167      6.185
REMARK SMILES O=C(OCCOCCOCCOCCOC(=O)[C@@H]1CCCCN1c1ccccc1[N+](=O)[O-])c1ccc(-c2c3nc(c(-c4c(F)cccc4F)c4ccc([nH]4)c(-c4c(F)cccc4F)c4nc(c(-c5c(F)cccc5F)c5ccc2[nH]5)C=C4)C=C3)cc1
REMARK SMILES IDX 9 1 8 2 7 3 6 4 5 5 4 6 3 7 2 8 1 9 33 10 34 11 86 12 35 13
REMARK SMILES IDX 85 14 36 15 37 16 38 17 79 18 39 19 84 20 78 21 80 22 40 23
REMARK SMILES IDX 83 24 77 25 76 26 41 28 67 29 50 30 66 31 51 32 54 33 65 34
REMARK SMILES IDX 81 35 52 36 53 37 64 39 82 40 55 41 42 42 43 43 48 44 44 45
REMARK SMILES IDX 45 46 47 47 49 48 46 49 68 50 69 51 74 52 70 53 71 54 73 55
REMARK SMILES IDX 75 56 72 57 56 58 57 59 62 60 58 61 59 62 61 63 63 64 60 65
REMARK SMILES IDX 10 66 11 67 12 68 13 69 14 70 15 71 16 72 17 73 18 74 19 75
REMARK SMILES IDX 23 76 20 77 22 78 21 79 24 80 25 81 29 82 26 83 28 84 27 85
REMARK SMILES IDX 30 86 31 87 32 88
REMARK H PARENT 80 27 54 38
REMARK Flexibility Score: inf
ROOT
ATOM      1  O   UNL A   1      41.565  20.229  27.505  1.00  0.00    -0.377 OA
ENDROOT
BRANCH   1   2
ATOM      2  C   UNL A   1      41.579  19.565  26.252  1.00  0.00     0.188 C 
BRANCH   2   3
ATOM      3  C   UNL A   1      42.963  19.385  25.619  1.00  0.00     0.188 C 
BRANCH   3   4
ATOM      4  O   UNL A   1      43.457  20.565  24.971  1.00  0.00    -0.376 OA
BRANCH   4   5
ATOM      5  C   UNL A   1      44.222  21.488  25.755  1.00  0.00     0.202 C 
BRANCH   5   6
ATOM      6  C   UNL A   1      44.213  22.955  25.320  1.00  0.00     0.261 C 
BRANCH   6   7
ATOM      7  O   UNL A   1      42.939  23.603  25.412  1.00  0.00    -0.460 OA
BRANCH   7   8
ATOM      8  C   UNL A   1      42.650  24.921  25.538  1.00  0.00     0.338 C 
ATOM      9  O   UNL A   1      42.480  25.572  24.507  1.00  0.00    -0.246 OA
BRANCH   8  10
ATOM     10  C   UNL A   1      42.591  25.658  26.842  1.00  0.00     0.060 A 
ATOM     11  C   UNL A   1      41.773  25.325  27.919  1.00  0.00     0.016 A 
ATOM     12  C   UNL A   1      43.462  26.750  27.008  1.00  0.00     0.016 A 
ATOM     13  C   UNL A   1      41.810  26.002  29.116  1.00  0.00     0.010 A 
ATOM     14  C   UNL A   1      43.467  27.495  28.193  1.00  0.00     0.010 A 
ATOM     15  C   UNL A   1      42.613  27.124  29.235  1.00  0.00    -0.014 A 
BRANCH  15  16
ATOM     16  C   UNL A   1      42.235  28.019  30.331  1.00  0.00     0.031 A 
ATOM     17  C   UNL A   1      40.990  28.828  30.130  1.00  0.00     0.074 A 
ATOM     18  C   UNL A   1      42.810  27.867  31.535  1.00  0.00     0.049 A 
ATOM     19  N   UNL A   1      40.409  29.675  30.931  1.00  0.00    -0.248 NA
ATOM     20  C   UNL A   1      40.273  28.618  28.855  1.00  0.00     0.031 C 
ATOM     21  C   UNL A   1      43.864  26.897  31.851  1.00  0.00     0.029 A 
ATOM     22  N   UNL A   1      42.549  28.480  32.726  1.00  0.00    -0.354 N 
ATOM     23  C   UNL A   1      39.292  30.128  30.241  1.00  0.00     0.074 A 
ATOM     24  C   UNL A   1      39.256  29.452  28.968  1.00  0.00     0.031 C 
ATOM     25  C   UNL A   1      44.155  26.981  33.160  1.00  0.00     0.029 A 
ATOM     26  C   UNL A   1      43.365  28.056  33.745  1.00  0.00     0.049 A 
ATOM     27  H   UNL A   1      41.846  29.159  32.841  1.00  0.00     0.167 HD
ATOM     28  C   UNL A   1      38.392  31.052  30.642  1.00  0.00     0.037 A 
ATOM     29  C   UNL A   1      43.472  28.538  34.996  1.00  0.00     0.037 A 
ATOM     30  C   UNL A   1      38.482  31.701  31.920  1.00  0.00     0.049 A 
ATOM     31  C   UNL A   1      42.569  29.683  35.366  1.00  0.00     0.074 A 
ATOM     32  C   UNL A   1      37.726  32.737  32.428  1.00  0.00     0.029 A 
ATOM     33  N   UNL A   1      39.413  31.357  32.894  1.00  0.00    -0.354 N 
ATOM     34  N   UNL A   1      41.590  30.221  34.671  1.00  0.00    -0.248 NA
ATOM     35  C   UNL A   1      42.794  30.307  36.673  1.00  0.00     0.031 C 
ATOM     36  C   UNL A   1      38.237  33.054  33.692  1.00  0.00     0.029 A 
ATOM     37  C   UNL A   1      39.270  32.175  33.996  1.00  0.00     0.049 A 
ATOM     38  H   UNL A   1      40.077  30.634  32.811  1.00  0.00     0.167 HD
ATOM     39  C   UNL A   1      41.067  31.231  35.464  1.00  0.00     0.074 A 
ATOM     40  C   UNL A   1      41.830  31.217  36.699  1.00  0.00     0.031 C 
ATOM     41  C   UNL A   1      40.056  32.099  35.204  1.00  0.00     0.037 A 
BRANCH  28  42
ATOM     42  C   UNL A   1      37.362  31.471  29.636  1.00  0.00     0.057 A 
ATOM     43  C   UNL A   1      37.443  32.675  28.925  1.00  0.00     0.134 A 
ATOM     44  C   UNL A   1      36.211  30.693  29.455  1.00  0.00     0.134 A 
ATOM     45  F   UNL A   1      38.496  33.491  29.085  1.00  0.00    -0.206 F 
ATOM     46  C   UNL A   1      36.400  33.108  28.100  1.00  0.00     0.040 A 
ATOM     47  C   UNL A   1      35.174  31.102  28.614  1.00  0.00     0.040 A 
ATOM     48  F   UNL A   1      36.058  29.537  30.120  1.00  0.00    -0.206 F 
ATOM     49  C   UNL A   1      35.262  32.319  27.943  1.00  0.00     0.006 A 
ENDBRANCH  28  42
BRANCH  29  50
ATOM     50  C   UNL A   1      44.501  28.012  35.931  1.00  0.00     0.057 A 
ATOM     51  C   UNL A   1      45.816  28.489  35.919  1.00  0.00     0.134 A 
ATOM     52  C   UNL A   1      44.200  26.994  36.848  1.00  0.00     0.134 A 
ATOM     53  F   UNL A   1      46.176  29.451  35.056  1.00  0.00    -0.206 F 
ATOM     54  C   UNL A   1      46.796  27.962  36.765  1.00  0.00     0.040 A 
ATOM     55  C   UNL A   1      45.161  26.477  37.719  1.00  0.00     0.040 A 
ATOM     56  F   UNL A   1      42.960  26.485  36.916  1.00  0.00    -0.206 F 
ATOM     57  C   UNL A   1      46.469  26.955  37.670  1.00  0.00     0.006 A 
ENDBRANCH  29  50
BRANCH  41  58
ATOM     58  C   UNL A   1      39.698  33.054  36.301  1.00  0.00     0.057 A 
ATOM     59  C   UNL A   1      40.284  34.320  36.397  1.00  0.00     0.134 A 
ATOM     60  C   UNL A   1      38.715  32.711  37.236  1.00  0.00     0.134 A 
ATOM     61  F   UNL A   1      41.242  34.695  35.535  1.00  0.00    -0.206 F 
ATOM     62  C   UNL A   1      39.918  35.210  37.406  1.00  0.00     0.040 A 
ATOM     63  C   UNL A   1      38.318  33.604  38.228  1.00  0.00     0.040 A 
ATOM     64  F   UNL A   1      38.110  31.515  37.183  1.00  0.00    -0.206 F 
ATOM     65  C   UNL A   1      38.926  34.855  38.319  1.00  0.00     0.006 A 
ENDBRANCH  41  58
ENDBRANCH  15  16
ENDBRANCH   8  10
ENDBRANCH   7   8
ENDBRANCH   6   7
ENDBRANCH   5   6
ENDBRANCH   4   5
ENDBRANCH   3   4
ENDBRANCH   2   3
ENDBRANCH   1   2
BRANCH   1  66
ATOM     66  C   UNL A   1      40.764  21.392  27.554  1.00  0.00     0.188 C 
BRANCH  66  67
ATOM     67  C   UNL A   1      40.071  21.883  26.261  1.00  0.00     0.188 C 
BRANCH  67  68
ATOM     68  O   UNL A   1      38.979  22.755  26.501  1.00  0.00    -0.376 OA
BRANCH  68  69
ATOM     69  C   UNL A   1      37.803  22.495  25.738  1.00  0.00     0.202 C 
BRANCH  69  70
ATOM     70  C   UNL A   1      37.184  23.658  24.937  1.00  0.00     0.261 C 
BRANCH  70  71
ATOM     71  O   UNL A   1      35.763  23.846  25.156  1.00  0.00    -0.462 OA
BRANCH  71  72
ATOM     72  C   UNL A   1      34.958  24.009  24.074  1.00  0.00     0.328 C 
ATOM     73  O   UNL A   1      35.286  23.615  22.955  1.00  0.00    -0.250 OA
BRANCH  72  74
ATOM     74  C   UNL A   1      33.604  24.747  24.426  1.00  0.00     0.192 C 
ATOM     75  C   UNL A   1      33.692  25.752  25.582  1.00  0.00     0.037 C 
ATOM     76  N   UNL A   1      32.488  23.844  24.820  1.00  0.00    -0.353 N 
ATOM     77  C   UNL A   1      32.391  26.464  25.939  1.00  0.00     0.005 C 
ATOM     78  C   UNL A   1      31.178  24.460  25.014  1.00  0.00     0.118 C 
ATOM     79  C   UNL A   1      31.268  25.456  26.170  1.00  0.00     0.022 C 
BRANCH  76  80
ATOM     80  C   UNL A   1      32.612  22.477  24.717  1.00  0.00     0.116 A 
ATOM     81  C   UNL A   1      32.322  21.898  23.465  1.00  0.00     0.033 A 
ATOM     82  C   UNL A   1      32.904  21.604  25.779  1.00  0.00     0.292 A 
ATOM     83  C   UNL A   1      32.274  20.513  23.289  1.00  0.00     0.003 A 
ATOM     84  C   UNL A   1      32.861  20.209  25.606  1.00  0.00     0.088 A 
ATOM     85  C   UNL A   1      32.533  19.669  24.363  1.00  0.00     0.007 A 
BRANCH  82  86
ATOM     86  N   UNL A   1      33.248  22.102  27.113  1.00  0.00     0.064 N 
ATOM     87  O   UNL A   1      34.434  21.987  27.462  1.00  0.00    -0.258 OA
ATOM     88  O   UNL A   1      32.365  22.601  27.826  1.00  0.00    -0.258 OA
ENDBRANCH  82  86
ENDBRANCH  76  80
ENDBRANCH  72  74
ENDBRANCH  71  72
ENDBRANCH  70  71
ENDBRANCH  69  70
ENDBRANCH  68  69
ENDBRANCH  67  68
ENDBRANCH  66  67
ENDBRANCH   1  66
TORSDOF 22
ENDMDL
