MODEL 1
REMARK VINA RESULT:     -10.4      0.000      0.000
REMARK SMILES CC[NH+]1CCC2(CC1)OC[C@H](C(=O)OCCOCCOCCOCCOC(=O)c1ccc(-c3c4nc(c(-c5c(F)cccc5F)c5ccc([nH]5)c(-c5c(F)cccc5F)c5nc(c(-c6c(F)cccc6F)c6ccc3[nH]6)C=C5)C=C4)cc1)N2C(=O)c1ccc(F)cc1
REMARK SMILES IDX 20 1 19 2 18 3 17 4 16 5 15 6 14 7 12 8 13 9 11 10 3 11 4 12
REMARK SMILES IDX 8 13 5 15 7 16 6 17 9 18 83 19 10 20 2 21 1 22 84 23 85 24
REMARK SMILES IDX 86 25 87 26 92 27 88 28 91 29 89 30 90 31 21 32 22 33 23 34
REMARK SMILES IDX 24 35 25 36 26 37 27 38 28 39 29 40 30 41 82 42 31 43 81 44
REMARK SMILES IDX 32 45 33 46 34 47 75 48 35 49 80 50 74 51 76 52 36 53 79 54
REMARK SMILES IDX 73 55 72 56 37 58 63 59 46 60 62 61 47 62 50 63 61 64 77 65
REMARK SMILES IDX 48 66 49 67 60 69 78 70 51 71 38 72 39 73 44 74 40 75 41 76
REMARK SMILES IDX 43 77 45 78 42 79 64 80 65 81 70 82 66 83 67 84 69 85 71 86
REMARK SMILES IDX 68 87 52 88 53 89 58 90 54 91 55 92 57 93 59 94 56 95
REMARK H PARENT 3 14 76 57 50 68
REMARK Flexibility Score: inf
ROOT
ATOM      1  O   UNL A   1      41.519  21.690  25.904  1.00  0.00    -0.377 OA
ENDROOT
BRANCH   1   2
ATOM      2  C   UNL A   1      40.199  22.116  26.176  1.00  0.00     0.188 C 
BRANCH   2   3
ATOM      3  C   UNL A   1      38.913  21.282  25.963  1.00  0.00     0.188 C 
BRANCH   3   4
ATOM      4  O   UNL A   1      38.010  21.838  25.039  1.00  0.00    -0.376 OA
BRANCH   4   5
ATOM      5  C   UNL A   1      36.728  22.217  25.493  1.00  0.00     0.202 C 
BRANCH   5   6
ATOM      6  C   UNL A   1      35.438  21.708  24.813  1.00  0.00     0.261 C 
BRANCH   6   7
ATOM      7  O   UNL A   1      34.197  21.864  25.543  1.00  0.00    -0.462 OA
BRANCH   7   8
ATOM      8  C   UNL A   1      33.111  22.366  24.909  1.00  0.00     0.331 C 
ATOM      9  O   UNL A   1      32.042  21.760  24.884  1.00  0.00    -0.250 OA
BRANCH   8  10
ATOM     10  C   UNL A   1      33.354  23.674  24.063  1.00  0.00     0.224 C 
ATOM     11  N   UNL A   1      29.793  27.626  23.729  1.00  0.00    -0.335 N 
ATOM     12  C   UNL A   1      29.899  26.501  24.626  1.00  0.00     0.267 C 
ATOM     13  C   UNL A   1      30.931  27.774  22.817  1.00  0.00     0.267 C 
ATOM     14  H   UNL A   1      29.862  28.413  24.372  1.00  0.00     0.348 HD
ATOM     15  C   UNL A   1      30.276  25.220  23.933  1.00  0.00     0.120 C 
ATOM     16  C   UNL A   1      31.715  26.510  22.387  1.00  0.00     0.120 C 
ATOM     17  C   UNL A   1      31.677  25.296  23.337  1.00  0.00     0.155 C 
ATOM     18  O   UNL A   1      31.693  24.124  22.464  1.00  0.00    -0.352 OA
ATOM     19  N   UNL A   1      32.821  25.048  24.270  1.00  0.00    -0.293 N 
ATOM     20  C   UNL A   1      32.912  23.401  22.645  1.00  0.00     0.200 C 
BRANCH  11  21
ATOM     21  C   UNL A   1      28.486  27.877  23.122  1.00  0.00     0.258 C 
ATOM     22  C   UNL A   1      28.304  29.258  22.484  1.00  0.00     0.071 C 
ENDBRANCH  11  21
BRANCH  19  23
ATOM     23  C   UNL A   1      33.584  25.900  25.079  1.00  0.00     0.256 C 
ATOM     24  O   UNL A   1      34.752  25.637  25.371  1.00  0.00    -0.269 OA
BRANCH  23  25
ATOM     25  C   UNL A   1      33.087  27.197  25.594  1.00  0.00     0.040 A 
ATOM     26  C   UNL A   1      33.532  28.401  25.028  1.00  0.00     0.017 A 
ATOM     27  C   UNL A   1      32.295  27.238  26.750  1.00  0.00     0.017 A 
ATOM     28  C   UNL A   1      33.042  29.625  25.512  1.00  0.00     0.040 A 
ATOM     29  C   UNL A   1      31.771  28.455  27.203  1.00  0.00     0.040 A 
ATOM     30  C   UNL A   1      32.132  29.635  26.565  1.00  0.00     0.123 A 
ATOM     31  F   UNL A   1      31.598  30.795  26.969  1.00  0.00    -0.207 F 
ENDBRANCH  23  25
ENDBRANCH  19  23
ENDBRANCH   8  10
ENDBRANCH   7   8
ENDBRANCH   6   7
ENDBRANCH   5   6
ENDBRANCH   4   5
ENDBRANCH   3   4
ENDBRANCH   2   3
ENDBRANCH   1   2
BRANCH   1  32
ATOM     32  C   UNL A   1      41.830  20.332  26.098  1.00  0.00     0.188 C 
BRANCH  32  33
ATOM     33  C   UNL A   1      43.148  19.880  25.454  1.00  0.00     0.188 C 
BRANCH  33  34
ATOM     34  O   UNL A   1      44.264  20.699  25.733  1.00  0.00    -0.376 OA
BRANCH  34  35
ATOM     35  C   UNL A   1      44.816  21.576  24.765  1.00  0.00     0.202 C 
BRANCH  35  36
ATOM     36  C   UNL A   1      44.190  22.883  24.232  1.00  0.00     0.261 C 
BRANCH  36  37
ATOM     37  O   UNL A   1      43.623  23.797  25.166  1.00  0.00    -0.460 OA
BRANCH  37  38
ATOM     38  C   UNL A   1      44.263  24.970  25.324  1.00  0.00     0.338 C 
ATOM     39  O   UNL A   1      45.154  25.432  24.624  1.00  0.00    -0.246 OA
BRANCH  38  40
ATOM     40  C   UNL A   1      43.548  25.726  26.363  1.00  0.00     0.060 A 
ATOM     41  C   UNL A   1      43.924  27.060  26.570  1.00  0.00     0.016 A 
ATOM     42  C   UNL A   1      42.503  25.154  27.093  1.00  0.00     0.016 A 
ATOM     43  C   UNL A   1      43.251  27.834  27.504  1.00  0.00     0.010 A 
ATOM     44  C   UNL A   1      41.868  25.915  28.078  1.00  0.00     0.010 A 
ATOM     45  C   UNL A   1      42.261  27.247  28.298  1.00  0.00    -0.014 A 
BRANCH  45  46
ATOM     46  C   UNL A   1      41.843  27.968  29.516  1.00  0.00     0.031 A 
ATOM     47  C   UNL A   1      40.616  28.827  29.422  1.00  0.00     0.074 A 
ATOM     48  C   UNL A   1      42.484  27.791  30.681  1.00  0.00     0.049 A 
ATOM     49  N   UNL A   1      40.041  29.556  30.341  1.00  0.00    -0.248 NA
ATOM     50  C   UNL A   1      39.938  28.857  28.114  1.00  0.00     0.031 C 
ATOM     51  C   UNL A   1      43.639  26.918  30.889  1.00  0.00     0.029 A 
ATOM     52  N   UNL A   1      42.246  28.339  31.914  1.00  0.00    -0.354 N 
ATOM     53  C   UNL A   1      38.941  30.134  29.720  1.00  0.00     0.074 A 
ATOM     54  C   UNL A   1      38.939  29.693  28.345  1.00  0.00     0.031 C 
ATOM     55  C   UNL A   1      44.021  27.005  32.175  1.00  0.00     0.029 A 
ATOM     56  C   UNL A   1      43.159  27.962  32.866  1.00  0.00     0.049 A 
ATOM     57  H   UNL A   1      41.492  28.945  32.099  1.00  0.00     0.167 HD
ATOM     58  C   UNL A   1      38.014  30.960  30.256  1.00  0.00     0.037 A 
ATOM     59  C   UNL A   1      43.293  28.375  34.141  1.00  0.00     0.037 A 
ATOM     60  C   UNL A   1      38.038  31.400  31.626  1.00  0.00     0.049 A 
ATOM     61  C   UNL A   1      42.305  29.373  34.688  1.00  0.00     0.074 A 
ATOM     62  C   UNL A   1      37.153  32.239  32.276  1.00  0.00     0.029 A 
ATOM     63  N   UNL A   1      39.011  31.041  32.548  1.00  0.00    -0.354 N 
ATOM     64  N   UNL A   1      41.260  29.911  34.102  1.00  0.00    -0.248 NA
ATOM     65  C   UNL A   1      42.511  29.822  36.071  1.00  0.00     0.031 C 
ATOM     66  C   UNL A   1      37.625  32.437  33.578  1.00  0.00     0.029 A 
ATOM     67  C   UNL A   1      38.765  31.668  33.758  1.00  0.00     0.049 A 
ATOM     68  H   UNL A   1      39.763  30.432  32.369  1.00  0.00     0.167 HD
ATOM     69  C   UNL A   1      40.670  30.735  35.053  1.00  0.00     0.074 A 
ATOM     70  C   UNL A   1      41.465  30.614  36.258  1.00  0.00     0.031 C 
ATOM     71  C   UNL A   1      39.569  31.521  34.945  1.00  0.00     0.037 A 
BRANCH  58  72
ATOM     72  C   UNL A   1      36.935  31.473  29.350  1.00  0.00     0.057 A 
ATOM     73  C   UNL A   1      36.960  32.769  28.819  1.00  0.00     0.134 A 
ATOM     74  C   UNL A   1      35.859  30.650  28.992  1.00  0.00     0.134 A 
ATOM     75  F   UNL A   1      37.948  33.617  29.141  1.00  0.00    -0.206 F 
ATOM     76  C   UNL A   1      35.945  33.235  27.980  1.00  0.00     0.040 A 
ATOM     77  C   UNL A   1      34.855  31.093  28.131  1.00  0.00     0.040 A 
ATOM     78  F   UNL A   1      35.770  29.399  29.469  1.00  0.00    -0.206 F 
ATOM     79  C   UNL A   1      34.893  32.391  27.627  1.00  0.00     0.006 A 
ENDBRANCH  58  72
BRANCH  59  80
ATOM     80  C   UNL A   1      44.416  27.878  34.976  1.00  0.00     0.057 A 
ATOM     81  C   UNL A   1      45.670  28.502  34.965  1.00  0.00     0.134 A 
ATOM     82  C   UNL A   1      44.273  26.743  35.786  1.00  0.00     0.134 A 
ATOM     83  F   UNL A   1      45.879  29.580  34.194  1.00  0.00    -0.206 F 
ATOM     84  C   UNL A   1      46.742  28.005  35.707  1.00  0.00     0.040 A 
ATOM     85  C   UNL A   1      45.328  26.253  36.556  1.00  0.00     0.040 A 
ATOM     86  F   UNL A   1      43.100  26.096  35.843  1.00  0.00    -0.206 F 
ATOM     87  C   UNL A   1      46.571  26.879  36.510  1.00  0.00     0.006 A 
ENDBRANCH  59  80
BRANCH  71  88
ATOM     88  C   UNL A   1      39.137  32.274  36.169  1.00  0.00     0.057 A 
ATOM     89  C   UNL A   1      39.570  33.580  36.430  1.00  0.00     0.134 A 
ATOM     90  C   UNL A   1      38.230  31.701  37.071  1.00  0.00     0.134 A 
ATOM     91  F   UNL A   1      40.445  34.184  35.612  1.00  0.00    -0.206 F 
ATOM     92  C   UNL A   1      39.137  34.279  37.559  1.00  0.00     0.040 A 
ATOM     93  C   UNL A   1      37.765  32.401  38.184  1.00  0.00     0.040 A 
ATOM     94  F   UNL A   1      37.765  30.458  36.872  1.00  0.00    -0.206 F 
ATOM     95  C   UNL A   1      38.225  33.692  38.433  1.00  0.00     0.006 A 
ENDBRANCH  71  88
ENDBRANCH  45  46
ENDBRANCH  38  40
ENDBRANCH  37  38
ENDBRANCH  36  37
ENDBRANCH  35  36
ENDBRANCH  34  35
ENDBRANCH  33  34
ENDBRANCH  32  33
ENDBRANCH   1  32
TORSDOF 23
ENDMDL
MODEL 2
REMARK VINA RESULT:     -10.4      1.962      6.711
REMARK SMILES CC[NH+]1CCC2(CC1)OC[C@H](C(=O)OCCOCCOCCOCCOC(=O)c1ccc(-c3c4nc(c(-c5c(F)cccc5F)c5ccc([nH]5)c(-c5c(F)cccc5F)c5nc(c(-c6c(F)cccc6F)c6ccc3[nH]6)C=C5)C=C4)cc1)N2C(=O)c1ccc(F)cc1
REMARK SMILES IDX 20 1 19 2 18 3 17 4 16 5 15 6 14 7 12 8 13 9 11 10 3 11 4 12
REMARK SMILES IDX 8 13 5 15 7 16 6 17 9 18 83 19 10 20 2 21 1 22 84 23 85 24
REMARK SMILES IDX 86 25 87 26 92 27 88 28 91 29 89 30 90 31 21 32 22 33 23 34
REMARK SMILES IDX 24 35 25 36 26 37 27 38 28 39 29 40 30 41 82 42 31 43 81 44
REMARK SMILES IDX 32 45 33 46 34 47 75 48 35 49 80 50 74 51 76 52 36 53 79 54
REMARK SMILES IDX 73 55 72 56 37 58 63 59 46 60 62 61 47 62 50 63 61 64 77 65
REMARK SMILES IDX 48 66 49 67 60 69 78 70 51 71 38 72 39 73 44 74 40 75 41 76
REMARK SMILES IDX 43 77 45 78 42 79 64 80 65 81 70 82 66 83 67 84 69 85 71 86
REMARK SMILES IDX 68 87 52 88 53 89 58 90 54 91 55 92 57 93 59 94 56 95
REMARK H PARENT 3 14 76 57 50 68
REMARK Flexibility Score: inf
ROOT
ATOM      1  O   UNL A   1      40.191  20.775  26.553  1.00  0.00    -0.377 OA
ENDROOT
BRANCH   1   2
ATOM      2  C   UNL A   1      39.306  21.795  26.136  1.00  0.00     0.188 C 
BRANCH   2   3
ATOM      3  C   UNL A   1      39.039  23.126  26.880  1.00  0.00     0.188 C 
BRANCH   3   4
ATOM      4  O   UNL A   1      38.094  23.959  26.254  1.00  0.00    -0.376 OA
BRANCH   4   5
ATOM      5  C   UNL A   1      36.951  23.366  25.675  1.00  0.00     0.202 C 
BRANCH   5   6
ATOM      6  C   UNL A   1      35.542  23.544  26.284  1.00  0.00     0.261 C 
BRANCH   6   7
ATOM      7  O   UNL A   1      34.924  22.376  26.877  1.00  0.00    -0.462 OA
BRANCH   7   8
ATOM      8  C   UNL A   1      33.627  22.434  27.262  1.00  0.00     0.331 C 
ATOM      9  O   UNL A   1      33.292  22.246  28.429  1.00  0.00    -0.250 OA
BRANCH   8  10
ATOM     10  C   UNL A   1      32.572  22.578  26.099  1.00  0.00     0.224 C 
ATOM     11  N   UNL A   1      32.660  26.569  22.568  1.00  0.00    -0.335 N 
ATOM     12  C   UNL A   1      33.644  26.101  23.513  1.00  0.00     0.267 C 
ATOM     13  C   UNL A   1      31.464  25.728  22.481  1.00  0.00     0.267 C 
ATOM     14  H   UNL A   1      33.144  26.438  21.680  1.00  0.00     0.348 HD
ATOM     15  C   UNL A   1      33.063  25.755  24.856  1.00  0.00     0.120 C 
ATOM     16  C   UNL A   1      31.019  24.929  23.732  1.00  0.00     0.120 C 
ATOM     17  C   UNL A   1      32.105  24.572  24.767  1.00  0.00     0.155 C 
ATOM     18  O   UNL A   1      31.435  24.634  26.063  1.00  0.00    -0.352 OA
ATOM     19  N   UNL A   1      32.720  23.208  24.759  1.00  0.00    -0.293 N 
ATOM     20  C   UNL A   1      31.379  23.329  26.643  1.00  0.00     0.200 C 
BRANCH  11  21
ATOM     21  C   UNL A   1      32.401  28.009  22.531  1.00  0.00     0.258 C 
ATOM     22  C   UNL A   1      33.621  28.909  22.752  1.00  0.00     0.071 C 
ENDBRANCH  11  21
BRANCH  19  23
ATOM     23  C   UNL A   1      33.164  22.376  23.723  1.00  0.00     0.256 C 
ATOM     24  O   UNL A   1      33.516  22.833  22.634  1.00  0.00    -0.269 OA
BRANCH  23  25
ATOM     25  C   UNL A   1      33.306  20.907  23.861  1.00  0.00     0.040 A 
ATOM     26  C   UNL A   1      32.275  20.053  23.441  1.00  0.00     0.017 A 
ATOM     27  C   UNL A   1      34.398  20.368  24.554  1.00  0.00     0.017 A 
ATOM     28  C   UNL A   1      32.426  18.662  23.560  1.00  0.00     0.040 A 
ATOM     29  C   UNL A   1      34.569  18.981  24.632  1.00  0.00     0.040 A 
ATOM     30  C   UNL A   1      33.592  18.141  24.113  1.00  0.00     0.123 A 
ATOM     31  F   UNL A   1      33.773  16.814  24.147  1.00  0.00    -0.207 F 
ENDBRANCH  23  25
ENDBRANCH  19  23
ENDBRANCH   8  10
ENDBRANCH   7   8
ENDBRANCH   6   7
ENDBRANCH   5   6
ENDBRANCH   4   5
ENDBRANCH   3   4
ENDBRANCH   2   3
ENDBRANCH   1   2
BRANCH   1  32
ATOM     32  C   UNL A   1      41.426  21.155  27.108  1.00  0.00     0.188 C 
BRANCH  32  33
ATOM     33  C   UNL A   1      42.611  20.269  26.697  1.00  0.00     0.188 C 
BRANCH  33  34
ATOM     34  O   UNL A   1      43.006  20.384  25.346  1.00  0.00    -0.376 OA
BRANCH  34  35
ATOM     35  C   UNL A   1      44.268  20.912  24.972  1.00  0.00     0.202 C 
BRANCH  35  36
ATOM     36  C   UNL A   1      44.560  22.330  24.436  1.00  0.00     0.261 C 
BRANCH  36  37
ATOM     37  O   UNL A   1      43.788  23.419  24.935  1.00  0.00    -0.460 OA
BRANCH  37  38
ATOM     38  C   UNL A   1      44.454  24.558  25.196  1.00  0.00     0.338 C 
ATOM     39  O   UNL A   1      45.451  24.985  24.628  1.00  0.00    -0.246 OA
BRANCH  38  40
ATOM     40  C   UNL A   1      43.643  25.335  26.146  1.00  0.00     0.060 A 
ATOM     41  C   UNL A   1      43.885  26.713  26.230  1.00  0.00     0.016 A 
ATOM     42  C   UNL A   1      42.638  24.735  26.908  1.00  0.00     0.016 A 
ATOM     43  C   UNL A   1      43.116  27.502  27.073  1.00  0.00     0.010 A 
ATOM     44  C   UNL A   1      41.907  25.519  27.804  1.00  0.00     0.010 A 
ATOM     45  C   UNL A   1      42.165  26.898  27.902  1.00  0.00    -0.014 A 
BRANCH  45  46
ATOM     46  C   UNL A   1      41.648  27.686  29.037  1.00  0.00     0.031 A 
ATOM     47  C   UNL A   1      42.386  27.585  30.340  1.00  0.00     0.074 A 
ATOM     48  C   UNL A   1      40.615  28.528  28.884  1.00  0.00     0.049 A 
ATOM     49  N   UNL A   1      42.142  28.172  31.481  1.00  0.00    -0.248 NA
ATOM     50  C   UNL A   1      43.570  26.706  30.354  1.00  0.00     0.031 C 
ATOM     51  C   UNL A   1      39.882  28.754  27.639  1.00  0.00     0.029 A 
ATOM     52  N   UNL A   1      40.006  29.356  29.791  1.00  0.00    -0.354 N 
ATOM     53  C   UNL A   1      43.135  27.731  32.346  1.00  0.00     0.074 A 
ATOM     54  C   UNL A   1      43.972  26.810  31.610  1.00  0.00     0.031 C 
ATOM     55  C   UNL A   1      38.907  29.651  27.867  1.00  0.00     0.029 A 
ATOM     56  C   UNL A   1      38.928  30.032  29.278  1.00  0.00     0.049 A 
ATOM     57  H   UNL A   1      40.312  29.455  30.722  1.00  0.00     0.167 HD
ATOM     58  C   UNL A   1      43.331  28.068  33.640  1.00  0.00     0.037 A 
ATOM     59  C   UNL A   1      38.047  30.842  29.895  1.00  0.00     0.037 A 
ATOM     60  C   UNL A   1      42.481  28.977  34.362  1.00  0.00     0.049 A 
ATOM     61  C   UNL A   1      38.228  31.125  31.364  1.00  0.00     0.074 A 
ATOM     62  C   UNL A   1      42.580  29.389  35.677  1.00  0.00     0.029 A 
ATOM     63  N   UNL A   1      41.365  29.602  33.824  1.00  0.00    -0.354 N 
ATOM     64  N   UNL A   1      39.173  30.714  32.177  1.00  0.00    -0.248 NA
ATOM     65  C   UNL A   1      37.222  31.985  32.003  1.00  0.00     0.031 C 
ATOM     66  C   UNL A   1      41.488  30.217  35.954  1.00  0.00     0.029 A 
ATOM     67  C   UNL A   1      40.747  30.375  34.792  1.00  0.00     0.049 A 
ATOM     68  H   UNL A   1      41.058  29.510  32.893  1.00  0.00     0.167 HD
ATOM     69  C   UNL A   1      38.894  31.288  33.411  1.00  0.00     0.074 A 
ATOM     70  C   UNL A   1      37.698  32.088  33.235  1.00  0.00     0.031 C 
ATOM     71  C   UNL A   1      39.562  31.169  34.585  1.00  0.00     0.037 A 
BRANCH  58  72
ATOM     72  C   UNL A   1      44.472  27.417  34.362  1.00  0.00     0.057 A 
ATOM     73  C   UNL A   1      44.368  26.136  34.921  1.00  0.00     0.134 A 
ATOM     74  C   UNL A   1      45.701  28.077  34.489  1.00  0.00     0.134 A 
ATOM     75  F   UNL A   1      43.211  25.458  34.857  1.00  0.00    -0.206 F 
ATOM     76  C   UNL A   1      45.438  25.543  35.595  1.00  0.00     0.040 A 
ATOM     77  C   UNL A   1      46.787  27.484  35.134  1.00  0.00     0.040 A 
ATOM     78  F   UNL A   1      45.868  29.308  33.981  1.00  0.00    -0.206 F 
ATOM     79  C   UNL A   1      46.655  26.216  35.695  1.00  0.00     0.006 A 
ENDBRANCH  58  72
BRANCH  59  80
ATOM     80  C   UNL A   1      36.900  31.414  29.143  1.00  0.00     0.057 A 
ATOM     81  C   UNL A   1      35.793  30.633  28.790  1.00  0.00     0.134 A 
ATOM     82  C   UNL A   1      36.899  32.753  28.730  1.00  0.00     0.134 A 
ATOM     83  F   UNL A   1      35.744  29.338  29.136  1.00  0.00    -0.206 F 
ATOM     84  C   UNL A   1      34.740  31.154  28.037  1.00  0.00     0.040 A 
ATOM     85  C   UNL A   1      35.838  33.295  28.002  1.00  0.00     0.040 A 
ATOM     86  F   UNL A   1      37.928  33.556  29.032  1.00  0.00    -0.206 F 
ATOM     87  C   UNL A   1      34.758  32.491  27.645  1.00  0.00     0.006 A 
ENDBRANCH  59  80
BRANCH  71  88
ATOM     88  C   UNL A   1      39.044  31.952  35.757  1.00  0.00     0.057 A 
ATOM     89  C   UNL A   1      39.377  33.298  35.958  1.00  0.00     0.134 A 
ATOM     90  C   UNL A   1      38.155  31.364  36.667  1.00  0.00     0.134 A 
ATOM     91  F   UNL A   1      40.230  33.919  35.129  1.00  0.00    -0.206 F 
ATOM     92  C   UNL A   1      38.865  34.021  37.036  1.00  0.00     0.040 A 
ATOM     93  C   UNL A   1      37.612  32.086  37.728  1.00  0.00     0.040 A 
ATOM     94  F   UNL A   1      37.784  30.082  36.524  1.00  0.00    -0.206 F 
ATOM     95  C   UNL A   1      37.973  33.417  37.919  1.00  0.00     0.006 A 
ENDBRANCH  71  88
ENDBRANCH  45  46
ENDBRANCH  38  40
ENDBRANCH  37  38
ENDBRANCH  36  37
ENDBRANCH  35  36
ENDBRANCH  34  35
ENDBRANCH  33  34
ENDBRANCH  32  33
ENDBRANCH   1  32
TORSDOF 23
ENDMDL
MODEL 3
REMARK VINA RESULT:     -10.2      2.213      3.972
REMARK SMILES CC[NH+]1CCC2(CC1)OC[C@H](C(=O)OCCOCCOCCOCCOC(=O)c1ccc(-c3c4nc(c(-c5c(F)cccc5F)c5ccc([nH]5)c(-c5c(F)cccc5F)c5nc(c(-c6c(F)cccc6F)c6ccc3[nH]6)C=C5)C=C4)cc1)N2C(=O)c1ccc(F)cc1
REMARK SMILES IDX 20 1 19 2 18 3 17 4 16 5 15 6 14 7 12 8 13 9 11 10 3 11 4 12
REMARK SMILES IDX 8 13 5 15 7 16 6 17 9 18 83 19 10 20 2 21 1 22 84 23 85 24
REMARK SMILES IDX 86 25 87 26 92 27 88 28 91 29 89 30 90 31 21 32 22 33 23 34
REMARK SMILES IDX 24 35 25 36 26 37 27 38 28 39 29 40 30 41 82 42 31 43 81 44
REMARK SMILES IDX 32 45 33 46 34 47 75 48 35 49 80 50 74 51 76 52 36 53 79 54
REMARK SMILES IDX 73 55 72 56 37 58 63 59 46 60 62 61 47 62 50 63 61 64 77 65
REMARK SMILES IDX 48 66 49 67 60 69 78 70 51 71 38 72 39 73 44 74 40 75 41 76
REMARK SMILES IDX 43 77 45 78 42 79 64 80 65 81 70 82 66 83 67 84 69 85 71 86
REMARK SMILES IDX 68 87 52 88 53 89 58 90 54 91 55 92 57 93 59 94 56 95
REMARK H PARENT 3 14 76 57 50 68
REMARK Flexibility Score: inf
ROOT
ATOM      1  O   UNL A   1      42.518  22.068  25.364  1.00  0.00    -0.377 OA
ENDROOT
BRANCH   1   2
ATOM      2  C   UNL A   1      41.449  22.602  26.120  1.00  0.00     0.188 C 
BRANCH   2   3
ATOM      3  C   UNL A   1      40.793  21.941  27.356  1.00  0.00     0.188 C 
BRANCH   3   4
ATOM      4  O   UNL A   1      39.630  21.203  27.068  1.00  0.00    -0.376 OA
BRANCH   4   5
ATOM      5  C   UNL A   1      39.108  21.251  25.758  1.00  0.00     0.202 C 
BRANCH   5   6
ATOM      6  C   UNL A   1      37.972  20.309  25.297  1.00  0.00     0.261 C 
BRANCH   6   7
ATOM      7  O   UNL A   1      37.150  20.755  24.192  1.00  0.00    -0.462 OA
BRANCH   7   8
ATOM      8  C   UNL A   1      36.272  21.768  24.384  1.00  0.00     0.331 C 
ATOM      9  O   UNL A   1      36.552  22.928  24.088  1.00  0.00    -0.250 OA
BRANCH   8  10
ATOM     10  C   UNL A   1      34.954  21.396  25.165  1.00  0.00     0.224 C 
ATOM     11  N   UNL A   1      30.525  24.355  24.977  1.00  0.00    -0.335 N 
ATOM     12  C   UNL A   1      31.715  24.353  24.161  1.00  0.00     0.267 C 
ATOM     13  C   UNL A   1      30.474  23.274  25.966  1.00  0.00     0.267 C 
ATOM     14  H   UNL A   1      29.803  24.127  24.295  1.00  0.00     0.348 HD
ATOM     15  C   UNL A   1      32.983  24.216  24.957  1.00  0.00     0.120 C 
ATOM     16  C   UNL A   1      31.803  22.716  26.532  1.00  0.00     0.120 C 
ATOM     17  C   UNL A   1      33.064  22.864  25.657  1.00  0.00     0.155 C 
ATOM     18  O   UNL A   1      34.161  23.081  26.598  1.00  0.00    -0.352 OA
ATOM     19  N   UNL A   1      33.537  21.707  24.834  1.00  0.00    -0.293 N 
ATOM     20  C   UNL A   1      35.061  21.972  26.557  1.00  0.00     0.200 C 
BRANCH  11  21
ATOM     21  C   UNL A   1      30.050  25.651  25.462  1.00  0.00     0.258 C 
ATOM     22  C   UNL A   1      29.828  26.722  24.388  1.00  0.00     0.071 C 
ENDBRANCH  11  21
BRANCH  19  23
ATOM     23  C   UNL A   1      32.861  20.772  24.039  1.00  0.00     0.256 C 
ATOM     24  O   UNL A   1      32.189  21.120  23.066  1.00  0.00    -0.269 OA
BRANCH  23  25
ATOM     25  C   UNL A   1      32.943  19.309  24.253  1.00  0.00     0.040 A 
ATOM     26  C   UNL A   1      33.192  18.447  23.174  1.00  0.00     0.017 A 
ATOM     27  C   UNL A   1      32.616  18.761  25.501  1.00  0.00     0.017 A 
ATOM     28  C   UNL A   1      33.285  17.063  23.389  1.00  0.00     0.040 A 
ATOM     29  C   UNL A   1      32.753  17.386  25.726  1.00  0.00     0.040 A 
ATOM     30  C   UNL A   1      33.109  16.553  24.672  1.00  0.00     0.123 A 
ATOM     31  F   UNL A   1      33.283  15.243  24.894  1.00  0.00    -0.207 F 
ENDBRANCH  23  25
ENDBRANCH  19  23
ENDBRANCH   8  10
ENDBRANCH   7   8
ENDBRANCH   6   7
ENDBRANCH   5   6
ENDBRANCH   4   5
ENDBRANCH   3   4
ENDBRANCH   2   3
ENDBRANCH   1   2
BRANCH   1  32
ATOM     32  C   UNL A   1      43.151  20.906  25.841  1.00  0.00     0.188 C 
BRANCH  32  33
ATOM     33  C   UNL A   1      44.368  20.460  25.019  1.00  0.00     0.188 C 
BRANCH  33  34
ATOM     34  O   UNL A   1      45.599  21.033  25.410  1.00  0.00    -0.376 OA
BRANCH  34  35
ATOM     35  C   UNL A   1      46.119  22.197  24.789  1.00  0.00     0.202 C 
BRANCH  35  36
ATOM     36  C   UNL A   1      45.361  23.509  24.493  1.00  0.00     0.261 C 
BRANCH  36  37
ATOM     37  O   UNL A   1      44.889  24.285  25.590  1.00  0.00    -0.460 OA
BRANCH  37  38
ATOM     38  C   UNL A   1      45.106  25.612  25.525  1.00  0.00     0.338 C 
ATOM     39  O   UNL A   1      45.712  26.226  24.657  1.00  0.00    -0.246 OA
BRANCH  38  40
ATOM     40  C   UNL A   1      44.285  26.244  26.569  1.00  0.00     0.060 A 
ATOM     41  C   UNL A   1      44.321  27.641  26.667  1.00  0.00     0.016 A 
ATOM     42  C   UNL A   1      43.465  25.488  27.409  1.00  0.00     0.016 A 
ATOM     43  C   UNL A   1      43.530  28.293  27.601  1.00  0.00     0.010 A 
ATOM     44  C   UNL A   1      42.716  26.140  28.393  1.00  0.00     0.010 A 
ATOM     45  C   UNL A   1      42.770  27.540  28.502  1.00  0.00    -0.014 A 
BRANCH  45  46
ATOM     46  C   UNL A   1      42.257  28.227  29.703  1.00  0.00     0.031 A 
ATOM     47  C   UNL A   1      40.961  28.974  29.570  1.00  0.00     0.074 A 
ATOM     48  C   UNL A   1      42.877  28.111  30.888  1.00  0.00     0.049 A 
ATOM     49  N   UNL A   1      40.299  29.653  30.467  1.00  0.00    -0.248 NA
ATOM     50  C   UNL A   1      40.322  28.940  28.243  1.00  0.00     0.031 C 
ATOM     51  C   UNL A   1      44.097  27.344  31.134  1.00  0.00     0.029 A 
ATOM     52  N   UNL A   1      42.556  28.641  32.110  1.00  0.00    -0.354 N 
ATOM     53  C   UNL A   1      39.171  30.131  29.812  1.00  0.00     0.074 A 
ATOM     54  C   UNL A   1      39.247  29.686  28.440  1.00  0.00     0.031 C 
ATOM     55  C   UNL A   1      44.432  27.468  32.430  1.00  0.00     0.029 A 
ATOM     56  C   UNL A   1      43.471  28.349  33.090  1.00  0.00     0.049 A 
ATOM     57  H   UNL A   1      41.747  29.179  32.270  1.00  0.00     0.167 HD
ATOM     58  C   UNL A   1      38.159  30.873  30.317  1.00  0.00     0.037 A 
ATOM     59  C   UNL A   1      43.531  28.777  34.366  1.00  0.00     0.037 A 
ATOM     60  C   UNL A   1      38.106  31.319  31.683  1.00  0.00     0.049 A 
ATOM     61  C   UNL A   1      42.444  29.686  34.878  1.00  0.00     0.074 A 
ATOM     62  C   UNL A   1      37.133  32.079  32.303  1.00  0.00     0.029 A 
ATOM     63  N   UNL A   1      39.079  31.050  32.635  1.00  0.00    -0.354 N 
ATOM     64  N   UNL A   1      41.373  30.128  34.260  1.00  0.00    -0.248 NA
ATOM     65  C   UNL A   1      42.570  30.156  36.264  1.00  0.00     0.031 C 
ATOM     66  C   UNL A   1      37.547  32.324  33.616  1.00  0.00     0.029 A 
ATOM     67  C   UNL A   1      38.744  31.658  33.833  1.00  0.00     0.049 A 
ATOM     68  H   UNL A   1      39.887  30.509  32.481  1.00  0.00     0.167 HD
ATOM     69  C   UNL A   1      40.686  30.900  35.188  1.00  0.00     0.074 A 
ATOM     70  C   UNL A   1      41.454  30.854  36.416  1.00  0.00     0.031 C 
ATOM     71  C   UNL A   1      39.524  31.586  35.043  1.00  0.00     0.037 A 
BRANCH  58  72
ATOM     72  C   UNL A   1      37.066  31.286  29.377  1.00  0.00     0.057 A 
ATOM     73  C   UNL A   1      37.017  32.564  28.804  1.00  0.00     0.134 A 
ATOM     74  C   UNL A   1      36.053  30.384  29.029  1.00  0.00     0.134 A 
ATOM     75  F   UNL A   1      37.943  33.485  29.114  1.00  0.00    -0.206 F 
ATOM     76  C   UNL A   1      35.990  32.936  27.934  1.00  0.00     0.040 A 
ATOM     77  C   UNL A   1      35.037  30.734  28.137  1.00  0.00     0.040 A 
ATOM     78  F   UNL A   1      36.036  29.145  29.544  1.00  0.00    -0.206 F 
ATOM     79  C   UNL A   1      35.001  32.015  27.593  1.00  0.00     0.006 A 
ENDBRANCH  58  72
BRANCH  59  80
ATOM     80  C   UNL A   1      44.669  28.384  35.235  1.00  0.00     0.057 A 
ATOM     81  C   UNL A   1      44.585  27.286  36.101  1.00  0.00     0.134 A 
ATOM     82  C   UNL A   1      45.863  29.117  35.245  1.00  0.00     0.134 A 
ATOM     83  F   UNL A   1      43.461  26.556  36.155  1.00  0.00    -0.206 F 
ATOM     84  C   UNL A   1      45.633  26.946  36.957  1.00  0.00     0.040 A 
ATOM     85  C   UNL A   1      46.930  28.771  36.075  1.00  0.00     0.040 A 
ATOM     86  F   UNL A   1      46.011  30.181  34.443  1.00  0.00    -0.206 F 
ATOM     87  C   UNL A   1      46.813  27.688  36.942  1.00  0.00     0.006 A 
ENDBRANCH  59  80
BRANCH  71  88
ATOM     88  C   UNL A   1      38.992  32.303  36.250  1.00  0.00     0.057 A 
ATOM     89  C   UNL A   1      38.138  31.680  37.169  1.00  0.00     0.134 A 
ATOM     90  C   UNL A   1      39.384  33.621  36.523  1.00  0.00     0.134 A 
ATOM     91  F   UNL A   1      37.717  30.423  36.963  1.00  0.00    -0.206 F 
ATOM     92  C   UNL A   1      37.673  32.351  38.302  1.00  0.00     0.040 A 
ATOM     93  C   UNL A   1      38.952  34.289  37.668  1.00  0.00     0.040 A 
ATOM     94  F   UNL A   1      40.211  34.272  35.690  1.00  0.00    -0.206 F 
ATOM     95  C   UNL A   1      38.088  33.656  38.557  1.00  0.00     0.006 A 
ENDBRANCH  71  88
ENDBRANCH  45  46
ENDBRANCH  38  40
ENDBRANCH  37  38
ENDBRANCH  36  37
ENDBRANCH  35  36
ENDBRANCH  34  35
ENDBRANCH  33  34
ENDBRANCH  32  33
ENDBRANCH   1  32
TORSDOF 23
ENDMDL
