MODEL 1
REMARK VINA RESULT:     -12.2      0.000      0.000
REMARK SMILES COc1ccc(C2=NN(C(=O)CCC(=O)OCCOCCOCCOCCOC(=O)c3ccc(-c4c5nc(c(-c6c(F)cccc6F)c6ccc([nH]6)c(-c6c(F)cccc6F)c6nc(c(-c7c(F)cccc7F)c7ccc4[nH]7)C=C6)C=C5)cc3)[C@H](c3ccc(Cl)cc3Cl)C2)cc1
REMARK SMILES IDX 20 1 19 2 18 3 17 4 16 5 14 6 15 7 13 8 12 9 10 10 11 11
REMARK SMILES IDX 9 12 7 13 8 14 94 15 85 16 6 17 3 18 4 19 96 20 5 21 95 22
REMARK SMILES IDX 2 23 1 24 86 25 87 26 92 27 88 28 91 29 93 30 89 31 90 32
REMARK SMILES IDX 21 33 22 34 23 35 24 36 25 37 26 38 27 39 28 40 29 41 30 42
REMARK SMILES IDX 31 43 32 44 84 45 33 46 83 47 34 48 35 49 36 50 77 51 37 52
REMARK SMILES IDX 82 53 76 54 78 55 38 56 81 57 75 58 74 59 39 61 65 62 48 63
REMARK SMILES IDX 64 64 49 65 52 66 63 67 79 68 50 69 51 70 62 72 80 73 53 74
REMARK SMILES IDX 40 75 41 76 46 77 42 78 43 79 45 80 47 81 44 82 66 83 67 84
REMARK SMILES IDX 72 85 68 86 69 87 71 88 73 89 70 90 54 91 55 92 60 93 56 94
REMARK SMILES IDX 57 95 59 96 61 97 58 98
REMARK H PARENT 78 60 52 71
REMARK Flexibility Score: inf
ROOT
ATOM      1  C   UNL A   1      42.597  25.291  25.048  1.00  0.00     0.188 C 
ENDROOT
BRANCH   1   2
ATOM      2  O   UNL A   1      42.227  26.061  26.209  1.00  0.00    -0.376 OA
BRANCH   2   3
ATOM      3  C   UNL A   1      40.877  26.427  26.582  1.00  0.00     0.202 C 
BRANCH   3   4
ATOM      4  C   UNL A   1      39.861  25.532  27.353  1.00  0.00     0.261 C 
BRANCH   4   5
ATOM      5  O   UNL A   1      40.102  24.124  27.300  1.00  0.00    -0.463 OA
BRANCH   5   6
ATOM      6  C   UNL A   1      39.176  23.395  26.657  1.00  0.00     0.306 C 
ATOM      7  O   UNL A   1      39.291  22.191  26.447  1.00  0.00    -0.252 OA
BRANCH   6   8
ATOM      8  C   UNL A   1      37.953  24.157  26.207  1.00  0.00     0.132 C 
BRANCH   8   9
ATOM      9  C   UNL A   1      36.814  23.672  25.305  1.00  0.00     0.114 C 
BRANCH   9  10
ATOM     10  C   UNL A   1      35.331  23.399  25.686  1.00  0.00     0.243 C 
ATOM     11  O   UNL A   1      35.104  23.455  26.913  1.00  0.00    -0.273 OA
BRANCH  10  12
ATOM     12  N   UNL A   1      34.309  22.970  24.800  1.00  0.00    -0.225 N 
ATOM     13  C   UNL A   1      33.535  21.032  24.184  1.00  0.00     0.071 C 
ATOM     14  N   UNL A   1      34.291  21.631  24.998  1.00  0.00    -0.174 NA
ATOM     15  C   UNL A   1      32.787  21.834  23.204  1.00  0.00     0.091 C 
ATOM     16  C   UNL A   1      33.123  23.530  23.469  1.00  0.00     0.149 C 
BRANCH  13  17
ATOM     17  C   UNL A   1      33.255  19.622  24.405  1.00  0.00    -0.002 A 
ATOM     18  C   UNL A   1      33.033  16.882  24.604  1.00  0.00     0.118 A 
ATOM     19  C   UNL A   1      32.603  17.539  23.446  1.00  0.00     0.047 A 
ATOM     20  C   UNL A   1      33.464  17.626  25.702  1.00  0.00     0.047 A 
ATOM     21  C   UNL A   1      32.751  18.904  23.321  1.00  0.00     0.014 A 
ATOM     22  C   UNL A   1      33.563  19.010  25.610  1.00  0.00     0.014 A 
BRANCH  18  23
ATOM     23  O   UNL A   1      33.078  15.528  24.489  1.00  0.00    -0.497 OA
ATOM     24  C   UNL A   1      32.350  14.722  25.393  1.00  0.00     0.278 C 
ENDBRANCH  18  23
ENDBRANCH  13  17
BRANCH  16  25
ATOM     25  C   UNL A   1      31.930  25.196  23.519  1.00  0.00    -0.004 A 
ATOM     26  C   UNL A   1      30.215  25.256  24.432  1.00  0.00     0.009 A 
ATOM     27  C   UNL A   1      32.213  26.764  22.586  1.00  0.00     0.047 A 
ATOM     28  C   UNL A   1      28.981  26.562  24.123  1.00  0.00     0.021 A 
ATOM     29  C   UNL A   1      30.939  27.970  22.351  1.00  0.00     0.041 A 
ATOM     30  Cl  UNL A   1      33.630  27.936  22.693  1.00  0.00    -0.084 Cl
ATOM     31  C   UNL A   1      29.385  27.867  23.069  1.00  0.00     0.042 A 
ATOM     32  Cl  UNL A   1      28.320  29.201  22.878  1.00  0.00    -0.084 Cl
ENDBRANCH  16  25
ENDBRANCH  10  12
ENDBRANCH   9  10
ENDBRANCH   8   9
ENDBRANCH   6   8
ENDBRANCH   5   6
ENDBRANCH   4   5
ENDBRANCH   3   4
ENDBRANCH   2   3
ENDBRANCH   1   2
BRANCH   1  33
ATOM     33  C   UNL A   1      44.230  24.619  24.776  1.00  0.00     0.188 C 
BRANCH  33  34
ATOM     34  O   UNL A   1      45.039  23.310  23.829  1.00  0.00    -0.377 OA
BRANCH  34  35
ATOM     35  C   UNL A   1      46.131  21.923  24.412  1.00  0.00     0.188 C 
BRANCH  35  36
ATOM     36  C   UNL A   1      45.545  20.015  24.357  1.00  0.00     0.188 C 
BRANCH  36  37
ATOM     37  O   UNL A   1      43.903  19.536  24.413  1.00  0.00    -0.376 OA
BRANCH  37  38
ATOM     38  C   UNL A   1      42.895  19.961  25.818  1.00  0.00     0.202 C 
BRANCH  38  39
ATOM     39  C   UNL A   1      43.186  21.926  26.784  1.00  0.00     0.261 C 
BRANCH  39  40
ATOM     40  O   UNL A   1      44.632  22.425  27.685  1.00  0.00    -0.460 OA
BRANCH  40  41
ATOM     41  C   UNL A   1      45.372  23.579  27.827  1.00  0.00     0.338 C 
ATOM     42  O   UNL A   1      46.452  23.808  27.301  1.00  0.00    -0.246 OA
BRANCH  41  43
ATOM     43  C   UNL A   1      44.580  24.743  28.444  1.00  0.00     0.060 A 
ATOM     44  C   UNL A   1      45.111  26.057  28.446  1.00  0.00     0.016 A 
ATOM     45  C   UNL A   1      43.371  24.560  29.115  1.00  0.00     0.016 A 
ATOM     46  C   UNL A   1      44.455  27.150  29.069  1.00  0.00     0.010 A 
ATOM     47  C   UNL A   1      42.741  25.644  29.794  1.00  0.00     0.010 A 
ATOM     48  C   UNL A   1      43.283  26.948  29.806  1.00  0.00    -0.014 A 
BRANCH  48  49
ATOM     49  C   UNL A   1      42.780  28.001  30.767  1.00  0.00     0.031 A 
ATOM     50  C   UNL A   1      43.438  28.130  32.116  1.00  0.00     0.074 A 
ATOM     51  C   UNL A   1      41.744  28.833  30.538  1.00  0.00     0.049 A 
ATOM     52  N   UNL A   1      43.141  28.928  33.112  1.00  0.00    -0.248 NA
ATOM     53  C   UNL A   1      44.561  27.224  32.377  1.00  0.00     0.031 C 
ATOM     54  C   UNL A   1      40.967  28.856  29.315  1.00  0.00     0.029 A 
ATOM     55  N   UNL A   1      41.141  29.799  31.337  1.00  0.00    -0.354 N 
ATOM     56  C   UNL A   1      44.024  28.608  34.131  1.00  0.00     0.074 A 
ATOM     57  C   UNL A   1      44.854  27.527  33.632  1.00  0.00     0.031 C 
ATOM     58  C   UNL A   1      39.980  29.748  29.470  1.00  0.00     0.029 A 
ATOM     59  C   UNL A   1      40.034  30.387  30.766  1.00  0.00     0.049 A 
ATOM     60  H   UNL A   1      41.475  30.040  32.230  1.00  0.00     0.167 HD
ATOM     61  C   UNL A   1      44.140  29.152  35.366  1.00  0.00     0.037 A 
ATOM     62  C   UNL A   1      39.141  31.320  31.172  1.00  0.00     0.037 A 
ATOM     63  C   UNL A   1      43.318  30.209  35.903  1.00  0.00     0.049 A 
ATOM     64  C   UNL A   1      39.299  31.931  32.530  1.00  0.00     0.074 A 
ATOM     65  C   UNL A   1      43.407  30.818  37.145  1.00  0.00     0.029 A 
ATOM     66  N   UNL A   1      42.250  30.806  35.253  1.00  0.00    -0.354 N 
ATOM     67  N   UNL A   1      40.205  31.670  33.438  1.00  0.00    -0.248 NA
ATOM     68  C   UNL A   1      38.335  32.971  32.923  1.00  0.00     0.031 C 
ATOM     69  C   UNL A   1      42.368  31.750  37.264  1.00  0.00     0.029 A 
ATOM     70  C   UNL A   1      41.661  31.760  36.076  1.00  0.00     0.049 A 
ATOM     71  H   UNL A   1      41.951  30.586  34.341  1.00  0.00     0.167 HD
ATOM     72  C   UNL A   1      39.927  32.516  34.497  1.00  0.00     0.074 A 
ATOM     73  C   UNL A   1      38.810  33.346  34.100  1.00  0.00     0.031 C 
ATOM     74  C   UNL A   1      40.537  32.577  35.704  1.00  0.00     0.037 A 
BRANCH  61  75
ATOM     75  C   UNL A   1      45.200  28.563  36.247  1.00  0.00     0.057 A 
ATOM     76  C   UNL A   1      46.505  29.070  36.272  1.00  0.00     0.134 A 
ATOM     77  C   UNL A   1      44.913  27.464  37.066  1.00  0.00     0.134 A 
ATOM     78  F   UNL A   1      46.849  30.105  35.489  1.00  0.00    -0.206 F 
ATOM     79  C   UNL A   1      47.498  28.483  37.056  1.00  0.00     0.040 A 
ATOM     80  C   UNL A   1      45.889  26.889  37.878  1.00  0.00     0.040 A 
ATOM     81  F   UNL A   1      43.682  26.931  37.086  1.00  0.00    -0.206 F 
ATOM     82  C   UNL A   1      47.188  27.392  37.866  1.00  0.00     0.006 A 
ENDBRANCH  61  75
BRANCH  62  83
ATOM     83  C   UNL A   1      38.020  31.782  30.284  1.00  0.00     0.057 A 
ATOM     84  C   UNL A   1      38.146  32.934  29.492  1.00  0.00     0.134 A 
ATOM     85  C   UNL A   1      36.793  31.111  30.215  1.00  0.00     0.134 A 
ATOM     86  F   UNL A   1      39.287  33.641  29.503  1.00  0.00    -0.206 F 
ATOM     87  C   UNL A   1      37.103  33.404  28.686  1.00  0.00     0.040 A 
ATOM     88  C   UNL A   1      35.759  31.538  29.373  1.00  0.00     0.040 A 
ATOM     89  F   UNL A   1      36.582  30.007  30.949  1.00  0.00    -0.206 F 
ATOM     90  C   UNL A   1      35.910  32.692  28.609  1.00  0.00     0.006 A 
ENDBRANCH  62  83
BRANCH  74  91
ATOM     91  C   UNL A   1      39.992  33.589  36.668  1.00  0.00     0.057 A 
ATOM     92  C   UNL A   1      40.516  34.889  36.744  1.00  0.00     0.134 A 
ATOM     93  C   UNL A   1      38.993  33.241  37.583  1.00  0.00     0.134 A 
ATOM     94  F   UNL A   1      41.496  35.276  35.914  1.00  0.00    -0.206 F 
ATOM     95  C   UNL A   1      40.104  35.785  37.730  1.00  0.00     0.040 A 
ATOM     96  C   UNL A   1      38.551  34.140  38.556  1.00  0.00     0.040 A 
ATOM     97  F   UNL A   1      38.451  32.014  37.567  1.00  0.00    -0.206 F 
ATOM     98  C   UNL A   1      39.118  35.410  38.641  1.00  0.00     0.006 A 
ENDBRANCH  74  91
ENDBRANCH  48  49
ENDBRANCH  41  43
ENDBRANCH  40  41
ENDBRANCH  39  40
ENDBRANCH  38  39
ENDBRANCH  37  38
ENDBRANCH  36  37
ENDBRANCH  35  36
ENDBRANCH  34  35
ENDBRANCH  33  34
ENDBRANCH   1  33
TORSDOF 26
ENDMDL
MODEL 2
REMARK VINA RESULT:     -12.2      0.557      5.620
REMARK SMILES COc1ccc(C2=NN(C(=O)CCC(=O)OCCOCCOCCOCCOC(=O)c3ccc(-c4c5nc(c(-c6c(F)cccc6F)c6ccc([nH]6)c(-c6c(F)cccc6F)c6nc(c(-c7c(F)cccc7F)c7ccc4[nH]7)C=C6)C=C5)cc3)[C@H](c3ccc(Cl)cc3Cl)C2)cc1
REMARK SMILES IDX 20 1 19 2 18 3 17 4 16 5 14 6 15 7 13 8 12 9 10 10 11 11
REMARK SMILES IDX 9 12 7 13 8 14 94 15 85 16 6 17 3 18 4 19 96 20 5 21 95 22
REMARK SMILES IDX 2 23 1 24 86 25 87 26 92 27 88 28 91 29 93 30 89 31 90 32
REMARK SMILES IDX 21 33 22 34 23 35 24 36 25 37 26 38 27 39 28 40 29 41 30 42
REMARK SMILES IDX 31 43 32 44 84 45 33 46 83 47 34 48 35 49 36 50 77 51 37 52
REMARK SMILES IDX 82 53 76 54 78 55 38 56 81 57 75 58 74 59 39 61 65 62 48 63
REMARK SMILES IDX 64 64 49 65 52 66 63 67 79 68 50 69 51 70 62 72 80 73 53 74
REMARK SMILES IDX 40 75 41 76 46 77 42 78 43 79 45 80 47 81 44 82 66 83 67 84
REMARK SMILES IDX 72 85 68 86 69 87 71 88 73 89 70 90 54 91 55 92 60 93 56 94
REMARK SMILES IDX 57 95 59 96 61 97 58 98
REMARK H PARENT 78 60 52 71
REMARK Flexibility Score: inf
ROOT
ATOM      1  C   UNL A   1      42.307  25.511  25.354  1.00  0.00     0.188 C 
ENDROOT
BRANCH   1   2
ATOM      2  O   UNL A   1      41.918  26.074  26.622  1.00  0.00    -0.376 OA
BRANCH   2   3
ATOM      3  C   UNL A   1      40.557  26.223  27.096  1.00  0.00     0.202 C 
BRANCH   3   4
ATOM      4  C   UNL A   1      39.644  25.084  27.640  1.00  0.00     0.261 C 
BRANCH   4   5
ATOM      5  O   UNL A   1      40.081  23.750  27.373  1.00  0.00    -0.463 OA
BRANCH   5   6
ATOM      6  C   UNL A   1      39.271  23.011  26.600  1.00  0.00     0.306 C 
ATOM      7  O   UNL A   1      39.505  21.845  26.295  1.00  0.00    -0.252 OA
BRANCH   6   8
ATOM      8  C   UNL A   1      38.020  23.710  26.123  1.00  0.00     0.132 C 
BRANCH   8   9
ATOM      9  C   UNL A   1      36.886  23.141  25.264  1.00  0.00     0.114 C 
BRANCH   9  10
ATOM     10  C   UNL A   1      35.391  22.949  25.645  1.00  0.00     0.243 C 
ATOM     11  O   UNL A   1      35.164  23.035  26.870  1.00  0.00    -0.273 OA
BRANCH  10  12
ATOM     12  N   UNL A   1      34.350  22.560  24.762  1.00  0.00    -0.225 N 
ATOM     13  C   UNL A   1      33.533  20.651  24.111  1.00  0.00     0.071 C 
ATOM     14  N   UNL A   1      34.310  21.217  24.930  1.00  0.00    -0.174 NA
ATOM     15  C   UNL A   1      32.788  21.490  23.160  1.00  0.00     0.091 C 
ATOM     16  C   UNL A   1      33.159  23.172  23.459  1.00  0.00     0.149 C 
BRANCH  13  17
ATOM     17  C   UNL A   1      33.229  19.242  24.304  1.00  0.00    -0.002 A 
ATOM     18  C   UNL A   1      33.030  16.527  24.733  1.00  0.00     0.118 A 
ATOM     19  C   UNL A   1      33.508  17.010  23.510  1.00  0.00     0.047 A 
ATOM     20  C   UNL A   1      32.546  17.419  25.689  1.00  0.00     0.047 A 
ATOM     21  C   UNL A   1      33.651  18.366  23.303  1.00  0.00     0.014 A 
ATOM     22  C   UNL A   1      32.630  18.790  25.468  1.00  0.00     0.014 A 
BRANCH  18  23
ATOM     23  O   UNL A   1      33.192  15.187  24.901  1.00  0.00    -0.497 OA
ATOM     24  C   UNL A   1      32.467  14.513  25.909  1.00  0.00     0.278 C 
ENDBRANCH  18  23
ENDBRANCH  13  17
BRANCH  16  25
ATOM     25  C   UNL A   1      31.998  24.858  23.562  1.00  0.00    -0.004 A 
ATOM     26  C   UNL A   1      30.294  24.928  24.495  1.00  0.00     0.009 A 
ATOM     27  C   UNL A   1      32.300  26.442  22.664  1.00  0.00     0.047 A 
ATOM     28  C   UNL A   1      29.082  26.264  24.231  1.00  0.00     0.021 A 
ATOM     29  C   UNL A   1      31.046  27.678  22.472  1.00  0.00     0.041 A 
ATOM     30  Cl  UNL A   1      33.740  27.586  22.782  1.00  0.00    -0.084 Cl
ATOM     31  C   UNL A   1      29.499  27.586  23.205  1.00  0.00     0.042 A 
ATOM     32  Cl  UNL A   1      28.457  28.944  23.057  1.00  0.00    -0.084 Cl
ENDBRANCH  16  25
ENDBRANCH  10  12
ENDBRANCH   9  10
ENDBRANCH   8   9
ENDBRANCH   6   8
ENDBRANCH   5   6
ENDBRANCH   4   5
ENDBRANCH   3   4
ENDBRANCH   2   3
ENDBRANCH   1   2
BRANCH   1  33
ATOM     33  C   UNL A   1      43.954  24.923  24.987  1.00  0.00     0.188 C 
BRANCH  33  34
ATOM     34  O   UNL A   1      44.775  23.673  23.975  1.00  0.00    -0.377 OA
BRANCH  34  35
ATOM     35  C   UNL A   1      46.026  22.385  24.459  1.00  0.00     0.188 C 
BRANCH  35  36
ATOM     36  C   UNL A   1      45.617  20.431  24.399  1.00  0.00     0.188 C 
BRANCH  36  37
ATOM     37  O   UNL A   1      44.025  19.805  24.416  1.00  0.00    -0.376 OA
BRANCH  37  38
ATOM     38  C   UNL A   1      42.927  20.192  25.763  1.00  0.00     0.202 C 
BRANCH  38  39
ATOM     39  C   UNL A   1      43.203  22.094  26.852  1.00  0.00     0.261 C 
BRANCH  39  40
ATOM     40  O   UNL A   1      44.674  22.576  27.721  1.00  0.00    -0.460 OA
BRANCH  40  41
ATOM     41  C   UNL A   1      45.376  23.744  27.925  1.00  0.00     0.338 C 
ATOM     42  O   UNL A   1      46.417  24.062  27.367  1.00  0.00    -0.246 OA
BRANCH  41  43
ATOM     43  C   UNL A   1      44.575  24.818  28.678  1.00  0.00     0.060 A 
ATOM     44  C   UNL A   1      45.046  26.153  28.750  1.00  0.00     0.016 A 
ATOM     45  C   UNL A   1      43.421  24.526  29.405  1.00  0.00     0.016 A 
ATOM     46  C   UNL A   1      44.384  27.162  29.496  1.00  0.00     0.010 A 
ATOM     47  C   UNL A   1      42.789  25.523  30.204  1.00  0.00     0.010 A 
ATOM     48  C   UNL A   1      43.272  26.847  30.285  1.00  0.00    -0.014 A 
BRANCH  48  49
ATOM     49  C   UNL A   1      42.786  27.799  31.355  1.00  0.00     0.031 A 
ATOM     50  C   UNL A   1      41.574  28.650  31.078  1.00  0.00     0.074 A 
ATOM     51  C   UNL A   1      43.377  27.992  32.552  1.00  0.00     0.049 A 
ATOM     52  N   UNL A   1      41.013  29.565  31.829  1.00  0.00    -0.248 NA
ATOM     53  C   UNL A   1      40.931  28.453  29.775  1.00  0.00     0.031 C 
ATOM     54  C   UNL A   1      44.561  27.290  33.003  1.00  0.00     0.029 A 
ATOM     55  N   UNL A   1      43.082  28.860  33.598  1.00  0.00    -0.354 N 
ATOM     56  C   UNL A   1      39.961  30.073  31.083  1.00  0.00     0.074 A 
ATOM     57  C   UNL A   1      39.980  29.373  29.812  1.00  0.00     0.031 C 
ATOM     58  C   UNL A   1      44.905  27.787  34.199  1.00  0.00     0.029 A 
ATOM     59  C   UNL A   1      43.988  28.817  34.634  1.00  0.00     0.049 A 
ATOM     60  H   UNL A   1      42.297  29.453  33.597  1.00  0.00     0.167 HD
ATOM     61  C   UNL A   1      39.063  31.032  31.414  1.00  0.00     0.037 A 
ATOM     62  C   UNL A   1      44.121  29.484  35.805  1.00  0.00     0.037 A 
ATOM     63  C   UNL A   1      39.028  31.765  32.656  1.00  0.00     0.049 A 
ATOM     64  C   UNL A   1      43.105  30.522  36.167  1.00  0.00     0.074 A 
ATOM     65  C   UNL A   1      38.122  32.735  33.055  1.00  0.00     0.029 A 
ATOM     66  N   UNL A   1      39.939  31.634  33.692  1.00  0.00    -0.354 N 
ATOM     67  N   UNL A   1      42.065  30.915  35.477  1.00  0.00    -0.248 NA
ATOM     68  C   UNL A   1      43.258  31.198  37.465  1.00  0.00     0.031 C 
ATOM     69  C   UNL A   1      38.508  33.221  34.311  1.00  0.00     0.029 A 
ATOM     70  C   UNL A   1      39.626  32.517  34.719  1.00  0.00     0.049 A 
ATOM     71  H   UNL A   1      40.697  31.005  33.699  1.00  0.00     0.167 HD
ATOM     72  C   UNL A   1      41.439  31.872  36.258  1.00  0.00     0.074 A 
ATOM     73  C   UNL A   1      42.174  31.956  37.501  1.00  0.00     0.031 C 
ATOM     74  C   UNL A   1      40.360  32.629  35.951  1.00  0.00     0.037 A 
BRANCH  61  75
ATOM     75  C   UNL A   1      38.045  31.368  30.365  1.00  0.00     0.057 A 
ATOM     76  C   UNL A   1      38.194  32.476  29.520  1.00  0.00     0.134 A 
ATOM     77  C   UNL A   1      36.897  30.583  30.212  1.00  0.00     0.134 A 
ATOM     78  F   UNL A   1      39.261  33.282  29.635  1.00  0.00    -0.206 F 
ATOM     79  C   UNL A   1      37.218  32.810  28.582  1.00  0.00     0.040 A 
ATOM     80  C   UNL A   1      35.929  30.889  29.257  1.00  0.00     0.040 A 
ATOM     81  F   UNL A   1      36.695  29.510  30.992  1.00  0.00    -0.206 F 
ATOM     82  C   UNL A   1      36.084  32.012  28.446  1.00  0.00     0.006 A 
ENDBRANCH  61  75
BRANCH  62  83
ATOM     83  C   UNL A   1      45.241  29.185  36.763  1.00  0.00     0.057 A 
ATOM     84  C   UNL A   1      46.418  29.950  36.769  1.00  0.00     0.134 A 
ATOM     85  C   UNL A   1      45.183  28.124  37.676  1.00  0.00     0.134 A 
ATOM     86  F   UNL A   1      46.558  30.982  35.922  1.00  0.00    -0.206 F 
ATOM     87  C   UNL A   1      47.488  29.667  37.626  1.00  0.00     0.040 A 
ATOM     88  C   UNL A   1      46.223  27.862  38.576  1.00  0.00     0.040 A 
ATOM     89  F   UNL A   1      44.100  27.334  37.728  1.00  0.00    -0.206 F 
ATOM     90  C   UNL A   1      47.383  28.631  38.549  1.00  0.00     0.006 A 
ENDBRANCH  62  83
BRANCH  74  91
ATOM     91  C   UNL A   1      39.922  33.608  37.000  1.00  0.00     0.057 A 
ATOM     92  C   UNL A   1      38.997  33.256  37.995  1.00  0.00     0.134 A 
ATOM     93  C   UNL A   1      40.364  34.935  36.969  1.00  0.00     0.134 A 
ATOM     94  F   UNL A   1      38.512  32.007  38.062  1.00  0.00    -0.206 F 
ATOM     95  C   UNL A   1      38.488  34.203  38.885  1.00  0.00     0.040 A 
ATOM     96  C   UNL A   1      39.884  35.884  37.874  1.00  0.00     0.040 A 
ATOM     97  F   UNL A   1      41.246  35.339  36.043  1.00  0.00    -0.206 F 
ATOM     98  C   UNL A   1      38.931  35.522  38.825  1.00  0.00     0.006 A 
ENDBRANCH  74  91
ENDBRANCH  48  49
ENDBRANCH  41  43
ENDBRANCH  40  41
ENDBRANCH  39  40
ENDBRANCH  38  39
ENDBRANCH  37  38
ENDBRANCH  36  37
ENDBRANCH  35  36
ENDBRANCH  34  35
ENDBRANCH  33  34
ENDBRANCH   1  33
TORSDOF 26
ENDMDL
MODEL 3
REMARK VINA RESULT:     -11.9      5.875     11.382
REMARK SMILES COc1ccc(C2=NN(C(=O)CCC(=O)OCCOCCOCCOCCOC(=O)c3ccc(-c4c5nc(c(-c6c(F)cccc6F)c6ccc([nH]6)c(-c6c(F)cccc6F)c6nc(c(-c7c(F)cccc7F)c7ccc4[nH]7)C=C6)C=C5)cc3)[C@H](c3ccc(Cl)cc3Cl)C2)cc1
REMARK SMILES IDX 20 1 19 2 18 3 17 4 16 5 14 6 15 7 13 8 12 9 10 10 11 11
REMARK SMILES IDX 9 12 7 13 8 14 94 15 85 16 6 17 3 18 4 19 96 20 5 21 95 22
REMARK SMILES IDX 2 23 1 24 86 25 87 26 92 27 88 28 91 29 93 30 89 31 90 32
REMARK SMILES IDX 21 33 22 34 23 35 24 36 25 37 26 38 27 39 28 40 29 41 30 42
REMARK SMILES IDX 31 43 32 44 84 45 33 46 83 47 34 48 35 49 36 50 77 51 37 52
REMARK SMILES IDX 82 53 76 54 78 55 38 56 81 57 75 58 74 59 39 61 65 62 48 63
REMARK SMILES IDX 64 64 49 65 52 66 63 67 79 68 50 69 51 70 62 72 80 73 53 74
REMARK SMILES IDX 40 75 41 76 46 77 42 78 43 79 45 80 47 81 44 82 66 83 67 84
REMARK SMILES IDX 72 85 68 86 69 87 71 88 73 89 70 90 54 91 55 92 60 93 56 94
REMARK SMILES IDX 57 95 59 96 61 97 58 98
REMARK H PARENT 78 60 52 71
REMARK Flexibility Score: inf
ROOT
ATOM      1  C   UNL A   1      43.609  22.943  27.900  1.00  0.00     0.188 C 
ENDROOT
BRANCH   1   2
ATOM      2  O   UNL A   1      43.336  22.619  26.522  1.00  0.00    -0.376 OA
BRANCH   2   3
ATOM      3  C   UNL A   1      44.166  21.792  25.670  1.00  0.00     0.202 C 
BRANCH   3   4
ATOM      4  C   UNL A   1      45.702  21.942  25.460  1.00  0.00     0.261 C 
BRANCH   4   5
ATOM      5  O   UNL A   1      46.270  23.191  25.862  1.00  0.00    -0.463 OA
BRANCH   5   6
ATOM      6  C   UNL A   1      46.209  24.180  24.957  1.00  0.00     0.306 C 
ATOM      7  O   UNL A   1      46.901  24.212  23.943  1.00  0.00    -0.252 OA
BRANCH   6   8
ATOM      8  C   UNL A   1      45.212  25.273  25.260  1.00  0.00     0.132 C 
BRANCH   8   9
ATOM      9  C   UNL A   1      45.446  26.786  25.293  1.00  0.00     0.114 C 
BRANCH   9  10
ATOM     10  C   UNL A   1      46.675  27.584  24.774  1.00  0.00     0.243 C 
ATOM     11  O   UNL A   1      46.378  28.584  24.087  1.00  0.00    -0.273 OA
BRANCH  10  12
ATOM     12  N   UNL A   1      48.035  27.192  24.896  1.00  0.00    -0.225 N 
ATOM     13  C   UNL A   1      49.732  27.122  23.537  1.00  0.00     0.071 C 
ATOM     14  N   UNL A   1      48.546  27.527  23.689  1.00  0.00    -0.174 NA
ATOM     15  C   UNL A   1      50.375  26.409  24.652  1.00  0.00     0.091 C 
ATOM     16  C   UNL A   1      49.273  26.345  26.009  1.00  0.00     0.149 C 
BRANCH  13  17
ATOM     17  C   UNL A   1      50.481  27.583  22.379  1.00  0.00    -0.002 A 
ATOM     18  C   UNL A   1      52.044  28.100  20.170  1.00  0.00     0.118 A 
ATOM     19  C   UNL A   1      52.621  28.065  21.444  1.00  0.00     0.047 A 
ATOM     20  C   UNL A   1      50.661  27.990  20.032  1.00  0.00     0.047 A 
ATOM     21  C   UNL A   1      51.853  27.764  22.550  1.00  0.00     0.014 A 
ATOM     22  C   UNL A   1      49.868  27.744  21.147  1.00  0.00     0.014 A 
BRANCH  18  23
ATOM     23  O   UNL A   1      52.948  28.140  19.154  1.00  0.00    -0.497 OA
ATOM     24  C   UNL A   1      52.750  27.339  18.006  1.00  0.00     0.278 C 
ENDBRANCH  18  23
ENDBRANCH  13  17
BRANCH  16  25
ATOM     25  C   UNL A   1      49.520  26.652  28.020  1.00  0.00    -0.004 A 
ATOM     26  C   UNL A   1      50.044  25.249  29.260  1.00  0.00     0.009 A 
ATOM     27  C   UNL A   1      49.118  28.200  28.941  1.00  0.00     0.047 A 
ATOM     28  C   UNL A   1      49.848  25.408  31.065  1.00  0.00     0.021 A 
ATOM     29  C   UNL A   1      48.958  28.241  30.703  1.00  0.00     0.041 A 
ATOM     30  Cl  UNL A   1      49.822  29.890  28.730  1.00  0.00    -0.084 Cl
ATOM     31  C   UNL A   1      49.287  26.902  31.721  1.00  0.00     0.042 A 
ATOM     32  Cl  UNL A   1      49.244  27.152  33.420  1.00  0.00    -0.084 Cl
ENDBRANCH  16  25
ENDBRANCH  10  12
ENDBRANCH   9  10
ENDBRANCH   8   9
ENDBRANCH   6   8
ENDBRANCH   5   6
ENDBRANCH   4   5
ENDBRANCH   3   4
ENDBRANCH   2   3
ENDBRANCH   1   2
BRANCH   1  33
ATOM     33  C   UNL A   1      43.512  24.596  28.573  1.00  0.00     0.188 C 
BRANCH  33  34
ATOM     34  O   UNL A   1      44.607  25.906  29.164  1.00  0.00    -0.377 OA
BRANCH  34  35
ATOM     35  C   UNL A   1      46.039  25.815  30.347  1.00  0.00     0.188 C 
BRANCH  35  36
ATOM     36  C   UNL A   1      45.787  25.449  32.294  1.00  0.00     0.188 C 
BRANCH  36  37
ATOM     37  O   UNL A   1      44.445  24.594  32.922  1.00  0.00    -0.376 OA
BRANCH  37  38
ATOM     38  C   UNL A   1      44.691  23.062  33.796  1.00  0.00     0.202 C 
BRANCH  38  39
ATOM     39  C   UNL A   1      46.177  22.992  35.429  1.00  0.00     0.261 C 
BRANCH  39  40
ATOM     40  O   UNL A   1      46.565  24.334  36.523  1.00  0.00    -0.460 OA
BRANCH  40  41
ATOM     41  C   UNL A   1      47.008  25.633  36.393  1.00  0.00     0.338 C 
ATOM     42  O   UNL A   1      48.176  25.991  36.343  1.00  0.00    -0.246 OA
BRANCH  41  43
ATOM     43  C   UNL A   1      45.906  26.617  35.966  1.00  0.00     0.060 A 
ATOM     44  C   UNL A   1      44.539  26.256  36.067  1.00  0.00     0.016 A 
ATOM     45  C   UNL A   1      46.183  27.847  35.373  1.00  0.00     0.016 A 
ATOM     46  C   UNL A   1      43.488  27.096  35.616  1.00  0.00     0.010 A 
ATOM     47  C   UNL A   1      45.132  28.666  34.864  1.00  0.00     0.010 A 
ATOM     48  C   UNL A   1      43.773  28.295  34.951  1.00  0.00    -0.014 A 
BRANCH  48  49
ATOM     49  C   UNL A   1      42.707  29.008  34.150  1.00  0.00     0.031 A 
ATOM     50  C   UNL A   1      41.925  30.118  34.803  1.00  0.00     0.074 A 
ATOM     51  C   UNL A   1      42.355  28.708  32.883  1.00  0.00     0.049 A 
ATOM     52  N   UNL A   1      40.937  30.832  34.322  1.00  0.00    -0.248 NA
ATOM     53  C   UNL A   1      42.296  30.445  36.183  1.00  0.00     0.031 C 
ATOM     54  C   UNL A   1      42.969  27.665  32.088  1.00  0.00     0.029 A 
ATOM     55  N   UNL A   1      41.371  29.231  32.050  1.00  0.00    -0.354 N 
ATOM     56  C   UNL A   1      40.549  31.679  35.346  1.00  0.00     0.074 A 
ATOM     57  C   UNL A   1      41.400  31.372  36.481  1.00  0.00     0.031 C 
ATOM     58  C   UNL A   1      42.321  27.603  30.916  1.00  0.00     0.029 A 
ATOM     59  C   UNL A   1      41.267  28.589  30.836  1.00  0.00     0.049 A 
ATOM     60  H   UNL A   1      40.802  29.992  32.306  1.00  0.00     0.167 HD
ATOM     61  C   UNL A   1      39.578  32.624  35.354  1.00  0.00     0.037 A 
ATOM     62  C   UNL A   1      40.457  28.726  29.759  1.00  0.00     0.037 A 
ATOM     63  C   UNL A   1      38.698  32.939  34.255  1.00  0.00     0.049 A 
ATOM     64  C   UNL A   1      39.406  29.792  29.774  1.00  0.00     0.074 A 
ATOM     65  C   UNL A   1      37.707  33.907  34.200  1.00  0.00     0.029 A 
ATOM     66  N   UNL A   1      38.680  32.294  33.029  1.00  0.00    -0.354 N 
ATOM     67  N   UNL A   1      39.124  30.642  30.727  1.00  0.00    -0.248 NA
ATOM     68  C   UNL A   1      38.571  29.938  28.570  1.00  0.00     0.031 C 
ATOM     69  C   UNL A   1      37.062  33.818  32.959  1.00  0.00     0.029 A 
ATOM     70  C   UNL A   1      37.684  32.829  32.221  1.00  0.00     0.049 A 
ATOM     71  H   UNL A   1      39.286  31.561  32.769  1.00  0.00     0.167 HD
ATOM     72  C   UNL A   1      38.093  31.425  30.237  1.00  0.00     0.074 A 
ATOM     73  C   UNL A   1      37.839  30.996  28.879  1.00  0.00     0.031 C 
ATOM     74  C   UNL A   1      37.404  32.399  30.876  1.00  0.00     0.037 A 
BRANCH  61  75
ATOM     75  C   UNL A   1      39.397  33.369  36.642  1.00  0.00     0.057 A 
ATOM     76  C   UNL A   1      40.036  34.592  36.883  1.00  0.00     0.134 A 
ATOM     77  C   UNL A   1      38.585  32.848  37.657  1.00  0.00     0.134 A 
ATOM     78  F   UNL A   1      40.846  35.131  35.959  1.00  0.00    -0.206 F 
ATOM     79  C   UNL A   1      39.902  35.254  38.104  1.00  0.00     0.040 A 
ATOM     80  C   UNL A   1      38.419  33.515  38.869  1.00  0.00     0.040 A 
ATOM     81  F   UNL A   1      37.948  31.679  37.487  1.00  0.00    -0.206 F 
ATOM     82  C   UNL A   1      39.087  34.717  39.099  1.00  0.00     0.006 A 
ENDBRANCH  61  75
BRANCH  62  83
ATOM     83  C   UNL A   1      40.610  27.860  28.540  1.00  0.00     0.057 A 
ATOM     84  C   UNL A   1      41.394  28.269  27.450  1.00  0.00     0.134 A 
ATOM     85  C   UNL A   1      39.968  26.620  28.415  1.00  0.00     0.134 A 
ATOM     86  F   UNL A   1      42.038  29.446  27.484  1.00  0.00    -0.206 F 
ATOM     87  C   UNL A   1      41.520  27.496  26.289  1.00  0.00     0.040 A 
ATOM     88  C   UNL A   1      40.128  25.813  27.283  1.00  0.00     0.040 A 
ATOM     89  F   UNL A   1      39.189  26.159  29.405  1.00  0.00    -0.206 F 
ATOM     90  C   UNL A   1      40.902  26.253  26.212  1.00  0.00     0.006 A 
ENDBRANCH  62  83
BRANCH  74  91
ATOM     91  C   UNL A   1      36.314  33.061  30.087  1.00  0.00     0.057 A 
ATOM     92  C   UNL A   1      34.963  32.730  30.277  1.00  0.00     0.134 A 
ATOM     93  C   UNL A   1      36.619  33.975  29.073  1.00  0.00     0.134 A 
ATOM     94  F   UNL A   1      34.607  31.839  31.214  1.00  0.00    -0.206 F 
ATOM     95  C   UNL A   1      33.963  33.245  29.451  1.00  0.00     0.040 A 
ATOM     96  C   UNL A   1      35.623  34.519  28.259  1.00  0.00     0.040 A 
ATOM     97  F   UNL A   1      37.890  34.333  28.836  1.00  0.00    -0.206 F 
ATOM     98  C   UNL A   1      34.293  34.141  28.437  1.00  0.00     0.006 A 
ENDBRANCH  74  91
ENDBRANCH  48  49
ENDBRANCH  41  43
ENDBRANCH  40  41
ENDBRANCH  39  40
ENDBRANCH  38  39
ENDBRANCH  37  38
ENDBRANCH  36  37
ENDBRANCH  35  36
ENDBRANCH  34  35
ENDBRANCH  33  34
ENDBRANCH   1  33
TORSDOF 26
ENDMDL
