MODEL 1
REMARK VINA RESULT:      -9.8      0.000      0.000
REMARK SMILES Cc1nc(C)c(C(=O)N2CCC([C@H](C)C(=O)OCCOCCOCCOCCOC(=O)c3ccc(-c4c5nc(c(-c6c(F)cccc6F)c6ccc([nH]6)c(-c6c(F)cccc6F)c6nc(c(-c7c(F)cccc7F)c7ccc4[nH]7)C=C6)C=C5)cc3)CC2)s1
REMARK SMILES IDX 23 1 22 2 21 3 20 4 19 5 18 6 17 7 15 8 16 9 13 10 14 11
REMARK SMILES IDX 12 12 7 13 8 14 9 15 10 16 87 17 11 18 86 19 6 20 1 21 2 22
REMARK SMILES IDX 3 23 88 24 4 25 5 26 24 27 25 28 26 29 27 30 28 31 29 32
REMARK SMILES IDX 30 33 31 34 32 35 33 36 85 37 34 38 84 39 35 40 36 41 37 42
REMARK SMILES IDX 78 43 38 44 83 45 77 46 79 47 39 48 82 49 76 50 75 51 40 53
REMARK SMILES IDX 66 54 49 55 65 56 50 57 53 58 64 59 80 60 51 61 52 62 63 64
REMARK SMILES IDX 81 65 54 66 41 67 42 68 47 69 43 70 44 71 46 72 48 73 45 74
REMARK SMILES IDX 67 75 68 76 73 77 69 78 70 79 72 80 74 81 71 82 55 83 56 84
REMARK SMILES IDX 61 85 57 86 58 87 60 88 62 89 59 90
REMARK H PARENT 79 52 53 63
REMARK Flexibility Score: inf
ROOT
ATOM      1  O   UNL A   1      34.432  35.351  28.755  1.00  0.00    -0.377 OA
ENDROOT
BRANCH   1   2
ATOM      2  C   UNL A   1      34.847  34.187  28.086  1.00  0.00     0.188 C 
BRANCH   2   3
ATOM      3  C   UNL A   1      34.299  32.800  28.426  1.00  0.00     0.188 C 
BRANCH   3   4
ATOM      4  O   UNL A   1      34.453  31.696  27.553  1.00  0.00    -0.376 OA
BRANCH   4   5
ATOM      5  C   UNL A   1      33.697  30.504  27.592  1.00  0.00     0.202 C 
BRANCH   5   6
ATOM      6  C   UNL A   1      32.444  30.243  26.747  1.00  0.00     0.261 C 
BRANCH   6   7
ATOM      7  O   UNL A   1      32.392  29.014  26.008  1.00  0.00    -0.463 OA
BRANCH   7   8
ATOM      8  C   UNL A   1      31.438  28.124  26.403  1.00  0.00     0.309 C 
ATOM      9  O   UNL A   1      31.221  27.824  27.570  1.00  0.00    -0.252 OA
BRANCH   8  10
ATOM     10  C   UNL A   1      30.730  27.437  25.234  1.00  0.00     0.099 C 
ATOM     11  C   UNL A   1      30.607  28.259  23.948  1.00  0.00     0.020 C 
BRANCH  10  12
ATOM     12  C   UNL A   1      31.225  25.983  25.023  1.00  0.00     0.006 C 
ATOM     13  C   UNL A   1      33.698  23.141  23.148  1.00  0.00     0.265 C 
ATOM     14  O   UNL A   1      33.691  23.314  21.929  1.00  0.00    -0.268 OA
ATOM     15  N   UNL A   1      32.782  23.803  23.960  1.00  0.00    -0.338 N 
ATOM     16  C   UNL A   1      31.434  23.997  23.473  1.00  0.00     0.120 C 
ATOM     17  C   UNL A   1      33.075  24.286  25.305  1.00  0.00     0.120 C 
ATOM     18  C   UNL A   1      30.998  25.442  23.597  1.00  0.00     0.026 C 
ATOM     19  C   UNL A   1      32.696  25.752  25.426  1.00  0.00     0.026 C 
BRANCH  13  20
ATOM     20  C   UNL A   1      34.590  22.201  23.794  1.00  0.00     0.115 A 
ATOM     21  C   UNL A   1      37.884  20.677  25.142  1.00  0.00     0.079 C 
ATOM     22  C   UNL A   1      36.506  21.077  24.759  1.00  0.00     0.091 A 
ATOM     23  N   UNL A   1      35.416  20.381  25.002  1.00  0.00    -0.246 NA
ATOM     24  S   UNL A   1      36.262  22.567  23.971  1.00  0.00    -0.113 S 
ATOM     25  C   UNL A   1      34.301  21.043  24.494  1.00  0.00     0.061 A 
ATOM     26  C   UNL A   1      32.960  20.452  24.754  1.00  0.00     0.068 C 
ENDBRANCH  13  20
ENDBRANCH  10  12
ENDBRANCH   8  10
ENDBRANCH   7   8
ENDBRANCH   6   7
ENDBRANCH   5   6
ENDBRANCH   4   5
ENDBRANCH   3   4
ENDBRANCH   2   3
ENDBRANCH   1   2
BRANCH   1  27
ATOM     27  C   UNL A   1      33.209  35.259  29.437  1.00  0.00     0.188 C 
BRANCH  27  28
ATOM     28  C   UNL A   1      33.042  36.385  30.458  1.00  0.00     0.188 C 
BRANCH  28  29
ATOM     29  O   UNL A   1      33.310  36.185  31.847  1.00  0.00    -0.376 OA
BRANCH  29  30
ATOM     30  C   UNL A   1      33.705  34.922  32.360  1.00  0.00     0.202 C 
BRANCH  30  31
ATOM     31  C   UNL A   1      35.215  34.614  32.430  1.00  0.00     0.261 C 
BRANCH  31  32
ATOM     32  O   UNL A   1      35.721  33.633  31.517  1.00  0.00    -0.460 OA
BRANCH  32  33
ATOM     33  C   UNL A   1      36.134  32.468  32.062  1.00  0.00     0.338 C 
ATOM     34  O   UNL A   1      35.508  31.727  32.802  1.00  0.00    -0.246 OA
BRANCH  33  35
ATOM     35  C   UNL A   1      37.469  32.145  31.516  1.00  0.00     0.060 A 
ATOM     36  C   UNL A   1      37.722  32.388  30.159  1.00  0.00     0.016 A 
ATOM     37  C   UNL A   1      38.462  31.597  32.332  1.00  0.00     0.016 A 
ATOM     38  C   UNL A   1      38.959  32.062  29.607  1.00  0.00     0.010 A 
ATOM     39  C   UNL A   1      39.688  31.232  31.770  1.00  0.00     0.010 A 
ATOM     40  C   UNL A   1      39.926  31.431  30.398  1.00  0.00    -0.014 A 
BRANCH  40  41
ATOM     41  C   UNL A   1      41.070  30.763  29.738  1.00  0.00     0.031 A 
ATOM     42  C   UNL A   1      42.303  31.578  29.473  1.00  0.00     0.074 A 
ATOM     43  C   UNL A   1      41.029  29.461  29.408  1.00  0.00     0.049 A 
ATOM     44  N   UNL A   1      43.411  31.242  28.866  1.00  0.00    -0.248 NA
ATOM     45  C   UNL A   1      42.276  32.969  29.955  1.00  0.00     0.031 C 
ATOM     46  C   UNL A   1      39.907  28.561  29.653  1.00  0.00     0.029 A 
ATOM     47  N   UNL A   1      41.962  28.679  28.776  1.00  0.00    -0.354 N 
ATOM     48  C   UNL A   1      44.209  32.379  28.889  1.00  0.00     0.074 A 
ATOM     49  C   UNL A   1      43.445  33.424  29.534  1.00  0.00     0.031 C 
ATOM     50  C   UNL A   1      40.205  27.349  29.151  1.00  0.00     0.029 A 
ATOM     51  C   UNL A   1      41.526  27.403  28.523  1.00  0.00     0.049 A 
ATOM     52  H   UNL A   1      42.859  29.002  28.527  1.00  0.00     0.167 HD
ATOM     53  C   UNL A   1      45.469  32.537  28.420  1.00  0.00     0.037 A 
ATOM     54  C   UNL A   1      42.114  26.406  27.835  1.00  0.00     0.037 A 
ATOM     55  C   UNL A   1      46.216  31.497  27.764  1.00  0.00     0.049 A 
ATOM     56  C   UNL A   1      43.487  26.622  27.252  1.00  0.00     0.074 A 
ATOM     57  C   UNL A   1      47.503  31.546  27.260  1.00  0.00     0.029 A 
ATOM     58  N   UNL A   1      45.733  30.222  27.507  1.00  0.00    -0.354 N 
ATOM     59  N   UNL A   1      44.249  27.690  27.300  1.00  0.00    -0.248 NA
ATOM     60  C   UNL A   1      44.084  25.495  26.524  1.00  0.00     0.031 C 
ATOM     61  C   UNL A   1      47.776  30.320  26.645  1.00  0.00     0.029 A 
ATOM     62  C   UNL A   1      46.686  29.484  26.824  1.00  0.00     0.049 A 
ATOM     63  H   UNL A   1      44.845  29.891  27.772  1.00  0.00     0.167 HD
ATOM     64  C   UNL A   1      45.422  27.355  26.634  1.00  0.00     0.074 A 
ATOM     65  C   UNL A   1      45.275  25.980  26.202  1.00  0.00     0.031 C 
ATOM     66  C   UNL A   1      46.522  28.115  26.402  1.00  0.00     0.037 A 
BRANCH  53  67
ATOM     67  C   UNL A   1      46.088  33.896  28.566  1.00  0.00     0.057 A 
ATOM     68  C   UNL A   1      45.987  34.872  27.565  1.00  0.00     0.134 A 
ATOM     69  C   UNL A   1      46.806  34.230  29.721  1.00  0.00     0.134 A 
ATOM     70  F   UNL A   1      45.329  34.612  26.425  1.00  0.00    -0.206 F 
ATOM     71  C   UNL A   1      46.611  36.116  27.690  1.00  0.00     0.040 A 
ATOM     72  C   UNL A   1      47.406  35.481  29.873  1.00  0.00     0.040 A 
ATOM     73  F   UNL A   1      46.940  33.346  30.720  1.00  0.00    -0.206 F 
ATOM     74  C   UNL A   1      47.319  36.424  28.850  1.00  0.00     0.006 A 
ENDBRANCH  53  67
BRANCH  54  75
ATOM     75  C   UNL A   1      41.395  25.122  27.637  1.00  0.00     0.057 A 
ATOM     76  C   UNL A   1      41.709  23.984  28.390  1.00  0.00     0.134 A 
ATOM     77  C   UNL A   1      40.374  25.005  26.686  1.00  0.00     0.134 A 
ATOM     78  F   UNL A   1      42.692  24.027  29.299  1.00  0.00    -0.206 F 
ATOM     79  C   UNL A   1      41.041  22.773  28.196  1.00  0.00     0.040 A 
ATOM     80  C   UNL A   1      39.679  23.808  26.501  1.00  0.00     0.040 A 
ATOM     81  F   UNL A   1      40.025  26.058  25.933  1.00  0.00    -0.206 F 
ATOM     82  C   UNL A   1      40.017  22.686  27.253  1.00  0.00     0.006 A 
ENDBRANCH  54  75
BRANCH  66  83
ATOM     83  C   UNL A   1      47.669  27.467  25.678  1.00  0.00     0.057 A 
ATOM     84  C   UNL A   1      47.786  27.505  24.283  1.00  0.00     0.134 A 
ATOM     85  C   UNL A   1      48.697  26.838  26.395  1.00  0.00     0.134 A 
ATOM     86  F   UNL A   1      46.833  28.081  23.536  1.00  0.00    -0.206 F 
ATOM     87  C   UNL A   1      48.870  26.920  23.626  1.00  0.00     0.040 A 
ATOM     88  C   UNL A   1      49.801  26.278  25.751  1.00  0.00     0.040 A 
ATOM     89  F   UNL A   1      48.655  26.777  27.735  1.00  0.00    -0.206 F 
ATOM     90  C   UNL A   1      49.886  26.311  24.361  1.00  0.00     0.006 A 
ENDBRANCH  66  83
ENDBRANCH  40  41
ENDBRANCH  33  35
ENDBRANCH  32  33
ENDBRANCH  31  32
ENDBRANCH  30  31
ENDBRANCH  29  30
ENDBRANCH  28  29
ENDBRANCH  27  28
ENDBRANCH   1  27
TORSDOF 22
ENDMDL
MODEL 2
REMARK VINA RESULT:      -9.6      0.934      6.090
REMARK SMILES Cc1nc(C)c(C(=O)N2CCC([C@H](C)C(=O)OCCOCCOCCOCCOC(=O)c3ccc(-c4c5nc(c(-c6c(F)cccc6F)c6ccc([nH]6)c(-c6c(F)cccc6F)c6nc(c(-c7c(F)cccc7F)c7ccc4[nH]7)C=C6)C=C5)cc3)CC2)s1
REMARK SMILES IDX 23 1 22 2 21 3 20 4 19 5 18 6 17 7 15 8 16 9 13 10 14 11
REMARK SMILES IDX 12 12 7 13 8 14 9 15 10 16 87 17 11 18 86 19 6 20 1 21 2 22
REMARK SMILES IDX 3 23 88 24 4 25 5 26 24 27 25 28 26 29 27 30 28 31 29 32
REMARK SMILES IDX 30 33 31 34 32 35 33 36 85 37 34 38 84 39 35 40 36 41 37 42
REMARK SMILES IDX 78 43 38 44 83 45 77 46 79 47 39 48 82 49 76 50 75 51 40 53
REMARK SMILES IDX 66 54 49 55 65 56 50 57 53 58 64 59 80 60 51 61 52 62 63 64
REMARK SMILES IDX 81 65 54 66 41 67 42 68 47 69 43 70 44 71 46 72 48 73 45 74
REMARK SMILES IDX 67 75 68 76 73 77 69 78 70 79 72 80 74 81 71 82 55 83 56 84
REMARK SMILES IDX 61 85 57 86 58 87 60 88 62 89 59 90
REMARK H PARENT 79 52 53 63
REMARK Flexibility Score: inf
ROOT
ATOM      1  O   UNL A   1      35.604  34.477  29.342  1.00  0.00    -0.377 OA
ENDROOT
BRANCH   1   2
ATOM      2  C   UNL A   1      35.370  33.731  28.174  1.00  0.00     0.188 C 
BRANCH   2   3
ATOM      3  C   UNL A   1      34.107  32.895  27.968  1.00  0.00     0.188 C 
BRANCH   3   4
ATOM      4  O   UNL A   1      34.139  31.627  27.339  1.00  0.00    -0.376 OA
BRANCH   4   5
ATOM      5  C   UNL A   1      33.133  30.639  27.423  1.00  0.00     0.202 C 
BRANCH   5   6
ATOM      6  C   UNL A   1      32.351  30.093  26.223  1.00  0.00     0.261 C 
BRANCH   6   7
ATOM      7  O   UNL A   1      32.447  28.686  25.960  1.00  0.00    -0.463 OA
BRANCH   7   8
ATOM      8  C   UNL A   1      31.448  27.916  26.477  1.00  0.00     0.309 C 
ATOM      9  O   UNL A   1      31.242  27.774  27.676  1.00  0.00    -0.252 OA
BRANCH   8  10
ATOM     10  C   UNL A   1      30.667  27.142  25.414  1.00  0.00     0.099 C 
ATOM     11  C   UNL A   1      30.515  27.835  24.057  1.00  0.00     0.020 C 
BRANCH  10  12
ATOM     12  C   UNL A   1      31.104  25.657  25.331  1.00  0.00     0.006 C 
ATOM     13  C   UNL A   1      33.069  22.469  23.413  1.00  0.00     0.265 C 
ATOM     14  O   UNL A   1      32.769  22.445  22.219  1.00  0.00    -0.268 OA
ATOM     15  N   UNL A   1      32.372  23.283  24.300  1.00  0.00    -0.338 N 
ATOM     16  C   UNL A   1      30.945  23.443  24.122  1.00  0.00     0.120 C 
ATOM     17  C   UNL A   1      32.976  23.965  25.440  1.00  0.00     0.120 C 
ATOM     18  C   UNL A   1      30.544  24.904  24.108  1.00  0.00     0.026 C 
ATOM     19  C   UNL A   1      32.630  25.443  25.406  1.00  0.00     0.026 C 
BRANCH  13  20
ATOM     20  C   UNL A   1      34.095  21.614  23.974  1.00  0.00     0.115 A 
ATOM     21  C   UNL A   1      37.606  20.432  25.098  1.00  0.00     0.079 C 
ATOM     22  C   UNL A   1      36.173  20.683  24.796  1.00  0.00     0.091 A 
ATOM     23  N   UNL A   1      35.185  19.855  25.056  1.00  0.00    -0.246 NA
ATOM     24  S   UNL A   1      35.720  22.166  24.091  1.00  0.00    -0.113 S 
ATOM     25  C   UNL A   1      33.976  20.402  24.631  1.00  0.00     0.061 A 
ATOM     26  C   UNL A   1      32.728  19.649  24.924  1.00  0.00     0.068 C 
ENDBRANCH  13  20
ENDBRANCH  10  12
ENDBRANCH   8  10
ENDBRANCH   7   8
ENDBRANCH   6   7
ENDBRANCH   5   6
ENDBRANCH   4   5
ENDBRANCH   3   4
ENDBRANCH   2   3
ENDBRANCH   1   2
BRANCH   1  27
ATOM     27  C   UNL A   1      35.037  33.961  30.518  1.00  0.00     0.188 C 
BRANCH  27  28
ATOM     28  C   UNL A   1      34.163  34.996  31.228  1.00  0.00     0.188 C 
BRANCH  28  29
ATOM     29  O   UNL A   1      33.755  34.829  32.587  1.00  0.00    -0.376 OA
BRANCH  29  30
ATOM     30  C   UNL A   1      33.922  33.598  33.274  1.00  0.00     0.202 C 
BRANCH  30  31
ATOM     31  C   UNL A   1      35.314  33.284  33.858  1.00  0.00     0.261 C 
BRANCH  31  32
ATOM     32  O   UNL A   1      36.068  32.247  33.219  1.00  0.00    -0.460 OA
BRANCH  32  33
ATOM     33  C   UNL A   1      37.184  31.838  33.862  1.00  0.00     0.338 C 
ATOM     34  O   UNL A   1      37.407  31.864  35.061  1.00  0.00    -0.246 OA
BRANCH  33  35
ATOM     35  C   UNL A   1      38.090  31.216  32.872  1.00  0.00     0.060 A 
ATOM     36  C   UNL A   1      39.111  30.372  33.327  1.00  0.00     0.016 A 
ATOM     37  C   UNL A   1      37.940  31.473  31.507  1.00  0.00     0.016 A 
ATOM     38  C   UNL A   1      40.003  29.800  32.422  1.00  0.00     0.010 A 
ATOM     39  C   UNL A   1      38.858  30.932  30.603  1.00  0.00     0.010 A 
ATOM     40  C   UNL A   1      39.913  30.123  31.063  1.00  0.00    -0.014 A 
BRANCH  40  41
ATOM     41  C   UNL A   1      41.057  29.820  30.175  1.00  0.00     0.031 A 
ATOM     42  C   UNL A   1      41.106  28.466  29.527  1.00  0.00     0.074 A 
ATOM     43  C   UNL A   1      42.015  30.729  29.927  1.00  0.00     0.049 A 
ATOM     44  N   UNL A   1      42.022  27.942  28.755  1.00  0.00    -0.248 NA
ATOM     45  C   UNL A   1      39.961  27.578  29.794  1.00  0.00     0.031 C 
ATOM     46  C   UNL A   1      42.053  32.086  30.463  1.00  0.00     0.029 A 
ATOM     47  N   UNL A   1      43.152  30.631  29.166  1.00  0.00    -0.354 N 
ATOM     48  C   UNL A   1      41.567  26.665  28.450  1.00  0.00     0.074 A 
ATOM     49  C   UNL A   1      40.316  26.479  29.150  1.00  0.00     0.031 C 
ATOM     50  C   UNL A   1      43.176  32.689  30.036  1.00  0.00     0.029 A 
ATOM     51  C   UNL A   1      43.947  31.748  29.223  1.00  0.00     0.049 A 
ATOM     52  H   UNL A   1      43.377  29.835  28.630  1.00  0.00     0.167 HD
ATOM     53  C   UNL A   1      42.139  25.733  27.652  1.00  0.00     0.037 A 
ATOM     54  C   UNL A   1      45.170  31.968  28.705  1.00  0.00     0.037 A 
ATOM     55  C   UNL A   1      43.393  25.920  26.973  1.00  0.00     0.049 A 
ATOM     56  C   UNL A   1      45.828  30.891  27.882  1.00  0.00     0.074 A 
ATOM     57  C   UNL A   1      44.058  25.045  26.132  1.00  0.00     0.029 A 
ATOM     58  N   UNL A   1      44.181  27.058  27.071  1.00  0.00    -0.354 N 
ATOM     59  N   UNL A   1      45.383  29.696  27.573  1.00  0.00    -0.248 NA
ATOM     60  C   UNL A   1      47.156  31.194  27.331  1.00  0.00     0.031 C 
ATOM     61  C   UNL A   1      45.276  25.631  25.770  1.00  0.00     0.029 A 
ATOM     62  C   UNL A   1      45.341  26.896  26.331  1.00  0.00     0.049 A 
ATOM     63  H   UNL A   1      43.949  27.861  27.590  1.00  0.00     0.167 HD
ATOM     64  C   UNL A   1      46.361  29.116  26.774  1.00  0.00     0.074 A 
ATOM     65  C   UNL A   1      47.418  30.097  26.634  1.00  0.00     0.031 C 
ATOM     66  C   UNL A   1      46.383  27.885  26.203  1.00  0.00     0.037 A 
BRANCH  53  67
ATOM     67  C   UNL A   1      41.426  24.419  27.516  1.00  0.00     0.057 A 
ATOM     68  C   UNL A   1      40.309  24.260  26.684  1.00  0.00     0.134 A 
ATOM     69  C   UNL A   1      41.856  23.298  28.237  1.00  0.00     0.134 A 
ATOM     70  F   UNL A   1      39.833  25.298  25.979  1.00  0.00    -0.206 F 
ATOM     71  C   UNL A   1      39.623  23.046  26.604  1.00  0.00     0.040 A 
ATOM     72  C   UNL A   1      41.199  22.071  28.141  1.00  0.00     0.040 A 
ATOM     73  F   UNL A   1      42.919  23.378  29.051  1.00  0.00    -0.206 F 
ATOM     74  C   UNL A   1      40.071  21.946  27.332  1.00  0.00     0.006 A 
ENDBRANCH  53  67
BRANCH  54  75
ATOM     75  C   UNL A   1      45.863  33.254  28.971  1.00  0.00     0.057 A 
ATOM     76  C   UNL A   1      45.733  34.349  28.109  1.00  0.00     0.134 A 
ATOM     77  C   UNL A   1      46.673  33.418  30.102  1.00  0.00     0.134 A 
ATOM     78  F   UNL A   1      44.990  34.247  26.998  1.00  0.00    -0.206 F 
ATOM     79  C   UNL A   1      46.394  35.554  28.353  1.00  0.00     0.040 A 
ATOM     80  C   UNL A   1      47.318  34.626  30.373  1.00  0.00     0.040 A 
ATOM     81  F   UNL A   1      46.839  32.407  30.969  1.00  0.00    -0.206 F 
ATOM     82  C   UNL A   1      47.184  35.697  29.493  1.00  0.00     0.006 A 
ENDBRANCH  54  75
BRANCH  66  83
ATOM     83  C   UNL A   1      47.569  27.540  25.348  1.00  0.00     0.057 A 
ATOM     84  C   UNL A   1      48.720  26.943  25.877  1.00  0.00     0.134 A 
ATOM     85  C   UNL A   1      47.537  27.766  23.964  1.00  0.00     0.134 A 
ATOM     86  F   UNL A   1      48.822  26.710  27.193  1.00  0.00    -0.206 F 
ATOM     87  C   UNL A   1      49.805  26.606  25.065  1.00  0.00     0.040 A 
ATOM     88  C   UNL A   1      48.602  27.404  23.139  1.00  0.00     0.040 A 
ATOM     89  F   UNL A   1      46.460  28.323  23.389  1.00  0.00    -0.206 F 
ATOM     90  C   UNL A   1      49.744  26.829  23.691  1.00  0.00     0.006 A 
ENDBRANCH  66  83
ENDBRANCH  40  41
ENDBRANCH  33  35
ENDBRANCH  32  33
ENDBRANCH  31  32
ENDBRANCH  30  31
ENDBRANCH  29  30
ENDBRANCH  28  29
ENDBRANCH  27  28
ENDBRANCH   1  27
TORSDOF 22
ENDMDL
MODEL 3
REMARK VINA RESULT:      -9.4      4.305      8.261
REMARK SMILES Cc1nc(C)c(C(=O)N2CCC([C@H](C)C(=O)OCCOCCOCCOCCOC(=O)c3ccc(-c4c5nc(c(-c6c(F)cccc6F)c6ccc([nH]6)c(-c6c(F)cccc6F)c6nc(c(-c7c(F)cccc7F)c7ccc4[nH]7)C=C6)C=C5)cc3)CC2)s1
REMARK SMILES IDX 23 1 22 2 21 3 20 4 19 5 18 6 17 7 15 8 16 9 13 10 14 11
REMARK SMILES IDX 12 12 7 13 8 14 9 15 10 16 87 17 11 18 86 19 6 20 1 21 2 22
REMARK SMILES IDX 3 23 88 24 4 25 5 26 24 27 25 28 26 29 27 30 28 31 29 32
REMARK SMILES IDX 30 33 31 34 32 35 33 36 85 37 34 38 84 39 35 40 36 41 37 42
REMARK SMILES IDX 78 43 38 44 83 45 77 46 79 47 39 48 82 49 76 50 75 51 40 53
REMARK SMILES IDX 66 54 49 55 65 56 50 57 53 58 64 59 80 60 51 61 52 62 63 64
REMARK SMILES IDX 81 65 54 66 41 67 42 68 47 69 43 70 44 71 46 72 48 73 45 74
REMARK SMILES IDX 67 75 68 76 73 77 69 78 70 79 72 80 74 81 71 82 55 83 56 84
REMARK SMILES IDX 61 85 57 86 58 87 60 88 62 89 59 90
REMARK H PARENT 79 52 53 63
REMARK Flexibility Score: inf
ROOT
ATOM      1  O   UNL A   1      31.589  27.372  23.122  1.00  0.00    -0.377 OA
ENDROOT
BRANCH   1   2
ATOM      2  C   UNL A   1      30.247  27.124  23.456  1.00  0.00     0.188 C 
BRANCH   2   3
ATOM      3  C   UNL A   1      29.837  26.371  24.723  1.00  0.00     0.188 C 
BRANCH   3   4
ATOM      4  O   UNL A   1      30.255  25.042  24.976  1.00  0.00    -0.376 OA
BRANCH   4   5
ATOM      5  C   UNL A   1      31.137  24.637  26.002  1.00  0.00     0.202 C 
BRANCH   5   6
ATOM      6  C   UNL A   1      32.392  25.412  26.423  1.00  0.00     0.261 C 
BRANCH   6   7
ATOM      7  O   UNL A   1      33.656  24.749  26.275  1.00  0.00    -0.463 OA
BRANCH   7   8
ATOM      8  C   UNL A   1      34.363  25.065  25.153  1.00  0.00     0.309 C 
ATOM      9  O   UNL A   1      34.405  26.185  24.661  1.00  0.00    -0.252 OA
BRANCH   8  10
ATOM     10  C   UNL A   1      35.015  23.851  24.487  1.00  0.00     0.099 C 
ATOM     11  C   UNL A   1      36.531  23.728  24.657  1.00  0.00     0.020 C 
BRANCH  10  12
ATOM     12  C   UNL A   1      34.229  22.542  24.757  1.00  0.00     0.006 C 
ATOM     13  C   UNL A   1      32.678  18.827  23.537  1.00  0.00     0.265 C 
ATOM     14  O   UNL A   1      32.108  18.942  22.453  1.00  0.00    -0.268 OA
ATOM     15  N   UNL A   1      33.068  19.953  24.254  1.00  0.00    -0.338 N 
ATOM     16  C   UNL A   1      32.207  21.115  24.244  1.00  0.00     0.120 C 
ATOM     17  C   UNL A   1      34.280  20.036  25.062  1.00  0.00     0.120 C 
ATOM     18  C   UNL A   1      32.969  22.374  23.884  1.00  0.00     0.026 C 
ATOM     19  C   UNL A   1      35.084  21.262  24.670  1.00  0.00     0.026 C 
BRANCH  13  20
ATOM     20  C   UNL A   1      32.908  17.540  24.160  1.00  0.00     0.115 A 
ATOM     21  C   UNL A   1      32.438  14.553  26.580  1.00  0.00     0.079 C 
ATOM     22  C   UNL A   1      32.778  15.544  25.526  1.00  0.00     0.091 A 
ATOM     23  N   UNL A   1      33.731  15.405  24.630  1.00  0.00    -0.246 NA
ATOM     24  S   UNL A   1      31.864  16.976  25.406  1.00  0.00    -0.113 S 
ATOM     25  C   UNL A   1      33.783  16.527  23.807  1.00  0.00     0.061 A 
ATOM     26  C   UNL A   1      34.741  16.514  22.669  1.00  0.00     0.068 C 
ENDBRANCH  13  20
ENDBRANCH  10  12
ENDBRANCH   8  10
ENDBRANCH   7   8
ENDBRANCH   6   7
ENDBRANCH   5   6
ENDBRANCH   4   5
ENDBRANCH   3   4
ENDBRANCH   2   3
ENDBRANCH   1   2
BRANCH   1  27
ATOM     27  C   UNL A   1      31.999  28.712  23.203  1.00  0.00     0.188 C 
BRANCH  27  28
ATOM     28  C   UNL A   1      32.287  29.131  24.645  1.00  0.00     0.188 C 
BRANCH  28  29
ATOM     29  O   UNL A   1      31.556  30.182  25.281  1.00  0.00    -0.376 OA
BRANCH  29  30
ATOM     30  C   UNL A   1      31.790  30.547  26.632  1.00  0.00     0.202 C 
BRANCH  30  31
ATOM     31  C   UNL A   1      31.850  32.050  26.971  1.00  0.00     0.261 C 
BRANCH  31  32
ATOM     32  O   UNL A   1      33.150  32.626  27.143  1.00  0.00    -0.460 OA
BRANCH  32  33
ATOM     33  C   UNL A   1      33.248  33.615  28.058  1.00  0.00     0.338 C 
ATOM     34  O   UNL A   1      32.438  34.497  28.294  1.00  0.00    -0.246 OA
BRANCH  33  35
ATOM     35  C   UNL A   1      34.478  33.399  28.849  1.00  0.00     0.060 A 
ATOM     36  C   UNL A   1      35.698  33.869  28.347  1.00  0.00     0.016 A 
ATOM     37  C   UNL A   1      34.431  32.726  30.073  1.00  0.00     0.016 A 
ATOM     38  C   UNL A   1      36.879  33.649  29.052  1.00  0.00     0.010 A 
ATOM     39  C   UNL A   1      35.620  32.469  30.761  1.00  0.00     0.010 A 
ATOM     40  C   UNL A   1      36.850  32.900  30.233  1.00  0.00    -0.014 A 
BRANCH  40  41
ATOM     41  C   UNL A   1      38.118  32.360  30.773  1.00  0.00     0.031 A 
ATOM     42  C   UNL A   1      38.672  31.110  30.151  1.00  0.00     0.074 A 
ATOM     43  C   UNL A   1      38.778  32.976  31.769  1.00  0.00     0.049 A 
ATOM     44  N   UNL A   1      39.731  30.415  30.475  1.00  0.00    -0.248 NA
ATOM     45  C   UNL A   1      37.918  30.566  29.009  1.00  0.00     0.031 C 
ATOM     46  C   UNL A   1      38.362  34.214  32.420  1.00  0.00     0.029 A 
ATOM     47  N   UNL A   1      39.936  32.623  32.414  1.00  0.00    -0.354 N 
ATOM     48  C   UNL A   1      39.767  29.352  29.581  1.00  0.00     0.074 A 
ATOM     49  C   UNL A   1      38.606  29.471  28.728  1.00  0.00     0.031 C 
ATOM     50  C   UNL A   1      39.240  34.506  33.396  1.00  0.00     0.029 A 
ATOM     51  C   UNL A   1      40.259  33.458  33.453  1.00  0.00     0.049 A 
ATOM     52  H   UNL A   1      40.484  31.846  32.155  1.00  0.00     0.167 HD
ATOM     53  C   UNL A   1      40.690  28.368  29.476  1.00  0.00     0.037 A 
ATOM     54  C   UNL A   1      41.246  33.364  34.366  1.00  0.00     0.037 A 
ATOM     55  C   UNL A   1      41.835  28.246  30.340  1.00  0.00     0.049 A 
ATOM     56  C   UNL A   1      42.222  32.218  34.282  1.00  0.00     0.074 A 
ATOM     57  C   UNL A   1      42.837  27.294  30.314  1.00  0.00     0.029 A 
ATOM     58  N   UNL A   1      42.118  29.099  31.396  1.00  0.00    -0.354 N 
ATOM     59  N   UNL A   1      42.268  31.231  33.419  1.00  0.00    -0.248 NA
ATOM     60  C   UNL A   1      43.284  32.176  35.296  1.00  0.00     0.031 C 
ATOM     61  C   UNL A   1      43.694  27.537  31.393  1.00  0.00     0.029 A 
ATOM     62  C   UNL A   1      43.264  28.678  32.051  1.00  0.00     0.049 A 
ATOM     63  H   UNL A   1      41.584  29.888  31.644  1.00  0.00     0.167 HD
ATOM     64  C   UNL A   1      43.375  30.467  33.768  1.00  0.00     0.074 A 
ATOM     65  C   UNL A   1      43.980  31.114  34.915  1.00  0.00     0.031 C 
ATOM     66  C   UNL A   1      43.852  29.335  33.191  1.00  0.00     0.037 A 
BRANCH  53  67
ATOM     67  C   UNL A   1      40.465  27.329  28.417  1.00  0.00     0.057 A 
ATOM     68  C   UNL A   1      39.634  26.219  28.627  1.00  0.00     0.134 A 
ATOM     69  C   UNL A   1      41.097  27.433  27.172  1.00  0.00     0.134 A 
ATOM     70  F   UNL A   1      39.011  26.048  29.803  1.00  0.00    -0.206 F 
ATOM     71  C   UNL A   1      39.472  25.232  27.651  1.00  0.00     0.040 A 
ATOM     72  C   UNL A   1      40.918  26.470  26.177  1.00  0.00     0.040 A 
ATOM     73  F   UNL A   1      41.904  28.470  26.902  1.00  0.00    -0.206 F 
ATOM     74  C   UNL A   1      40.112  25.360  26.420  1.00  0.00     0.006 A 
ENDBRANCH  53  67
BRANCH  54  75
ATOM     75  C   UNL A   1      41.343  34.371  35.452  1.00  0.00     0.057 A 
ATOM     76  C   UNL A   1      40.643  34.221  36.655  1.00  0.00     0.134 A 
ATOM     77  C   UNL A   1      42.143  35.512  35.310  1.00  0.00     0.134 A 
ATOM     78  F   UNL A   1      39.843  33.162  36.842  1.00  0.00    -0.206 F 
ATOM     79  C   UNL A   1      40.726  35.174  37.672  1.00  0.00     0.040 A 
ATOM     80  C   UNL A   1      42.256  36.459  36.330  1.00  0.00     0.040 A 
ATOM     81  F   UNL A   1      42.839  35.715  34.182  1.00  0.00    -0.206 F 
ATOM     82  C   UNL A   1      41.541  36.294  37.513  1.00  0.00     0.006 A 
ENDBRANCH  54  75
BRANCH  66  83
ATOM     83  C   UNL A   1      45.107  28.741  33.768  1.00  0.00     0.057 A 
ATOM     84  C   UNL A   1      46.381  29.181  33.389  1.00  0.00     0.134 A 
ATOM     85  C   UNL A   1      45.034  27.746  34.753  1.00  0.00     0.134 A 
ATOM     86  F   UNL A   1      46.523  30.121  32.443  1.00  0.00    -0.206 F 
ATOM     87  C   UNL A   1      47.537  28.636  33.951  1.00  0.00     0.040 A 
ATOM     88  C   UNL A   1      46.181  27.217  35.344  1.00  0.00     0.040 A 
ATOM     89  F   UNL A   1      43.844  27.287  35.172  1.00  0.00    -0.206 F 
ATOM     90  C   UNL A   1      47.439  27.657  34.938  1.00  0.00     0.006 A 
ENDBRANCH  66  83
ENDBRANCH  40  41
ENDBRANCH  33  35
ENDBRANCH  32  33
ENDBRANCH  31  32
ENDBRANCH  30  31
ENDBRANCH  29  30
ENDBRANCH  28  29
ENDBRANCH  27  28
ENDBRANCH   1  27
TORSDOF 22
ENDMDL
