MODEL 1
REMARK VINA RESULT:     -10.4      0.000      0.000
REMARK SMILES O=C(OCCOCCOCCOCCOC(=O)[C@H]1Cc2c([nH]c3ccccc23)[C@@H](c2ccc(OC(F)(F)F)cc2)[NH2+]1)c1ccc(-c2c3nc(c(-c4c(F)cccc4F)c4ccc([nH]4)c(-c4c(F)cccc4F)c4nc(c(-c5c(F)cccc5F)c5ccc2[nH]5)C=C4)C=C3)cc1
REMARK SMILES IDX 10 1 9 2 8 3 7 4 6 5 5 6 4 7 3 8 2 9 1 10 42 11 43 12 95 13
REMARK SMILES IDX 44 14 94 15 45 16 46 17 47 18 88 19 48 20 93 21 87 22 89 23
REMARK SMILES IDX 49 24 92 25 86 26 85 27 50 29 76 30 59 31 75 32 60 33 63 34
REMARK SMILES IDX 74 35 90 36 61 37 62 38 73 40 91 41 64 42 51 43 52 44 57 45
REMARK SMILES IDX 53 46 54 47 56 48 58 49 55 50 77 51 78 52 83 53 79 54 80 55
REMARK SMILES IDX 82 56 84 57 81 58 65 59 66 60 71 61 67 62 68 63 70 64 72 65
REMARK SMILES IDX 69 66 11 67 12 68 13 69 14 70 15 71 16 72 17 73 18 74 19 75
REMARK SMILES IDX 41 76 20 77 29 78 21 81 28 82 22 83 23 84 27 85 24 87 26 88
REMARK SMILES IDX 25 89 30 90 31 91 40 92 32 93 39 94 33 95 34 96 35 97 36 98
REMARK SMILES IDX 37 99 38 100
REMARK H PARENT 89 28 63 39 41 79 41 80 22 86
REMARK Flexibility Score: inf
ROOT
ATOM      1  C   UNL A   1      42.220  19.331  26.149  1.00  0.00     0.188 C 
ENDROOT
BRANCH   1   2
ATOM      2  O   UNL A   1      43.069  19.967  25.196  1.00  0.00    -0.377 OA
BRANCH   2   3
ATOM      3  C   UNL A   1      43.820  21.129  25.493  1.00  0.00     0.188 C 
BRANCH   3   4
ATOM      4  C   UNL A   1      45.065  21.289  24.650  1.00  0.00     0.188 C 
BRANCH   4   5
ATOM      5  O   UNL A   1      45.261  22.669  24.431  1.00  0.00    -0.376 OA
BRANCH   5   6
ATOM      6  C   UNL A   1      44.182  23.571  24.445  1.00  0.00     0.202 C 
BRANCH   6   7
ATOM      7  C   UNL A   1      44.451  24.967  24.968  1.00  0.00     0.261 C 
BRANCH   7   8
ATOM      8  O   UNL A   1      43.352  25.912  25.028  1.00  0.00    -0.460 OA
BRANCH   8   9
ATOM      9  C   UNL A   1      42.202  26.044  25.730  1.00  0.00     0.338 C 
ATOM     10  O   UNL A   1      41.170  25.569  25.288  1.00  0.00    -0.246 OA
BRANCH   9  11
ATOM     11  C   UNL A   1      42.149  26.684  27.061  1.00  0.00     0.060 A 
ATOM     12  C   UNL A   1      41.488  26.139  28.147  1.00  0.00     0.016 A 
ATOM     13  C   UNL A   1      42.937  27.816  27.281  1.00  0.00     0.016 A 
ATOM     14  C   UNL A   1      41.298  26.853  29.308  1.00  0.00     0.010 A 
ATOM     15  C   UNL A   1      42.912  28.454  28.524  1.00  0.00     0.010 A 
ATOM     16  C   UNL A   1      42.010  28.024  29.509  1.00  0.00    -0.014 A 
BRANCH  16  17
ATOM     17  C   UNL A   1      41.650  28.854  30.672  1.00  0.00     0.031 A 
ATOM     18  C   UNL A   1      40.401  29.677  30.567  1.00  0.00     0.074 A 
ATOM     19  C   UNL A   1      42.324  28.734  31.830  1.00  0.00     0.049 A 
ATOM     20  N   UNL A   1      39.932  30.582  31.378  1.00  0.00    -0.248 NA
ATOM     21  C   UNL A   1      39.563  29.449  29.373  1.00  0.00     0.031 C 
ATOM     22  C   UNL A   1      43.447  27.821  32.074  1.00  0.00     0.029 A 
ATOM     23  N   UNL A   1      42.130  29.342  33.040  1.00  0.00    -0.354 N 
ATOM     24  C   UNL A   1      38.797  31.086  30.754  1.00  0.00     0.074 A 
ATOM     25  C   UNL A   1      38.640  30.386  29.503  1.00  0.00     0.031 C 
ATOM     26  C   UNL A   1      43.797  27.884  33.367  1.00  0.00     0.029 A 
ATOM     27  C   UNL A   1      43.013  28.928  34.009  1.00  0.00     0.049 A 
ATOM     28  H   UNL A   1      41.426  30.010  33.202  1.00  0.00     0.167 HD
ATOM     29  C   UNL A   1      37.974  32.062  31.196  1.00  0.00     0.037 A 
ATOM     30  C   UNL A   1      43.193  29.390  35.258  1.00  0.00     0.037 A 
ATOM     31  C   UNL A   1      38.147  32.695  32.473  1.00  0.00     0.049 A 
ATOM     32  C   UNL A   1      42.326  30.537  35.695  1.00  0.00     0.074 A 
ATOM     33  C   UNL A   1      37.434  33.736  33.033  1.00  0.00     0.029 A 
ATOM     34  N   UNL A   1      39.114  32.319  33.400  1.00  0.00    -0.354 N 
ATOM     35  N   UNL A   1      41.329  31.108  35.057  1.00  0.00    -0.248 NA
ATOM     36  C   UNL A   1      42.624  31.127  37.003  1.00  0.00     0.031 C 
ATOM     37  C   UNL A   1      38.004  34.022  34.280  1.00  0.00     0.029 A 
ATOM     38  C   UNL A   1      39.031  33.119  34.522  1.00  0.00     0.049 A 
ATOM     39  H   UNL A   1      39.763  31.589  33.274  1.00  0.00     0.167 HD
ATOM     40  C   UNL A   1      40.865  32.112  35.893  1.00  0.00     0.074 A 
ATOM     41  C   UNL A   1      41.681  32.055  37.092  1.00  0.00     0.031 C 
ATOM     42  C   UNL A   1      39.863  33.005  35.695  1.00  0.00     0.037 A 
BRANCH  29  43
ATOM     43  C   UNL A   1      36.917  32.542  30.246  1.00  0.00     0.057 A 
ATOM     44  C   UNL A   1      37.175  33.466  29.223  1.00  0.00     0.134 A 
ATOM     45  C   UNL A   1      35.589  32.127  30.416  1.00  0.00     0.134 A 
ATOM     46  F   UNL A   1      38.417  33.936  29.029  1.00  0.00    -0.206 F 
ATOM     47  C   UNL A   1      36.147  33.989  28.433  1.00  0.00     0.040 A 
ATOM     48  C   UNL A   1      34.558  32.620  29.613  1.00  0.00     0.040 A 
ATOM     49  F   UNL A   1      35.266  31.256  31.383  1.00  0.00    -0.206 F 
ATOM     50  C   UNL A   1      34.833  33.564  28.627  1.00  0.00     0.006 A 
ENDBRANCH  29  43
BRANCH  30  51
ATOM     51  C   UNL A   1      44.259  28.833  36.134  1.00  0.00     0.057 A 
ATOM     52  C   UNL A   1      44.001  27.779  37.017  1.00  0.00     0.134 A 
ATOM     53  C   UNL A   1      45.564  29.348  36.119  1.00  0.00     0.134 A 
ATOM     54  F   UNL A   1      42.771  27.250  37.094  1.00  0.00    -0.206 F 
ATOM     55  C   UNL A   1      44.991  27.269  37.861  1.00  0.00     0.040 A 
ATOM     56  C   UNL A   1      46.571  28.827  36.935  1.00  0.00     0.040 A 
ATOM     57  F   UNL A   1      45.887  30.357  35.299  1.00  0.00    -0.206 F 
ATOM     58  C   UNL A   1      46.282  27.790  37.817  1.00  0.00     0.006 A 
ENDBRANCH  30  51
BRANCH  42  59
ATOM     59  C   UNL A   1      39.574  33.942  36.827  1.00  0.00     0.057 A 
ATOM     60  C   UNL A   1      38.785  33.563  37.919  1.00  0.00     0.134 A 
ATOM     61  C   UNL A   1      40.130  35.226  36.833  1.00  0.00     0.134 A 
ATOM     62  F   UNL A   1      38.214  32.350  37.958  1.00  0.00    -0.206 F 
ATOM     63  C   UNL A   1      38.536  34.444  38.970  1.00  0.00     0.040 A 
ATOM     64  C   UNL A   1      39.916  36.104  37.894  1.00  0.00     0.040 A 
ATOM     65  F   UNL A   1      40.904  35.640  35.818  1.00  0.00    -0.206 F 
ATOM     66  C   UNL A   1      39.111  35.716  38.962  1.00  0.00     0.006 A 
ENDBRANCH  42  59
ENDBRANCH  16  17
ENDBRANCH   9  11
ENDBRANCH   8   9
ENDBRANCH   7   8
ENDBRANCH   6   7
ENDBRANCH   5   6
ENDBRANCH   4   5
ENDBRANCH   3   4
ENDBRANCH   2   3
ENDBRANCH   1   2
BRANCH   1  67
ATOM     67  C   UNL A   1      41.930  20.049  27.469  1.00  0.00     0.188 C 
BRANCH  67  68
ATOM     68  O   UNL A   1      40.587  20.453  27.613  1.00  0.00    -0.376 OA
BRANCH  68  69
ATOM     69  C   UNL A   1      39.746  20.385  26.464  1.00  0.00     0.202 C 
BRANCH  69  70
ATOM     70  C   UNL A   1      39.130  21.629  25.770  1.00  0.00     0.261 C 
BRANCH  70  71
ATOM     71  O   UNL A   1      38.163  22.415  26.506  1.00  0.00    -0.459 OA
BRANCH  71  72
ATOM     72  C   UNL A   1      37.610  23.467  25.838  1.00  0.00     0.365 C 
ATOM     73  O   UNL A   1      38.242  24.141  25.019  1.00  0.00    -0.245 OA
BRANCH  72  74
ATOM     74  C   UNL A   1      36.111  23.794  26.117  1.00  0.00     0.298 C 
ATOM     75  C   UNL A   1      35.229  24.424  25.016  1.00  0.00     0.115 C 
ATOM     76  N   UNL A   1      35.552  22.619  26.837  1.00  0.00    -0.323 N 
ATOM     77  C   UNL A   1      33.817  24.498  25.465  1.00  0.00    -0.006 A 
ATOM     78  C   UNL A   1      34.109  22.350  26.782  1.00  0.00     0.262 C 
ATOM     79  H   UNL A   1      35.793  22.732  27.821  1.00  0.00     0.347 HD
ATOM     80  H   UNL A   1      35.959  21.823  26.346  1.00  0.00     0.347 HD
ATOM     81  C   UNL A   1      33.338  23.535  26.312  1.00  0.00     0.083 A 
ATOM     82  C   UNL A   1      32.779  25.430  25.204  1.00  0.00     0.003 A 
ATOM     83  N   UNL A   1      32.023  23.818  26.565  1.00  0.00    -0.353 N 
ATOM     84  C   UNL A   1      31.645  24.947  25.863  1.00  0.00     0.046 A 
ATOM     85  C   UNL A   1      32.676  26.622  24.458  1.00  0.00     0.010 A 
ATOM     86  H   UNL A   1      31.435  23.295  27.157  1.00  0.00     0.166 HD
ATOM     87  C   UNL A   1      30.395  25.571  25.758  1.00  0.00     0.026 A 
ATOM     88  C   UNL A   1      31.437  27.269  24.363  1.00  0.00     0.001 A 
ATOM     89  C   UNL A   1      30.312  26.737  24.990  1.00  0.00     0.002 A 
BRANCH  78  90
ATOM     90  C   UNL A   1      33.893  21.098  25.934  1.00  0.00     0.016 A 
ATOM     91  C   UNL A   1      34.818  20.630  24.989  1.00  0.00     0.014 A 
ATOM     92  C   UNL A   1      32.705  20.366  26.105  1.00  0.00     0.014 A 
ATOM     93  C   UNL A   1      34.547  19.492  24.228  1.00  0.00     0.047 A 
ATOM     94  C   UNL A   1      32.444  19.216  25.360  1.00  0.00     0.047 A 
ATOM     95  C   UNL A   1      33.357  18.785  24.401  1.00  0.00     0.129 A 
BRANCH  95  96
ATOM     96  O   UNL A   1      33.214  17.707  23.576  1.00  0.00    -0.406 OA
BRANCH  96  97
ATOM     97  C   UNL A   1      33.866  16.510  23.961  1.00  0.00     0.573 C 
ATOM     98  F   UNL A   1      34.512  15.953  22.913  1.00  0.00    -0.132 F 
ATOM     99  F   UNL A   1      34.739  16.723  24.969  1.00  0.00    -0.132 F 
ATOM    100  F   UNL A   1      32.935  15.632  24.396  1.00  0.00    -0.132 F 
ENDBRANCH  96  97
ENDBRANCH  95  96
ENDBRANCH  78  90
ENDBRANCH  72  74
ENDBRANCH  71  72
ENDBRANCH  70  71
ENDBRANCH  69  70
ENDBRANCH  68  69
ENDBRANCH  67  68
ENDBRANCH   1  67
TORSDOF 23
ENDMDL
MODEL 2
REMARK VINA RESULT:     -10.2      1.561      6.074
REMARK SMILES O=C(OCCOCCOCCOCCOC(=O)[C@H]1Cc2c([nH]c3ccccc23)[C@@H](c2ccc(OC(F)(F)F)cc2)[NH2+]1)c1ccc(-c2c3nc(c(-c4c(F)cccc4F)c4ccc([nH]4)c(-c4c(F)cccc4F)c4nc(c(-c5c(F)cccc5F)c5ccc2[nH]5)C=C4)C=C3)cc1
REMARK SMILES IDX 10 1 9 2 8 3 7 4 6 5 5 6 4 7 3 8 2 9 1 10 42 11 43 12 95 13
REMARK SMILES IDX 44 14 94 15 45 16 46 17 47 18 88 19 48 20 93 21 87 22 89 23
REMARK SMILES IDX 49 24 92 25 86 26 85 27 50 29 76 30 59 31 75 32 60 33 63 34
REMARK SMILES IDX 74 35 90 36 61 37 62 38 73 40 91 41 64 42 51 43 52 44 57 45
REMARK SMILES IDX 53 46 54 47 56 48 58 49 55 50 77 51 78 52 83 53 79 54 80 55
REMARK SMILES IDX 82 56 84 57 81 58 65 59 66 60 71 61 67 62 68 63 70 64 72 65
REMARK SMILES IDX 69 66 11 67 12 68 13 69 14 70 15 71 16 72 17 73 18 74 19 75
REMARK SMILES IDX 41 76 20 77 29 78 21 81 28 82 22 83 23 84 27 85 24 87 26 88
REMARK SMILES IDX 25 89 30 90 31 91 40 92 32 93 39 94 33 95 34 96 35 97 36 98
REMARK SMILES IDX 37 99 38 100
REMARK H PARENT 89 28 63 39 41 79 41 80 22 86
REMARK Flexibility Score: inf
ROOT
ATOM      1  C   UNL A   1      42.303  20.042  26.210  1.00  0.00     0.188 C 
ENDROOT
BRANCH   1   2
ATOM      2  O   UNL A   1      43.092  21.212  26.009  1.00  0.00    -0.377 OA
BRANCH   2   3
ATOM      3  C   UNL A   1      42.543  22.516  26.000  1.00  0.00     0.188 C 
BRANCH   3   4
ATOM      4  C   UNL A   1      43.169  23.442  24.983  1.00  0.00     0.188 C 
BRANCH   4   5
ATOM      5  O   UNL A   1      43.761  22.643  23.982  1.00  0.00    -0.376 OA
BRANCH   5   6
ATOM      6  C   UNL A   1      45.137  22.355  23.997  1.00  0.00     0.202 C 
BRANCH   6   7
ATOM      7  C   UNL A   1      46.038  23.305  24.760  1.00  0.00     0.261 C 
BRANCH   7   8
ATOM      8  O   UNL A   1      45.843  23.451  26.190  1.00  0.00    -0.460 OA
BRANCH   8   9
ATOM      9  C   UNL A   1      46.239  24.312  27.157  1.00  0.00     0.338 C 
ATOM     10  O   UNL A   1      47.423  24.402  27.433  1.00  0.00    -0.246 OA
BRANCH   9  11
ATOM     11  C   UNL A   1      45.300  25.213  27.857  1.00  0.00     0.060 A 
ATOM     12  C   UNL A   1      45.255  26.580  27.653  1.00  0.00     0.016 A 
ATOM     13  C   UNL A   1      44.299  24.641  28.645  1.00  0.00     0.016 A 
ATOM     14  C   UNL A   1      44.505  27.406  28.458  1.00  0.00     0.010 A 
ATOM     15  C   UNL A   1      43.393  25.458  29.327  1.00  0.00     0.010 A 
ATOM     16  C   UNL A   1      43.564  26.851  29.310  1.00  0.00    -0.014 A 
BRANCH  16  17
ATOM     17  C   UNL A   1      42.911  27.741  30.284  1.00  0.00     0.031 A 
ATOM     18  C   UNL A   1      43.670  28.059  31.539  1.00  0.00     0.074 A 
ATOM     19  C   UNL A   1      41.765  28.373  29.972  1.00  0.00     0.049 A 
ATOM     20  N   UNL A   1      43.282  28.699  32.606  1.00  0.00    -0.248 NA
ATOM     21  C   UNL A   1      45.065  27.581  31.601  1.00  0.00     0.031 C 
ATOM     22  C   UNL A   1      41.048  28.259  28.696  1.00  0.00     0.029 A 
ATOM     23  N   UNL A   1      41.027  29.281  30.680  1.00  0.00    -0.354 N 
ATOM     24  C   UNL A   1      44.351  28.627  33.490  1.00  0.00     0.074 A 
ATOM     25  C   UNL A   1      45.407  27.890  32.839  1.00  0.00     0.031 C 
ATOM     26  C   UNL A   1      40.014  29.112  28.691  1.00  0.00     0.029 A 
ATOM     27  C   UNL A   1      39.921  29.735  30.002  1.00  0.00     0.049 A 
ATOM     28  H   UNL A   1      41.264  29.580  31.587  1.00  0.00     0.167 HD
ATOM     29  C   UNL A   1      44.424  29.127  34.742  1.00  0.00     0.037 A 
ATOM     30  C   UNL A   1      38.920  30.526  30.426  1.00  0.00     0.037 A 
ATOM     31  C   UNL A   1      43.361  29.895  35.327  1.00  0.00     0.049 A 
ATOM     32  C   UNL A   1      38.978  30.996  31.853  1.00  0.00     0.074 A 
ATOM     33  C   UNL A   1      43.263  30.416  36.602  1.00  0.00     0.029 A 
ATOM     34  N   UNL A   1      42.205  30.262  34.647  1.00  0.00    -0.354 N 
ATOM     35  N   UNL A   1      39.931  30.824  32.741  1.00  0.00    -0.248 NA
ATOM     36  C   UNL A   1      37.816  31.738  32.350  1.00  0.00     0.031 C 
ATOM     37  C   UNL A   1      42.022  31.057  36.707  1.00  0.00     0.029 A 
ATOM     38  C   UNL A   1      41.376  30.988  35.479  1.00  0.00     0.049 A 
ATOM     39  H   UNL A   1      42.006  30.037  33.709  1.00  0.00     0.167 HD
ATOM     40  C   UNL A   1      39.495  31.453  33.897  1.00  0.00     0.074 A 
ATOM     41  C   UNL A   1      38.198  32.027  33.585  1.00  0.00     0.031 C 
ATOM     42  C   UNL A   1      40.099  31.548  35.108  1.00  0.00     0.037 A 
BRANCH  29  43
ATOM     43  C   UNL A   1      45.631  28.757  35.553  1.00  0.00     0.057 A 
ATOM     44  C   UNL A   1      45.735  27.549  36.257  1.00  0.00     0.134 A 
ATOM     45  C   UNL A   1      46.680  29.676  35.697  1.00  0.00     0.134 A 
ATOM     46  F   UNL A   1      44.750  26.640  36.198  1.00  0.00    -0.206 F 
ATOM     47  C   UNL A   1      46.817  27.286  37.103  1.00  0.00     0.040 A 
ATOM     48  C   UNL A   1      47.780  29.411  36.516  1.00  0.00     0.040 A 
ATOM     49  F   UNL A   1      46.642  30.857  35.063  1.00  0.00    -0.206 F 
ATOM     50  C   UNL A   1      47.845  28.219  37.232  1.00  0.00     0.006 A 
ENDBRANCH  29  43
BRANCH  30  51
ATOM     51  C   UNL A   1      37.773  30.852  29.538  1.00  0.00     0.057 A 
ATOM     52  C   UNL A   1      36.776  29.911  29.258  1.00  0.00     0.134 A 
ATOM     53  C   UNL A   1      37.647  32.112  28.934  1.00  0.00     0.134 A 
ATOM     54  F   UNL A   1      36.842  28.681  29.788  1.00  0.00    -0.206 F 
ATOM     55  C   UNL A   1      35.710  30.202  28.403  1.00  0.00     0.040 A 
ATOM     56  C   UNL A   1      36.570  32.428  28.102  1.00  0.00     0.040 A 
ATOM     57  F   UNL A   1      38.563  33.066  29.156  1.00  0.00    -0.206 F 
ATOM     58  C   UNL A   1      35.603  31.466  27.827  1.00  0.00     0.006 A 
ENDBRANCH  30  51
BRANCH  42  59
ATOM     59  C   UNL A   1      39.380  32.348  36.149  1.00  0.00     0.057 A 
ATOM     60  C   UNL A   1      38.373  31.792  36.946  1.00  0.00     0.134 A 
ATOM     61  C   UNL A   1      39.734  33.683  36.377  1.00  0.00     0.134 A 
ATOM     62  F   UNL A   1      37.981  30.522  36.761  1.00  0.00    -0.206 F 
ATOM     63  C   UNL A   1      37.721  32.548  37.919  1.00  0.00     0.040 A 
ATOM     64  C   UNL A   1      39.113  34.439  37.369  1.00  0.00     0.040 A 
ATOM     65  F   UNL A   1      40.700  34.266  35.651  1.00  0.00    -0.206 F 
ATOM     66  C   UNL A   1      38.099  33.873  38.138  1.00  0.00     0.006 A 
ENDBRANCH  42  59
ENDBRANCH  16  17
ENDBRANCH   9  11
ENDBRANCH   8   9
ENDBRANCH   7   8
ENDBRANCH   6   7
ENDBRANCH   5   6
ENDBRANCH   4   5
ENDBRANCH   3   4
ENDBRANCH   2   3
ENDBRANCH   1   2
BRANCH   1  67
ATOM     67  C   UNL A   1      41.174  20.085  27.242  1.00  0.00     0.188 C 
BRANCH  67  68
ATOM     68  O   UNL A   1      40.098  20.917  26.871  1.00  0.00    -0.376 OA
BRANCH  68  69
ATOM     69  C   UNL A   1      39.334  20.545  25.726  1.00  0.00     0.202 C 
BRANCH  69  70
ATOM     70  C   UNL A   1      38.142  21.374  25.177  1.00  0.00     0.261 C 
BRANCH  70  71
ATOM     71  O   UNL A   1      37.264  22.022  26.128  1.00  0.00    -0.459 OA
BRANCH  71  72
ATOM     72  C   UNL A   1      37.162  23.378  26.024  1.00  0.00     0.365 C 
ATOM     73  O   UNL A   1      38.148  24.121  26.021  1.00  0.00    -0.245 OA
BRANCH  72  74
ATOM     74  C   UNL A   1      35.734  23.987  25.878  1.00  0.00     0.298 C 
ATOM     75  C   UNL A   1      35.230  24.479  24.502  1.00  0.00     0.115 C 
ATOM     76  N   UNL A   1      34.820  23.106  26.654  1.00  0.00    -0.323 N 
ATOM     77  C   UNL A   1      33.802  24.869  24.585  1.00  0.00    -0.006 A 
ATOM     78  C   UNL A   1      33.393  23.058  26.313  1.00  0.00     0.262 C 
ATOM     79  H   UNL A   1      34.881  23.401  27.627  1.00  0.00     0.347 HD
ATOM     80  H   UNL A   1      35.149  22.167  26.429  1.00  0.00     0.347 HD
ATOM     81  C   UNL A   1      32.982  24.210  25.462  1.00  0.00     0.083 A 
ATOM     82  C   UNL A   1      33.043  25.867  23.919  1.00  0.00     0.003 A 
ATOM     83  N   UNL A   1      31.727  24.742  25.342  1.00  0.00    -0.353 N 
ATOM     84  C   UNL A   1      31.728  25.727  24.372  1.00  0.00     0.046 A 
ATOM     85  C   UNL A   1      33.330  26.860  22.960  1.00  0.00     0.010 A 
ATOM     86  H   UNL A   1      30.941  24.465  25.866  1.00  0.00     0.166 HD
ATOM     87  C   UNL A   1      30.674  26.496  23.861  1.00  0.00     0.026 A 
ATOM     88  C   UNL A   1      32.289  27.651  22.457  1.00  0.00     0.001 A 
ATOM     89  C   UNL A   1      30.979  27.456  22.891  1.00  0.00     0.002 A 
BRANCH  78  90
ATOM     90  C   UNL A   1      33.101  21.695  25.688  1.00  0.00     0.016 A 
ATOM     91  C   UNL A   1      33.151  20.487  26.400  1.00  0.00     0.014 A 
ATOM     92  C   UNL A   1      32.762  21.637  24.325  1.00  0.00     0.014 A 
ATOM     93  C   UNL A   1      32.898  19.271  25.763  1.00  0.00     0.047 A 
ATOM     94  C   UNL A   1      32.488  20.424  23.693  1.00  0.00     0.047 A 
ATOM     95  C   UNL A   1      32.576  19.231  24.406  1.00  0.00     0.129 A 
BRANCH  95  96
ATOM     96  O   UNL A   1      32.375  17.976  23.908  1.00  0.00    -0.406 OA
BRANCH  96  97
ATOM     97  C   UNL A   1      33.506  17.301  23.388  1.00  0.00     0.573 C 
ATOM     98  F   UNL A   1      34.651  17.829  23.874  1.00  0.00    -0.132 F 
ATOM     99  F   UNL A   1      33.465  15.980  23.664  1.00  0.00    -0.132 F 
ATOM    100  F   UNL A   1      33.514  17.444  22.044  1.00  0.00    -0.132 F 
ENDBRANCH  96  97
ENDBRANCH  95  96
ENDBRANCH  78  90
ENDBRANCH  72  74
ENDBRANCH  71  72
ENDBRANCH  70  71
ENDBRANCH  69  70
ENDBRANCH  68  69
ENDBRANCH  67  68
ENDBRANCH   1  67
TORSDOF 23
ENDMDL
MODEL 3
REMARK VINA RESULT:     -10.2      5.018     10.513
REMARK SMILES O=C(OCCOCCOCCOCCOC(=O)[C@H]1Cc2c([nH]c3ccccc23)[C@@H](c2ccc(OC(F)(F)F)cc2)[NH2+]1)c1ccc(-c2c3nc(c(-c4c(F)cccc4F)c4ccc([nH]4)c(-c4c(F)cccc4F)c4nc(c(-c5c(F)cccc5F)c5ccc2[nH]5)C=C4)C=C3)cc1
REMARK SMILES IDX 10 1 9 2 8 3 7 4 6 5 5 6 4 7 3 8 2 9 1 10 42 11 43 12 95 13
REMARK SMILES IDX 44 14 94 15 45 16 46 17 47 18 88 19 48 20 93 21 87 22 89 23
REMARK SMILES IDX 49 24 92 25 86 26 85 27 50 29 76 30 59 31 75 32 60 33 63 34
REMARK SMILES IDX 74 35 90 36 61 37 62 38 73 40 91 41 64 42 51 43 52 44 57 45
REMARK SMILES IDX 53 46 54 47 56 48 58 49 55 50 77 51 78 52 83 53 79 54 80 55
REMARK SMILES IDX 82 56 84 57 81 58 65 59 66 60 71 61 67 62 68 63 70 64 72 65
REMARK SMILES IDX 69 66 11 67 12 68 13 69 14 70 15 71 16 72 17 73 18 74 19 75
REMARK SMILES IDX 41 76 20 77 29 78 21 81 28 82 22 83 23 84 27 85 24 87 26 88
REMARK SMILES IDX 25 89 30 90 31 91 40 92 32 93 39 94 33 95 34 96 35 97 36 98
REMARK SMILES IDX 37 99 38 100
REMARK H PARENT 89 28 63 39 41 79 41 80 22 86
REMARK Flexibility Score: inf
ROOT
ATOM      1  C   UNL A   1      31.513  29.437  24.829  1.00  0.00     0.188 C 
ENDROOT
BRANCH   1   2
ATOM      2  O   UNL A   1      32.462  29.547  25.887  1.00  0.00    -0.377 OA
BRANCH   2   3
ATOM      3  C   UNL A   1      32.580  30.703  26.694  1.00  0.00     0.188 C 
BRANCH   3   4
ATOM      4  C   UNL A   1      33.823  30.730  27.555  1.00  0.00     0.188 C 
BRANCH   4   5
ATOM      5  O   UNL A   1      34.394  32.015  27.446  1.00  0.00    -0.376 OA
BRANCH   5   6
ATOM      6  C   UNL A   1      34.238  32.971  28.466  1.00  0.00     0.202 C 
BRANCH   6   7
ATOM      7  C   UNL A   1      34.815  32.635  29.827  1.00  0.00     0.261 C 
BRANCH   7   8
ATOM      8  O   UNL A   1      36.177  32.143  29.904  1.00  0.00    -0.460 OA
BRANCH   8   9
ATOM      9  C   UNL A   1      36.891  31.340  30.727  1.00  0.00     0.338 C 
ATOM     10  O   UNL A   1      36.505  31.152  31.868  1.00  0.00    -0.246 OA
BRANCH   9  11
ATOM     11  C   UNL A   1      38.096  30.610  30.280  1.00  0.00     0.060 A 
ATOM     12  C   UNL A   1      38.943  29.933  31.138  1.00  0.00     0.016 A 
ATOM     13  C   UNL A   1      38.306  30.460  28.908  1.00  0.00     0.016 A 
ATOM     14  C   UNL A   1      40.152  29.433  30.713  1.00  0.00     0.010 A 
ATOM     15  C   UNL A   1      39.436  29.781  28.444  1.00  0.00     0.010 A 
ATOM     16  C   UNL A   1      40.413  29.353  29.355  1.00  0.00    -0.014 A 
BRANCH  16  17
ATOM     17  C   UNL A   1      41.778  28.986  28.940  1.00  0.00     0.031 A 
ATOM     18  C   UNL A   1      41.988  27.593  28.426  1.00  0.00     0.074 A 
ATOM     19  C   UNL A   1      42.744  29.920  28.866  1.00  0.00     0.049 A 
ATOM     20  N   UNL A   1      43.096  26.977  28.124  1.00  0.00    -0.248 NA
ATOM     21  C   UNL A   1      40.775  26.776  28.230  1.00  0.00     0.031 C 
ATOM     22  C   UNL A   1      42.578  31.346  29.179  1.00  0.00     0.029 A 
ATOM     23  N   UNL A   1      44.044  29.828  28.451  1.00  0.00    -0.354 N 
ATOM     24  C   UNL A   1      42.719  25.683  27.784  1.00  0.00     0.074 A 
ATOM     25  C   UNL A   1      41.284  25.600  27.909  1.00  0.00     0.031 C 
ATOM     26  C   UNL A   1      43.711  31.998  28.885  1.00  0.00     0.029 A 
ATOM     27  C   UNL A   1      44.716  31.026  28.485  1.00  0.00     0.049 A 
ATOM     28  H   UNL A   1      44.457  28.985  28.157  1.00  0.00     0.167 HD
ATOM     29  C   UNL A   1      43.518  24.659  27.415  1.00  0.00     0.037 A 
ATOM     30  C   UNL A   1      46.018  31.284  28.268  1.00  0.00     0.037 A 
ATOM     31  C   UNL A   1      44.937  24.807  27.259  1.00  0.00     0.049 A 
ATOM     32  C   UNL A   1      46.903  30.113  27.948  1.00  0.00     0.074 A 
ATOM     33  C   UNL A   1      45.884  23.851  26.951  1.00  0.00     0.029 A 
ATOM     34  N   UNL A   1      45.609  26.018  27.394  1.00  0.00    -0.354 N 
ATOM     35  N   UNL A   1      46.572  28.857  27.750  1.00  0.00    -0.248 NA
ATOM     36  C   UNL A   1      48.341  30.381  27.853  1.00  0.00     0.031 C 
ATOM     37  C   UNL A   1      47.138  24.477  26.947  1.00  0.00     0.029 A 
ATOM     38  C   UNL A   1      46.963  25.832  27.192  1.00  0.00     0.049 A 
ATOM     39  H   UNL A   1      45.183  26.880  27.602  1.00  0.00     0.167 HD
ATOM     40  C   UNL A   1      47.757  28.187  27.486  1.00  0.00     0.074 A 
ATOM     41  C   UNL A   1      48.811  29.184  27.531  1.00  0.00     0.031 C 
ATOM     42  C   UNL A   1      47.965  26.869  27.235  1.00  0.00     0.037 A 
BRANCH  29  43
ATOM     43  C   UNL A   1      42.873  23.311  27.272  1.00  0.00     0.057 A 
ATOM     44  C   UNL A   1      42.576  22.737  26.027  1.00  0.00     0.134 A 
ATOM     45  C   UNL A   1      42.467  22.610  28.415  1.00  0.00     0.134 A 
ATOM     46  F   UNL A   1      42.900  23.372  24.890  1.00  0.00    -0.206 F 
ATOM     47  C   UNL A   1      41.864  21.538  25.926  1.00  0.00     0.040 A 
ATOM     48  C   UNL A   1      41.781  21.397  28.327  1.00  0.00     0.040 A 
ATOM     49  F   UNL A   1      42.706  23.106  29.638  1.00  0.00    -0.206 F 
ATOM     50  C   UNL A   1      41.466  20.864  27.080  1.00  0.00     0.006 A 
ENDBRANCH  29  43
BRANCH  30  51
ATOM     51  C   UNL A   1      46.559  32.662  28.416  1.00  0.00     0.057 A 
ATOM     52  C   UNL A   1      47.099  33.107  29.628  1.00  0.00     0.134 A 
ATOM     53  C   UNL A   1      46.541  33.575  27.353  1.00  0.00     0.134 A 
ATOM     54  F   UNL A   1      47.133  32.291  30.692  1.00  0.00    -0.206 F 
ATOM     55  C   UNL A   1      47.586  34.408  29.782  1.00  0.00     0.040 A 
ATOM     56  C   UNL A   1      47.052  34.869  27.483  1.00  0.00     0.040 A 
ATOM     57  F   UNL A   1      46.040  33.221  26.161  1.00  0.00    -0.206 F 
ATOM     58  C   UNL A   1      47.567  35.291  28.704  1.00  0.00     0.006 A 
ENDBRANCH  30  51
BRANCH  42  59
ATOM     59  C   UNL A   1      49.375  26.464  26.937  1.00  0.00     0.057 A 
ATOM     60  C   UNL A   1      50.255  26.048  27.943  1.00  0.00     0.134 A 
ATOM     61  C   UNL A   1      49.839  26.456  25.616  1.00  0.00     0.134 A 
ATOM     62  F   UNL A   1      49.870  26.050  29.228  1.00  0.00    -0.206 F 
ATOM     63  C   UNL A   1      51.561  25.662  27.646  1.00  0.00     0.040 A 
ATOM     64  C   UNL A   1      51.131  26.042  25.303  1.00  0.00     0.040 A 
ATOM     65  F   UNL A   1      49.036  26.835  24.609  1.00  0.00    -0.206 F 
ATOM     66  C   UNL A   1      51.998  25.650  26.321  1.00  0.00     0.006 A 
ENDBRANCH  42  59
ENDBRANCH  16  17
ENDBRANCH   9  11
ENDBRANCH   8   9
ENDBRANCH   7   8
ENDBRANCH   6   7
ENDBRANCH   5   6
ENDBRANCH   4   5
ENDBRANCH   3   4
ENDBRANCH   2   3
ENDBRANCH   1   2
BRANCH   1  67
ATOM     67  C   UNL A   1      31.890  28.629  23.584  1.00  0.00     0.188 C 
BRANCH  67  68
ATOM     68  O   UNL A   1      30.786  28.269  22.785  1.00  0.00    -0.376 OA
BRANCH  68  69
ATOM     69  C   UNL A   1      29.683  27.631  23.424  1.00  0.00     0.202 C 
BRANCH  69  70
ATOM     70  C   UNL A   1      29.763  26.231  24.089  1.00  0.00     0.261 C 
BRANCH  70  71
ATOM     71  O   UNL A   1      29.770  25.065  23.232  1.00  0.00    -0.459 OA
BRANCH  71  72
ATOM     72  C   UNL A   1      30.986  24.490  23.009  1.00  0.00     0.365 C 
ATOM     73  O   UNL A   1      31.861  25.028  22.324  1.00  0.00    -0.245 OA
BRANCH  72  74
ATOM     74  C   UNL A   1      31.267  23.109  23.678  1.00  0.00     0.298 C 
ATOM     75  C   UNL A   1      32.076  22.026  22.929  1.00  0.00     0.115 C 
ATOM     76  N   UNL A   1      31.664  23.396  25.082  1.00  0.00    -0.323 N 
ATOM     77  C   UNL A   1      32.341  20.871  23.820  1.00  0.00    -0.006 A 
ATOM     78  C   UNL A   1      32.489  22.428  25.817  1.00  0.00     0.262 C 
ATOM     79  H   UNL A   1      30.804  23.515  25.615  1.00  0.00     0.347 HD
ATOM     80  H   UNL A   1      32.275  24.208  24.995  1.00  0.00     0.347 HD
ATOM     81  C   UNL A   1      32.496  21.090  25.162  1.00  0.00     0.083 A 
ATOM     82  C   UNL A   1      32.460  19.479  23.571  1.00  0.00     0.003 A 
ATOM     83  N   UNL A   1      32.739  19.881  25.757  1.00  0.00    -0.353 N 
ATOM     84  C   UNL A   1      32.767  18.886  24.798  1.00  0.00     0.046 A 
ATOM     85  C   UNL A   1      32.362  18.662  22.426  1.00  0.00     0.010 A 
ATOM     86  H   UNL A   1      32.875  19.741  26.722  1.00  0.00     0.166 HD
ATOM     87  C   UNL A   1      33.042  17.518  24.921  1.00  0.00     0.026 A 
ATOM     88  C   UNL A   1      32.613  17.288  22.538  1.00  0.00     0.001 A 
ATOM     89  C   UNL A   1      32.965  16.732  23.766  1.00  0.00     0.002 A 
BRANCH  78  90
ATOM     90  C   UNL A   1      33.880  23.033  25.999  1.00  0.00     0.016 A 
ATOM     91  C   UNL A   1      34.414  24.019  25.157  1.00  0.00     0.014 A 
ATOM     92  C   UNL A   1      34.675  22.583  27.067  1.00  0.00     0.014 A 
ATOM     93  C   UNL A   1      35.704  24.512  25.363  1.00  0.00     0.047 A 
ATOM     94  C   UNL A   1      35.956  23.091  27.286  1.00  0.00     0.047 A 
ATOM     95  C   UNL A   1      36.485  24.045  26.421  1.00  0.00     0.129 A 
BRANCH  95  96
ATOM     96  O   UNL A   1      37.732  24.596  26.491  1.00  0.00    -0.406 OA
BRANCH  96  97
ATOM     97  C   UNL A   1      38.834  23.716  26.362  1.00  0.00     0.573 C 
ATOM     98  F   UNL A   1      39.866  24.323  25.736  1.00  0.00    -0.132 F 
ATOM     99  F   UNL A   1      39.242  23.254  27.564  1.00  0.00    -0.132 F 
ATOM    100  F   UNL A   1      38.455  22.655  25.616  1.00  0.00    -0.132 F 
ENDBRANCH  96  97
ENDBRANCH  95  96
ENDBRANCH  78  90
ENDBRANCH  72  74
ENDBRANCH  71  72
ENDBRANCH  70  71
ENDBRANCH  69  70
ENDBRANCH  68  69
ENDBRANCH  67  68
ENDBRANCH   1  67
TORSDOF 23
ENDMDL
