MODEL 1
REMARK VINA RESULT:     -10.2      0.000      0.000
REMARK SMILES O=C(C[C@@H](C(=O)N(c1ccccc1)c1ccccc1)[NH+]1CCOCC1)OCCOCCOCCOCCOC(=O)c1ccc(-c2c3nc(c(-c4c(F)cccc4F)c4ccc([nH]4)c(-c4c(F)cccc4F)c4nc(c(-c5c(F)cccc5F)c5ccc2[nH]5)C=C4)C=C3)cc1
REMARK SMILES IDX 31 1 30 2 29 3 28 4 27 5 26 6 2 7 1 8 3 9 4 10 5 11 6 12
REMARK SMILES IDX 7 13 8 14 9 15 13 16 10 17 12 18 11 19 14 20 15 21 19 22
REMARK SMILES IDX 16 23 18 24 17 25 20 26 21 27 25 28 22 30 24 31 23 32 32 33
REMARK SMILES IDX 33 34 34 35 35 36 36 37 37 38 38 39 39 40 40 41 41 42 42 43
REMARK SMILES IDX 94 44 43 45 93 46 44 47 45 48 46 49 87 50 47 51 92 52 86 53
REMARK SMILES IDX 88 54 48 55 91 56 85 57 84 58 49 60 75 61 58 62 74 63 59 64
REMARK SMILES IDX 62 65 73 66 89 67 60 68 61 69 72 71 90 72 63 73 50 74 51 75
REMARK SMILES IDX 56 76 52 77 53 78 55 79 57 80 54 81 76 82 77 83 82 84 78 85
REMARK SMILES IDX 79 86 81 87 83 88 80 89 64 90 65 91 70 92 66 93 67 94 69 95
REMARK SMILES IDX 71 96 68 97
REMARK H PARENT 20 29 88 59 62 70
REMARK Flexibility Score: inf
ROOT
ATOM      1  C   UNL A   1      42.990  18.523  25.735  1.00  0.00     0.188 C 
ENDROOT
BRANCH   1   2
ATOM      2  C   UNL A   1      42.457  19.741  26.497  1.00  0.00     0.188 C 
BRANCH   2   3
ATOM      3  O   UNL A   1      41.863  20.790  25.756  1.00  0.00    -0.376 OA
BRANCH   3   4
ATOM      4  C   UNL A   1      41.431  22.041  26.232  1.00  0.00     0.202 C 
BRANCH   4   5
ATOM      5  C   UNL A   1      40.087  22.308  26.875  1.00  0.00     0.261 C 
BRANCH   5   6
ATOM      6  O   UNL A   1      38.919  22.580  26.096  1.00  0.00    -0.463 OA
BRANCH   6   7
ATOM      7  C   UNL A   1      38.162  23.681  26.084  1.00  0.00     0.312 C 
ATOM      8  O   UNL A   1      38.408  24.604  26.860  1.00  0.00    -0.252 OA
BRANCH   7   9
ATOM      9  C   UNL A   1      36.935  23.730  25.247  1.00  0.00     0.198 C 
BRANCH   9  10
ATOM     10  C   UNL A   1      35.531  23.982  25.752  1.00  0.00     0.286 C 
BRANCH  10  11
ATOM     11  C   UNL A   1      34.417  24.283  24.655  1.00  0.00     0.290 C 
ATOM     12  O   UNL A   1      34.457  23.565  23.638  1.00  0.00    -0.267 OA
ATOM     13  N   UNL A   1      33.476  25.380  24.718  1.00  0.00    -0.276 N 
BRANCH  13  14
ATOM     14  C   UNL A   1      33.198  26.330  25.811  1.00  0.00     0.049 A 
ATOM     15  C   UNL A   1      31.997  26.253  26.558  1.00  0.00     0.027 A 
ATOM     16  C   UNL A   1      33.997  27.416  26.157  1.00  0.00     0.027 A 
ATOM     17  C   UNL A   1      31.441  27.359  27.213  1.00  0.00     0.002 A 
ATOM     18  C   UNL A   1      33.458  28.540  26.818  1.00  0.00     0.002 A 
ATOM     19  C   UNL A   1      32.148  28.543  27.269  1.00  0.00     0.000 A 
ENDBRANCH  13  14
BRANCH  13  20
ATOM     20  C   UNL A   1      32.895  25.783  23.403  1.00  0.00     0.049 A 
ATOM     21  C   UNL A   1      33.412  25.262  22.184  1.00  0.00     0.027 A 
ATOM     22  C   UNL A   1      31.733  26.558  23.299  1.00  0.00     0.027 A 
ATOM     23  C   UNL A   1      32.839  25.536  20.939  1.00  0.00     0.002 A 
ATOM     24  C   UNL A   1      31.141  26.818  22.050  1.00  0.00     0.002 A 
ATOM     25  C   UNL A   1      31.696  26.317  20.873  1.00  0.00     0.000 A 
ENDBRANCH  13  20
ENDBRANCH  10  11
BRANCH  10  26
ATOM     26  N   UNL A   1      35.153  22.793  26.653  1.00  0.00    -0.320 N 
ATOM     27  C   UNL A   1      35.553  21.456  26.151  1.00  0.00     0.291 C 
ATOM     28  C   UNL A   1      33.759  22.672  27.171  1.00  0.00     0.291 C 
ATOM     29  H   UNL A   1      35.730  23.081  27.445  1.00  0.00     0.348 HD
ATOM     30  C   UNL A   1      34.508  20.680  25.315  1.00  0.00     0.221 C 
ATOM     31  C   UNL A   1      32.740  21.857  26.320  1.00  0.00     0.221 C 
ATOM     32  O   UNL A   1      33.259  20.563  26.000  1.00  0.00    -0.370 OA
ENDBRANCH  10  26
ENDBRANCH   9  10
ENDBRANCH   7   9
ENDBRANCH   6   7
ENDBRANCH   5   6
ENDBRANCH   4   5
ENDBRANCH   3   4
ENDBRANCH   2   3
ENDBRANCH   1   2
BRANCH   1  33
ATOM     33  O   UNL A   1      44.401  18.376  25.713  1.00  0.00    -0.377 OA
BRANCH  33  34
ATOM     34  C   UNL A   1      45.052  18.969  24.608  1.00  0.00     0.188 C 
BRANCH  34  35
ATOM     35  C   UNL A   1      46.231  19.911  24.948  1.00  0.00     0.188 C 
BRANCH  35  36
ATOM     36  O   UNL A   1      46.022  21.200  25.499  1.00  0.00    -0.376 OA
BRANCH  36  37
ATOM     37  C   UNL A   1      45.944  22.344  24.669  1.00  0.00     0.202 C 
BRANCH  37  38
ATOM     38  C   UNL A   1      44.677  23.213  24.621  1.00  0.00     0.261 C 
BRANCH  38  39
ATOM     39  O   UNL A   1      44.751  24.513  25.218  1.00  0.00    -0.460 OA
BRANCH  39  40
ATOM     40  C   UNL A   1      43.570  25.170  25.341  1.00  0.00     0.338 C 
ATOM     41  O   UNL A   1      42.647  25.175  24.558  1.00  0.00    -0.246 OA
BRANCH  40  42
ATOM     42  C   UNL A   1      43.479  25.729  26.714  1.00  0.00     0.060 A 
ATOM     43  C   UNL A   1      42.577  25.132  27.611  1.00  0.00     0.016 A 
ATOM     44  C   UNL A   1      44.270  26.806  27.121  1.00  0.00     0.016 A 
ATOM     45  C   UNL A   1      42.403  25.656  28.885  1.00  0.00     0.010 A 
ATOM     46  C   UNL A   1      44.057  27.369  28.382  1.00  0.00     0.010 A 
ATOM     47  C   UNL A   1      43.067  26.837  29.229  1.00  0.00    -0.014 A 
BRANCH  47  48
ATOM     48  C   UNL A   1      42.423  27.700  30.245  1.00  0.00     0.031 A 
ATOM     49  C   UNL A   1      43.079  27.754  31.601  1.00  0.00     0.074 A 
ATOM     50  C   UNL A   1      41.364  28.473  29.961  1.00  0.00     0.049 A 
ATOM     51  N   UNL A   1      42.745  28.433  32.666  1.00  0.00    -0.248 NA
ATOM     52  C   UNL A   1      44.287  26.926  31.775  1.00  0.00     0.031 C 
ATOM     53  C   UNL A   1      40.695  28.559  28.665  1.00  0.00     0.029 A 
ATOM     54  N   UNL A   1      40.671  29.344  30.760  1.00  0.00    -0.354 N 
ATOM     55  C   UNL A   1      43.688  28.100  33.633  1.00  0.00     0.074 A 
ATOM     56  C   UNL A   1      44.588  27.139  33.044  1.00  0.00     0.031 C 
ATOM     57  C   UNL A   1      39.678  29.435  28.760  1.00  0.00     0.029 A 
ATOM     58  C   UNL A   1      39.611  29.946  30.129  1.00  0.00     0.049 A 
ATOM     59  H   UNL A   1      40.910  29.521  31.699  1.00  0.00     0.167 HD
ATOM     60  C   UNL A   1      43.801  28.561  34.899  1.00  0.00     0.037 A 
ATOM     61  C   UNL A   1      38.691  30.799  30.618  1.00  0.00     0.037 A 
ATOM     62  C   UNL A   1      42.902  29.520  35.477  1.00  0.00     0.049 A 
ATOM     63  C   UNL A   1      38.788  31.235  32.059  1.00  0.00     0.074 A 
ATOM     64  C   UNL A   1      42.926  30.066  36.747  1.00  0.00     0.029 A 
ATOM     65  N   UNL A   1      41.808  30.065  34.822  1.00  0.00    -0.354 N 
ATOM     66  N   UNL A   1      39.689  30.931  32.962  1.00  0.00    -0.248 NA
ATOM     67  C   UNL A   1      37.739  32.143  32.544  1.00  0.00     0.031 C 
ATOM     68  C   UNL A   1      41.807  30.895  36.882  1.00  0.00     0.029 A 
ATOM     69  C   UNL A   1      41.130  30.921  35.672  1.00  0.00     0.049 A 
ATOM     70  H   UNL A   1      41.553  29.872  33.891  1.00  0.00     0.167 HD
ATOM     71  C   UNL A   1      39.343  31.642  34.106  1.00  0.00     0.074 A 
ATOM     72  C   UNL A   1      38.153  32.399  33.777  1.00  0.00     0.031 C 
ATOM     73  C   UNL A   1      39.953  31.675  35.317  1.00  0.00     0.037 A 
BRANCH  60  74
ATOM     74  C   UNL A   1      44.903  27.992  35.745  1.00  0.00     0.057 A 
ATOM     75  C   UNL A   1      44.737  26.832  36.514  1.00  0.00     0.134 A 
ATOM     76  C   UNL A   1      46.154  28.621  35.789  1.00  0.00     0.134 A 
ATOM     77  F   UNL A   1      43.557  26.194  36.537  1.00  0.00    -0.206 F 
ATOM     78  C   UNL A   1      45.765  26.336  37.318  1.00  0.00     0.040 A 
ATOM     79  C   UNL A   1      47.199  28.117  36.563  1.00  0.00     0.040 A 
ATOM     80  F   UNL A   1      46.380  29.738  35.081  1.00  0.00    -0.206 F 
ATOM     81  C   UNL A   1      47.003  26.975  37.337  1.00  0.00     0.006 A 
ENDBRANCH  60  74
BRANCH  61  82
ATOM     82  C   UNL A   1      37.596  31.300  29.747  1.00  0.00     0.057 A 
ATOM     83  C   UNL A   1      36.489  30.500  29.439  1.00  0.00     0.134 A 
ATOM     84  C   UNL A   1      37.647  32.575  29.172  1.00  0.00     0.134 A 
ATOM     85  F   UNL A   1      36.393  29.260  29.940  1.00  0.00    -0.206 F 
ATOM     86  C   UNL A   1      35.485  30.940  28.575  1.00  0.00     0.040 A 
ATOM     87  C   UNL A   1      36.637  33.039  28.328  1.00  0.00     0.040 A 
ATOM     88  F   UNL A   1      38.679  33.394  29.427  1.00  0.00    -0.206 F 
ATOM     89  C   UNL A   1      35.556  32.217  28.020  1.00  0.00     0.006 A 
ENDBRANCH  61  82
BRANCH  73  90
ATOM     90  C   UNL A   1      39.383  32.601  36.353  1.00  0.00     0.057 A 
ATOM     91  C   UNL A   1      39.867  33.902  36.542  1.00  0.00     0.134 A 
ATOM     92  C   UNL A   1      38.308  32.190  37.154  1.00  0.00     0.134 A 
ATOM     93  F   UNL A   1      40.897  34.358  35.813  1.00  0.00    -0.206 F 
ATOM     94  C   UNL A   1      39.328  34.747  37.514  1.00  0.00     0.040 A 
ATOM     95  C   UNL A   1      37.739  33.038  38.104  1.00  0.00     0.040 A 
ATOM     96  F   UNL A   1      37.785  30.963  37.016  1.00  0.00    -0.206 F 
ATOM     97  C   UNL A   1      38.257  34.316  38.294  1.00  0.00     0.006 A 
ENDBRANCH  73  90
ENDBRANCH  47  48
ENDBRANCH  40  42
ENDBRANCH  39  40
ENDBRANCH  38  39
ENDBRANCH  37  38
ENDBRANCH  36  37
ENDBRANCH  35  36
ENDBRANCH  34  35
ENDBRANCH  33  34
ENDBRANCH   1  33
TORSDOF 25
ENDMDL
MODEL 2
REMARK VINA RESULT:      -9.9      4.765     10.948
REMARK SMILES O=C(C[C@@H](C(=O)N(c1ccccc1)c1ccccc1)[NH+]1CCOCC1)OCCOCCOCCOCCOC(=O)c1ccc(-c2c3nc(c(-c4c(F)cccc4F)c4ccc([nH]4)c(-c4c(F)cccc4F)c4nc(c(-c5c(F)cccc5F)c5ccc2[nH]5)C=C4)C=C3)cc1
REMARK SMILES IDX 31 1 30 2 29 3 28 4 27 5 26 6 2 7 1 8 3 9 4 10 5 11 6 12
REMARK SMILES IDX 7 13 8 14 9 15 13 16 10 17 12 18 11 19 14 20 15 21 19 22
REMARK SMILES IDX 16 23 18 24 17 25 20 26 21 27 25 28 22 30 24 31 23 32 32 33
REMARK SMILES IDX 33 34 34 35 35 36 36 37 37 38 38 39 39 40 40 41 41 42 42 43
REMARK SMILES IDX 94 44 43 45 93 46 44 47 45 48 46 49 87 50 47 51 92 52 86 53
REMARK SMILES IDX 88 54 48 55 91 56 85 57 84 58 49 60 75 61 58 62 74 63 59 64
REMARK SMILES IDX 62 65 73 66 89 67 60 68 61 69 72 71 90 72 63 73 50 74 51 75
REMARK SMILES IDX 56 76 52 77 53 78 55 79 57 80 54 81 76 82 77 83 82 84 78 85
REMARK SMILES IDX 79 86 81 87 83 88 80 89 64 90 65 91 70 92 66 93 67 94 69 95
REMARK SMILES IDX 71 96 68 97
REMARK H PARENT 20 29 88 59 62 70
REMARK Flexibility Score: inf
ROOT
ATOM      1  C   UNL A   1      32.954  34.706  29.986  1.00  0.00     0.188 C 
ENDROOT
BRANCH   1   2
ATOM      2  C   UNL A   1      34.132  34.848  29.017  1.00  0.00     0.188 C 
BRANCH   2   3
ATOM      3  O   UNL A   1      34.604  33.687  28.360  1.00  0.00    -0.376 OA
BRANCH   3   4
ATOM      4  C   UNL A   1      33.861  32.555  27.974  1.00  0.00     0.202 C 
BRANCH   4   5
ATOM      5  C   UNL A   1      34.452  31.201  27.649  1.00  0.00     0.261 C 
BRANCH   5   6
ATOM      6  O   UNL A   1      33.995  30.425  26.537  1.00  0.00    -0.463 OA
BRANCH   6   7
ATOM      7  C   UNL A   1      33.627  29.141  26.511  1.00  0.00     0.312 C 
ATOM      8  O   UNL A   1      33.208  28.601  27.535  1.00  0.00    -0.252 OA
BRANCH   7   9
ATOM      9  C   UNL A   1      33.865  28.325  25.292  1.00  0.00     0.198 C 
BRANCH   9  10
ATOM     10  C   UNL A   1      32.937  27.261  24.747  1.00  0.00     0.286 C 
BRANCH  10  11
ATOM     11  C   UNL A   1      33.286  25.750  25.110  1.00  0.00     0.290 C 
ATOM     12  O   UNL A   1      33.672  25.554  26.278  1.00  0.00    -0.267 OA
ATOM     13  N   UNL A   1      33.296  24.658  24.161  1.00  0.00    -0.276 N 
BRANCH  13  14
ATOM     14  C   UNL A   1      32.848  24.617  22.756  1.00  0.00     0.049 A 
ATOM     15  C   UNL A   1      33.147  23.509  21.927  1.00  0.00     0.027 A 
ATOM     16  C   UNL A   1      32.195  25.648  22.089  1.00  0.00     0.027 A 
ATOM     17  C   UNL A   1      33.222  23.606  20.532  1.00  0.00     0.002 A 
ATOM     18  C   UNL A   1      32.256  25.766  20.684  1.00  0.00     0.002 A 
ATOM     19  C   UNL A   1      32.850  24.781  19.911  1.00  0.00     0.000 A 
ENDBRANCH  13  14
BRANCH  13  20
ATOM     20  C   UNL A   1      34.122  23.483  24.568  1.00  0.00     0.049 A 
ATOM     21  C   UNL A   1      33.543  22.386  25.263  1.00  0.00     0.027 A 
ATOM     22  C   UNL A   1      35.453  23.323  24.162  1.00  0.00     0.027 A 
ATOM     23  C   UNL A   1      34.255  21.226  25.578  1.00  0.00     0.002 A 
ATOM     24  C   UNL A   1      36.168  22.148  24.459  1.00  0.00     0.002 A 
ATOM     25  C   UNL A   1      35.575  21.106  25.171  1.00  0.00     0.000 A 
ENDBRANCH  13  20
ENDBRANCH  10  11
BRANCH  10  26
ATOM     26  N   UNL A   1      31.508  27.645  25.171  1.00  0.00    -0.320 N 
ATOM     27  C   UNL A   1      30.568  26.514  25.355  1.00  0.00     0.291 C 
ATOM     28  C   UNL A   1      30.777  28.711  24.425  1.00  0.00     0.291 C 
ATOM     29  H   UNL A   1      31.777  28.055  26.067  1.00  0.00     0.348 HD
ATOM     30  C   UNL A   1      29.703  26.115  24.135  1.00  0.00     0.221 C 
ATOM     31  C   UNL A   1      29.891  28.271  23.222  1.00  0.00     0.221 C 
ATOM     32  O   UNL A   1      28.986  27.232  23.604  1.00  0.00    -0.370 OA
ENDBRANCH  10  26
ENDBRANCH   9  10
ENDBRANCH   7   9
ENDBRANCH   6   7
ENDBRANCH   5   6
ENDBRANCH   4   5
ENDBRANCH   3   4
ENDBRANCH   2   3
ENDBRANCH   1   2
BRANCH   1  33
ATOM     33  O   UNL A   1      32.369  35.919  30.431  1.00  0.00    -0.377 OA
BRANCH  33  34
ATOM     34  C   UNL A   1      33.114  36.630  31.398  1.00  0.00     0.188 C 
BRANCH  34  35
ATOM     35  C   UNL A   1      33.036  36.085  32.843  1.00  0.00     0.188 C 
BRANCH  35  36
ATOM     36  O   UNL A   1      34.190  35.648  33.541  1.00  0.00    -0.376 OA
BRANCH  36  37
ATOM     37  C   UNL A   1      35.029  34.643  33.004  1.00  0.00     0.202 C 
BRANCH  37  38
ATOM     38  C   UNL A   1      34.931  33.182  33.477  1.00  0.00     0.261 C 
BRANCH  38  39
ATOM     39  O   UNL A   1      35.772  32.225  32.822  1.00  0.00    -0.460 OA
BRANCH  39  40
ATOM     40  C   UNL A   1      37.038  32.133  33.301  1.00  0.00     0.338 C 
ATOM     41  O   UNL A   1      37.446  32.510  34.376  1.00  0.00    -0.246 OA
BRANCH  40  42
ATOM     42  C   UNL A   1      37.834  31.283  32.378  1.00  0.00     0.060 A 
ATOM     43  C   UNL A   1      38.747  30.374  32.939  1.00  0.00     0.016 A 
ATOM     44  C   UNL A   1      37.680  31.362  30.992  1.00  0.00     0.016 A 
ATOM     45  C   UNL A   1      39.564  29.603  32.123  1.00  0.00     0.010 A 
ATOM     46  C   UNL A   1      38.539  30.630  30.168  1.00  0.00     0.010 A 
ATOM     47  C   UNL A   1      39.530  29.811  30.740  1.00  0.00    -0.014 A 
BRANCH  47  48
ATOM     48  C   UNL A   1      40.768  29.512  29.985  1.00  0.00     0.031 A 
ATOM     49  C   UNL A   1      40.851  28.155  29.335  1.00  0.00     0.074 A 
ATOM     50  C   UNL A   1      41.733  30.425  29.800  1.00  0.00     0.049 A 
ATOM     51  N   UNL A   1      41.801  27.634  28.604  1.00  0.00    -0.248 NA
ATOM     52  C   UNL A   1      39.695  27.262  29.536  1.00  0.00     0.031 C 
ATOM     53  C   UNL A   1      41.724  31.791  30.317  1.00  0.00     0.029 A 
ATOM     54  N   UNL A   1      42.914  30.330  29.111  1.00  0.00    -0.354 N 
ATOM     55  C   UNL A   1      41.362  26.355  28.277  1.00  0.00     0.074 A 
ATOM     56  C   UNL A   1      40.080  26.164  28.909  1.00  0.00     0.031 C 
ATOM     57  C   UNL A   1      42.856  32.408  29.931  1.00  0.00     0.029 A 
ATOM     58  C   UNL A   1      43.676  31.470  29.165  1.00  0.00     0.049 A 
ATOM     59  H   UNL A   1      43.190  29.519  28.624  1.00  0.00     0.167 HD
ATOM     60  C   UNL A   1      41.970  25.423  27.509  1.00  0.00     0.037 A 
ATOM     61  C   UNL A   1      44.901  31.710  28.661  1.00  0.00     0.037 A 
ATOM     62  C   UNL A   1      43.246  25.621  26.880  1.00  0.00     0.049 A 
ATOM     63  C   UNL A   1      45.597  30.624  27.877  1.00  0.00     0.074 A 
ATOM     64  C   UNL A   1      43.952  24.751  26.072  1.00  0.00     0.029 A 
ATOM     65  N   UNL A   1      44.011  26.771  27.003  1.00  0.00    -0.354 N 
ATOM     66  N   UNL A   1      45.171  29.425  27.557  1.00  0.00    -0.248 NA
ATOM     67  C   UNL A   1      46.944  30.933  27.377  1.00  0.00     0.031 C 
ATOM     68  C   UNL A   1      45.176  25.349  25.757  1.00  0.00     0.029 A 
ATOM     69  C   UNL A   1      45.199  26.622  26.309  1.00  0.00     0.049 A 
ATOM     70  H   UNL A   1      43.747  27.574  27.509  1.00  0.00     0.167 HD
ATOM     71  C   UNL A   1      46.176  28.854  26.784  1.00  0.00     0.074 A 
ATOM     72  C   UNL A   1      47.228  29.844  26.677  1.00  0.00     0.031 C 
ATOM     73  C   UNL A   1      46.226  27.627  26.206  1.00  0.00     0.037 A 
BRANCH  60  74
ATOM     74  C   UNL A   1      41.279  24.098  27.356  1.00  0.00     0.057 A 
ATOM     75  C   UNL A   1      40.166  23.923  26.523  1.00  0.00     0.134 A 
ATOM     76  C   UNL A   1      41.740  22.978  28.059  1.00  0.00     0.134 A 
ATOM     77  F   UNL A   1      39.657  24.960  25.840  1.00  0.00    -0.206 F 
ATOM     78  C   UNL A   1      39.520  22.690  26.418  1.00  0.00     0.040 A 
ATOM     79  C   UNL A   1      41.123  21.733  27.938  1.00  0.00     0.040 A 
ATOM     80  F   UNL A   1      42.798  23.076  28.879  1.00  0.00    -0.206 F 
ATOM     81  C   UNL A   1      40.004  21.588  27.121  1.00  0.00     0.006 A 
ENDBRANCH  60  74
BRANCH  61  82
ATOM     82  C   UNL A   1      45.556  33.026  28.877  1.00  0.00     0.057 A 
ATOM     83  C   UNL A   1      45.359  34.089  27.987  1.00  0.00     0.134 A 
ATOM     84  C   UNL A   1      46.420  33.242  29.956  1.00  0.00     0.134 A 
ATOM     85  F   UNL A   1      44.560  33.938  26.922  1.00  0.00    -0.206 F 
ATOM     86  C   UNL A   1      46.016  35.311  28.150  1.00  0.00     0.040 A 
ATOM     87  C   UNL A   1      47.062  34.467  30.147  1.00  0.00     0.040 A 
ATOM     88  F   UNL A   1      46.651  32.267  30.848  1.00  0.00    -0.206 F 
ATOM     89  C   UNL A   1      46.867  35.503  29.236  1.00  0.00     0.006 A 
ENDBRANCH  61  82
BRANCH  73  90
ATOM     90  C   UNL A   1      47.427  27.311  25.360  1.00  0.00     0.057 A 
ATOM     91  C   UNL A   1      47.478  27.609  23.993  1.00  0.00     0.134 A 
ATOM     92  C   UNL A   1      48.562  26.724  25.935  1.00  0.00     0.134 A 
ATOM     93  F   UNL A   1      46.423  28.166  23.377  1.00  0.00    -0.206 F 
ATOM     94  C   UNL A   1      48.600  27.302  23.221  1.00  0.00     0.040 A 
ATOM     95  C   UNL A   1      49.702  26.444  25.181  1.00  0.00     0.040 A 
ATOM     96  F   UNL A   1      48.588  26.426  27.243  1.00  0.00    -0.206 F 
ATOM     97  C   UNL A   1      49.718  26.723  23.817  1.00  0.00     0.006 A 
ENDBRANCH  73  90
ENDBRANCH  47  48
ENDBRANCH  40  42
ENDBRANCH  39  40
ENDBRANCH  38  39
ENDBRANCH  37  38
ENDBRANCH  36  37
ENDBRANCH  35  36
ENDBRANCH  34  35
ENDBRANCH  33  34
ENDBRANCH   1  33
TORSDOF 25
ENDMDL
MODEL 3
REMARK VINA RESULT:      -9.6      1.854      3.939
REMARK SMILES O=C(C[C@@H](C(=O)N(c1ccccc1)c1ccccc1)[NH+]1CCOCC1)OCCOCCOCCOCCOC(=O)c1ccc(-c2c3nc(c(-c4c(F)cccc4F)c4ccc([nH]4)c(-c4c(F)cccc4F)c4nc(c(-c5c(F)cccc5F)c5ccc2[nH]5)C=C4)C=C3)cc1
REMARK SMILES IDX 31 1 30 2 29 3 28 4 27 5 26 6 2 7 1 8 3 9 4 10 5 11 6 12
REMARK SMILES IDX 7 13 8 14 9 15 13 16 10 17 12 18 11 19 14 20 15 21 19 22
REMARK SMILES IDX 16 23 18 24 17 25 20 26 21 27 25 28 22 30 24 31 23 32 32 33
REMARK SMILES IDX 33 34 34 35 35 36 36 37 37 38 38 39 39 40 40 41 41 42 42 43
REMARK SMILES IDX 94 44 43 45 93 46 44 47 45 48 46 49 87 50 47 51 92 52 86 53
REMARK SMILES IDX 88 54 48 55 91 56 85 57 84 58 49 60 75 61 58 62 74 63 59 64
REMARK SMILES IDX 62 65 73 66 89 67 60 68 61 69 72 71 90 72 63 73 50 74 51 75
REMARK SMILES IDX 56 76 52 77 53 78 55 79 57 80 54 81 76 82 77 83 82 84 78 85
REMARK SMILES IDX 79 86 81 87 83 88 80 89 64 90 65 91 70 92 66 93 67 94 69 95
REMARK SMILES IDX 71 96 68 97
REMARK H PARENT 20 29 88 59 62 70
REMARK Flexibility Score: inf
ROOT
ATOM      1  C   UNL A   1      41.593  18.888  26.522  1.00  0.00     0.188 C 
ENDROOT
BRANCH   1   2
ATOM      2  C   UNL A   1      40.761  20.110  26.927  1.00  0.00     0.188 C 
BRANCH   2   3
ATOM      3  O   UNL A   1      41.039  21.348  26.302  1.00  0.00    -0.376 OA
BRANCH   3   4
ATOM      4  C   UNL A   1      40.332  22.557  26.438  1.00  0.00     0.202 C 
BRANCH   4   5
ATOM      5  C   UNL A   1      38.828  22.697  26.335  1.00  0.00     0.261 C 
BRANCH   5   6
ATOM      6  O   UNL A   1      38.115  22.330  25.151  1.00  0.00    -0.463 OA
BRANCH   6   7
ATOM      7  C   UNL A   1      36.949  22.801  24.699  1.00  0.00     0.312 C 
ATOM      8  O   UNL A   1      36.786  22.982  23.493  1.00  0.00    -0.252 OA
BRANCH   7   9
ATOM      9  C   UNL A   1      35.907  23.249  25.659  1.00  0.00     0.198 C 
BRANCH   9  10
ATOM     10  C   UNL A   1      34.455  22.825  25.646  1.00  0.00     0.286 C 
BRANCH  10  11
ATOM     11  C   UNL A   1      34.155  21.282  25.908  1.00  0.00     0.290 C 
ATOM     12  O   UNL A   1      34.722  20.786  26.901  1.00  0.00    -0.267 OA
ATOM     13  N   UNL A   1      33.391  20.432  25.023  1.00  0.00    -0.276 N 
BRANCH  13  14
ATOM     14  C   UNL A   1      32.595  20.775  23.828  1.00  0.00     0.049 A 
ATOM     15  C   UNL A   1      32.173  19.774  22.921  1.00  0.00     0.027 A 
ATOM     16  C   UNL A   1      32.264  22.065  23.426  1.00  0.00     0.027 A 
ATOM     17  C   UNL A   1      31.892  20.043  21.574  1.00  0.00     0.002 A 
ATOM     18  C   UNL A   1      31.977  22.358  22.076  1.00  0.00     0.002 A 
ATOM     19  C   UNL A   1      31.878  21.350  21.131  1.00  0.00     0.000 A 
ENDBRANCH  13  14
BRANCH  13  20
ATOM     20  C   UNL A   1      33.660  18.970  25.171  1.00  0.00     0.049 A 
ATOM     21  C   UNL A   1      32.722  18.115  25.811  1.00  0.00     0.027 A 
ATOM     22  C   UNL A   1      34.756  18.342  24.566  1.00  0.00     0.027 A 
ATOM     23  C   UNL A   1      32.888  16.729  25.887  1.00  0.00     0.002 A 
ATOM     24  C   UNL A   1      34.916  16.946  24.622  1.00  0.00     0.002 A 
ATOM     25  C   UNL A   1      33.991  16.142  25.287  1.00  0.00     0.000 A 
ENDBRANCH  13  20
ENDBRANCH  10  11
BRANCH  10  26
ATOM     26  N   UNL A   1      33.707  23.737  26.635  1.00  0.00    -0.320 N 
ATOM     27  C   UNL A   1      32.566  23.113  27.346  1.00  0.00     0.291 C 
ATOM     28  C   UNL A   1      33.268  25.096  26.200  1.00  0.00     0.291 C 
ATOM     29  H   UNL A   1      34.502  23.879  27.260  1.00  0.00     0.348 HD
ATOM     30  C   UNL A   1      31.166  23.279  26.708  1.00  0.00     0.221 C 
ATOM     31  C   UNL A   1      31.841  25.232  25.590  1.00  0.00     0.221 C 
ATOM     32  O   UNL A   1      30.858  24.651  26.451  1.00  0.00    -0.370 OA
ENDBRANCH  10  26
ENDBRANCH   9  10
ENDBRANCH   7   9
ENDBRANCH   6   7
ENDBRANCH   5   6
ENDBRANCH   4   5
ENDBRANCH   3   4
ENDBRANCH   2   3
ENDBRANCH   1   2
BRANCH   1  33
ATOM     33  O   UNL A   1      42.996  19.088  26.461  1.00  0.00    -0.377 OA
BRANCH  33  34
ATOM     34  C   UNL A   1      43.488  19.534  25.213  1.00  0.00     0.188 C 
BRANCH  34  35
ATOM     35  C   UNL A   1      44.172  20.921  25.215  1.00  0.00     0.188 C 
BRANCH  35  36
ATOM     36  O   UNL A   1      45.079  21.309  24.198  1.00  0.00    -0.376 OA
BRANCH  36  37
ATOM     37  C   UNL A   1      46.297  21.954  24.515  1.00  0.00     0.202 C 
BRANCH  37  38
ATOM     38  C   UNL A   1      46.395  23.486  24.596  1.00  0.00     0.261 C 
BRANCH  38  39
ATOM     39  O   UNL A   1      45.218  24.197  24.998  1.00  0.00    -0.460 OA
BRANCH  39  40
ATOM     40  C   UNL A   1      45.364  25.538  25.141  1.00  0.00     0.338 C 
ATOM     41  O   UNL A   1      46.178  26.251  24.598  1.00  0.00    -0.246 OA
BRANCH  40  42
ATOM     42  C   UNL A   1      44.211  26.061  25.919  1.00  0.00     0.060 A 
ATOM     43  C   UNL A   1      43.857  27.410  25.749  1.00  0.00     0.016 A 
ATOM     44  C   UNL A   1      43.480  25.244  26.785  1.00  0.00     0.016 A 
ATOM     45  C   UNL A   1      42.831  27.967  26.501  1.00  0.00     0.010 A 
ATOM     46  C   UNL A   1      42.485  25.814  27.583  1.00  0.00     0.010 A 
ATOM     47  C   UNL A   1      42.218  27.193  27.491  1.00  0.00    -0.014 A 
BRANCH  47  48
ATOM     48  C   UNL A   1      41.649  27.914  28.652  1.00  0.00     0.031 A 
ATOM     49  C   UNL A   1      42.426  27.839  29.941  1.00  0.00     0.074 A 
ATOM     50  C   UNL A   1      40.549  28.676  28.554  1.00  0.00     0.049 A 
ATOM     51  N   UNL A   1      42.175  28.383  31.102  1.00  0.00    -0.248 NA
ATOM     52  C   UNL A   1      43.665  27.040  29.912  1.00  0.00     0.031 C 
ATOM     53  C   UNL A   1      39.761  28.882  27.340  1.00  0.00     0.029 A 
ATOM     54  N   UNL A   1      39.911  29.427  29.506  1.00  0.00    -0.354 N 
ATOM     55  C   UNL A   1      43.211  27.978  31.937  1.00  0.00     0.074 A 
ATOM     56  C   UNL A   1      44.077  27.121  31.164  1.00  0.00     0.031 C 
ATOM     57  C   UNL A   1      38.735  29.704  27.626  1.00  0.00     0.029 A 
ATOM     58  C   UNL A   1      38.783  30.057  29.044  1.00  0.00     0.049 A 
ATOM     59  H   UNL A   1      40.232  29.506  30.433  1.00  0.00     0.167 HD
ATOM     60  C   UNL A   1      43.429  28.299  33.232  1.00  0.00     0.037 A 
ATOM     61  C   UNL A   1      37.890  30.817  29.707  1.00  0.00     0.037 A 
ATOM     62  C   UNL A   1      42.564  29.154  33.994  1.00  0.00     0.049 A 
ATOM     63  C   UNL A   1      38.109  31.093  31.174  1.00  0.00     0.074 A 
ATOM     64  C   UNL A   1      42.691  29.556  35.311  1.00  0.00     0.029 A 
ATOM     65  N   UNL A   1      41.401  29.730  33.506  1.00  0.00    -0.354 N 
ATOM     66  N   UNL A   1      39.098  30.722  31.953  1.00  0.00    -0.248 NA
ATOM     67  C   UNL A   1      37.087  31.904  31.851  1.00  0.00     0.031 C 
ATOM     68  C   UNL A   1      41.570  30.324  35.639  1.00  0.00     0.029 A 
ATOM     69  C   UNL A   1      40.783  30.462  34.505  1.00  0.00     0.049 A 
ATOM     70  H   UNL A   1      41.066  29.633  32.585  1.00  0.00     0.167 HD
ATOM     71  C   UNL A   1      38.841  31.288  33.197  1.00  0.00     0.074 A 
ATOM     72  C   UNL A   1      37.607  32.035  33.064  1.00  0.00     0.031 C 
ATOM     73  C   UNL A   1      39.560  31.207  34.345  1.00  0.00     0.037 A 
BRANCH  60  74
ATOM     74  C   UNL A   1      44.619  27.678  33.906  1.00  0.00     0.057 A 
ATOM     75  C   UNL A   1      45.880  28.290  33.917  1.00  0.00     0.134 A 
ATOM     76  C   UNL A   1      44.497  26.443  34.555  1.00  0.00     0.134 A 
ATOM     77  F   UNL A   1      46.073  29.462  33.293  1.00  0.00    -0.206 F 
ATOM     78  C   UNL A   1      46.981  27.682  34.523  1.00  0.00     0.040 A 
ATOM     79  C   UNL A   1      45.582  25.840  35.192  1.00  0.00     0.040 A 
ATOM     80  F   UNL A   1      43.319  25.799  34.578  1.00  0.00    -0.206 F 
ATOM     81  C   UNL A   1      46.831  26.457  35.170  1.00  0.00     0.006 A 
ENDBRANCH  60  74
BRANCH  61  82
ATOM     82  C   UNL A   1      36.708  31.373  29.000  1.00  0.00     0.057 A 
ATOM     83  C   UNL A   1      36.659  32.718  28.616  1.00  0.00     0.134 A 
ATOM     84  C   UNL A   1      35.586  30.584  28.724  1.00  0.00     0.134 A 
ATOM     85  F   UNL A   1      37.693  33.532  28.872  1.00  0.00    -0.206 F 
ATOM     86  C   UNL A   1      35.528  33.263  28.003  1.00  0.00     0.040 A 
ATOM     87  C   UNL A   1      34.460  31.108  28.087  1.00  0.00     0.040 A 
ATOM     88  F   UNL A   1      35.568  29.286  29.063  1.00  0.00    -0.206 F 
ATOM     89  C   UNL A   1      34.426  32.455  27.733  1.00  0.00     0.006 A 
ENDBRANCH  61  82
BRANCH  73  90
ATOM     90  C   UNL A   1      39.064  31.992  35.527  1.00  0.00     0.057 A 
ATOM     91  C   UNL A   1      38.261  31.420  36.522  1.00  0.00     0.134 A 
ATOM     92  C   UNL A   1      39.427  33.337  35.684  1.00  0.00     0.134 A 
ATOM     93  F   UNL A   1      37.873  30.139  36.430  1.00  0.00    -0.206 F 
ATOM     94  C   UNL A   1      37.805  32.167  37.609  1.00  0.00     0.040 A 
ATOM     95  C   UNL A   1      39.007  34.083  36.785  1.00  0.00     0.040 A 
ATOM     96  F   UNL A   1      40.208  33.944  34.778  1.00  0.00    -0.206 F 
ATOM     97  C   UNL A   1      38.184  33.501  37.746  1.00  0.00     0.006 A 
ENDBRANCH  73  90
ENDBRANCH  47  48
ENDBRANCH  40  42
ENDBRANCH  39  40
ENDBRANCH  38  39
ENDBRANCH  37  38
ENDBRANCH  36  37
ENDBRANCH  35  36
ENDBRANCH  34  35
ENDBRANCH  33  34
ENDBRANCH   1  33
TORSDOF 25
ENDMDL
