MODEL 1
REMARK VINA RESULT:     -10.3      0.000      0.000
REMARK SMILES Cc1ccc(S(=O)(=O)Nc2cc(C(=O)OCCOCCOCCOCCOC(=O)c3ccc(-c4c5nc(c(-c6c(F)cccc6F)c6ccc([nH]6)c(-c6c(F)cccc6F)c6nc(c(-c7c(F)cccc7F)c7ccc4[nH]7)C=C6)C=C5)cc3)cnc2N2CCCC2)c(C)c1
REMARK SMILES IDX 20 1 19 2 18 3 17 4 16 5 15 6 13 7 14 8 12 9 10 10 11 11
REMARK SMILES IDX 86 12 85 13 84 14 9 15 6 17 7 18 8 19 5 20 1 21 2 22 3 23
REMARK SMILES IDX 94 24 4 25 92 26 93 27 87 28 88 29 91 30 89 31 90 32 21 33
REMARK SMILES IDX 22 34 23 35 24 36 25 37 26 38 27 39 28 40 29 41 30 42 31 43
REMARK SMILES IDX 83 44 32 45 82 46 33 47 34 48 35 49 76 50 36 51 81 52 75 53
REMARK SMILES IDX 77 54 37 55 80 56 74 57 73 58 38 60 64 61 47 62 63 63 48 64
REMARK SMILES IDX 51 65 62 66 78 67 49 68 50 69 61 71 79 72 52 73 39 74 40 75
REMARK SMILES IDX 45 76 41 77 42 78 44 79 46 80 43 81 65 82 66 83 71 84 67 85
REMARK SMILES IDX 68 86 70 87 72 88 69 89 53 90 54 91 59 92 55 93 56 94 58 95
REMARK SMILES IDX 60 96 57 97
REMARK H PARENT 9 16 77 59 51 70
REMARK Flexibility Score: inf
ROOT
ATOM      1  C   UNL A   1      32.923  35.409  29.363  1.00  0.00     0.188 C 
ENDROOT
BRANCH   1   2
ATOM      2  C   UNL A   1      34.399  35.264  28.938  1.00  0.00     0.188 C 
BRANCH   2   3
ATOM      3  O   UNL A   1      34.890  34.077  28.332  1.00  0.00    -0.376 OA
BRANCH   3   4
ATOM      4  C   UNL A   1      34.087  32.955  28.002  1.00  0.00     0.202 C 
BRANCH   4   5
ATOM      5  C   UNL A   1      34.621  31.540  27.731  1.00  0.00     0.261 C 
BRANCH   5   6
ATOM      6  O   UNL A   1      33.652  30.507  27.629  1.00  0.00    -0.460 OA
BRANCH   6   7
ATOM      7  C   UNL A   1      33.908  29.552  26.715  1.00  0.00     0.339 C 
ATOM      8  O   UNL A   1      34.753  28.677  26.776  1.00  0.00    -0.246 OA
BRANCH   7   9
ATOM      9  C   UNL A   1      32.926  29.666  25.626  1.00  0.00     0.080 A 
ATOM     10  C   UNL A   1      31.975  28.883  23.596  1.00  0.00     0.092 A 
ATOM     11  C   UNL A   1      33.077  28.977  24.429  1.00  0.00     0.048 A 
ATOM     12  C   UNL A   1      30.830  29.676  23.850  1.00  0.00     0.153 A 
ATOM     13  N   UNL A   1      30.752  30.474  24.937  1.00  0.00    -0.236 NA
ATOM     14  C   UNL A   1      31.776  30.417  25.825  1.00  0.00     0.129 A 
BRANCH  10  15
ATOM     15  N   UNL A   1      32.002  27.968  22.493  1.00  0.00    -0.276 N 
ATOM     16  H   UNL A   1      32.170  28.315  21.587  1.00  0.00     0.180 HD
BRANCH  15  17
ATOM     17  S   UNL A   1      31.750  26.293  22.711  1.00  0.00     0.262 S 
ATOM     18  O   UNL A   1      32.257  25.728  21.476  1.00  0.00    -0.201 OA
ATOM     19  O   UNL A   1      30.360  26.118  23.072  1.00  0.00    -0.201 OA
BRANCH  17  20
ATOM     20  C   UNL A   1      32.710  25.604  24.068  1.00  0.00     0.090 A 
ATOM     21  C   UNL A   1      34.549  22.897  26.873  1.00  0.00     0.044 C 
ATOM     22  C   UNL A   1      33.963  23.917  25.941  1.00  0.00    -0.051 A 
ATOM     23  C   UNL A   1      34.638  24.312  24.787  1.00  0.00     0.005 A 
ATOM     24  C   UNL A   1      32.762  24.556  26.252  1.00  0.00     0.008 A 
ATOM     25  C   UNL A   1      34.028  25.179  23.871  1.00  0.00     0.023 A 
ATOM     26  C   UNL A   1      32.143  25.437  25.343  1.00  0.00    -0.030 A 
ATOM     27  C   UNL A   1      31.009  26.268  25.878  1.00  0.00     0.046 C 
ENDBRANCH  17  20
ENDBRANCH  15  17
ENDBRANCH  10  15
BRANCH  12  28
ATOM     28  N   UNL A   1      29.758  29.605  22.980  1.00  0.00    -0.355 N 
ATOM     29  C   UNL A   1      28.496  29.105  23.501  1.00  0.00     0.118 C 
ATOM     30  C   UNL A   1      29.473  30.725  22.085  1.00  0.00     0.118 C 
ATOM     31  C   UNL A   1      27.648  29.117  22.241  1.00  0.00     0.023 C 
ATOM     32  C   UNL A   1      28.050  30.432  21.575  1.00  0.00     0.023 C 
ENDBRANCH  12  28
ENDBRANCH   7   9
ENDBRANCH   6   7
ENDBRANCH   5   6
ENDBRANCH   4   5
ENDBRANCH   3   4
ENDBRANCH   2   3
ENDBRANCH   1   2
BRANCH   1  33
ATOM     33  O   UNL A   1      32.651  36.585  30.099  1.00  0.00    -0.377 OA
BRANCH  33  34
ATOM     34  C   UNL A   1      33.291  36.704  31.364  1.00  0.00     0.188 C 
BRANCH  34  35
ATOM     35  C   UNL A   1      32.918  35.709  32.485  1.00  0.00     0.188 C 
BRANCH  35  36
ATOM     36  O   UNL A   1      34.024  35.216  33.230  1.00  0.00    -0.376 OA
BRANCH  36  37
ATOM     37  C   UNL A   1      35.241  34.931  32.561  1.00  0.00     0.202 C 
BRANCH  37  38
ATOM     38  C   UNL A   1      36.231  34.000  33.278  1.00  0.00     0.261 C 
BRANCH  38  39
ATOM     39  O   UNL A   1      35.908  32.602  33.235  1.00  0.00    -0.460 OA
BRANCH  39  40
ATOM     40  C   UNL A   1      35.776  32.047  32.015  1.00  0.00     0.338 C 
ATOM     41  O   UNL A   1      34.748  31.943  31.361  1.00  0.00    -0.246 OA
BRANCH  40  42
ATOM     42  C   UNL A   1      37.122  31.760  31.487  1.00  0.00     0.060 A 
ATOM     43  C   UNL A   1      37.406  32.123  30.165  1.00  0.00     0.016 A 
ATOM     44  C   UNL A   1      38.091  31.131  32.274  1.00  0.00     0.016 A 
ATOM     45  C   UNL A   1      38.639  31.804  29.607  1.00  0.00     0.010 A 
ATOM     46  C   UNL A   1      39.324  30.796  31.706  1.00  0.00     0.010 A 
ATOM     47  C   UNL A   1      39.584  31.091  30.356  1.00  0.00    -0.014 A 
BRANCH  47  48
ATOM     48  C   UNL A   1      40.746  30.505  29.648  1.00  0.00     0.031 A 
ATOM     49  C   UNL A   1      41.976  31.348  29.452  1.00  0.00     0.074 A 
ATOM     50  C   UNL A   1      40.745  29.217  29.269  1.00  0.00     0.049 A 
ATOM     51  N   UNL A   1      43.140  31.020  28.954  1.00  0.00    -0.248 NA
ATOM     52  C   UNL A   1      41.878  32.752  29.881  1.00  0.00     0.031 C 
ATOM     53  C   UNL A   1      39.624  28.293  29.423  1.00  0.00     0.029 A 
ATOM     54  N   UNL A   1      41.730  28.463  28.683  1.00  0.00    -0.354 N 
ATOM     55  C   UNL A   1      43.915  32.171  29.016  1.00  0.00     0.074 A 
ATOM     56  C   UNL A   1      43.072  33.218  29.551  1.00  0.00     0.031 C 
ATOM     57  C   UNL A   1      39.984  27.091  28.943  1.00  0.00     0.029 A 
ATOM     58  C   UNL A   1      41.351  27.169  28.430  1.00  0.00     0.049 A 
ATOM     59  H   UNL A   1      42.622  28.816  28.464  1.00  0.00     0.167 HD
ATOM     60  C   UNL A   1      45.215  32.340  28.674  1.00  0.00     0.037 A 
ATOM     61  C   UNL A   1      42.029  26.163  27.843  1.00  0.00     0.037 A 
ATOM     62  C   UNL A   1      46.043  31.300  28.119  1.00  0.00     0.049 A 
ATOM     63  C   UNL A   1      43.455  26.383  27.416  1.00  0.00     0.074 A 
ATOM     64  C   UNL A   1      47.373  31.365  27.742  1.00  0.00     0.029 A 
ATOM     65  N   UNL A   1      45.614  30.010  27.841  1.00  0.00    -0.354 N 
ATOM     66  N   UNL A   1      44.192  27.463  27.513  1.00  0.00    -0.248 NA
ATOM     67  C   UNL A   1      44.148  25.236  26.816  1.00  0.00     0.031 C 
ATOM     68  C   UNL A   1      47.730  30.133  27.181  1.00  0.00     0.029 A 
ATOM     69  C   UNL A   1      46.644  29.277  27.274  1.00  0.00     0.049 A 
ATOM     70  H   UNL A   1      44.708  29.666  28.022  1.00  0.00     0.167 HD
ATOM     71  C   UNL A   1      45.442  27.122  27.010  1.00  0.00     0.074 A 
ATOM     72  C   UNL A   1      45.366  25.726  26.627  1.00  0.00     0.031 C 
ATOM     73  C   UNL A   1      46.554  27.890  26.884  1.00  0.00     0.037 A 
BRANCH  60  74
ATOM     74  C   UNL A   1      45.796  33.714  28.859  1.00  0.00     0.057 A 
ATOM     75  C   UNL A   1      45.739  34.689  27.852  1.00  0.00     0.134 A 
ATOM     76  C   UNL A   1      46.435  34.063  30.055  1.00  0.00     0.134 A 
ATOM     77  F   UNL A   1      45.156  34.418  26.675  1.00  0.00    -0.206 F 
ATOM     78  C   UNL A   1      46.336  35.942  28.012  1.00  0.00     0.040 A 
ATOM     79  C   UNL A   1      47.006  35.324  30.239  1.00  0.00     0.040 A 
ATOM     80  F   UNL A   1      46.522  33.184  31.064  1.00  0.00    -0.206 F 
ATOM     81  C   UNL A   1      46.968  36.263  29.211  1.00  0.00     0.006 A 
ENDBRANCH  60  74
BRANCH  61  82
ATOM     82  C   UNL A   1      41.357  24.857  27.632  1.00  0.00     0.057 A 
ATOM     83  C   UNL A   1      41.657  23.740  28.419  1.00  0.00     0.134 A 
ATOM     84  C   UNL A   1      40.376  24.703  26.643  1.00  0.00     0.134 A 
ATOM     85  F   UNL A   1      42.602  23.816  29.368  1.00  0.00    -0.206 F 
ATOM     86  C   UNL A   1      41.013  22.516  28.227  1.00  0.00     0.040 A 
ATOM     87  C   UNL A   1      39.705  23.494  26.458  1.00  0.00     0.040 A 
ATOM     88  F   UNL A   1      40.040  25.738  25.858  1.00  0.00    -0.206 F 
ATOM     89  C   UNL A   1      40.027  22.395  27.250  1.00  0.00     0.006 A 
ENDBRANCH  61  82
BRANCH  73  90
ATOM     90  C   UNL A   1      47.789  27.226  26.340  1.00  0.00     0.057 A 
ATOM     91  C   UNL A   1      48.698  26.546  27.162  1.00  0.00     0.134 A 
ATOM     92  C   UNL A   1      48.068  27.259  24.967  1.00  0.00     0.134 A 
ATOM     93  F   UNL A   1      48.498  26.481  28.488  1.00  0.00    -0.206 F 
ATOM     94  C   UNL A   1      49.857  25.962  26.647  1.00  0.00     0.040 A 
ATOM     95  C   UNL A   1      49.207  26.651  24.435  1.00  0.00     0.040 A 
ATOM     96  F   UNL A   1      47.237  27.880  24.117  1.00  0.00    -0.206 F 
ATOM     97  C   UNL A   1      50.112  26.010  25.278  1.00  0.00     0.006 A 
ENDBRANCH  73  90
ENDBRANCH  47  48
ENDBRANCH  40  42
ENDBRANCH  39  40
ENDBRANCH  38  39
ENDBRANCH  37  38
ENDBRANCH  36  37
ENDBRANCH  35  36
ENDBRANCH  34  35
ENDBRANCH  33  34
ENDBRANCH   1  33
TORSDOF 24
ENDMDL
MODEL 2
REMARK VINA RESULT:      -9.2      4.530     10.137
REMARK SMILES Cc1ccc(S(=O)(=O)Nc2cc(C(=O)OCCOCCOCCOCCOC(=O)c3ccc(-c4c5nc(c(-c6c(F)cccc6F)c6ccc([nH]6)c(-c6c(F)cccc6F)c6nc(c(-c7c(F)cccc7F)c7ccc4[nH]7)C=C6)C=C5)cc3)cnc2N2CCCC2)c(C)c1
REMARK SMILES IDX 20 1 19 2 18 3 17 4 16 5 15 6 13 7 14 8 12 9 10 10 11 11
REMARK SMILES IDX 86 12 85 13 84 14 9 15 6 17 7 18 8 19 5 20 1 21 2 22 3 23
REMARK SMILES IDX 94 24 4 25 92 26 93 27 87 28 88 29 91 30 89 31 90 32 21 33
REMARK SMILES IDX 22 34 23 35 24 36 25 37 26 38 27 39 28 40 29 41 30 42 31 43
REMARK SMILES IDX 83 44 32 45 82 46 33 47 34 48 35 49 76 50 36 51 81 52 75 53
REMARK SMILES IDX 77 54 37 55 80 56 74 57 73 58 38 60 64 61 47 62 63 63 48 64
REMARK SMILES IDX 51 65 62 66 78 67 49 68 50 69 61 71 79 72 52 73 39 74 40 75
REMARK SMILES IDX 45 76 41 77 42 78 44 79 46 80 43 81 65 82 66 83 71 84 67 85
REMARK SMILES IDX 68 86 70 87 72 88 69 89 53 90 54 91 59 92 55 93 56 94 58 95
REMARK SMILES IDX 60 96 57 97
REMARK H PARENT 9 16 77 59 51 70
REMARK Flexibility Score: inf
ROOT
ATOM      1  C   UNL A   1      37.678  21.326  25.101  1.00  0.00     0.188 C 
ENDROOT
BRANCH   1   2
ATOM      2  C   UNL A   1      36.429  22.230  25.152  1.00  0.00     0.188 C 
BRANCH   2   3
ATOM      3  O   UNL A   1      35.496  22.159  26.220  1.00  0.00    -0.376 OA
BRANCH   3   4
ATOM      4  C   UNL A   1      34.087  22.152  26.055  1.00  0.00     0.202 C 
BRANCH   4   5
ATOM      5  C   UNL A   1      33.076  22.664  27.093  1.00  0.00     0.261 C 
BRANCH   5   6
ATOM      6  O   UNL A   1      32.481  23.926  26.827  1.00  0.00    -0.460 OA
BRANCH   6   7
ATOM      7  C   UNL A   1      31.136  23.944  26.798  1.00  0.00     0.339 C 
ATOM      8  O   UNL A   1      30.374  23.137  27.300  1.00  0.00    -0.246 OA
BRANCH   7   9
ATOM      9  C   UNL A   1      30.695  25.174  26.122  1.00  0.00     0.080 A 
ATOM     10  C   UNL A   1      31.108  27.378  25.342  1.00  0.00     0.092 A 
ATOM     11  C   UNL A   1      31.394  26.368  26.244  1.00  0.00     0.048 A 
ATOM     12  C   UNL A   1      29.973  27.273  24.502  1.00  0.00     0.153 A 
ATOM     13  N   UNL A   1      29.196  26.168  24.504  1.00  0.00    -0.236 NA
ATOM     14  C   UNL A   1      29.598  25.126  25.274  1.00  0.00     0.129 A 
BRANCH  10  15
ATOM     15  N   UNL A   1      31.979  28.513  25.257  1.00  0.00    -0.276 N 
ATOM     16  H   UNL A   1      31.736  29.340  25.734  1.00  0.00     0.180 HD
BRANCH  15  17
ATOM     17  S   UNL A   1      33.426  28.469  24.352  1.00  0.00     0.262 S 
ATOM     18  O   UNL A   1      34.449  28.569  25.375  1.00  0.00    -0.201 OA
ATOM     19  O   UNL A   1      33.318  29.490  23.332  1.00  0.00    -0.201 OA
BRANCH  17  20
ATOM     20  C   UNL A   1      33.667  26.915  23.479  1.00  0.00     0.090 A 
ATOM     21  C   UNL A   1      33.048  23.059  21.654  1.00  0.00     0.044 C 
ATOM     22  C   UNL A   1      33.361  24.400  22.251  1.00  0.00    -0.051 A 
ATOM     23  C   UNL A   1      33.245  25.569  21.500  1.00  0.00     0.005 A 
ATOM     24  C   UNL A   1      33.855  24.500  23.552  1.00  0.00     0.008 A 
ATOM     25  C   UNL A   1      33.432  26.820  22.103  1.00  0.00     0.023 A 
ATOM     26  C   UNL A   1      34.056  25.752  24.167  1.00  0.00    -0.030 A 
ATOM     27  C   UNL A   1      34.836  25.753  25.453  1.00  0.00     0.046 C 
ENDBRANCH  17  20
ENDBRANCH  15  17
ENDBRANCH  10  15
BRANCH  12  28
ATOM     28  N   UNL A   1      29.676  28.313  23.643  1.00  0.00    -0.355 N 
ATOM     29  C   UNL A   1      30.266  28.281  22.313  1.00  0.00     0.118 C 
ATOM     30  C   UNL A   1      28.297  28.784  23.521  1.00  0.00     0.118 C 
ATOM     31  C   UNL A   1      29.763  29.600  21.753  1.00  0.00     0.023 C 
ATOM     32  C   UNL A   1      28.318  29.649  22.247  1.00  0.00     0.023 C 
ENDBRANCH  12  28
ENDBRANCH   7   9
ENDBRANCH   6   7
ENDBRANCH   5   6
ENDBRANCH   4   5
ENDBRANCH   3   4
ENDBRANCH   2   3
ENDBRANCH   1   2
BRANCH   1  33
ATOM     33  O   UNL A   1      38.621  21.593  26.120  1.00  0.00    -0.377 OA
BRANCH  33  34
ATOM     34  C   UNL A   1      39.705  20.677  26.236  1.00  0.00     0.188 C 
BRANCH  34  35
ATOM     35  C   UNL A   1      41.027  21.164  26.870  1.00  0.00     0.188 C 
BRANCH  35  36
ATOM     36  O   UNL A   1      41.980  21.662  25.941  1.00  0.00    -0.376 OA
BRANCH  36  37
ATOM     37  C   UNL A   1      43.109  22.375  26.418  1.00  0.00     0.202 C 
BRANCH  37  38
ATOM     38  C   UNL A   1      43.051  23.909  26.337  1.00  0.00     0.261 C 
BRANCH  38  39
ATOM     39  O   UNL A   1      41.742  24.485  26.451  1.00  0.00    -0.460 OA
BRANCH  39  40
ATOM     40  C   UNL A   1      41.619  25.782  26.108  1.00  0.00     0.338 C 
ATOM     41  O   UNL A   1      41.296  26.227  25.016  1.00  0.00    -0.246 OA
BRANCH  40  42
ATOM     42  C   UNL A   1      41.735  26.599  27.329  1.00  0.00     0.060 A 
ATOM     43  C   UNL A   1      40.830  26.365  28.371  1.00  0.00     0.016 A 
ATOM     44  C   UNL A   1      42.712  27.592  27.447  1.00  0.00     0.016 A 
ATOM     45  C   UNL A   1      40.860  27.164  29.510  1.00  0.00     0.010 A 
ATOM     46  C   UNL A   1      42.730  28.404  28.585  1.00  0.00     0.010 A 
ATOM     47  C   UNL A   1      41.774  28.222  29.599  1.00  0.00    -0.014 A 
BRANCH  47  48
ATOM     48  C   UNL A   1      41.580  29.229  30.668  1.00  0.00     0.031 A 
ATOM     49  C   UNL A   1      40.396  30.153  30.587  1.00  0.00     0.074 A 
ATOM     50  C   UNL A   1      42.387  29.262  31.741  1.00  0.00     0.049 A 
ATOM     51  N   UNL A   1      39.970  31.040  31.450  1.00  0.00    -0.248 NA
ATOM     52  C   UNL A   1      39.579  30.059  29.367  1.00  0.00     0.031 C 
ATOM     53  C   UNL A   1      43.553  28.406  31.945  1.00  0.00     0.029 A 
ATOM     54  N   UNL A   1      42.338  30.046  32.866  1.00  0.00    -0.354 N 
ATOM     55  C   UNL A   1      38.835  31.603  30.882  1.00  0.00     0.074 A 
ATOM     56  C   UNL A   1      38.668  30.995  29.580  1.00  0.00     0.031 C 
ATOM     57  C   UNL A   1      44.112  28.711  33.128  1.00  0.00     0.029 A 
ATOM     58  C   UNL A   1      43.356  29.795  33.752  1.00  0.00     0.049 A 
ATOM     59  H   UNL A   1      41.641  30.723  33.022  1.00  0.00     0.167 HD
ATOM     60  C   UNL A   1      37.996  32.531  31.403  1.00  0.00     0.037 A 
ATOM     61  C   UNL A   1      43.647  30.381  34.929  1.00  0.00     0.037 A 
ATOM     62  C   UNL A   1      38.179  33.152  32.690  1.00  0.00     0.049 A 
ATOM     63  C   UNL A   1      42.736  31.451  35.468  1.00  0.00     0.074 A 
ATOM     64  C   UNL A   1      37.386  34.099  33.313  1.00  0.00     0.029 A 
ATOM     65  N   UNL A   1      39.244  32.900  33.545  1.00  0.00    -0.354 N 
ATOM     66  N   UNL A   1      41.643  31.951  34.943  1.00  0.00    -0.248 NA
ATOM     67  C   UNL A   1      43.091  32.024  36.773  1.00  0.00     0.031 C 
ATOM     68  C   UNL A   1      38.003  34.465  34.515  1.00  0.00     0.029 A 
ATOM     69  C   UNL A   1      39.142  33.692  34.677  1.00  0.00     0.049 A 
ATOM     70  H   UNL A   1      39.965  32.251  33.372  1.00  0.00     0.167 HD
ATOM     71  C   UNL A   1      41.165  32.879  35.861  1.00  0.00     0.074 A 
ATOM     72  C   UNL A   1      42.080  32.856  36.986  1.00  0.00     0.031 C 
ATOM     73  C   UNL A   1      40.066  33.671  35.786  1.00  0.00     0.037 A 
BRANCH  60  74
ATOM     74  C   UNL A   1      36.830  32.950  30.551  1.00  0.00     0.057 A 
ATOM     75  C   UNL A   1      36.958  33.902  29.528  1.00  0.00     0.134 A 
ATOM     76  C   UNL A   1      35.557  32.407  30.766  1.00  0.00     0.134 A 
ATOM     77  F   UNL A   1      38.145  34.476  29.278  1.00  0.00    -0.206 F 
ATOM     78  C   UNL A   1      35.857  34.330  28.784  1.00  0.00     0.040 A 
ATOM     79  C   UNL A   1      34.455  32.802  30.005  1.00  0.00     0.040 A 
ATOM     80  F   UNL A   1      35.361  31.487  31.722  1.00  0.00    -0.206 F 
ATOM     81  C   UNL A   1      34.601  33.775  29.019  1.00  0.00     0.006 A 
ENDBRANCH  60  74
BRANCH  61  82
ATOM     82  C   UNL A   1      44.859  29.958  35.674  1.00  0.00     0.057 A 
ATOM     83  C   UNL A   1      44.823  28.912  36.603  1.00  0.00     0.134 A 
ATOM     84  C   UNL A   1      46.093  30.583  35.455  1.00  0.00     0.134 A 
ATOM     85  F   UNL A   1      43.667  28.288  36.874  1.00  0.00    -0.206 F 
ATOM     86  C   UNL A   1      45.968  28.507  37.292  1.00  0.00     0.040 A 
ATOM     87  C   UNL A   1      47.251  30.170  36.115  1.00  0.00     0.040 A 
ATOM     88  F   UNL A   1      46.194  31.589  34.574  1.00  0.00    -0.206 F 
ATOM     89  C   UNL A   1      47.188  29.131  37.041  1.00  0.00     0.006 A 
ENDBRANCH  61  82
BRANCH  73  90
ATOM     90  C   UNL A   1      39.773  34.554  36.968  1.00  0.00     0.057 A 
ATOM     91  C   UNL A   1      40.146  35.904  37.006  1.00  0.00     0.134 A 
ATOM     92  C   UNL A   1      39.096  34.044  38.085  1.00  0.00     0.134 A 
ATOM     93  F   UNL A   1      40.805  36.456  35.976  1.00  0.00    -0.206 F 
ATOM     94  C   UNL A   1      39.896  36.702  38.125  1.00  0.00     0.040 A 
ATOM     95  C   UNL A   1      38.810  34.841  39.195  1.00  0.00     0.040 A 
ATOM     96  F   UNL A   1      38.696  32.764  38.114  1.00  0.00    -0.206 F 
ATOM     97  C   UNL A   1      39.222  36.171  39.222  1.00  0.00     0.006 A 
ENDBRANCH  73  90
ENDBRANCH  47  48
ENDBRANCH  40  42
ENDBRANCH  39  40
ENDBRANCH  38  39
ENDBRANCH  37  38
ENDBRANCH  36  37
ENDBRANCH  35  36
ENDBRANCH  34  35
ENDBRANCH  33  34
ENDBRANCH   1  33
TORSDOF 24
ENDMDL
MODEL 3
REMARK VINA RESULT:      -9.2      4.904     10.337
REMARK SMILES Cc1ccc(S(=O)(=O)Nc2cc(C(=O)OCCOCCOCCOCCOC(=O)c3ccc(-c4c5nc(c(-c6c(F)cccc6F)c6ccc([nH]6)c(-c6c(F)cccc6F)c6nc(c(-c7c(F)cccc7F)c7ccc4[nH]7)C=C6)C=C5)cc3)cnc2N2CCCC2)c(C)c1
REMARK SMILES IDX 20 1 19 2 18 3 17 4 16 5 15 6 13 7 14 8 12 9 10 10 11 11
REMARK SMILES IDX 86 12 85 13 84 14 9 15 6 17 7 18 8 19 5 20 1 21 2 22 3 23
REMARK SMILES IDX 94 24 4 25 92 26 93 27 87 28 88 29 91 30 89 31 90 32 21 33
REMARK SMILES IDX 22 34 23 35 24 36 25 37 26 38 27 39 28 40 29 41 30 42 31 43
REMARK SMILES IDX 83 44 32 45 82 46 33 47 34 48 35 49 76 50 36 51 81 52 75 53
REMARK SMILES IDX 77 54 37 55 80 56 74 57 73 58 38 60 64 61 47 62 63 63 48 64
REMARK SMILES IDX 51 65 62 66 78 67 49 68 50 69 61 71 79 72 52 73 39 74 40 75
REMARK SMILES IDX 45 76 41 77 42 78 44 79 46 80 43 81 65 82 66 83 71 84 67 85
REMARK SMILES IDX 68 86 70 87 72 88 69 89 53 90 54 91 59 92 55 93 56 94 58 95
REMARK SMILES IDX 60 96 57 97
REMARK H PARENT 9 16 77 59 51 70
REMARK Flexibility Score: inf
ROOT
ATOM      1  C   UNL A   1      39.939  20.388  26.048  1.00  0.00     0.188 C 
ENDROOT
BRANCH   1   2
ATOM      2  C   UNL A   1      38.780  19.567  25.444  1.00  0.00     0.188 C 
BRANCH   2   3
ATOM      3  O   UNL A   1      37.746  20.178  24.687  1.00  0.00    -0.376 OA
BRANCH   3   4
ATOM      4  C   UNL A   1      36.705  20.966  25.244  1.00  0.00     0.202 C 
BRANCH   4   5
ATOM      5  C   UNL A   1      35.376  21.290  24.544  1.00  0.00     0.261 C 
BRANCH   5   6
ATOM      6  O   UNL A   1      35.004  22.660  24.497  1.00  0.00    -0.460 OA
BRANCH   6   7
ATOM      7  C   UNL A   1      35.078  23.246  23.287  1.00  0.00     0.339 C 
ATOM      8  O   UNL A   1      35.852  22.981  22.383  1.00  0.00    -0.246 OA
BRANCH   7   9
ATOM      9  C   UNL A   1      33.992  24.231  23.172  1.00  0.00     0.080 A 
ATOM     10  C   UNL A   1      31.865  25.062  23.821  1.00  0.00     0.092 A 
ATOM     11  C   UNL A   1      32.724  23.986  23.684  1.00  0.00     0.048 A 
ATOM     12  C   UNL A   1      32.191  26.304  23.224  1.00  0.00     0.153 A 
ATOM     13  N   UNL A   1      33.364  26.491  22.582  1.00  0.00    -0.236 NA
ATOM     14  C   UNL A   1      34.258  25.472  22.611  1.00  0.00     0.129 A 
BRANCH  10  15
ATOM     15  N   UNL A   1      30.661  24.910  24.583  1.00  0.00    -0.276 N 
ATOM     16  H   UNL A   1      29.838  24.622  24.126  1.00  0.00     0.180 HD
BRANCH  15  17
ATOM     17  S   UNL A   1      30.618  25.214  26.263  1.00  0.00     0.262 S 
ATOM     18  O   UNL A   1      31.192  24.006  26.824  1.00  0.00    -0.201 OA
ATOM     19  O   UNL A   1      29.259  25.590  26.590  1.00  0.00    -0.201 OA
BRANCH  17  20
ATOM     20  C   UNL A   1      31.653  26.599  26.758  1.00  0.00     0.090 A 
ATOM     21  C   UNL A   1      33.844  30.310  26.811  1.00  0.00     0.044 C 
ATOM     22  C   UNL A   1      33.108  29.006  26.893  1.00  0.00    -0.051 A 
ATOM     23  C   UNL A   1      31.809  28.940  27.392  1.00  0.00     0.005 A 
ATOM     24  C   UNL A   1      33.741  27.810  26.547  1.00  0.00     0.008 A 
ATOM     25  C   UNL A   1      31.095  27.734  27.357  1.00  0.00     0.023 A 
ATOM     26  C   UNL A   1      33.037  26.590  26.516  1.00  0.00    -0.030 A 
ATOM     27  C   UNL A   1      33.865  25.339  26.394  1.00  0.00     0.046 C 
ENDBRANCH  17  20
ENDBRANCH  15  17
ENDBRANCH  10  15
BRANCH  12  28
ATOM     28  N   UNL A   1      31.298  27.354  23.330  1.00  0.00    -0.355 N 
ATOM     29  C   UNL A   1      31.843  28.687  23.535  1.00  0.00     0.118 C 
ATOM     30  C   UNL A   1      30.180  27.455  22.393  1.00  0.00     0.118 C 
ATOM     31  C   UNL A   1      30.563  29.494  23.672  1.00  0.00     0.023 C 
ATOM     32  C   UNL A   1      29.666  28.893  22.591  1.00  0.00     0.023 C 
ENDBRANCH  12  28
ENDBRANCH   7   9
ENDBRANCH   6   7
ENDBRANCH   5   6
ENDBRANCH   4   5
ENDBRANCH   3   4
ENDBRANCH   2   3
ENDBRANCH   1   2
BRANCH   1  33
ATOM     33  O   UNL A   1      41.213  20.041  25.541  1.00  0.00    -0.377 OA
BRANCH  33  34
ATOM     34  C   UNL A   1      42.314  20.205  26.428  1.00  0.00     0.188 C 
BRANCH  34  35
ATOM     35  C   UNL A   1      43.301  21.368  26.184  1.00  0.00     0.188 C 
BRANCH  35  36
ATOM     36  O   UNL A   1      43.415  21.771  24.826  1.00  0.00    -0.376 OA
BRANCH  36  37
ATOM     37  C   UNL A   1      43.636  23.139  24.522  1.00  0.00     0.202 C 
BRANCH  37  38
ATOM     38  C   UNL A   1      43.733  24.111  25.709  1.00  0.00     0.261 C 
BRANCH  38  39
ATOM     39  O   UNL A   1      43.345  25.464  25.432  1.00  0.00    -0.460 OA
BRANCH  39  40
ATOM     40  C   UNL A   1      42.054  25.782  25.650  1.00  0.00     0.338 C 
ATOM     41  O   UNL A   1      41.089  25.440  24.982  1.00  0.00    -0.246 OA
BRANCH  40  42
ATOM     42  C   UNL A   1      41.954  26.449  26.961  1.00  0.00     0.060 A 
ATOM     43  C   UNL A   1      40.894  26.097  27.804  1.00  0.00     0.016 A 
ATOM     44  C   UNL A   1      42.882  27.418  27.353  1.00  0.00     0.016 A 
ATOM     45  C   UNL A   1      40.723  26.755  29.018  1.00  0.00     0.010 A 
ATOM     46  C   UNL A   1      42.699  28.091  28.566  1.00  0.00     0.010 A 
ATOM     47  C   UNL A   1      41.592  27.793  29.379  1.00  0.00    -0.014 A 
BRANCH  47  48
ATOM     48  C   UNL A   1      41.209  28.669  30.512  1.00  0.00     0.031 A 
ATOM     49  C   UNL A   1      42.016  28.610  31.779  1.00  0.00     0.074 A 
ATOM     50  C   UNL A   1      40.219  29.568  30.384  1.00  0.00     0.049 A 
ATOM     51  N   UNL A   1      41.930  29.347  32.856  1.00  0.00    -0.248 NA
ATOM     52  C   UNL A   1      43.066  27.581  31.835  1.00  0.00     0.031 C 
ATOM     53  C   UNL A   1      39.380  29.736  29.200  1.00  0.00     0.029 A 
ATOM     54  N   UNL A   1      39.763  30.516  31.264  1.00  0.00    -0.354 N 
ATOM     55  C   UNL A   1      42.916  28.877  33.714  1.00  0.00     0.074 A 
ATOM     56  C   UNL A   1      43.554  27.759  33.052  1.00  0.00     0.031 C 
ATOM     57  C   UNL A   1      38.507  30.731  29.427  1.00  0.00     0.029 A 
ATOM     58  C   UNL A   1      38.713  31.254  30.777  1.00  0.00     0.049 A 
ATOM     59  H   UNL A   1      40.150  30.654  32.158  1.00  0.00     0.167 HD
ATOM     60  C   UNL A   1      43.273  29.344  34.935  1.00  0.00     0.037 A 
ATOM     61  C   UNL A   1      37.996  32.235  31.359  1.00  0.00     0.037 A 
ATOM     62  C   UNL A   1      42.619  30.441  35.601  1.00  0.00     0.049 A 
ATOM     63  C   UNL A   1      38.368  32.703  32.740  1.00  0.00     0.074 A 
ATOM     64  C   UNL A   1      42.904  30.995  36.836  1.00  0.00     0.029 A 
ATOM     65  N   UNL A   1      41.534  31.142  35.092  1.00  0.00    -0.354 N 
ATOM     66  N   UNL A   1      39.327  32.280  33.528  1.00  0.00    -0.248 NA
ATOM     67  C   UNL A   1      37.568  33.800  33.302  1.00  0.00     0.031 C 
ATOM     68  C   UNL A   1      41.954  31.988  37.102  1.00  0.00     0.029 A 
ATOM     69  C   UNL A   1      41.120  32.104  36.000  1.00  0.00     0.049 A 
ATOM     70  H   UNL A   1      41.119  30.978  34.214  1.00  0.00     0.167 HD
ATOM     71  C   UNL A   1      39.263  33.072  34.669  1.00  0.00     0.074 A 
ATOM     72  C   UNL A   1      38.182  34.014  34.458  1.00  0.00     0.031 C 
ATOM     73  C   UNL A   1      40.034  33.029  35.786  1.00  0.00     0.037 A 
BRANCH  60  74
ATOM     74  C   UNL A   1      44.396  28.631  35.636  1.00  0.00     0.057 A 
ATOM     75  C   UNL A   1      44.167  27.563  36.516  1.00  0.00     0.134 A 
ATOM     76  C   UNL A   1      45.724  29.028  35.440  1.00  0.00     0.134 A 
ATOM     77  F   UNL A   1      42.918  27.140  36.763  1.00  0.00    -0.206 F 
ATOM     78  C   UNL A   1      45.213  26.949  37.209  1.00  0.00     0.040 A 
ATOM     79  C   UNL A   1      46.782  28.399  36.101  1.00  0.00     0.040 A 
ATOM     80  F   UNL A   1      46.019  30.039  34.609  1.00  0.00    -0.206 F 
ATOM     81  C   UNL A   1      46.526  27.365  36.998  1.00  0.00     0.006 A 
ENDBRANCH  60  74
BRANCH  61  82
ATOM     82  C   UNL A   1      36.855  32.837  30.625  1.00  0.00     0.057 A 
ATOM     83  C   UNL A   1      35.533  32.457  30.882  1.00  0.00     0.134 A 
ATOM     84  C   UNL A   1      37.064  33.829  29.659  1.00  0.00     0.134 A 
ATOM     85  F   UNL A   1      35.269  31.496  31.780  1.00  0.00    -0.206 F 
ATOM     86  C   UNL A   1      34.461  33.035  30.199  1.00  0.00     0.040 A 
ATOM     87  C   UNL A   1      36.001  34.436  28.990  1.00  0.00     0.040 A 
ATOM     88  F   UNL A   1      38.307  34.240  29.370  1.00  0.00    -0.206 F 
ATOM     89  C   UNL A   1      34.694  34.034  29.257  1.00  0.00     0.006 A 
ENDBRANCH  61  82
BRANCH  73  90
ATOM     90  C   UNL A   1      39.757  34.055  36.851  1.00  0.00     0.057 A 
ATOM     91  C   UNL A   1      38.979  33.770  37.981  1.00  0.00     0.134 A 
ATOM     92  C   UNL A   1      40.287  35.348  36.747  1.00  0.00     0.134 A 
ATOM     93  F   UNL A   1      38.432  32.554  38.141  1.00  0.00    -0.206 F 
ATOM     94  C   UNL A   1      38.704  34.742  38.945  1.00  0.00     0.040 A 
ATOM     95  C   UNL A   1      40.047  36.319  37.721  1.00  0.00     0.040 A 
ATOM     96  F   UNL A   1      41.052  35.689  35.699  1.00  0.00    -0.206 F 
ATOM     97  C   UNL A   1      39.243  36.020  38.818  1.00  0.00     0.006 A 
ENDBRANCH  73  90
ENDBRANCH  47  48
ENDBRANCH  40  42
ENDBRANCH  39  40
ENDBRANCH  38  39
ENDBRANCH  37  38
ENDBRANCH  36  37
ENDBRANCH  35  36
ENDBRANCH  34  35
ENDBRANCH  33  34
ENDBRANCH   1  33
TORSDOF 24
ENDMDL
