MODEL 1
REMARK VINA RESULT:     -10.4      0.000      0.000
REMARK SMILES Cc1nc(Oc2ccc(F)cc2)c(C(=O)OCCOCCOCCOCCOC(=O)c2ccc(-c3c4nc(c(-c5c(F)cccc5F)c5ccc([nH]5)c(-c5c(F)cccc5F)c5nc(c(-c6c(F)cccc6F)c6ccc3[nH]6)C=C5)C=C4)cc2)c(C)c1Cl
REMARK SMILES IDX 22 1 21 2 20 3 19 4 18 5 17 6 16 7 14 8 15 9 13 10 1 11 2 12
REMARK SMILES IDX 3 13 87 14 4 15 85 16 88 17 86 18 5 19 6 20 7 21 12 22 8 23
REMARK SMILES IDX 11 24 9 25 10 26 23 27 24 28 25 29 26 30 27 31 28 32 29 33
REMARK SMILES IDX 30 34 31 35 32 36 84 37 33 38 83 39 34 40 35 41 36 42 77 43
REMARK SMILES IDX 37 44 82 45 76 46 78 47 38 48 81 49 75 50 74 51 39 53 65 54
REMARK SMILES IDX 48 55 64 56 49 57 52 58 63 59 79 60 50 61 51 62 62 64 80 65
REMARK SMILES IDX 53 66 40 67 41 68 46 69 42 70 43 71 45 72 47 73 44 74 66 75
REMARK SMILES IDX 67 76 72 77 68 78 69 79 71 80 73 81 70 82 54 83 55 84 60 85
REMARK SMILES IDX 56 86 57 87 59 88 61 89 58 90
REMARK H PARENT 78 52 52 63
REMARK Flexibility Score: inf
ROOT
ATOM      1  O   UNL A   1      39.926  22.107  26.118  1.00  0.00    -0.377 OA
ENDROOT
BRANCH   1   2
ATOM      2  C   UNL A   1      38.941  23.054  26.470  1.00  0.00     0.188 C 
BRANCH   2   3
ATOM      3  C   UNL A   1      37.701  23.093  25.566  1.00  0.00     0.188 C 
BRANCH   3   4
ATOM      4  O   UNL A   1      36.464  23.268  26.243  1.00  0.00    -0.376 OA
BRANCH   4   5
ATOM      5  C   UNL A   1      35.393  23.999  25.675  1.00  0.00     0.202 C 
BRANCH   5   6
ATOM      6  C   UNL A   1      34.057  24.042  26.405  1.00  0.00     0.261 C 
BRANCH   6   7
ATOM      7  O   UNL A   1      33.251  25.110  25.914  1.00  0.00    -0.459 OA
BRANCH   7   8
ATOM      8  C   UNL A   1      31.978  25.255  26.349  1.00  0.00     0.344 C 
ATOM      9  O   UNL A   1      31.452  24.709  27.281  1.00  0.00    -0.246 OA
BRANCH   8  10
ATOM     10  C   UNL A   1      31.364  26.242  25.426  1.00  0.00     0.127 A 
ATOM     11  C   UNL A   1      29.958  29.008  22.528  1.00  0.00     0.068 C 
ATOM     12  C   UNL A   1      30.407  28.096  23.636  1.00  0.00     0.060 A 
ATOM     13  N   UNL A   1      30.148  26.774  23.433  1.00  0.00    -0.216 NA
ATOM     14  C   UNL A   1      31.046  28.568  24.783  1.00  0.00     0.066 A 
ATOM     15  C   UNL A   1      30.596  25.847  24.322  1.00  0.00     0.234 A 
ATOM     16  C   UNL A   1      31.563  27.634  25.693  1.00  0.00    -0.011 A 
ATOM     17  Cl  UNL A   1      31.198  30.271  25.064  1.00  0.00    -0.082 Cl
ATOM     18  C   UNL A   1      32.253  28.100  26.961  1.00  0.00     0.047 C 
BRANCH  15  19
ATOM     19  O   UNL A   1      30.298  24.577  23.878  1.00  0.00    -0.438 OA
BRANCH  19  20
ATOM     20  C   UNL A   1      31.181  23.528  23.981  1.00  0.00     0.129 A 
ATOM     21  C   UNL A   1      32.192  23.456  23.022  1.00  0.00     0.050 A 
ATOM     22  C   UNL A   1      31.003  22.456  24.862  1.00  0.00     0.050 A 
ATOM     23  C   UNL A   1      33.121  22.414  23.039  1.00  0.00     0.043 A 
ATOM     24  C   UNL A   1      31.942  21.408  24.889  1.00  0.00     0.043 A 
ATOM     25  C   UNL A   1      33.003  21.409  23.990  1.00  0.00     0.123 A 
ATOM     26  F   UNL A   1      33.942  20.456  24.059  1.00  0.00    -0.207 F 
ENDBRANCH  19  20
ENDBRANCH  15  19
ENDBRANCH   8  10
ENDBRANCH   7   8
ENDBRANCH   6   7
ENDBRANCH   5   6
ENDBRANCH   4   5
ENDBRANCH   3   4
ENDBRANCH   2   3
ENDBRANCH   1   2
BRANCH   1  27
ATOM     27  C   UNL A   1      40.465  21.271  27.144  1.00  0.00     0.188 C 
BRANCH  27  28
ATOM     28  C   UNL A   1      41.763  20.414  26.991  1.00  0.00     0.188 C 
BRANCH  28  29
ATOM     29  O   UNL A   1      42.302  20.383  25.684  1.00  0.00    -0.376 OA
BRANCH  29  30
ATOM     30  C   UNL A   1      43.691  20.368  25.459  1.00  0.00     0.202 C 
BRANCH  30  31
ATOM     31  C   UNL A   1      44.408  21.712  25.302  1.00  0.00     0.261 C 
BRANCH  31  32
ATOM     32  O   UNL A   1      43.588  22.874  25.433  1.00  0.00    -0.460 OA
BRANCH  32  33
ATOM     33  C   UNL A   1      44.206  24.071  25.323  1.00  0.00     0.338 C 
ATOM     34  O   UNL A   1      45.054  24.396  24.515  1.00  0.00    -0.246 OA
BRANCH  33  35
ATOM     35  C   UNL A   1      43.493  24.996  26.229  1.00  0.00     0.060 A 
ATOM     36  C   UNL A   1      43.825  26.358  26.201  1.00  0.00     0.016 A 
ATOM     37  C   UNL A   1      42.433  24.534  27.013  1.00  0.00     0.016 A 
ATOM     38  C   UNL A   1      43.074  27.268  26.942  1.00  0.00     0.010 A 
ATOM     39  C   UNL A   1      41.729  25.434  27.810  1.00  0.00     0.010 A 
ATOM     40  C   UNL A   1      42.063  26.798  27.793  1.00  0.00    -0.014 A 
BRANCH  40  41
ATOM     41  C   UNL A   1      41.602  27.673  28.891  1.00  0.00     0.031 A 
ATOM     42  C   UNL A   1      42.378  27.597  30.178  1.00  0.00     0.074 A 
ATOM     43  C   UNL A   1      40.556  28.504  28.761  1.00  0.00     0.049 A 
ATOM     44  N   UNL A   1      42.187  28.227  31.305  1.00  0.00    -0.248 NA
ATOM     45  C   UNL A   1      43.538  26.685  30.185  1.00  0.00     0.031 C 
ATOM     46  C   UNL A   1      39.760  28.699  27.551  1.00  0.00     0.029 A 
ATOM     47  N   UNL A   1      39.980  29.344  29.682  1.00  0.00    -0.354 N 
ATOM     48  C   UNL A   1      43.218  27.813  32.139  1.00  0.00     0.074 A 
ATOM     49  C   UNL A   1      44.008  26.850  31.409  1.00  0.00     0.031 C 
ATOM     50  C   UNL A   1      38.783  29.588  27.812  1.00  0.00     0.029 A 
ATOM     51  C   UNL A   1      38.871  30.001  29.212  1.00  0.00     0.049 A 
ATOM     52  H   UNL A   1      40.330  29.463  30.595  1.00  0.00     0.167 HD
ATOM     53  C   UNL A   1      43.490  28.207  33.403  1.00  0.00     0.037 A 
ATOM     54  C   UNL A   1      38.019  30.822  29.859  1.00  0.00     0.037 A 
ATOM     55  C   UNL A   1      42.667  29.111  34.151  1.00  0.00     0.049 A 
ATOM     56  C   UNL A   1      38.263  31.126  31.318  1.00  0.00     0.074 A 
ATOM     57  C   UNL A   1      42.822  29.541  35.456  1.00  0.00     0.029 A 
ATOM     58  N   UNL A   1      41.517  29.710  33.661  1.00  0.00    -0.354 N 
ATOM     59  N   UNL A   1      39.253  30.753  32.094  1.00  0.00    -0.248 NA
ATOM     60  C   UNL A   1      37.263  31.968  31.993  1.00  0.00     0.031 C 
ATOM     61  C   UNL A   1      41.737  30.365  35.771  1.00  0.00     0.029 A 
ATOM     62  C   UNL A   1      40.939  30.491  34.644  1.00  0.00     0.049 A 
ATOM     63  H   UNL A   1      41.165  29.596  32.749  1.00  0.00     0.167 HD
ATOM     64  C   UNL A   1      39.016  31.345  33.330  1.00  0.00     0.074 A 
ATOM     65  C   UNL A   1      37.797  32.115  33.195  1.00  0.00     0.031 C 
ATOM     66  C   UNL A   1      39.733  31.261  34.478  1.00  0.00     0.037 A 
BRANCH  53  67
ATOM     67  C   UNL A   1      44.712  27.626  34.046  1.00  0.00     0.057 A 
ATOM     68  C   UNL A   1      44.646  26.424  34.758  1.00  0.00     0.134 A 
ATOM     69  C   UNL A   1      45.959  28.260  33.954  1.00  0.00     0.134 A 
ATOM     70  F   UNL A   1      43.485  25.761  34.872  1.00  0.00    -0.206 F 
ATOM     71  C   UNL A   1      45.776  25.875  35.366  1.00  0.00     0.040 A 
ATOM     72  C   UNL A   1      47.101  27.708  34.536  1.00  0.00     0.040 A 
ATOM     73  F   UNL A   1      46.093  29.399  33.258  1.00  0.00    -0.206 F 
ATOM     74  C   UNL A   1      47.009  26.516  35.251  1.00  0.00     0.006 A 
ENDBRANCH  53  67
BRANCH  54  75
ATOM     75  C   UNL A   1      36.831  31.395  29.172  1.00  0.00     0.057 A 
ATOM     76  C   UNL A   1      36.826  32.713  28.699  1.00  0.00     0.134 A 
ATOM     77  C   UNL A   1      35.713  30.603  28.878  1.00  0.00     0.134 A 
ATOM     78  F   UNL A   1      37.867  33.524  28.941  1.00  0.00    -0.206 F 
ATOM     79  C   UNL A   1      35.762  33.217  27.949  1.00  0.00     0.040 A 
ATOM     80  C   UNL A   1      34.656  31.087  28.102  1.00  0.00     0.040 A 
ATOM     81  F   UNL A   1      35.667  29.324  29.277  1.00  0.00    -0.206 F 
ATOM     82  C   UNL A   1      34.680  32.398  27.634  1.00  0.00     0.006 A 
ENDBRANCH  54  75
BRANCH  66  83
ATOM     83  C   UNL A   1      39.248  32.061  35.652  1.00  0.00     0.057 A 
ATOM     84  C   UNL A   1      38.367  31.492  36.582  1.00  0.00     0.134 A 
ATOM     85  C   UNL A   1      39.623  33.396  35.850  1.00  0.00     0.134 A 
ATOM     86  F   UNL A   1      37.955  30.223  36.443  1.00  0.00    -0.206 F 
ATOM     87  C   UNL A   1      37.880  32.222  37.667  1.00  0.00     0.040 A 
ATOM     88  C   UNL A   1      39.170  34.124  36.950  1.00  0.00     0.040 A 
ATOM     89  F   UNL A   1      40.473  33.996  35.002  1.00  0.00    -0.206 F 
ATOM     90  C   UNL A   1      38.289  33.539  37.858  1.00  0.00     0.006 A 
ENDBRANCH  66  83
ENDBRANCH  40  41
ENDBRANCH  33  35
ENDBRANCH  32  33
ENDBRANCH  31  32
ENDBRANCH  30  31
ENDBRANCH  29  30
ENDBRANCH  28  29
ENDBRANCH  27  28
ENDBRANCH   1  27
TORSDOF 22
ENDMDL
MODEL 2
REMARK VINA RESULT:      -9.9      2.135      6.556
REMARK SMILES Cc1nc(Oc2ccc(F)cc2)c(C(=O)OCCOCCOCCOCCOC(=O)c2ccc(-c3c4nc(c(-c5c(F)cccc5F)c5ccc([nH]5)c(-c5c(F)cccc5F)c5nc(c(-c6c(F)cccc6F)c6ccc3[nH]6)C=C5)C=C4)cc2)c(C)c1Cl
REMARK SMILES IDX 22 1 21 2 20 3 19 4 18 5 17 6 16 7 14 8 15 9 13 10 1 11 2 12
REMARK SMILES IDX 3 13 87 14 4 15 85 16 88 17 86 18 5 19 6 20 7 21 12 22 8 23
REMARK SMILES IDX 11 24 9 25 10 26 23 27 24 28 25 29 26 30 27 31 28 32 29 33
REMARK SMILES IDX 30 34 31 35 32 36 84 37 33 38 83 39 34 40 35 41 36 42 77 43
REMARK SMILES IDX 37 44 82 45 76 46 78 47 38 48 81 49 75 50 74 51 39 53 65 54
REMARK SMILES IDX 48 55 64 56 49 57 52 58 63 59 79 60 50 61 51 62 62 64 80 65
REMARK SMILES IDX 53 66 40 67 41 68 46 69 42 70 43 71 45 72 47 73 44 74 66 75
REMARK SMILES IDX 67 76 72 77 68 78 69 79 71 80 73 81 70 82 54 83 55 84 60 85
REMARK SMILES IDX 56 86 57 87 59 88 61 89 58 90
REMARK H PARENT 78 52 52 63
REMARK Flexibility Score: inf
ROOT
ATOM      1  O   UNL A   1      38.953  23.126  27.072  1.00  0.00    -0.377 OA
ENDROOT
BRANCH   1   2
ATOM      2  C   UNL A   1      38.419  24.084  26.184  1.00  0.00     0.188 C 
BRANCH   2   3
ATOM      3  C   UNL A   1      37.268  23.597  25.292  1.00  0.00     0.188 C 
BRANCH   3   4
ATOM      4  O   UNL A   1      36.063  23.286  25.977  1.00  0.00    -0.376 OA
BRANCH   4   5
ATOM      5  C   UNL A   1      35.814  22.001  26.514  1.00  0.00     0.202 C 
BRANCH   5   6
ATOM      6  C   UNL A   1      34.410  21.659  26.997  1.00  0.00     0.261 C 
BRANCH   6   7
ATOM      7  O   UNL A   1      33.710  22.839  27.386  1.00  0.00    -0.459 OA
BRANCH   7   8
ATOM      8  C   UNL A   1      32.437  23.039  26.976  1.00  0.00     0.344 C 
ATOM      9  O   UNL A   1      31.450  23.116  27.656  1.00  0.00    -0.246 OA
BRANCH   8  10
ATOM     10  C   UNL A   1      32.518  23.148  25.499  1.00  0.00     0.127 A 
ATOM     11  C   UNL A   1      33.144  23.271  21.301  1.00  0.00     0.068 C 
ATOM     12  C   UNL A   1      32.866  23.329  22.777  1.00  0.00     0.060 A 
ATOM     13  N   UNL A   1      32.368  22.180  23.314  1.00  0.00    -0.216 NA
ATOM     14  C   UNL A   1      33.103  24.471  23.541  1.00  0.00     0.066 A 
ATOM     15  C   UNL A   1      32.170  22.083  24.656  1.00  0.00     0.234 A 
ATOM     16  C   UNL A   1      32.956  24.389  24.934  1.00  0.00    -0.011 A 
ATOM     17  Cl  UNL A   1      33.576  25.954  22.778  1.00  0.00    -0.082 Cl
ATOM     18  C   UNL A   1      33.189  25.609  25.804  1.00  0.00     0.047 C 
BRANCH  15  19
ATOM     19  O   UNL A   1      31.747  20.814  24.987  1.00  0.00    -0.438 OA
BRANCH  19  20
ATOM     20  C   UNL A   1      32.284  19.681  24.424  1.00  0.00     0.129 A 
ATOM     21  C   UNL A   1      33.165  18.939  25.213  1.00  0.00     0.050 A 
ATOM     22  C   UNL A   1      32.141  19.351  23.072  1.00  0.00     0.050 A 
ATOM     23  C   UNL A   1      33.771  17.785  24.715  1.00  0.00     0.043 A 
ATOM     24  C   UNL A   1      32.743  18.182  22.568  1.00  0.00     0.043 A 
ATOM     25  C   UNL A   1      33.535  17.401  23.402  1.00  0.00     0.123 A 
ATOM     26  F   UNL A   1      34.049  16.249  22.952  1.00  0.00    -0.207 F 
ENDBRANCH  19  20
ENDBRANCH  15  19
ENDBRANCH   8  10
ENDBRANCH   7   8
ENDBRANCH   6   7
ENDBRANCH   5   6
ENDBRANCH   4   5
ENDBRANCH   3   4
ENDBRANCH   2   3
ENDBRANCH   1   2
BRANCH   1  27
ATOM     27  C   UNL A   1      40.049  22.324  26.631  1.00  0.00     0.188 C 
BRANCH  27  28
ATOM     28  C   UNL A   1      41.083  21.644  27.585  1.00  0.00     0.188 C 
BRANCH  28  29
ATOM     29  O   UNL A   1      42.415  21.645  27.113  1.00  0.00    -0.376 OA
BRANCH  29  30
ATOM     30  C   UNL A   1      42.755  22.190  25.862  1.00  0.00     0.202 C 
BRANCH  30  31
ATOM     31  C   UNL A   1      43.516  23.519  25.839  1.00  0.00     0.261 C 
BRANCH  31  32
ATOM     32  O   UNL A   1      43.004  24.544  26.692  1.00  0.00    -0.460 OA
BRANCH  32  33
ATOM     33  C   UNL A   1      42.302  25.535  26.098  1.00  0.00     0.338 C 
ATOM     34  O   UNL A   1      41.928  25.589  24.943  1.00  0.00    -0.246 OA
BRANCH  33  35
ATOM     35  C   UNL A   1      41.868  26.445  27.178  1.00  0.00     0.060 A 
ATOM     36  C   UNL A   1      42.440  27.724  27.253  1.00  0.00     0.016 A 
ATOM     37  C   UNL A   1      40.828  26.075  28.035  1.00  0.00     0.016 A 
ATOM     38  C   UNL A   1      41.949  28.648  28.173  1.00  0.00     0.010 A 
ATOM     39  C   UNL A   1      40.387  26.975  29.004  1.00  0.00     0.010 A 
ATOM     40  C   UNL A   1      40.963  28.254  29.089  1.00  0.00    -0.014 A 
BRANCH  40  41
ATOM     41  C   UNL A   1      40.786  29.049  30.322  1.00  0.00     0.031 A 
ATOM     42  C   UNL A   1      39.710  30.100  30.292  1.00  0.00     0.074 A 
ATOM     43  C   UNL A   1      41.528  28.849  31.423  1.00  0.00     0.049 A 
ATOM     44  N   UNL A   1      39.351  30.952  31.213  1.00  0.00    -0.248 NA
ATOM     45  C   UNL A   1      38.925  30.193  29.046  1.00  0.00     0.031 C 
ATOM     46  C   UNL A   1      42.564  27.830  31.585  1.00  0.00     0.029 A 
ATOM     47  N   UNL A   1      41.520  29.515  32.622  1.00  0.00    -0.354 N 
ATOM     48  C   UNL A   1      38.283  31.655  30.671  1.00  0.00     0.074 A 
ATOM     49  C   UNL A   1      38.075  31.164  29.329  1.00  0.00     0.031 C 
ATOM     50  C   UNL A   1      43.107  27.954  32.811  1.00  0.00     0.029 A 
ATOM     51  C   UNL A   1      42.475  29.076  33.505  1.00  0.00     0.049 A 
ATOM     52  H   UNL A   1      40.887  30.241  32.830  1.00  0.00     0.167 HD
ATOM     53  C   UNL A   1      37.533  32.623  31.242  1.00  0.00     0.037 A 
ATOM     54  C   UNL A   1      42.807  29.553  34.721  1.00  0.00     0.037 A 
ATOM     55  C   UNL A   1      37.782  33.158  32.549  1.00  0.00     0.049 A 
ATOM     56  C   UNL A   1      42.047  30.737  35.274  1.00  0.00     0.074 A 
ATOM     57  C   UNL A   1      37.115  34.174  33.207  1.00  0.00     0.029 A 
ATOM     58  N   UNL A   1      38.798  32.730  33.389  1.00  0.00    -0.354 N 
ATOM     59  N   UNL A   1      41.022  31.381  34.768  1.00  0.00    -0.248 NA
ATOM     60  C   UNL A   1      42.498  31.262  36.572  1.00  0.00     0.031 C 
ATOM     61  C   UNL A   1      37.758  34.392  34.430  1.00  0.00     0.029 A 
ATOM     62  C   UNL A   1      38.790  33.475  34.554  1.00  0.00     0.049 A 
ATOM     63  H   UNL A   1      39.431  32.003  33.186  1.00  0.00     0.167 HD
ATOM     64  C   UNL A   1      40.683  32.356  35.701  1.00  0.00     0.074 A 
ATOM     65  C   UNL A   1      41.602  32.206  36.810  1.00  0.00     0.031 C 
ATOM     66  C   UNL A   1      39.705  33.294  35.650  1.00  0.00     0.037 A 
BRANCH  53  67
ATOM     67  C   UNL A   1      36.399  33.171  30.431  1.00  0.00     0.057 A 
ATOM     68  C   UNL A   1      35.076  32.820  30.716  1.00  0.00     0.134 A 
ATOM     69  C   UNL A   1      36.622  34.056  29.367  1.00  0.00     0.134 A 
ATOM     70  F   UNL A   1      34.795  31.988  31.730  1.00  0.00    -0.206 F 
ATOM     71  C   UNL A   1      34.012  33.320  29.965  1.00  0.00     0.040 A 
ATOM     72  C   UNL A   1      35.565  34.584  28.624  1.00  0.00     0.040 A 
ATOM     73  F   UNL A   1      37.867  34.457  29.064  1.00  0.00    -0.206 F 
ATOM     74  C   UNL A   1      34.256  34.209  28.918  1.00  0.00     0.006 A 
ENDBRANCH  53  67
BRANCH  54  75
ATOM     75  C   UNL A   1      43.925  28.961  35.502  1.00  0.00     0.057 A 
ATOM     76  C   UNL A   1      43.706  27.926  36.420  1.00  0.00     0.134 A 
ATOM     77  C   UNL A   1      45.253  29.343  35.269  1.00  0.00     0.134 A 
ATOM     78  F   UNL A   1      42.460  27.508  36.687  1.00  0.00    -0.206 F 
ATOM     79  C   UNL A   1      44.765  27.286  37.066  1.00  0.00     0.040 A 
ATOM     80  C   UNL A   1      46.322  28.689  35.886  1.00  0.00     0.040 A 
ATOM     81  F   UNL A   1      45.532  30.307  34.381  1.00  0.00    -0.206 F 
ATOM     82  C   UNL A   1      46.079  27.655  36.788  1.00  0.00     0.006 A 
ENDBRANCH  54  75
BRANCH  66  83
ATOM     83  C   UNL A   1      39.549  34.189  36.845  1.00  0.00     0.057 A 
ATOM     84  C   UNL A   1      38.837  33.752  37.971  1.00  0.00     0.134 A 
ATOM     85  C   UNL A   1      40.072  35.488  36.875  1.00  0.00     0.134 A 
ATOM     86  F   UNL A   1      38.297  32.525  38.001  1.00  0.00    -0.206 F 
ATOM     87  C   UNL A   1      38.655  34.574  39.084  1.00  0.00     0.040 A 
ATOM     88  C   UNL A   1      39.924  36.306  37.996  1.00  0.00     0.040 A 
ATOM     89  F   UNL A   1      40.773  35.964  35.835  1.00  0.00    -0.206 F 
ATOM     90  C   UNL A   1      39.207  35.851  39.101  1.00  0.00     0.006 A 
ENDBRANCH  66  83
ENDBRANCH  40  41
ENDBRANCH  33  35
ENDBRANCH  32  33
ENDBRANCH  31  32
ENDBRANCH  30  31
ENDBRANCH  29  30
ENDBRANCH  28  29
ENDBRANCH  27  28
ENDBRANCH   1  27
TORSDOF 22
ENDMDL
MODEL 3
REMARK VINA RESULT:      -9.9      5.437     11.900
REMARK SMILES Cc1nc(Oc2ccc(F)cc2)c(C(=O)OCCOCCOCCOCCOC(=O)c2ccc(-c3c4nc(c(-c5c(F)cccc5F)c5ccc([nH]5)c(-c5c(F)cccc5F)c5nc(c(-c6c(F)cccc6F)c6ccc3[nH]6)C=C5)C=C4)cc2)c(C)c1Cl
REMARK SMILES IDX 22 1 21 2 20 3 19 4 18 5 17 6 16 7 14 8 15 9 13 10 1 11 2 12
REMARK SMILES IDX 3 13 87 14 4 15 85 16 88 17 86 18 5 19 6 20 7 21 12 22 8 23
REMARK SMILES IDX 11 24 9 25 10 26 23 27 24 28 25 29 26 30 27 31 28 32 29 33
REMARK SMILES IDX 30 34 31 35 32 36 84 37 33 38 83 39 34 40 35 41 36 42 77 43
REMARK SMILES IDX 37 44 82 45 76 46 78 47 38 48 81 49 75 50 74 51 39 53 65 54
REMARK SMILES IDX 48 55 64 56 49 57 52 58 63 59 79 60 50 61 51 62 62 64 80 65
REMARK SMILES IDX 53 66 40 67 41 68 46 69 42 70 43 71 45 72 47 73 44 74 66 75
REMARK SMILES IDX 67 76 72 77 68 78 69 79 71 80 73 81 70 82 54 83 55 84 60 85
REMARK SMILES IDX 56 86 57 87 59 88 61 89 58 90
REMARK H PARENT 78 52 52 63
REMARK Flexibility Score: inf
ROOT
ATOM      1  O   UNL A   1      33.074  36.615  32.095  1.00  0.00    -0.377 OA
ENDROOT
BRANCH   1   2
ATOM      2  C   UNL A   1      34.342  36.440  32.688  1.00  0.00     0.188 C 
BRANCH   2   3
ATOM      3  C   UNL A   1      34.539  35.132  33.467  1.00  0.00     0.188 C 
BRANCH   3   4
ATOM      4  O   UNL A   1      35.842  34.934  33.998  1.00  0.00    -0.376 OA
BRANCH   4   5
ATOM      5  C   UNL A   1      36.090  34.041  35.067  1.00  0.00     0.202 C 
BRANCH   5   6
ATOM      6  C   UNL A   1      37.093  32.912  34.871  1.00  0.00     0.261 C 
BRANCH   6   7
ATOM      7  O   UNL A   1      38.022  33.236  33.840  1.00  0.00    -0.459 OA
BRANCH   7   8
ATOM      8  C   UNL A   1      38.047  32.515  32.696  1.00  0.00     0.344 C 
ATOM      9  O   UNL A   1      37.229  32.504  31.816  1.00  0.00    -0.246 OA
BRANCH   8  10
ATOM     10  C   UNL A   1      39.308  31.736  32.757  1.00  0.00     0.127 A 
ATOM     11  C   UNL A   1      42.907  29.499  32.491  1.00  0.00     0.068 C 
ATOM     12  C   UNL A   1      41.608  30.231  32.683  1.00  0.00     0.060 A 
ATOM     13  N   UNL A   1      41.690  31.586  32.570  1.00  0.00    -0.216 NA
ATOM     14  C   UNL A   1      40.408  29.573  32.950  1.00  0.00     0.066 A 
ATOM     15  C   UNL A   1      40.564  32.346  32.627  1.00  0.00     0.234 A 
ATOM     16  C   UNL A   1      39.222  30.322  32.966  1.00  0.00    -0.011 A 
ATOM     17  Cl  UNL A   1      40.392  27.866  33.250  1.00  0.00    -0.082 Cl
ATOM     18  C   UNL A   1      37.895  29.652  33.267  1.00  0.00     0.047 C 
BRANCH  15  19
ATOM     19  O   UNL A   1      40.869  33.672  32.405  1.00  0.00    -0.438 OA
BRANCH  19  20
ATOM     20  C   UNL A   1      40.995  34.204  31.144  1.00  0.00     0.129 A 
ATOM     21  C   UNL A   1      42.244  34.724  30.799  1.00  0.00     0.050 A 
ATOM     22  C   UNL A   1      39.911  34.416  30.286  1.00  0.00     0.050 A 
ATOM     23  C   UNL A   1      42.456  35.302  29.547  1.00  0.00     0.043 A 
ATOM     24  C   UNL A   1      40.122  34.989  29.018  1.00  0.00     0.043 A 
ATOM     25  C   UNL A   1      41.398  35.407  28.654  1.00  0.00     0.123 A 
ATOM     26  F   UNL A   1      41.621  35.883  27.422  1.00  0.00    -0.207 F 
ENDBRANCH  19  20
ENDBRANCH  15  19
ENDBRANCH   8  10
ENDBRANCH   7   8
ENDBRANCH   6   7
ENDBRANCH   5   6
ENDBRANCH   4   5
ENDBRANCH   3   4
ENDBRANCH   2   3
ENDBRANCH   1   2
BRANCH   1  27
ATOM     27  C   UNL A   1      32.689  35.736  31.038  1.00  0.00     0.188 C 
BRANCH  27  28
ATOM     28  C   UNL A   1      33.510  35.526  29.724  1.00  0.00     0.188 C 
BRANCH  28  29
ATOM     29  O   UNL A   1      34.195  34.293  29.644  1.00  0.00    -0.376 OA
BRANCH  29  30
ATOM     30  C   UNL A   1      33.992  33.403  28.573  1.00  0.00     0.202 C 
BRANCH  30  31
ATOM     31  C   UNL A   1      35.079  32.362  28.287  1.00  0.00     0.261 C 
BRANCH  31  32
ATOM     32  O   UNL A   1      35.010  31.163  29.062  1.00  0.00    -0.460 OA
BRANCH  32  33
ATOM     33  C   UNL A   1      35.186  29.999  28.398  1.00  0.00     0.338 C 
ATOM     34  O   UNL A   1      34.369  29.397  27.728  1.00  0.00    -0.246 OA
BRANCH  33  35
ATOM     35  C   UNL A   1      36.633  29.703  28.447  1.00  0.00     0.060 A 
ATOM     36  C   UNL A   1      37.400  29.891  27.287  1.00  0.00     0.016 A 
ATOM     37  C   UNL A   1      37.238  29.352  29.656  1.00  0.00     0.016 A 
ATOM     38  C   UNL A   1      38.785  29.753  27.346  1.00  0.00     0.010 A 
ATOM     39  C   UNL A   1      38.616  29.143  29.697  1.00  0.00     0.010 A 
ATOM     40  C   UNL A   1      39.387  29.321  28.536  1.00  0.00    -0.014 A 
BRANCH  40  41
ATOM     41  C   UNL A   1      40.744  28.739  28.471  1.00  0.00     0.031 A 
ATOM     42  C   UNL A   1      41.889  29.683  28.720  1.00  0.00     0.074 A 
ATOM     43  C   UNL A   1      40.961  27.439  28.216  1.00  0.00     0.049 A 
ATOM     44  N   UNL A   1      43.175  29.456  28.703  1.00  0.00    -0.248 NA
ATOM     45  C   UNL A   1      41.527  31.076  29.040  1.00  0.00     0.031 C 
ATOM     46  C   UNL A   1      39.931  26.423  28.007  1.00  0.00     0.029 A 
ATOM     47  N   UNL A   1      42.143  26.754  28.083  1.00  0.00    -0.354 N 
ATOM     48  C   UNL A   1      43.768  30.665  29.042  1.00  0.00     0.074 A 
ATOM     49  C   UNL A   1      42.712  31.634  29.218  1.00  0.00     0.031 C 
ATOM     50  C   UNL A   1      40.530  25.244  27.750  1.00  0.00     0.029 A 
ATOM     51  C   UNL A   1      41.980  25.432  27.751  1.00  0.00     0.049 A 
ATOM     52  H   UNL A   1      43.025  27.172  28.213  1.00  0.00     0.167 HD
ATOM     53  C   UNL A   1      45.080  30.946  29.201  1.00  0.00     0.037 A 
ATOM     54  C   UNL A   1      42.907  24.498  27.459  1.00  0.00     0.037 A 
ATOM     55  C   UNL A   1      46.133  30.003  28.959  1.00  0.00     0.049 A 
ATOM     56  C   UNL A   1      44.369  24.882  27.498  1.00  0.00     0.074 A 
ATOM     57  C   UNL A   1      47.499  30.194  29.042  1.00  0.00     0.029 A 
ATOM     58  N   UNL A   1      45.931  28.690  28.565  1.00  0.00    -0.354 N 
ATOM     59  N   UNL A   1      44.924  26.018  27.844  1.00  0.00    -0.248 NA
ATOM     60  C   UNL A   1      45.333  23.844  27.101  1.00  0.00     0.031 C 
ATOM     61  C   UNL A   1      48.126  29.007  28.651  1.00  0.00     0.029 A 
ATOM     62  C   UNL A   1      47.149  28.062  28.380  1.00  0.00     0.049 A 
ATOM     63  H   UNL A   1      45.051  28.267  28.436  1.00  0.00     0.167 HD
ATOM     64  C   UNL A   1      46.297  25.821  27.744  1.00  0.00     0.074 A 
ATOM     65  C   UNL A   1      46.490  24.450  27.322  1.00  0.00     0.031 C 
ATOM     66  C   UNL A   1      47.312  26.690  27.975  1.00  0.00     0.037 A 
BRANCH  53  67
ATOM     67  C   UNL A   1      45.430  32.340  29.626  1.00  0.00     0.057 A 
ATOM     68  C   UNL A   1      45.545  32.670  30.980  1.00  0.00     0.134 A 
ATOM     69  C   UNL A   1      45.658  33.355  28.687  1.00  0.00     0.134 A 
ATOM     70  F   UNL A   1      45.352  31.740  31.928  1.00  0.00    -0.206 F 
ATOM     71  C   UNL A   1      45.865  33.965  31.388  1.00  0.00     0.040 A 
ATOM     72  C   UNL A   1      46.004  34.648  29.082  1.00  0.00     0.040 A 
ATOM     73  F   UNL A   1      45.594  33.094  27.372  1.00  0.00    -0.206 F 
ATOM     74  C   UNL A   1      46.100  34.957  30.438  1.00  0.00     0.006 A 
ENDBRANCH  53  67
BRANCH  54  75
ATOM     75  C   UNL A   1      42.515  23.119  27.065  1.00  0.00     0.057 A 
ATOM     76  C   UNL A   1      42.596  22.689  25.735  1.00  0.00     0.134 A 
ATOM     77  C   UNL A   1      42.152  22.166  28.026  1.00  0.00     0.134 A 
ATOM     78  F   UNL A   1      42.941  23.548  24.764  1.00  0.00    -0.206 F 
ATOM     79  C   UNL A   1      42.344  21.363  25.378  1.00  0.00     0.040 A 
ATOM     80  C   UNL A   1      41.929  20.830  27.686  1.00  0.00     0.040 A 
ATOM     81  F   UNL A   1      42.085  22.506  29.322  1.00  0.00    -0.206 F 
ATOM     82  C   UNL A   1      42.026  20.425  26.357  1.00  0.00     0.006 A 
ENDBRANCH  54  75
BRANCH  66  83
ATOM     83  C   UNL A   1      48.712  26.167  27.828  1.00  0.00     0.057 A 
ATOM     84  C   UNL A   1      49.411  25.687  28.945  1.00  0.00     0.134 A 
ATOM     85  C   UNL A   1      49.380  26.165  26.597  1.00  0.00     0.134 A 
ATOM     86  F   UNL A   1      48.835  25.677  30.156  1.00  0.00    -0.206 F 
ATOM     87  C   UNL A   1      50.722  25.221  28.840  1.00  0.00     0.040 A 
ATOM     88  C   UNL A   1      50.678  25.670  26.475  1.00  0.00     0.040 A 
ATOM     89  F   UNL A   1      48.764  26.601  25.488  1.00  0.00    -0.206 F 
ATOM     90  C   UNL A   1      51.355  25.203  27.600  1.00  0.00     0.006 A 
ENDBRANCH  66  83
ENDBRANCH  40  41
ENDBRANCH  33  35
ENDBRANCH  32  33
ENDBRANCH  31  32
ENDBRANCH  30  31
ENDBRANCH  29  30
ENDBRANCH  28  29
ENDBRANCH  27  28
ENDBRANCH   1  27
TORSDOF 22
ENDMDL
