MODEL 1
REMARK VINA RESULT:     -10.4      0.000      0.000
REMARK SMILES C[C@@H](C(=O)OCCOCCOCCOCCOC(=O)c1ccc(-c2c3nc(c(-c4c(F)cccc4F)c4ccc([nH]4)c(-c4c(F)cccc4F)c4nc(c(-c5c(F)cccc5F)c5ccc2[nH]5)C=C4)C=C3)cc1)c1ccc(-c2ccccc2)cc1
REMARK SMILES IDX 11 1 10 2 9 3 8 4 7 5 6 6 5 7 3 8 4 9 2 10 1 11 74 12 75 13
REMARK SMILES IDX 85 14 76 15 84 16 77 17 78 18 79 19 83 20 80 21 82 22 81 23
REMARK SMILES IDX 12 24 13 25 14 26 15 27 16 28 17 29 18 30 19 31 20 32 21 33
REMARK SMILES IDX 73 34 22 35 72 36 23 37 24 38 25 39 66 40 26 41 71 42 65 43
REMARK SMILES IDX 67 44 27 45 70 46 64 47 63 48 28 50 54 51 37 52 53 53 38 54
REMARK SMILES IDX 41 55 52 56 68 57 39 58 40 59 51 61 69 62 42 63 29 64 30 65
REMARK SMILES IDX 35 66 31 67 32 68 34 69 36 70 33 71 55 72 56 73 61 74 57 75
REMARK SMILES IDX 58 76 60 77 62 78 59 79 43 80 44 81 49 82 45 83 46 84 48 85
REMARK SMILES IDX 50 86 47 87
REMARK H PARENT 67 49 41 60
REMARK Flexibility Score: inf
ROOT
ATOM      1  O   UNL A   1      39.475  21.844  25.828  1.00  0.00    -0.377 OA
ENDROOT
BRANCH   1   2
ATOM      2  C   UNL A   1      38.085  22.084  25.895  1.00  0.00     0.188 C 
BRANCH   2   3
ATOM      3  C   UNL A   1      37.325  21.861  24.572  1.00  0.00     0.188 C 
BRANCH   3   4
ATOM      4  O   UNL A   1      36.037  21.264  24.588  1.00  0.00    -0.376 OA
BRANCH   4   5
ATOM      5  C   UNL A   1      35.083  21.668  25.558  1.00  0.00     0.202 C 
BRANCH   5   6
ATOM      6  C   UNL A   1      34.670  23.144  25.739  1.00  0.00     0.261 C 
BRANCH   6   7
ATOM      7  O   UNL A   1      34.780  24.014  24.595  1.00  0.00    -0.463 OA
BRANCH   7   8
ATOM      8  C   UNL A   1      34.136  23.622  23.464  1.00  0.00     0.313 C 
ATOM      9  O   UNL A   1      34.699  23.484  22.381  1.00  0.00    -0.252 OA
BRANCH   8  10
ATOM     10  C   UNL A   1      32.624  23.375  23.648  1.00  0.00     0.126 C 
ATOM     11  C   UNL A   1      31.972  22.172  22.955  1.00  0.00     0.025 C 
BRANCH  10  12
ATOM     12  C   UNL A   1      31.827  24.668  23.456  1.00  0.00    -0.034 A 
ATOM     13  C   UNL A   1      30.452  24.652  23.702  1.00  0.00     0.005 A 
ATOM     14  C   UNL A   1      32.414  25.899  23.121  1.00  0.00     0.005 A 
ATOM     15  C   UNL A   1      29.700  25.829  23.648  1.00  0.00     0.009 A 
ATOM     16  C   UNL A   1      31.665  27.083  23.098  1.00  0.00     0.009 A 
ATOM     17  C   UNL A   1      30.293  27.071  23.369  1.00  0.00    -0.018 A 
BRANCH  17  18
ATOM     18  C   UNL A   1      29.484  28.302  23.365  1.00  0.00    -0.018 A 
ATOM     19  C   UNL A   1      28.107  28.254  23.084  1.00  0.00     0.009 A 
ATOM     20  C   UNL A   1      30.060  29.561  23.605  1.00  0.00     0.009 A 
ATOM     21  C   UNL A   1      27.342  29.419  23.005  1.00  0.00     0.001 A 
ATOM     22  C   UNL A   1      29.294  30.729  23.530  1.00  0.00     0.001 A 
ATOM     23  C   UNL A   1      27.938  30.657  23.221  1.00  0.00     0.000 A 
ENDBRANCH  17  18
ENDBRANCH  10  12
ENDBRANCH   8  10
ENDBRANCH   7   8
ENDBRANCH   6   7
ENDBRANCH   5   6
ENDBRANCH   4   5
ENDBRANCH   3   4
ENDBRANCH   2   3
ENDBRANCH   1   2
BRANCH   1  24
ATOM     24  C   UNL A   1      39.897  20.531  26.161  1.00  0.00     0.188 C 
BRANCH  24  25
ATOM     25  C   UNL A   1      41.412  20.250  26.200  1.00  0.00     0.188 C 
BRANCH  25  26
ATOM     26  O   UNL A   1      42.203  21.260  25.580  1.00  0.00    -0.376 OA
BRANCH  26  27
ATOM     27  C   UNL A   1      43.617  21.135  25.602  1.00  0.00     0.202 C 
BRANCH  27  28
ATOM     28  C   UNL A   1      44.428  22.180  24.817  1.00  0.00     0.261 C 
BRANCH  28  29
ATOM     29  O   UNL A   1      43.863  23.496  24.734  1.00  0.00    -0.460 OA
BRANCH  29  30
ATOM     30  C   UNL A   1      44.633  24.541  25.104  1.00  0.00     0.338 C 
ATOM     31  O   UNL A   1      45.718  24.856  24.645  1.00  0.00    -0.246 OA
BRANCH  30  32
ATOM     32  C   UNL A   1      43.841  25.377  26.030  1.00  0.00     0.060 A 
ATOM     33  C   UNL A   1      44.009  26.767  25.996  1.00  0.00     0.016 A 
ATOM     34  C   UNL A   1      42.919  24.798  26.906  1.00  0.00     0.016 A 
ATOM     35  C   UNL A   1      43.281  27.582  26.863  1.00  0.00     0.010 A 
ATOM     36  C   UNL A   1      42.212  25.612  27.795  1.00  0.00     0.010 A 
ATOM     37  C   UNL A   1      42.416  27.004  27.800  1.00  0.00    -0.014 A 
BRANCH  37  38
ATOM     38  C   UNL A   1      41.904  27.823  28.925  1.00  0.00     0.031 A 
ATOM     39  C   UNL A   1      42.649  27.773  30.230  1.00  0.00     0.074 A 
ATOM     40  C   UNL A   1      40.823  28.611  28.790  1.00  0.00     0.049 A 
ATOM     41  N   UNL A   1      42.375  28.356  31.369  1.00  0.00    -0.248 NA
ATOM     42  C   UNL A   1      43.870  26.951  30.252  1.00  0.00     0.031 C 
ATOM     43  C   UNL A   1      40.048  28.785  27.563  1.00  0.00     0.029 A 
ATOM     44  N   UNL A   1      40.189  29.411  29.707  1.00  0.00    -0.354 N 
ATOM     45  C   UNL A   1      43.380  27.961  32.242  1.00  0.00     0.074 A 
ATOM     46  C   UNL A   1      44.253  27.069  31.514  1.00  0.00     0.031 C 
ATOM     47  C   UNL A   1      39.032  29.631  27.809  1.00  0.00     0.029 A 
ATOM     48  C   UNL A   1      39.066  30.029  29.216  1.00  0.00     0.049 A 
ATOM     49  H   UNL A   1      40.508  29.530  30.631  1.00  0.00     0.167 HD
ATOM     50  C   UNL A   1      43.563  28.317  33.536  1.00  0.00     0.037 A 
ATOM     51  C   UNL A   1      38.159  30.806  29.841  1.00  0.00     0.037 A 
ATOM     52  C   UNL A   1      42.692  29.204  34.259  1.00  0.00     0.049 A 
ATOM     53  C   UNL A   1      38.337  31.118  31.306  1.00  0.00     0.074 A 
ATOM     54  C   UNL A   1      42.800  29.642  35.567  1.00  0.00     0.029 A 
ATOM     55  N   UNL A   1      41.541  29.777  33.738  1.00  0.00    -0.354 N 
ATOM     56  N   UNL A   1      39.303  30.763  32.119  1.00  0.00    -0.248 NA
ATOM     57  C   UNL A   1      37.296  31.941  31.940  1.00  0.00     0.031 C 
ATOM     58  C   UNL A   1      41.682  30.429  35.856  1.00  0.00     0.029 A 
ATOM     59  C   UNL A   1      40.913  30.539  34.709  1.00  0.00     0.049 A 
ATOM     60  H   UNL A   1      41.220  29.661  32.814  1.00  0.00     0.167 HD
ATOM     61  C   UNL A   1      39.007  31.348  33.344  1.00  0.00     0.074 A 
ATOM     62  C   UNL A   1      37.776  32.089  33.166  1.00  0.00     0.031 C 
ATOM     63  C   UNL A   1      39.693  31.281  34.513  1.00  0.00     0.037 A 
BRANCH  50  64
ATOM     64  C   UNL A   1      44.732  27.713  34.261  1.00  0.00     0.057 A 
ATOM     65  C   UNL A   1      46.001  28.305  34.252  1.00  0.00     0.134 A 
ATOM     66  C   UNL A   1      44.575  26.532  34.997  1.00  0.00     0.134 A 
ATOM     67  F   UNL A   1      46.225  29.427  33.551  1.00  0.00    -0.206 F 
ATOM     68  C   UNL A   1      47.079  27.731  34.929  1.00  0.00     0.040 A 
ATOM     69  C   UNL A   1      45.637  25.965  35.702  1.00  0.00     0.040 A 
ATOM     70  F   UNL A   1      43.386  25.913  35.048  1.00  0.00    -0.206 F 
ATOM     71  C   UNL A   1      46.895  26.560  35.664  1.00  0.00     0.006 A 
ENDBRANCH  50  64
BRANCH  51  72
ATOM     72  C   UNL A   1      36.986  31.337  29.096  1.00  0.00     0.057 A 
ATOM     73  C   UNL A   1      36.967  32.649  28.608  1.00  0.00     0.134 A 
ATOM     74  C   UNL A   1      35.842  30.557  28.886  1.00  0.00     0.134 A 
ATOM     75  F   UNL A   1      38.022  33.455  28.801  1.00  0.00    -0.206 F 
ATOM     76  C   UNL A   1      35.848  33.174  27.959  1.00  0.00     0.040 A 
ATOM     77  C   UNL A   1      34.726  31.059  28.213  1.00  0.00     0.040 A 
ATOM     78  F   UNL A   1      35.791  29.292  29.329  1.00  0.00    -0.206 F 
ATOM     79  C   UNL A   1      34.725  32.375  27.755  1.00  0.00     0.006 A 
ENDBRANCH  51  72
BRANCH  63  80
ATOM     80  C   UNL A   1      39.159  32.067  35.678  1.00  0.00     0.057 A 
ATOM     81  C   UNL A   1      38.288  31.505  36.620  1.00  0.00     0.134 A 
ATOM     82  C   UNL A   1      39.562  33.393  35.883  1.00  0.00     0.134 A 
ATOM     83  F   UNL A   1      37.855  30.243  36.479  1.00  0.00    -0.206 F 
ATOM     84  C   UNL A   1      37.818  32.242  37.709  1.00  0.00     0.040 A 
ATOM     85  C   UNL A   1      39.124  34.129  36.984  1.00  0.00     0.040 A 
ATOM     86  F   UNL A   1      40.405  33.990  35.026  1.00  0.00    -0.206 F 
ATOM     87  C   UNL A   1      38.243  33.556  37.897  1.00  0.00     0.006 A 
ENDBRANCH  63  80
ENDBRANCH  37  38
ENDBRANCH  30  32
ENDBRANCH  29  30
ENDBRANCH  28  29
ENDBRANCH  27  28
ENDBRANCH  26  27
ENDBRANCH  25  26
ENDBRANCH  24  25
ENDBRANCH   1  24
TORSDOF 22
ENDMDL
MODEL 2
REMARK VINA RESULT:     -10.3      3.467      5.066
REMARK SMILES C[C@@H](C(=O)OCCOCCOCCOCCOC(=O)c1ccc(-c2c3nc(c(-c4c(F)cccc4F)c4ccc([nH]4)c(-c4c(F)cccc4F)c4nc(c(-c5c(F)cccc5F)c5ccc2[nH]5)C=C4)C=C3)cc1)c1ccc(-c2ccccc2)cc1
REMARK SMILES IDX 11 1 10 2 9 3 8 4 7 5 6 6 5 7 3 8 4 9 2 10 1 11 74 12 75 13
REMARK SMILES IDX 85 14 76 15 84 16 77 17 78 18 79 19 83 20 80 21 82 22 81 23
REMARK SMILES IDX 12 24 13 25 14 26 15 27 16 28 17 29 18 30 19 31 20 32 21 33
REMARK SMILES IDX 73 34 22 35 72 36 23 37 24 38 25 39 66 40 26 41 71 42 65 43
REMARK SMILES IDX 67 44 27 45 70 46 64 47 63 48 28 50 54 51 37 52 53 53 38 54
REMARK SMILES IDX 41 55 52 56 68 57 39 58 40 59 51 61 69 62 42 63 29 64 30 65
REMARK SMILES IDX 35 66 31 67 32 68 34 69 36 70 33 71 55 72 56 73 61 74 57 75
REMARK SMILES IDX 58 76 60 77 62 78 59 79 43 80 44 81 49 82 45 83 46 84 48 85
REMARK SMILES IDX 50 86 47 87
REMARK H PARENT 67 49 41 60
REMARK Flexibility Score: inf
ROOT
ATOM      1  O   UNL A   1      34.606  23.328  22.715  1.00  0.00    -0.377 OA
ENDROOT
BRANCH   1   2
ATOM      2  C   UNL A   1      33.239  23.674  22.789  1.00  0.00     0.188 C 
BRANCH   2   3
ATOM      3  C   UNL A   1      32.292  22.503  23.127  1.00  0.00     0.188 C 
BRANCH   3   4
ATOM      4  O   UNL A   1      31.404  22.608  24.229  1.00  0.00    -0.376 OA
BRANCH   4   5
ATOM      5  C   UNL A   1      31.838  22.230  25.526  1.00  0.00     0.202 C 
BRANCH   5   6
ATOM      6  C   UNL A   1      32.465  23.242  26.509  1.00  0.00     0.261 C 
BRANCH   6   7
ATOM      7  O   UNL A   1      31.580  24.174  27.162  1.00  0.00    -0.463 OA
BRANCH   7   8
ATOM      8  C   UNL A   1      31.069  25.174  26.395  1.00  0.00     0.313 C 
ATOM      9  O   UNL A   1      29.886  25.503  26.416  1.00  0.00    -0.252 OA
BRANCH   8  10
ATOM     10  C   UNL A   1      32.104  25.862  25.479  1.00  0.00     0.126 C 
ATOM     11  C   UNL A   1      33.515  26.132  26.014  1.00  0.00     0.025 C 
BRANCH  10  12
ATOM     12  C   UNL A   1      31.496  27.080  24.779  1.00  0.00    -0.034 A 
ATOM     13  C   UNL A   1      30.614  26.874  23.716  1.00  0.00     0.005 A 
ATOM     14  C   UNL A   1      31.714  28.403  25.198  1.00  0.00     0.005 A 
ATOM     15  C   UNL A   1      29.949  27.947  23.117  1.00  0.00     0.009 A 
ATOM     16  C   UNL A   1      31.022  29.476  24.617  1.00  0.00     0.009 A 
ATOM     17  C   UNL A   1      30.120  29.266  23.569  1.00  0.00    -0.018 A 
BRANCH  17  18
ATOM     18  C   UNL A   1      29.370  30.373  22.951  1.00  0.00    -0.018 A 
ATOM     19  C   UNL A   1      29.024  30.329  21.588  1.00  0.00     0.009 A 
ATOM     20  C   UNL A   1      29.008  31.515  23.683  1.00  0.00     0.009 A 
ATOM     21  C   UNL A   1      28.377  31.401  20.970  1.00  0.00     0.001 A 
ATOM     22  C   UNL A   1      28.357  32.589  23.066  1.00  0.00     0.001 A 
ATOM     23  C   UNL A   1      28.050  32.535  21.708  1.00  0.00     0.000 A 
ENDBRANCH  17  18
ENDBRANCH  10  12
ENDBRANCH   8  10
ENDBRANCH   7   8
ENDBRANCH   6   7
ENDBRANCH   5   6
ENDBRANCH   4   5
ENDBRANCH   3   4
ENDBRANCH   2   3
ENDBRANCH   1   2
BRANCH   1  24
ATOM     24  C   UNL A   1      35.320  23.340  23.941  1.00  0.00     0.188 C 
BRANCH  24  25
ATOM     25  C   UNL A   1      36.628  22.531  24.020  1.00  0.00     0.188 C 
BRANCH  25  26
ATOM     26  O   UNL A   1      36.536  21.361  24.827  1.00  0.00    -0.376 OA
BRANCH  26  27
ATOM     27  C   UNL A   1      37.586  20.406  24.775  1.00  0.00     0.202 C 
BRANCH  27  28
ATOM     28  C   UNL A   1      38.920  20.790  25.436  1.00  0.00     0.261 C 
BRANCH  28  29
ATOM     29  O   UNL A   1      39.591  19.756  26.169  1.00  0.00    -0.460 OA
BRANCH  29  30
ATOM     30  C   UNL A   1      40.937  19.689  26.082  1.00  0.00     0.338 C 
ATOM     31  O   UNL A   1      41.597  18.829  25.526  1.00  0.00    -0.246 OA
BRANCH  30  32
ATOM     32  C   UNL A   1      41.483  20.960  26.602  1.00  0.00     0.060 A 
ATOM     33  C   UNL A   1      41.350  21.244  27.968  1.00  0.00     0.016 A 
ATOM     34  C   UNL A   1      42.145  21.854  25.756  1.00  0.00     0.016 A 
ATOM     35  C   UNL A   1      41.849  22.439  28.486  1.00  0.00     0.010 A 
ATOM     36  C   UNL A   1      42.618  23.064  26.271  1.00  0.00     0.010 A 
ATOM     37  C   UNL A   1      42.441  23.376  27.631  1.00  0.00    -0.014 A 
BRANCH  37  38
ATOM     38  C   UNL A   1      42.666  24.761  28.109  1.00  0.00     0.031 A 
ATOM     39  C   UNL A   1      44.066  25.158  28.486  1.00  0.00     0.074 A 
ATOM     40  C   UNL A   1      41.664  25.653  28.184  1.00  0.00     0.049 A 
ATOM     41  N   UNL A   1      44.509  26.288  28.975  1.00  0.00    -0.248 NA
ATOM     42  C   UNL A   1      45.109  24.139  28.284  1.00  0.00     0.031 C 
ATOM     43  C   UNL A   1      40.276  25.405  27.799  1.00  0.00     0.029 A 
ATOM     44  N   UNL A   1      41.666  26.955  28.622  1.00  0.00    -0.354 N 
ATOM     45  C   UNL A   1      45.875  26.110  29.150  1.00  0.00     0.074 A 
ATOM     46  C   UNL A   1      46.185  24.758  28.743  1.00  0.00     0.031 C 
ATOM     47  C   UNL A   1      39.556  26.519  28.029  1.00  0.00     0.029 A 
ATOM     48  C   UNL A   1      40.425  27.541  28.609  1.00  0.00     0.049 A 
ATOM     49  H   UNL A   1      42.480  27.422  28.916  1.00  0.00     0.167 HD
ATOM     50  C   UNL A   1      46.792  26.998  29.603  1.00  0.00     0.037 A 
ATOM     51  C   UNL A   1      40.036  28.758  29.041  1.00  0.00     0.037 A 
ATOM     52  C   UNL A   1      46.479  28.341  30.009  1.00  0.00     0.049 A 
ATOM     53  C   UNL A   1      41.061  29.699  29.623  1.00  0.00     0.074 A 
ATOM     54  C   UNL A   1      47.338  29.325  30.466  1.00  0.00     0.029 A 
ATOM     55  N   UNL A   1      45.204  28.886  30.021  1.00  0.00    -0.354 N 
ATOM     56  N   UNL A   1      42.355  29.534  29.761  1.00  0.00    -0.248 NA
ATOM     57  C   UNL A   1      40.570  30.997  30.109  1.00  0.00     0.031 C 
ATOM     58  C   UNL A   1      46.575  30.443  30.813  1.00  0.00     0.029 A 
ATOM     59  C   UNL A   1      45.249  30.182  30.507  1.00  0.00     0.049 A 
ATOM     60  H   UNL A   1      44.388  28.420  29.725  1.00  0.00     0.167 HD
ATOM     61  C   UNL A   1      42.835  30.716  30.313  1.00  0.00     0.074 A 
ATOM     62  C   UNL A   1      41.696  31.593  30.475  1.00  0.00     0.031 C 
ATOM     63  C   UNL A   1      44.106  31.048  30.653  1.00  0.00     0.037 A 
BRANCH  50  64
ATOM     64  C   UNL A   1      48.213  26.526  29.719  1.00  0.00     0.057 A 
ATOM     65  C   UNL A   1      49.146  26.710  28.691  1.00  0.00     0.134 A 
ATOM     66  C   UNL A   1      48.658  25.898  30.889  1.00  0.00     0.134 A 
ATOM     67  F   UNL A   1      48.781  27.288  27.536  1.00  0.00    -0.206 F 
ATOM     68  C   UNL A   1      50.464  26.265  28.812  1.00  0.00     0.040 A 
ATOM     69  C   UNL A   1      49.980  25.475  31.034  1.00  0.00     0.040 A 
ATOM     70  F   UNL A   1      47.816  25.691  31.914  1.00  0.00    -0.206 F 
ATOM     71  C   UNL A   1      50.885  25.652  29.991  1.00  0.00     0.006 A 
ENDBRANCH  50  64
BRANCH  51  72
ATOM     72  C   UNL A   1      38.607  29.162  28.958  1.00  0.00     0.057 A 
ATOM     73  C   UNL A   1      38.055  29.642  27.765  1.00  0.00     0.134 A 
ATOM     74  C   UNL A   1      37.768  29.110  30.079  1.00  0.00     0.134 A 
ATOM     75  F   UNL A   1      38.813  29.741  26.663  1.00  0.00    -0.206 F 
ATOM     76  C   UNL A   1      36.730  30.077  27.692  1.00  0.00     0.040 A 
ATOM     77  C   UNL A   1      36.433  29.514  30.015  1.00  0.00     0.040 A 
ATOM     78  F   UNL A   1      38.233  28.662  31.254  1.00  0.00    -0.206 F 
ATOM     79  C   UNL A   1      35.914  30.009  28.820  1.00  0.00     0.006 A 
ENDBRANCH  51  72
BRANCH  63  80
ATOM     80  C   UNL A   1      44.343  32.433  31.187  1.00  0.00     0.057 A 
ATOM     81  C   UNL A   1      44.603  33.522  30.346  1.00  0.00     0.134 A 
ATOM     82  C   UNL A   1      44.262  32.685  32.564  1.00  0.00     0.134 A 
ATOM     83  F   UNL A   1      44.703  33.350  29.020  1.00  0.00    -0.206 F 
ATOM     84  C   UNL A   1      44.800  34.807  30.858  1.00  0.00     0.040 A 
ATOM     85  C   UNL A   1      44.425  33.969  33.083  1.00  0.00     0.040 A 
ATOM     86  F   UNL A   1      44.003  31.689  33.426  1.00  0.00    -0.206 F 
ATOM     87  C   UNL A   1      44.703  35.034  32.229  1.00  0.00     0.006 A 
ENDBRANCH  63  80
ENDBRANCH  37  38
ENDBRANCH  30  32
ENDBRANCH  29  30
ENDBRANCH  28  29
ENDBRANCH  27  28
ENDBRANCH  26  27
ENDBRANCH  25  26
ENDBRANCH  24  25
ENDBRANCH   1  24
TORSDOF 22
ENDMDL
MODEL 3
REMARK VINA RESULT:     -10.3      4.665      7.756
REMARK SMILES C[C@@H](C(=O)OCCOCCOCCOCCOC(=O)c1ccc(-c2c3nc(c(-c4c(F)cccc4F)c4ccc([nH]4)c(-c4c(F)cccc4F)c4nc(c(-c5c(F)cccc5F)c5ccc2[nH]5)C=C4)C=C3)cc1)c1ccc(-c2ccccc2)cc1
REMARK SMILES IDX 11 1 10 2 9 3 8 4 7 5 6 6 5 7 3 8 4 9 2 10 1 11 74 12 75 13
REMARK SMILES IDX 85 14 76 15 84 16 77 17 78 18 79 19 83 20 80 21 82 22 81 23
REMARK SMILES IDX 12 24 13 25 14 26 15 27 16 28 17 29 18 30 19 31 20 32 21 33
REMARK SMILES IDX 73 34 22 35 72 36 23 37 24 38 25 39 66 40 26 41 71 42 65 43
REMARK SMILES IDX 67 44 27 45 70 46 64 47 63 48 28 50 54 51 37 52 53 53 38 54
REMARK SMILES IDX 41 55 52 56 68 57 39 58 40 59 51 61 69 62 42 63 29 64 30 65
REMARK SMILES IDX 35 66 31 67 32 68 34 69 36 70 33 71 55 72 56 73 61 74 57 75
REMARK SMILES IDX 58 76 60 77 62 78 59 79 43 80 44 81 49 82 45 83 46 84 48 85
REMARK SMILES IDX 50 86 47 87
REMARK H PARENT 67 49 41 60
REMARK Flexibility Score: inf
ROOT
ATOM      1  O   UNL A   1      38.565  22.244  25.852  1.00  0.00    -0.377 OA
ENDROOT
BRANCH   1   2
ATOM      2  C   UNL A   1      37.376  23.001  25.946  1.00  0.00     0.188 C 
BRANCH   2   3
ATOM      3  C   UNL A   1      36.708  23.328  24.594  1.00  0.00     0.188 C 
BRANCH   3   4
ATOM      4  O   UNL A   1      35.382  23.832  24.565  1.00  0.00    -0.376 OA
BRANCH   4   5
ATOM      5  C   UNL A   1      35.008  24.892  25.432  1.00  0.00     0.202 C 
BRANCH   5   6
ATOM      6  C   UNL A   1      33.653  25.619  25.302  1.00  0.00     0.261 C 
BRANCH   6   7
ATOM      7  O   UNL A   1      32.641  25.325  26.285  1.00  0.00    -0.463 OA
BRANCH   7   8
ATOM      8  C   UNL A   1      31.527  24.683  25.845  1.00  0.00     0.313 C 
ATOM      9  O   UNL A   1      30.529  24.509  26.540  1.00  0.00    -0.252 OA
BRANCH   8  10
ATOM     10  C   UNL A   1      31.621  24.174  24.390  1.00  0.00     0.126 C 
ATOM     11  C   UNL A   1      30.474  24.473  23.417  1.00  0.00     0.025 C 
BRANCH  10  12
ATOM     12  C   UNL A   1      32.064  22.710  24.346  1.00  0.00    -0.034 A 
ATOM     13  C   UNL A   1      32.441  22.086  25.538  1.00  0.00     0.005 A 
ATOM     14  C   UNL A   1      32.037  21.926  23.181  1.00  0.00     0.005 A 
ATOM     15  C   UNL A   1      32.748  20.723  25.568  1.00  0.00     0.009 A 
ATOM     16  C   UNL A   1      32.313  20.552  23.219  1.00  0.00     0.009 A 
ATOM     17  C   UNL A   1      32.667  19.923  24.416  1.00  0.00    -0.018 A 
BRANCH  17  18
ATOM     18  C   UNL A   1      32.949  18.479  24.487  1.00  0.00    -0.018 A 
ATOM     19  C   UNL A   1      32.573  17.730  25.617  1.00  0.00     0.009 A 
ATOM     20  C   UNL A   1      33.628  17.810  23.455  1.00  0.00     0.009 A 
ATOM     21  C   UNL A   1      32.896  16.377  25.731  1.00  0.00     0.001 A 
ATOM     22  C   UNL A   1      33.950  16.454  23.566  1.00  0.00     0.001 A 
ATOM     23  C   UNL A   1      33.593  15.741  24.708  1.00  0.00     0.000 A 
ENDBRANCH  17  18
ENDBRANCH  10  12
ENDBRANCH   8  10
ENDBRANCH   7   8
ENDBRANCH   6   7
ENDBRANCH   5   6
ENDBRANCH   4   5
ENDBRANCH   3   4
ENDBRANCH   2   3
ENDBRANCH   1   2
BRANCH   1  24
ATOM     24  C   UNL A   1      39.717  22.817  26.449  1.00  0.00     0.188 C 
BRANCH  24  25
ATOM     25  C   UNL A   1      40.644  21.891  27.259  1.00  0.00     0.188 C 
BRANCH  25  26
ATOM     26  O   UNL A   1      41.477  21.060  26.455  1.00  0.00    -0.376 OA
BRANCH  26  27
ATOM     27  C   UNL A   1      41.759  19.739  26.894  1.00  0.00     0.202 C 
BRANCH  27  28
ATOM     28  C   UNL A   1      42.668  18.880  25.999  1.00  0.00     0.261 C 
BRANCH  28  29
ATOM     29  O   UNL A   1      43.056  19.455  24.743  1.00  0.00    -0.460 OA
BRANCH  29  30
ATOM     30  C   UNL A   1      44.374  19.603  24.495  1.00  0.00     0.338 C 
ATOM     31  O   UNL A   1      45.115  18.806  23.945  1.00  0.00    -0.246 OA
BRANCH  30  32
ATOM     32  C   UNL A   1      44.737  20.998  24.820  1.00  0.00     0.060 A 
ATOM     33  C   UNL A   1      45.301  21.276  26.072  1.00  0.00     0.016 A 
ATOM     34  C   UNL A   1      44.548  22.022  23.888  1.00  0.00     0.016 A 
ATOM     35  C   UNL A   1      45.647  22.584  26.410  1.00  0.00     0.010 A 
ATOM     36  C   UNL A   1      44.867  23.337  24.238  1.00  0.00     0.010 A 
ATOM     37  C   UNL A   1      45.385  23.627  25.513  1.00  0.00    -0.014 A 
BRANCH  37  38
ATOM     38  C   UNL A   1      45.439  25.030  25.989  1.00  0.00     0.031 A 
ATOM     39  C   UNL A   1      46.765  25.739  25.947  1.00  0.00     0.074 A 
ATOM     40  C   UNL A   1      44.341  25.671  26.425  1.00  0.00     0.049 A 
ATOM     41  N   UNL A   1      47.080  26.942  26.351  1.00  0.00    -0.248 NA
ATOM     42  C   UNL A   1      47.890  24.983  25.371  1.00  0.00     0.031 C 
ATOM     43  C   UNL A   1      42.992  25.111  26.465  1.00  0.00     0.029 A 
ATOM     44  N   UNL A   1      44.195  26.942  26.925  1.00  0.00    -0.354 N 
ATOM     45  C   UNL A   1      48.437  27.082  26.089  1.00  0.00     0.074 A 
ATOM     46  C   UNL A   1      48.892  25.834  25.520  1.00  0.00     0.031 C 
ATOM     47  C   UNL A   1      42.155  26.033  26.976  1.00  0.00     0.029 A 
ATOM     48  C   UNL A   1      42.915  27.230  27.329  1.00  0.00     0.049 A 
ATOM     49  H   UNL A   1      44.937  27.584  26.987  1.00  0.00     0.167 HD
ATOM     50  C   UNL A   1      49.232  28.158  26.299  1.00  0.00     0.037 A 
ATOM     51  C   UNL A   1      42.424  28.329  27.937  1.00  0.00     0.037 A 
ATOM     52  C   UNL A   1      48.776  29.397  26.867  1.00  0.00     0.049 A 
ATOM     53  C   UNL A   1      43.348  29.482  28.240  1.00  0.00     0.074 A 
ATOM     54  C   UNL A   1      49.498  30.554  27.104  1.00  0.00     0.029 A 
ATOM     55  N   UNL A   1      47.481  29.637  27.303  1.00  0.00    -0.354 N 
ATOM     56  N   UNL A   1      44.624  29.617  27.966  1.00  0.00    -0.248 NA
ATOM     57  C   UNL A   1      42.762  30.637  28.936  1.00  0.00     0.031 C 
ATOM     58  C   UNL A   1      48.656  31.471  27.740  1.00  0.00     0.029 A 
ATOM     59  C   UNL A   1      47.391  30.912  27.836  1.00  0.00     0.049 A 
ATOM     60  H   UNL A   1      46.736  28.996  27.240  1.00  0.00     0.167 HD
ATOM     61  C   UNL A   1      44.982  30.881  28.422  1.00  0.00     0.074 A 
ATOM     62  C   UNL A   1      43.787  31.476  28.980  1.00  0.00     0.031 C 
ATOM     63  C   UNL A   1      46.190  31.496  28.379  1.00  0.00     0.037 A 
BRANCH  50  64
ATOM     64  C   UNL A   1      50.685  28.023  25.945  1.00  0.00     0.057 A 
ATOM     65  C   UNL A   1      51.144  28.130  24.626  1.00  0.00     0.134 A 
ATOM     66  C   UNL A   1      51.640  27.806  26.945  1.00  0.00     0.134 A 
ATOM     67  F   UNL A   1      50.281  28.319  23.617  1.00  0.00    -0.206 F 
ATOM     68  C   UNL A   1      52.499  28.001  24.312  1.00  0.00     0.040 A 
ATOM     69  C   UNL A   1      53.000  27.706  26.648  1.00  0.00     0.040 A 
ATOM     70  F   UNL A   1      51.269  27.695  28.230  1.00  0.00    -0.206 F 
ATOM     71  C   UNL A   1      53.432  27.796  25.328  1.00  0.00     0.006 A 
ENDBRANCH  50  64
BRANCH  51  72
ATOM     72  C   UNL A   1      40.989  28.395  28.321  1.00  0.00     0.057 A 
ATOM     73  C   UNL A   1      40.022  28.884  27.434  1.00  0.00     0.134 A 
ATOM     74  C   UNL A   1      40.555  28.006  29.594  1.00  0.00     0.134 A 
ATOM     75  F   UNL A   1      40.378  29.298  26.209  1.00  0.00    -0.206 F 
ATOM     76  C   UNL A   1      38.681  29.004  27.805  1.00  0.00     0.040 A 
ATOM     77  C   UNL A   1      39.213  28.093  29.970  1.00  0.00     0.040 A 
ATOM     78  F   UNL A   1      41.429  27.531  30.493  1.00  0.00    -0.206 F 
ATOM     79  C   UNL A   1      38.273  28.602  29.076  1.00  0.00     0.006 A 
ENDBRANCH  51  72
BRANCH  63  80
ATOM     80  C   UNL A   1      46.273  32.901  28.905  1.00  0.00     0.057 A 
ATOM     81  C   UNL A   1      46.612  33.181  30.235  1.00  0.00     0.134 A 
ATOM     82  C   UNL A   1      46.056  33.992  28.051  1.00  0.00     0.134 A 
ATOM     83  F   UNL A   1      46.824  32.185  31.107  1.00  0.00    -0.206 F 
ATOM     84  C   UNL A   1      46.706  34.494  30.702  1.00  0.00     0.040 A 
ATOM     85  C   UNL A   1      46.179  35.307  28.499  1.00  0.00     0.040 A 
ATOM     86  F   UNL A   1      45.741  33.796  26.761  1.00  0.00    -0.206 F 
ATOM     87  C   UNL A   1      46.496  35.561  29.831  1.00  0.00     0.006 A 
ENDBRANCH  63  80
ENDBRANCH  37  38
ENDBRANCH  30  32
ENDBRANCH  29  30
ENDBRANCH  28  29
ENDBRANCH  27  28
ENDBRANCH  26  27
ENDBRANCH  25  26
ENDBRANCH  24  25
ENDBRANCH   1  24
TORSDOF 22
ENDMDL
