MODEL 1
REMARK VINA RESULT:      -9.7      0.000      0.000
REMARK SMILES NS(=O)(=O)c1ccc(N2N=C(C(=O)OCCOCCOCCOCCOC(=O)c3ccc(-c4c5nc(c(-c6c(F)cccc6F)c6ccc([nH]6)c(-c6c(F)cccc6F)c6nc(c(-c7c(F)cccc7F)c7ccc4[nH]7)C=C6)C=C5)cc3)C[C@H]2c2ccco2)cc1
REMARK SMILES IDX 19 1 18 2 17 3 16 4 15 5 14 6 12 7 13 8 11 9 9 10 10 11
REMARK SMILES IDX 84 12 83 13 8 14 5 15 6 16 91 17 7 18 90 19 2 20 3 21 4 22
REMARK SMILES IDX 1 23 85 26 86 27 89 28 87 29 88 30 20 31 21 32 22 33 23 34
REMARK SMILES IDX 24 35 25 36 26 37 27 38 28 39 29 40 30 41 82 42 31 43 81 44
REMARK SMILES IDX 32 45 33 46 34 47 75 48 35 49 80 50 74 51 76 52 36 53 79 54
REMARK SMILES IDX 73 55 72 56 37 58 63 59 46 60 62 61 47 62 50 63 61 64 77 65
REMARK SMILES IDX 48 66 49 67 60 69 78 70 51 71 38 72 39 73 44 74 40 75 41 76
REMARK SMILES IDX 43 77 45 78 42 79 64 80 65 81 70 82 66 83 67 84 69 85 71 86
REMARK SMILES IDX 68 87 52 88 53 89 58 90 54 91 55 92 57 93 59 94 56 95
REMARK H PARENT 1 24 1 25 76 57 50 68
REMARK Flexibility Score: inf
ROOT
ATOM      1  C   UNL A   1      34.306  31.329  27.989  1.00  0.00     0.188 C 
ENDROOT
BRANCH   1   2
ATOM      2  C   UNL A   1      34.500  30.092  27.093  1.00  0.00     0.188 C 
BRANCH   2   3
ATOM      3  O   UNL A   1      33.331  29.762  26.362  1.00  0.00    -0.376 OA
BRANCH   3   4
ATOM      4  C   UNL A   1      33.192  28.483  25.768  1.00  0.00     0.202 C 
BRANCH   4   5
ATOM      5  C   UNL A   1      33.455  28.227  24.273  1.00  0.00     0.261 C 
BRANCH   5   6
ATOM      6  O   UNL A   1      32.767  27.121  23.691  1.00  0.00    -0.459 OA
BRANCH   6   7
ATOM      7  C   UNL A   1      33.493  26.188  23.052  1.00  0.00     0.354 C 
ATOM      8  O   UNL A   1      34.110  26.302  22.014  1.00  0.00    -0.245 OA
BRANCH   7   9
ATOM      9  C   UNL A   1      33.546  24.979  23.956  1.00  0.00     0.148 C 
ATOM     10  N   UNL A   1      33.709  22.976  24.613  1.00  0.00    -0.254 N 
ATOM     11  N   UNL A   1      33.671  23.767  23.502  1.00  0.00    -0.169 NA
ATOM     12  C   UNL A   1      33.302  23.694  25.838  1.00  0.00     0.180 C 
ATOM     13  C   UNL A   1      33.623  25.142  25.442  1.00  0.00     0.101 C 
BRANCH  10  14
ATOM     14  C   UNL A   1      33.726  21.598  24.468  1.00  0.00     0.060 A 
ATOM     15  C   UNL A   1      33.739  18.789  24.283  1.00  0.00     0.082 A 
ATOM     16  C   UNL A   1      34.885  19.459  24.717  1.00  0.00     0.024 A 
ATOM     17  C   UNL A   1      32.609  19.506  23.895  1.00  0.00     0.024 A 
ATOM     18  C   UNL A   1      34.873  20.858  24.803  1.00  0.00     0.029 A 
ATOM     19  C   UNL A   1      32.618  20.901  23.973  1.00  0.00     0.029 A 
BRANCH  15  20
ATOM     20  S   UNL A   1      33.696  17.022  24.240  1.00  0.00     0.238 S 
ATOM     21  O   UNL A   1      34.668  16.496  25.165  1.00  0.00    -0.207 OA
ATOM     22  O   UNL A   1      33.634  16.602  22.857  1.00  0.00    -0.207 OA
BRANCH  20  23
ATOM     23  N   UNL A   1      32.203  16.649  24.911  1.00  0.00    -0.225 NA
ATOM     24  H   UNL A   1      31.771  17.500  25.272  1.00  0.00     0.137 HD
ATOM     25  H   UNL A   1      32.329  15.983  25.672  1.00  0.00     0.137 HD
ENDBRANCH  20  23
ENDBRANCH  15  20
ENDBRANCH  10  14
BRANCH  12  26
ATOM     26  C   UNL A   1      31.870  23.555  26.281  1.00  0.00     0.128 A 
ATOM     27  C   UNL A   1      31.189  22.585  26.993  1.00  0.00     0.048 A 
ATOM     28  O   UNL A   1      31.009  24.571  25.970  1.00  0.00    -0.467 OA
ATOM     29  C   UNL A   1      29.845  23.021  27.090  1.00  0.00     0.042 A 
ATOM     30  C   UNL A   1      29.794  24.245  26.470  1.00  0.00     0.195 A 
ENDBRANCH  12  26
ENDBRANCH   7   9
ENDBRANCH   6   7
ENDBRANCH   5   6
ENDBRANCH   4   5
ENDBRANCH   3   4
ENDBRANCH   2   3
ENDBRANCH   1   2
BRANCH   1  31
ATOM     31  O   UNL A   1      35.199  32.399  27.711  1.00  0.00    -0.377 OA
BRANCH  31  32
ATOM     32  C   UNL A   1      34.724  33.741  27.850  1.00  0.00     0.188 C 
BRANCH  32  33
ATOM     33  C   UNL A   1      34.722  34.495  29.204  1.00  0.00     0.188 C 
BRANCH  33  34
ATOM     34  O   UNL A   1      35.270  33.769  30.293  1.00  0.00    -0.376 OA
BRANCH  34  35
ATOM     35  C   UNL A   1      34.386  33.273  31.283  1.00  0.00     0.202 C 
BRANCH  35  36
ATOM     36  C   UNL A   1      35.007  32.977  32.655  1.00  0.00     0.261 C 
BRANCH  36  37
ATOM     37  O   UNL A   1      36.373  32.532  32.634  1.00  0.00    -0.460 OA
BRANCH  37  38
ATOM     38  C   UNL A   1      36.590  31.258  32.241  1.00  0.00     0.338 C 
ATOM     39  O   UNL A   1      35.782  30.349  32.205  1.00  0.00    -0.246 OA
BRANCH  38  40
ATOM     40  C   UNL A   1      37.954  31.180  31.680  1.00  0.00     0.060 A 
ATOM     41  C   UNL A   1      38.138  31.465  30.322  1.00  0.00     0.016 A 
ATOM     42  C   UNL A   1      39.036  30.803  32.480  1.00  0.00     0.016 A 
ATOM     43  C   UNL A   1      39.399  31.314  29.745  1.00  0.00     0.010 A 
ATOM     44  C   UNL A   1      40.295  30.637  31.897  1.00  0.00     0.010 A 
ATOM     45  C   UNL A   1      40.470  30.846  30.517  1.00  0.00    -0.014 A 
BRANCH  45  46
ATOM     46  C   UNL A   1      41.701  30.375  29.835  1.00  0.00     0.031 A 
ATOM     47  C   UNL A   1      41.733  28.961  29.317  1.00  0.00     0.074 A 
ATOM     48  C   UNL A   1      42.749  31.193  29.632  1.00  0.00     0.049 A 
ATOM     49  N   UNL A   1      42.688  28.327  28.686  1.00  0.00    -0.248 NA
ATOM     50  C   UNL A   1      40.525  28.151  29.547  1.00  0.00     0.031 C 
ATOM     51  C   UNL A   1      42.830  32.587  30.059  1.00  0.00     0.029 A 
ATOM     52  N   UNL A   1      43.952  30.958  29.015  1.00  0.00    -0.354 N 
ATOM     53  C   UNL A   1      42.200  27.047  28.453  1.00  0.00     0.074 A 
ATOM     54  C   UNL A   1      40.878  26.982  29.037  1.00  0.00     0.031 C 
ATOM     55  C   UNL A   1      44.027  33.083  29.699  1.00  0.00     0.029 A 
ATOM     56  C   UNL A   1      44.805  32.034  29.041  1.00  0.00     0.049 A 
ATOM     57  H   UNL A   1      44.182  30.098  28.593  1.00  0.00     0.167 HD
ATOM     58  C   UNL A   1      42.795  26.020  27.802  1.00  0.00     0.037 A 
ATOM     59  C   UNL A   1      46.073  32.149  28.601  1.00  0.00     0.037 A 
ATOM     60  C   UNL A   1      44.106  26.086  27.213  1.00  0.00     0.049 A 
ATOM     61  C   UNL A   1      46.728  30.976  27.917  1.00  0.00     0.074 A 
ATOM     62  C   UNL A   1      44.781  25.109  26.503  1.00  0.00     0.029 A 
ATOM     63  N   UNL A   1      44.944  27.188  27.274  1.00  0.00    -0.354 N 
ATOM     64  N   UNL A   1      46.241  29.784  27.664  1.00  0.00    -0.248 NA
ATOM     65  C   UNL A   1      48.108  31.169  27.448  1.00  0.00     0.031 C 
ATOM     66  C   UNL A   1      46.052  25.599  26.187  1.00  0.00     0.029 A 
ATOM     67  C   UNL A   1      46.143  26.906  26.640  1.00  0.00     0.049 A 
ATOM     68  H   UNL A   1      44.721  28.045  27.705  1.00  0.00     0.167 HD
ATOM     69  C   UNL A   1      47.240  29.101  26.978  1.00  0.00     0.074 A 
ATOM     70  C   UNL A   1      48.351  30.018  26.839  1.00  0.00     0.031 C 
ATOM     71  C   UNL A   1      47.239  27.830  26.504  1.00  0.00     0.037 A 
BRANCH  58  72
ATOM     72  C   UNL A   1      42.046  24.720  27.720  1.00  0.00     0.057 A 
ATOM     73  C   UNL A   1      41.083  24.476  26.731  1.00  0.00     0.134 A 
ATOM     74  C   UNL A   1      42.325  23.684  28.618  1.00  0.00     0.134 A 
ATOM     75  F   UNL A   1      40.756  25.432  25.848  1.00  0.00    -0.206 F 
ATOM     76  C   UNL A   1      40.414  23.254  26.652  1.00  0.00     0.040 A 
ATOM     77  C   UNL A   1      41.684  22.448  28.533  1.00  0.00     0.040 A 
ATOM     78  F   UNL A   1      43.236  23.851  29.589  1.00  0.00    -0.206 F 
ATOM     79  C   UNL A   1      40.720  22.232  27.549  1.00  0.00     0.006 A 
ENDBRANCH  58  72
BRANCH  59  80
ATOM     80  C   UNL A   1      46.824  33.416  28.804  1.00  0.00     0.057 A 
ATOM     81  C   UNL A   1      47.553  33.657  29.974  1.00  0.00     0.134 A 
ATOM     82  C   UNL A   1      46.789  34.438  27.848  1.00  0.00     0.134 A 
ATOM     83  F   UNL A   1      47.607  32.727  30.941  1.00  0.00    -0.206 F 
ATOM     84  C   UNL A   1      48.193  34.877  30.202  1.00  0.00     0.040 A 
ATOM     85  C   UNL A   1      47.449  35.652  28.048  1.00  0.00     0.040 A 
ATOM     86  F   UNL A   1      46.110  34.274  26.704  1.00  0.00    -0.206 F 
ATOM     87  C   UNL A   1      48.144  35.878  29.234  1.00  0.00     0.006 A 
ENDBRANCH  59  80
BRANCH  71  88
ATOM     88  C   UNL A   1      48.457  27.374  25.749  1.00  0.00     0.057 A 
ATOM     89  C   UNL A   1      48.547  27.457  24.353  1.00  0.00     0.134 A 
ATOM     90  C   UNL A   1      49.564  26.856  26.434  1.00  0.00     0.134 A 
ATOM     91  F   UNL A   1      47.519  27.935  23.633  1.00  0.00    -0.206 F 
ATOM     92  C   UNL A   1      49.675  27.006  23.665  1.00  0.00     0.040 A 
ATOM     93  C   UNL A   1      50.712  26.435  25.760  1.00  0.00     0.040 A 
ATOM     94  F   UNL A   1      49.554  26.762  27.773  1.00  0.00    -0.206 F 
ATOM     95  C   UNL A   1      50.764  26.498  24.370  1.00  0.00     0.006 A 
ENDBRANCH  71  88
ENDBRANCH  45  46
ENDBRANCH  38  40
ENDBRANCH  37  38
ENDBRANCH  36  37
ENDBRANCH  35  36
ENDBRANCH  34  35
ENDBRANCH  33  34
ENDBRANCH  32  33
ENDBRANCH  31  32
ENDBRANCH   1  31
TORSDOF 24
ENDMDL
MODEL 2
REMARK VINA RESULT:      -9.5      6.996     12.325
REMARK SMILES NS(=O)(=O)c1ccc(N2N=C(C(=O)OCCOCCOCCOCCOC(=O)c3ccc(-c4c5nc(c(-c6c(F)cccc6F)c6ccc([nH]6)c(-c6c(F)cccc6F)c6nc(c(-c7c(F)cccc7F)c7ccc4[nH]7)C=C6)C=C5)cc3)C[C@H]2c2ccco2)cc1
REMARK SMILES IDX 19 1 18 2 17 3 16 4 15 5 14 6 12 7 13 8 11 9 9 10 10 11
REMARK SMILES IDX 84 12 83 13 8 14 5 15 6 16 91 17 7 18 90 19 2 20 3 21 4 22
REMARK SMILES IDX 1 23 85 26 86 27 89 28 87 29 88 30 20 31 21 32 22 33 23 34
REMARK SMILES IDX 24 35 25 36 26 37 27 38 28 39 29 40 30 41 82 42 31 43 81 44
REMARK SMILES IDX 32 45 33 46 34 47 75 48 35 49 80 50 74 51 76 52 36 53 79 54
REMARK SMILES IDX 73 55 72 56 37 58 63 59 46 60 62 61 47 62 50 63 61 64 77 65
REMARK SMILES IDX 48 66 49 67 60 69 78 70 51 71 38 72 39 73 44 74 40 75 41 76
REMARK SMILES IDX 43 77 45 78 42 79 64 80 65 81 70 82 66 83 67 84 69 85 71 86
REMARK SMILES IDX 68 87 52 88 53 89 58 90 54 91 55 92 57 93 59 94 56 95
REMARK H PARENT 1 24 1 25 76 57 50 68
REMARK Flexibility Score: inf
ROOT
ATOM      1  C   UNL A   1      35.010  34.480  33.756  1.00  0.00     0.188 C 
ENDROOT
BRANCH   1   2
ATOM      2  C   UNL A   1      35.697  33.918  35.014  1.00  0.00     0.188 C 
BRANCH   2   3
ATOM      3  O   UNL A   1      36.583  32.850  34.718  1.00  0.00    -0.376 OA
BRANCH   3   4
ATOM      4  C   UNL A   1      37.558  32.444  35.662  1.00  0.00     0.202 C 
BRANCH   4   5
ATOM      5  C   UNL A   1      37.551  32.924  37.125  1.00  0.00     0.261 C 
BRANCH   5   6
ATOM      6  O   UNL A   1      38.038  31.999  38.095  1.00  0.00    -0.459 OA
BRANCH   6   7
ATOM      7  C   UNL A   1      37.195  31.057  38.551  1.00  0.00     0.354 C 
ATOM      8  O   UNL A   1      36.991  29.951  38.096  1.00  0.00    -0.245 OA
BRANCH   7   9
ATOM      9  C   UNL A   1      36.643  31.561  39.863  1.00  0.00     0.148 C 
ATOM     10  N   UNL A   1      35.357  32.458  41.282  1.00  0.00    -0.254 N 
ATOM     11  N   UNL A   1      35.517  32.207  39.951  1.00  0.00    -0.169 NA
ATOM     12  C   UNL A   1      36.585  32.207  42.062  1.00  0.00     0.180 C 
ATOM     13  C   UNL A   1      37.295  31.189  41.158  1.00  0.00     0.101 C 
BRANCH  10  14
ATOM     14  C   UNL A   1      34.293  33.241  41.704  1.00  0.00     0.060 A 
ATOM     15  C   UNL A   1      32.062  34.745  42.533  1.00  0.00     0.082 A 
ATOM     16  C   UNL A   1      32.407  34.707  41.180  1.00  0.00     0.024 A 
ATOM     17  C   UNL A   1      32.845  34.083  43.477  1.00  0.00     0.024 A 
ATOM     18  C   UNL A   1      33.521  33.958  40.775  1.00  0.00     0.029 A 
ATOM     19  C   UNL A   1      33.961  33.354  43.059  1.00  0.00     0.029 A 
BRANCH  15  20
ATOM     20  S   UNL A   1      30.618  35.613  43.065  1.00  0.00     0.238 S 
ATOM     21  O   UNL A   1      30.467  35.463  44.491  1.00  0.00    -0.207 OA
ATOM     22  O   UNL A   1      29.546  35.326  42.137  1.00  0.00    -0.207 OA
BRANCH  20  23
ATOM     23  N   UNL A   1      31.020  37.226  42.833  1.00  0.00    -0.225 NA
ATOM     24  H   UNL A   1      30.821  37.752  43.685  1.00  0.00     0.137 HD
ATOM     25  H   UNL A   1      30.470  37.607  42.063  1.00  0.00     0.137 HD
ENDBRANCH  20  23
ENDBRANCH  15  20
ENDBRANCH  10  14
BRANCH  12  26
ATOM     26  C   UNL A   1      37.474  33.385  42.359  1.00  0.00     0.128 A 
ATOM     27  C   UNL A   1      37.567  34.658  41.827  1.00  0.00     0.048 A 
ATOM     28  O   UNL A   1      38.389  33.251  43.366  1.00  0.00    -0.467 OA
ATOM     29  C   UNL A   1      38.610  35.314  42.525  1.00  0.00     0.042 A 
ATOM     30  C   UNL A   1      39.062  34.421  43.466  1.00  0.00     0.195 A 
ENDBRANCH  12  26
ENDBRANCH   7   9
ENDBRANCH   6   7
ENDBRANCH   5   6
ENDBRANCH   4   5
ENDBRANCH   3   4
ENDBRANCH   2   3
ENDBRANCH   1   2
BRANCH   1  31
ATOM     31  O   UNL A   1      35.169  35.882  33.579  1.00  0.00    -0.377 OA
BRANCH  31  32
ATOM     32  C   UNL A   1      34.024  36.724  33.732  1.00  0.00     0.188 C 
BRANCH  32  33
ATOM     33  C   UNL A   1      32.774  36.617  32.822  1.00  0.00     0.188 C 
BRANCH  33  34
ATOM     34  O   UNL A   1      32.935  37.161  31.521  1.00  0.00    -0.376 OA
BRANCH  34  35
ATOM     35  C   UNL A   1      32.528  36.380  30.410  1.00  0.00     0.202 C 
BRANCH  35  36
ATOM     36  C   UNL A   1      33.059  36.825  29.041  1.00  0.00     0.261 C 
BRANCH  36  37
ATOM     37  O   UNL A   1      33.896  35.874  28.363  1.00  0.00    -0.460 OA
BRANCH  37  38
ATOM     38  C   UNL A   1      33.477  34.590  28.362  1.00  0.00     0.338 C 
ATOM     39  O   UNL A   1      32.403  34.164  27.982  1.00  0.00    -0.246 OA
BRANCH  38  40
ATOM     40  C   UNL A   1      34.622  33.737  28.740  1.00  0.00     0.060 A 
ATOM     41  C   UNL A   1      34.598  33.093  29.984  1.00  0.00     0.016 A 
ATOM     42  C   UNL A   1      35.721  33.595  27.888  1.00  0.00     0.016 A 
ATOM     43  C   UNL A   1      35.702  32.353  30.405  1.00  0.00     0.010 A 
ATOM     44  C   UNL A   1      36.832  32.865  28.318  1.00  0.00     0.010 A 
ATOM     45  C   UNL A   1      36.845  32.282  29.597  1.00  0.00    -0.014 A 
BRANCH  45  46
ATOM     46  C   UNL A   1      38.114  31.785  30.185  1.00  0.00     0.031 A 
ATOM     47  C   UNL A   1      38.689  30.496  29.660  1.00  0.00     0.074 A 
ATOM     48  C   UNL A   1      38.772  32.483  31.128  1.00  0.00     0.049 A 
ATOM     49  N   UNL A   1      39.782  29.868  30.009  1.00  0.00    -0.248 NA
ATOM     50  C   UNL A   1      37.922  29.822  28.598  1.00  0.00     0.031 C 
ATOM     51  C   UNL A   1      38.336  33.755  31.699  1.00  0.00     0.029 A 
ATOM     52  N   UNL A   1      39.951  32.209  31.774  1.00  0.00    -0.354 N 
ATOM     53  C   UNL A   1      39.829  28.726  29.219  1.00  0.00     0.074 A 
ATOM     54  C   UNL A   1      38.641  28.728  28.395  1.00  0.00     0.031 C 
ATOM     55  C   UNL A   1      39.233  34.148  32.620  1.00  0.00     0.029 A 
ATOM     56  C   UNL A   1      40.290  33.143  32.722  1.00  0.00     0.049 A 
ATOM     57  H   UNL A   1      40.503  31.418  31.577  1.00  0.00     0.167 HD
ATOM     58  C   UNL A   1      40.782  27.765  29.177  1.00  0.00     0.037 A 
ATOM     59  C   UNL A   1      41.325  33.171  33.585  1.00  0.00     0.037 A 
ATOM     60  C   UNL A   1      41.969  27.766  29.989  1.00  0.00     0.049 A 
ATOM     61  C   UNL A   1      42.350  32.065  33.546  1.00  0.00     0.074 A 
ATOM     62  C   UNL A   1      43.010  26.854  29.994  1.00  0.00     0.029 A 
ATOM     63  N   UNL A   1      42.268  28.721  30.948  1.00  0.00    -0.354 N 
ATOM     64  N   UNL A   1      42.407  31.013  32.765  1.00  0.00    -0.248 NA
ATOM     65  C   UNL A   1      43.462  32.159  34.503  1.00  0.00     0.031 C 
ATOM     66  C   UNL A   1      43.909  27.224  30.998  1.00  0.00     0.029 A 
ATOM     67  C   UNL A   1      43.464  28.404  31.573  1.00  0.00     0.049 A 
ATOM     68  H   UNL A   1      41.713  29.507  31.155  1.00  0.00     0.167 HD
ATOM     69  C   UNL A   1      43.574  30.341  33.113  1.00  0.00     0.074 A 
ATOM     70  C   UNL A   1      44.203  31.116  34.162  1.00  0.00     0.031 C 
ATOM     71  C   UNL A   1      44.082  29.188  32.611  1.00  0.00     0.037 A 
BRANCH  58  72
ATOM     72  C   UNL A   1      40.564  26.610  28.240  1.00  0.00     0.057 A 
ATOM     73  C   UNL A   1      39.629  25.600  28.505  1.00  0.00     0.134 A 
ATOM     74  C   UNL A   1      41.272  26.534  27.035  1.00  0.00     0.134 A 
ATOM     75  F   UNL A   1      38.929  25.605  29.650  1.00  0.00    -0.206 F 
ATOM     76  C   UNL A   1      39.421  24.548  27.612  1.00  0.00     0.040 A 
ATOM     77  C   UNL A   1      41.053  25.503  26.121  1.00  0.00     0.040 A 
ATOM     78  F   UNL A   1      42.182  27.468  26.719  1.00  0.00    -0.206 F 
ATOM     79  C   UNL A   1      40.127  24.502  26.412  1.00  0.00     0.006 A 
ENDBRANCH  58  72
BRANCH  59  80
ATOM     80  C   UNL A   1      41.445  34.271  34.577  1.00  0.00     0.057 A 
ATOM     81  C   UNL A   1      41.921  35.537  34.214  1.00  0.00     0.134 A 
ATOM     82  C   UNL A   1      41.133  34.066  35.926  1.00  0.00     0.134 A 
ATOM     83  F   UNL A   1      42.262  35.791  32.941  1.00  0.00    -0.206 F 
ATOM     84  C   UNL A   1      42.111  36.548  35.159  1.00  0.00     0.040 A 
ATOM     85  C   UNL A   1      41.289  35.076  36.877  1.00  0.00     0.040 A 
ATOM     86  F   UNL A   1      40.671  32.878  36.342  1.00  0.00    -0.206 F 
ATOM     87  C   UNL A   1      41.791  36.318  36.495  1.00  0.00     0.006 A 
ENDBRANCH  59  80
BRANCH  71  88
ATOM     88  C   UNL A   1      45.404  28.721  33.155  1.00  0.00     0.057 A 
ATOM     89  C   UNL A   1      45.498  27.847  34.245  1.00  0.00     0.134 A 
ATOM     90  C   UNL A   1      46.603  29.144  32.565  1.00  0.00     0.134 A 
ATOM     91  F   UNL A   1      44.389  27.410  34.864  1.00  0.00    -0.206 F 
ATOM     92  C   UNL A   1      46.734  27.443  34.754  1.00  0.00     0.040 A 
ATOM     93  C   UNL A   1      47.844  28.718  33.042  1.00  0.00     0.040 A 
ATOM     94  F   UNL A   1      46.589  29.969  31.507  1.00  0.00    -0.206 F 
ATOM     95  C   UNL A   1      47.912  27.875  34.149  1.00  0.00     0.006 A 
ENDBRANCH  71  88
ENDBRANCH  45  46
ENDBRANCH  38  40
ENDBRANCH  37  38
ENDBRANCH  36  37
ENDBRANCH  35  36
ENDBRANCH  34  35
ENDBRANCH  33  34
ENDBRANCH  32  33
ENDBRANCH  31  32
ENDBRANCH   1  31
TORSDOF 24
ENDMDL
MODEL 3
REMARK VINA RESULT:      -9.4      6.609     10.094
REMARK SMILES NS(=O)(=O)c1ccc(N2N=C(C(=O)OCCOCCOCCOCCOC(=O)c3ccc(-c4c5nc(c(-c6c(F)cccc6F)c6ccc([nH]6)c(-c6c(F)cccc6F)c6nc(c(-c7c(F)cccc7F)c7ccc4[nH]7)C=C6)C=C5)cc3)C[C@H]2c2ccco2)cc1
REMARK SMILES IDX 19 1 18 2 17 3 16 4 15 5 14 6 12 7 13 8 11 9 9 10 10 11
REMARK SMILES IDX 84 12 83 13 8 14 5 15 6 16 91 17 7 18 90 19 2 20 3 21 4 22
REMARK SMILES IDX 1 23 85 26 86 27 89 28 87 29 88 30 20 31 21 32 22 33 23 34
REMARK SMILES IDX 24 35 25 36 26 37 27 38 28 39 29 40 30 41 82 42 31 43 81 44
REMARK SMILES IDX 32 45 33 46 34 47 75 48 35 49 80 50 74 51 76 52 36 53 79 54
REMARK SMILES IDX 73 55 72 56 37 58 63 59 46 60 62 61 47 62 50 63 61 64 77 65
REMARK SMILES IDX 48 66 49 67 60 69 78 70 51 71 38 72 39 73 44 74 40 75 41 76
REMARK SMILES IDX 43 77 45 78 42 79 64 80 65 81 70 82 66 83 67 84 69 85 71 86
REMARK SMILES IDX 68 87 52 88 53 89 58 90 54 91 55 92 57 93 59 94 56 95
REMARK H PARENT 1 24 1 25 76 57 50 68
REMARK Flexibility Score: inf
ROOT
ATOM      1  C   UNL A   1      31.937  29.285  26.671  1.00  0.00     0.188 C 
ENDROOT
BRANCH   1   2
ATOM      2  C   UNL A   1      31.553  28.102  25.763  1.00  0.00     0.188 C 
BRANCH   2   3
ATOM      3  O   UNL A   1      31.958  28.296  24.418  1.00  0.00    -0.376 OA
BRANCH   3   4
ATOM      4  C   UNL A   1      30.997  28.334  23.377  1.00  0.00     0.202 C 
BRANCH   4   5
ATOM      5  C   UNL A   1      31.122  27.486  22.098  1.00  0.00     0.261 C 
BRANCH   5   6
ATOM      6  O   UNL A   1      31.360  26.091  22.286  1.00  0.00    -0.459 OA
BRANCH   6   7
ATOM      7  C   UNL A   1      32.590  25.618  22.023  1.00  0.00     0.354 C 
ATOM      8  O   UNL A   1      33.382  26.012  21.194  1.00  0.00    -0.245 OA
BRANCH   7   9
ATOM      9  C   UNL A   1      32.894  24.580  23.076  1.00  0.00     0.148 C 
ATOM     10  N   UNL A   1      33.335  22.725  23.993  1.00  0.00    -0.254 N 
ATOM     11  N   UNL A   1      33.047  23.319  22.798  1.00  0.00    -0.169 NA
ATOM     12  C   UNL A   1      33.074  23.610  25.146  1.00  0.00     0.180 C 
ATOM     13  C   UNL A   1      33.201  24.989  24.483  1.00  0.00     0.101 C 
BRANCH  10  14
ATOM     14  C   UNL A   1      33.446  21.345  24.058  1.00  0.00     0.060 A 
ATOM     15  C   UNL A   1      33.624  18.546  24.295  1.00  0.00     0.082 A 
ATOM     16  C   UNL A   1      34.609  19.353  24.868  1.00  0.00     0.024 A 
ATOM     17  C   UNL A   1      32.583  19.117  23.566  1.00  0.00     0.024 A 
ATOM     18  C   UNL A   1      34.515  20.746  24.744  1.00  0.00     0.029 A 
ATOM     19  C   UNL A   1      32.512  20.507  23.437  1.00  0.00     0.029 A 
BRANCH  15  20
ATOM     20  S   UNL A   1      33.670  16.791  24.502  1.00  0.00     0.238 S 
ATOM     21  O   UNL A   1      33.813  16.159  23.214  1.00  0.00    -0.207 OA
ATOM     22  O   UNL A   1      32.634  16.416  25.440  1.00  0.00    -0.207 OA
BRANCH  20  23
ATOM     23  N   UNL A   1      35.131  16.526  25.287  1.00  0.00    -0.225 NA
ATOM     24  H   UNL A   1      35.899  16.667  24.630  1.00  0.00     0.137 HD
ATOM     25  H   UNL A   1      35.158  15.570  25.641  1.00  0.00     0.137 HD
ENDBRANCH  20  23
ENDBRANCH  15  20
ENDBRANCH  10  14
BRANCH  12  26
ATOM     26  C   UNL A   1      31.752  23.463  25.850  1.00  0.00     0.128 A 
ATOM     27  C   UNL A   1      31.010  22.368  26.252  1.00  0.00     0.048 A 
ATOM     28  O   UNL A   1      31.101  24.608  26.220  1.00  0.00    -0.467 OA
ATOM     29  C   UNL A   1      29.839  22.875  26.867  1.00  0.00     0.042 A 
ATOM     30  C   UNL A   1      29.954  24.243  26.841  1.00  0.00     0.195 A 
ENDBRANCH  12  26
ENDBRANCH   7   9
ENDBRANCH   6   7
ENDBRANCH   5   6
ENDBRANCH   4   5
ENDBRANCH   3   4
ENDBRANCH   2   3
ENDBRANCH   1   2
BRANCH   1  31
ATOM     31  O   UNL A   1      33.074  30.015  26.231  1.00  0.00    -0.377 OA
BRANCH  31  32
ATOM     32  C   UNL A   1      34.096  30.328  27.182  1.00  0.00     0.188 C 
BRANCH  32  33
ATOM     33  C   UNL A   1      34.128  31.660  27.972  1.00  0.00     0.188 C 
BRANCH  33  34
ATOM     34  O   UNL A   1      35.132  32.575  27.559  1.00  0.00    -0.376 OA
BRANCH  34  35
ATOM     35  C   UNL A   1      36.122  32.957  28.498  1.00  0.00     0.202 C 
BRANCH  35  36
ATOM     36  C   UNL A   1      36.253  32.065  29.741  1.00  0.00     0.261 C 
BRANCH  36  37
ATOM     37  O   UNL A   1      35.343  32.360  30.813  1.00  0.00    -0.460 OA
BRANCH  37  38
ATOM     38  C   UNL A   1      35.463  33.573  31.394  1.00  0.00     0.338 C 
ATOM     39  O   UNL A   1      34.922  34.610  31.057  1.00  0.00    -0.246 OA
BRANCH  38  40
ATOM     40  C   UNL A   1      36.234  33.407  32.643  1.00  0.00     0.060 A 
ATOM     41  C   UNL A   1      36.865  34.528  33.196  1.00  0.00     0.016 A 
ATOM     42  C   UNL A   1      36.356  32.153  33.247  1.00  0.00     0.016 A 
ATOM     43  C   UNL A   1      37.672  34.385  34.324  1.00  0.00     0.010 A 
ATOM     44  C   UNL A   1      37.177  32.009  34.368  1.00  0.00     0.010 A 
ATOM     45  C   UNL A   1      37.876  33.116  34.882  1.00  0.00    -0.014 A 
BRANCH  45  46
ATOM     46  C   UNL A   1      38.979  32.924  35.855  1.00  0.00     0.031 A 
ATOM     47  C   UNL A   1      38.634  32.836  37.319  1.00  0.00     0.074 A 
ATOM     48  C   UNL A   1      40.254  32.779  35.452  1.00  0.00     0.049 A 
ATOM     49  N   UNL A   1      39.420  32.666  38.351  1.00  0.00    -0.248 NA
ATOM     50  C   UNL A   1      37.208  32.962  37.664  1.00  0.00     0.031 C 
ATOM     51  C   UNL A   1      40.713  32.817  34.066  1.00  0.00     0.029 A 
ATOM     52  N   UNL A   1      41.398  32.576  36.182  1.00  0.00    -0.354 N 
ATOM     53  C   UNL A   1      38.587  32.673  39.464  1.00  0.00     0.074 A 
ATOM     54  C   UNL A   1      37.240  32.897  38.986  1.00  0.00     0.031 C 
ATOM     55  C   UNL A   1      42.048  32.652  34.046  1.00  0.00     0.029 A 
ATOM     56  C   UNL A   1      42.538  32.524  35.418  1.00  0.00     0.049 A 
ATOM     57  H   UNL A   1      41.402  32.477  37.162  1.00  0.00     0.167 HD
ATOM     58  C   UNL A   1      38.913  32.500  40.766  1.00  0.00     0.037 A 
ATOM     59  C   UNL A   1      43.828  32.407  35.787  1.00  0.00     0.037 A 
ATOM     60  C   UNL A   1      40.251  32.268  41.241  1.00  0.00     0.049 A 
ATOM     61  C   UNL A   1      44.168  32.258  37.249  1.00  0.00     0.074 A 
ATOM     62  C   UNL A   1      40.677  32.046  42.539  1.00  0.00     0.029 A 
ATOM     63  N   UNL A   1      41.380  32.238  40.437  1.00  0.00    -0.354 N 
ATOM     64  N   UNL A   1      43.369  32.223  38.288  1.00  0.00    -0.248 NA
ATOM     65  C   UNL A   1      45.592  32.120  37.587  1.00  0.00     0.031 C 
ATOM     66  C   UNL A   1      42.072  31.942  42.528  1.00  0.00     0.029 A 
ATOM     67  C   UNL A   1      42.508  32.030  41.215  1.00  0.00     0.049 A 
ATOM     68  H   UNL A   1      41.381  32.348  39.459  1.00  0.00     0.167 HD
ATOM     69  C   UNL A   1      44.188  32.025  39.395  1.00  0.00     0.074 A 
ATOM     70  C   UNL A   1      45.544  31.929  38.897  1.00  0.00     0.031 C 
ATOM     71  C   UNL A   1      43.851  31.931  40.705  1.00  0.00     0.037 A 
BRANCH  58  72
ATOM     72  C   UNL A   1      37.807  32.586  41.778  1.00  0.00     0.057 A 
ATOM     73  C   UNL A   1      37.344  33.812  42.275  1.00  0.00     0.134 A 
ATOM     74  C   UNL A   1      37.166  31.425  42.227  1.00  0.00     0.134 A 
ATOM     75  F   UNL A   1      37.924  34.962  41.898  1.00  0.00    -0.206 F 
ATOM     76  C   UNL A   1      36.297  33.876  43.196  1.00  0.00     0.040 A 
ATOM     77  C   UNL A   1      36.100  31.477  43.126  1.00  0.00     0.040 A 
ATOM     78  F   UNL A   1      37.559  30.219  41.791  1.00  0.00    -0.206 F 
ATOM     79  C   UNL A   1      35.666  32.707  43.617  1.00  0.00     0.006 A 
ENDBRANCH  58  72
BRANCH  59  80
ATOM     80  C   UNL A   1      44.907  32.441  34.765  1.00  0.00     0.057 A 
ATOM     81  C   UNL A   1      45.462  33.649  34.325  1.00  0.00     0.134 A 
ATOM     82  C   UNL A   1      45.374  31.265  34.167  1.00  0.00     0.134 A 
ATOM     83  F   UNL A   1      45.040  34.814  34.840  1.00  0.00    -0.206 F 
ATOM     84  C   UNL A   1      46.418  33.689  33.308  1.00  0.00     0.040 A 
ATOM     85  C   UNL A   1      46.352  31.287  33.171  1.00  0.00     0.040 A 
ATOM     86  F   UNL A   1      44.887  30.073  34.542  1.00  0.00    -0.206 F 
ATOM     87  C   UNL A   1      46.868  32.503  32.730  1.00  0.00     0.006 A 
ENDBRANCH  59  80
BRANCH  71  88
ATOM     88  C   UNL A   1      44.960  31.664  41.686  1.00  0.00     0.057 A 
ATOM     89  C   UNL A   1      45.672  32.697  42.309  1.00  0.00     0.134 A 
ATOM     90  C   UNL A   1      45.309  30.349  42.022  1.00  0.00     0.134 A 
ATOM     91  F   UNL A   1      45.395  33.980  42.027  1.00  0.00    -0.206 F 
ATOM     92  C   UNL A   1      46.716  32.432  43.199  1.00  0.00     0.040 A 
ATOM     93  C   UNL A   1      46.327  30.072  42.936  1.00  0.00     0.040 A 
ATOM     94  F   UNL A   1      44.659  29.310  41.475  1.00  0.00    -0.206 F 
ATOM     95  C   UNL A   1      47.042  31.116  43.518  1.00  0.00     0.006 A 
ENDBRANCH  71  88
ENDBRANCH  45  46
ENDBRANCH  38  40
ENDBRANCH  37  38
ENDBRANCH  36  37
ENDBRANCH  35  36
ENDBRANCH  34  35
ENDBRANCH  33  34
ENDBRANCH  32  33
ENDBRANCH  31  32
ENDBRANCH   1  31
TORSDOF 24
ENDMDL
