MODEL 1
REMARK VINA RESULT:     -10.1      0.000      0.000
REMARK SMILES N#Cc1ccc2c(c1)C=C(C(=O)OCCOCCOCCOCCOC(=O)c1ccc(-c3c4nc(c(-c5c(F)cccc5F)c5ccc([nH]5)c(-c5c(F)cccc5F)c5nc(c(-c6c(F)cccc6F)c6ccc3[nH]6)C=C5)C=C4)cc1)[C@@H](C(F)(F)F)O2
REMARK SMILES IDX 20 1 19 2 18 3 17 4 16 5 15 6 14 7 13 8 11 9 12 10 10 11
REMARK SMILES IDX 3 12 4 13 8 14 5 15 7 16 6 17 9 18 87 19 82 20 2 21 1 22
REMARK SMILES IDX 83 23 84 24 85 25 86 26 21 27 22 28 23 29 24 30 25 31 26 32
REMARK SMILES IDX 27 33 28 34 29 35 81 36 30 37 80 38 31 39 32 40 33 41 74 42
REMARK SMILES IDX 34 43 79 44 73 45 75 46 35 47 78 48 72 49 71 50 36 52 62 53
REMARK SMILES IDX 45 54 61 55 46 56 49 57 60 58 76 59 47 60 48 61 59 63 77 64
REMARK SMILES IDX 50 65 37 66 38 67 43 68 39 69 40 70 42 71 44 72 41 73 63 74
REMARK SMILES IDX 64 75 69 76 65 77 66 78 68 79 70 80 67 81 51 82 52 83 57 84
REMARK SMILES IDX 53 85 54 86 56 87 58 88 55 89
REMARK H PARENT 75 51 49 62
REMARK Flexibility Score: inf
ROOT
ATOM      1  C   UNL A   1      34.615  31.874  27.903  1.00  0.00     0.188 C 
ENDROOT
BRANCH   1   2
ATOM      2  O   UNL A   1      35.085  30.657  27.322  1.00  0.00    -0.377 OA
BRANCH   2   3
ATOM      3  C   UNL A   1      34.236  29.525  27.306  1.00  0.00     0.188 C 
BRANCH   3   4
ATOM      4  C   UNL A   1      33.085  29.567  26.277  1.00  0.00     0.188 C 
BRANCH   4   5
ATOM      5  O   UNL A   1      33.410  29.129  24.974  1.00  0.00    -0.376 OA
BRANCH   5   6
ATOM      6  C   UNL A   1      32.465  29.022  23.927  1.00  0.00     0.202 C 
BRANCH   6   7
ATOM      7  C   UNL A   1      32.678  28.300  22.586  1.00  0.00     0.261 C 
BRANCH   7   8
ATOM      8  O   UNL A   1      33.716  27.328  22.518  1.00  0.00    -0.460 OA
BRANCH   8   9
ATOM      9  C   UNL A   1      33.359  26.102  22.091  1.00  0.00     0.338 C 
ATOM     10  O   UNL A   1      33.071  25.779  20.953  1.00  0.00    -0.246 OA
BRANCH   9  11
ATOM     11  C   UNL A   1      33.548  25.157  23.212  1.00  0.00     0.087 C 
ATOM     12  C   UNL A   1      35.954  21.443  25.077  1.00  0.00     0.053 A 
ATOM     13  C   UNL A   1      34.978  21.322  26.072  1.00  0.00     0.023 A 
ATOM     14  C   UNL A   1      35.879  22.493  24.157  1.00  0.00     0.031 A 
ATOM     15  C   UNL A   1      33.950  22.262  26.161  1.00  0.00     0.048 A 
ATOM     16  C   UNL A   1      34.811  23.397  24.210  1.00  0.00     0.019 A 
ATOM     17  C   UNL A   1      33.865  23.298  25.230  1.00  0.00     0.128 A 
ATOM     18  C   UNL A   1      34.633  24.376  23.156  1.00  0.00     0.027 C 
ATOM     19  O   UNL A   1      32.815  24.157  25.380  1.00  0.00    -0.475 OA
ATOM     20  C   UNL A   1      32.564  25.157  24.354  1.00  0.00     0.316 C 
BRANCH  12  21
ATOM     21  C   UNL A   1      37.005  20.472  24.969  1.00  0.00     0.099 C 
ATOM     22  N   UNL A   1      37.844  19.680  24.888  1.00  0.00    -0.192 NA
ENDBRANCH  12  21
BRANCH  20  23
ATOM     23  C   UNL A   1      31.120  24.989  23.862  1.00  0.00     0.430 C 
ATOM     24  F   UNL A   1      30.554  26.185  23.573  1.00  0.00    -0.167 F 
ATOM     25  F   UNL A   1      31.051  24.246  22.734  1.00  0.00    -0.167 F 
ATOM     26  F   UNL A   1      30.342  24.387  24.790  1.00  0.00    -0.167 F 
ENDBRANCH  20  23
ENDBRANCH   9  11
ENDBRANCH   8   9
ENDBRANCH   7   8
ENDBRANCH   6   7
ENDBRANCH   5   6
ENDBRANCH   4   5
ENDBRANCH   3   4
ENDBRANCH   2   3
ENDBRANCH   1   2
BRANCH   1  27
ATOM     27  C   UNL A   1      35.506  33.133  28.085  1.00  0.00     0.188 C 
BRANCH  27  28
ATOM     28  O   UNL A   1      34.890  34.211  28.755  1.00  0.00    -0.376 OA
BRANCH  28  29
ATOM     29  C   UNL A   1      34.009  34.009  29.838  1.00  0.00     0.202 C 
BRANCH  29  30
ATOM     30  C   UNL A   1      34.543  33.663  31.233  1.00  0.00     0.261 C 
BRANCH  30  31
ATOM     31  O   UNL A   1      35.062  32.344  31.424  1.00  0.00    -0.460 OA
BRANCH  31  32
ATOM     32  C   UNL A   1      36.013  32.177  32.372  1.00  0.00     0.338 C 
ATOM     33  O   UNL A   1      35.905  32.373  33.566  1.00  0.00    -0.246 OA
BRANCH  32  34
ATOM     34  C   UNL A   1      37.158  31.517  31.706  1.00  0.00     0.060 A 
ATOM     35  C   UNL A   1      37.225  31.484  30.312  1.00  0.00     0.016 A 
ATOM     36  C   UNL A   1      38.131  30.864  32.478  1.00  0.00     0.016 A 
ATOM     37  C   UNL A   1      38.281  30.818  29.691  1.00  0.00     0.010 A 
ATOM     38  C   UNL A   1      39.182  30.188  31.851  1.00  0.00     0.010 A 
ATOM     39  C   UNL A   1      39.280  30.185  30.453  1.00  0.00    -0.014 A 
BRANCH  39  40
ATOM     40  C   UNL A   1      40.505  29.688  29.777  1.00  0.00     0.031 A 
ATOM     41  C   UNL A   1      40.627  28.287  29.257  1.00  0.00     0.074 A 
ATOM     42  C   UNL A   1      41.524  30.553  29.625  1.00  0.00     0.049 A 
ATOM     43  N   UNL A   1      41.600  27.754  28.562  1.00  0.00    -0.248 NA
ATOM     44  C   UNL A   1      39.525  27.366  29.561  1.00  0.00     0.031 C 
ATOM     45  C   UNL A   1      41.533  31.932  30.119  1.00  0.00     0.029 A 
ATOM     46  N   UNL A   1      42.737  30.414  29.001  1.00  0.00    -0.354 N 
ATOM     47  C   UNL A   1      41.220  26.441  28.317  1.00  0.00     0.074 A 
ATOM     48  C   UNL A   1      39.951  26.245  28.991  1.00  0.00     0.031 C 
ATOM     49  C   UNL A   1      42.675  32.525  29.742  1.00  0.00     0.029 A 
ATOM     50  C   UNL A   1      43.496  31.560  29.021  1.00  0.00     0.049 A 
ATOM     51  H   UNL A   1      43.035  29.576  28.581  1.00  0.00     0.167 HD
ATOM     52  C   UNL A   1      41.861  25.496  27.583  1.00  0.00     0.037 A 
ATOM     53  C   UNL A   1      44.718  31.804  28.515  1.00  0.00     0.037 A 
ATOM     54  C   UNL A   1      43.144  25.688  26.947  1.00  0.00     0.049 A 
ATOM     55  C   UNL A   1      45.437  30.711  27.776  1.00  0.00     0.074 A 
ATOM     56  C   UNL A   1      43.862  24.797  26.166  1.00  0.00     0.029 A 
ATOM     57  N   UNL A   1      43.912  26.840  27.037  1.00  0.00    -0.354 N 
ATOM     58  N   UNL A   1      45.030  29.500  27.482  1.00  0.00    -0.248 NA
ATOM     59  C   UNL A   1      46.788  31.024  27.293  1.00  0.00     0.031 C 
ATOM     60  C   UNL A   1      45.091  25.383  25.843  1.00  0.00     0.029 A 
ATOM     61  C   UNL A   1      45.110  26.669  26.357  1.00  0.00     0.049 A 
ATOM     62  H   UNL A   1      43.646  27.659  27.513  1.00  0.00     0.167 HD
ATOM     63  C   UNL A   1      46.061  28.919  26.754  1.00  0.00     0.074 A 
ATOM     64  C   UNL A   1      47.098  29.921  26.628  1.00  0.00     0.031 C 
ATOM     65  C   UNL A   1      46.142  27.668  26.238  1.00  0.00     0.037 A 
BRANCH  52  66
ATOM     66  C   UNL A   1      41.190  24.158  27.436  1.00  0.00     0.057 A 
ATOM     67  C   UNL A   1      41.656  23.037  28.136  1.00  0.00     0.134 A 
ATOM     68  C   UNL A   1      40.111  23.967  26.563  1.00  0.00     0.134 A 
ATOM     69  F   UNL A   1      42.698  23.140  28.974  1.00  0.00    -0.206 F 
ATOM     70  C   UNL A   1      41.070  21.780  27.979  1.00  0.00     0.040 A 
ATOM     71  C   UNL A   1      39.495  22.721  26.422  1.00  0.00     0.040 A 
ATOM     72  F   UNL A   1      39.616  24.996  25.858  1.00  0.00    -0.206 F 
ATOM     73  C   UNL A   1      39.978  21.622  27.127  1.00  0.00     0.006 A 
ENDBRANCH  52  66
BRANCH  53  74
ATOM     74  C   UNL A   1      45.351  33.137  28.691  1.00  0.00     0.057 A 
ATOM     75  C   UNL A   1      45.102  34.184  27.796  1.00  0.00     0.134 A 
ATOM     76  C   UNL A   1      46.174  33.410  29.790  1.00  0.00     0.134 A 
ATOM     77  F   UNL A   1      44.333  33.985  26.715  1.00  0.00    -0.206 F 
ATOM     78  C   UNL A   1      45.638  35.456  27.992  1.00  0.00     0.040 A 
ATOM     79  C   UNL A   1      46.686  34.688  30.018  1.00  0.00     0.040 A 
ATOM     80  F   UNL A   1      46.440  32.453  30.689  1.00  0.00    -0.206 F 
ATOM     81  C   UNL A   1      46.419  35.716  29.116  1.00  0.00     0.006 A 
ENDBRANCH  53  74
BRANCH  65  82
ATOM     82  C   UNL A   1      47.383  27.331  25.456  1.00  0.00     0.057 A 
ATOM     83  C   UNL A   1      48.477  26.720  26.084  1.00  0.00     0.134 A 
ATOM     84  C   UNL A   1      47.501  27.604  24.087  1.00  0.00     0.134 A 
ATOM     85  F   UNL A   1      48.441  26.438  27.395  1.00  0.00    -0.206 F 
ATOM     86  C   UNL A   1      49.636  26.389  25.380  1.00  0.00     0.040 A 
ATOM     87  C   UNL A   1      48.639  27.243  23.363  1.00  0.00     0.040 A 
ATOM     88  F   UNL A   1      46.488  28.176  23.417  1.00  0.00    -0.206 F 
ATOM     89  C   UNL A   1      49.713  26.638  24.012  1.00  0.00     0.006 A 
ENDBRANCH  65  82
ENDBRANCH  39  40
ENDBRANCH  32  34
ENDBRANCH  31  32
ENDBRANCH  30  31
ENDBRANCH  29  30
ENDBRANCH  28  29
ENDBRANCH  27  28
ENDBRANCH   1  27
TORSDOF 22
ENDMDL
MODEL 2
REMARK VINA RESULT:     -10.0      4.137      7.898
REMARK SMILES N#Cc1ccc2c(c1)C=C(C(=O)OCCOCCOCCOCCOC(=O)c1ccc(-c3c4nc(c(-c5c(F)cccc5F)c5ccc([nH]5)c(-c5c(F)cccc5F)c5nc(c(-c6c(F)cccc6F)c6ccc3[nH]6)C=C5)C=C4)cc1)[C@@H](C(F)(F)F)O2
REMARK SMILES IDX 20 1 19 2 18 3 17 4 16 5 15 6 14 7 13 8 11 9 12 10 10 11
REMARK SMILES IDX 3 12 4 13 8 14 5 15 7 16 6 17 9 18 87 19 82 20 2 21 1 22
REMARK SMILES IDX 83 23 84 24 85 25 86 26 21 27 22 28 23 29 24 30 25 31 26 32
REMARK SMILES IDX 27 33 28 34 29 35 81 36 30 37 80 38 31 39 32 40 33 41 74 42
REMARK SMILES IDX 34 43 79 44 73 45 75 46 35 47 78 48 72 49 71 50 36 52 62 53
REMARK SMILES IDX 45 54 61 55 46 56 49 57 60 58 76 59 47 60 48 61 59 63 77 64
REMARK SMILES IDX 50 65 37 66 38 67 43 68 39 69 40 70 42 71 44 72 41 73 63 74
REMARK SMILES IDX 64 75 69 76 65 77 66 78 68 79 70 80 67 81 51 82 52 83 57 84
REMARK SMILES IDX 53 85 54 86 56 87 58 88 55 89
REMARK H PARENT 75 51 49 62
REMARK Flexibility Score: inf
ROOT
ATOM      1  C   UNL A   1      30.704  29.935  24.631  1.00  0.00     0.188 C 
ENDROOT
BRANCH   1   2
ATOM      2  O   UNL A   1      29.823  30.018  23.511  1.00  0.00    -0.377 OA
BRANCH   2   3
ATOM      3  C   UNL A   1      29.108  28.865  23.107  1.00  0.00     0.188 C 
BRANCH   3   4
ATOM      4  C   UNL A   1      29.904  27.542  23.126  1.00  0.00     0.188 C 
BRANCH   4   5
ATOM      5  O   UNL A   1      29.632  26.678  24.209  1.00  0.00    -0.376 OA
BRANCH   5   6
ATOM      6  C   UNL A   1      30.284  25.437  24.402  1.00  0.00     0.202 C 
BRANCH   6   7
ATOM      7  C   UNL A   1      31.018  24.988  25.677  1.00  0.00     0.261 C 
BRANCH   7   8
ATOM      8  O   UNL A   1      31.270  23.595  25.836  1.00  0.00    -0.460 OA
BRANCH   8   9
ATOM      9  C   UNL A   1      32.523  23.182  25.567  1.00  0.00     0.338 C 
ATOM     10  O   UNL A   1      33.556  23.625  26.036  1.00  0.00    -0.246 OA
BRANCH   9  11
ATOM     11  C   UNL A   1      32.432  21.966  24.734  1.00  0.00     0.087 C 
ATOM     12  C   UNL A   1      32.969  17.208  24.356  1.00  0.00     0.053 A 
ATOM     13  C   UNL A   1      32.827  17.311  22.969  1.00  0.00     0.023 A 
ATOM     14  C   UNL A   1      32.821  18.347  25.154  1.00  0.00     0.031 A 
ATOM     15  C   UNL A   1      32.514  18.541  22.387  1.00  0.00     0.048 A 
ATOM     16  C   UNL A   1      32.570  19.590  24.562  1.00  0.00     0.019 A 
ATOM     17  C   UNL A   1      32.387  19.680  23.182  1.00  0.00     0.128 A 
ATOM     18  C   UNL A   1      32.593  20.797  25.365  1.00  0.00     0.027 C 
ATOM     19  O   UNL A   1      32.101  20.842  22.527  1.00  0.00    -0.475 OA
ATOM     20  C   UNL A   1      32.121  22.096  23.264  1.00  0.00     0.316 C 
BRANCH  12  21
ATOM     21  C   UNL A   1      33.306  15.951  24.961  1.00  0.00     0.099 C 
ATOM     22  N   UNL A   1      33.574  14.931  25.436  1.00  0.00    -0.192 NA
ENDBRANCH  12  21
BRANCH  20  23
ATOM     23  C   UNL A   1      33.091  23.054  22.560  1.00  0.00     0.430 C 
ATOM     24  F   UNL A   1      33.092  22.860  21.219  1.00  0.00    -0.167 F 
ATOM     25  F   UNL A   1      32.762  24.350  22.763  1.00  0.00    -0.167 F 
ATOM     26  F   UNL A   1      34.361  22.888  22.994  1.00  0.00    -0.167 F 
ENDBRANCH  20  23
ENDBRANCH   9  11
ENDBRANCH   8   9
ENDBRANCH   7   8
ENDBRANCH   6   7
ENDBRANCH   5   6
ENDBRANCH   4   5
ENDBRANCH   3   4
ENDBRANCH   2   3
ENDBRANCH   1   2
BRANCH   1  27
ATOM     27  C   UNL A   1      31.044  31.146  25.541  1.00  0.00     0.188 C 
BRANCH  27  28
ATOM     28  O   UNL A   1      31.781  30.835  26.703  1.00  0.00    -0.376 OA
BRANCH  28  29
ATOM     29  C   UNL A   1      32.701  31.744  27.267  1.00  0.00     0.202 C 
BRANCH  29  30
ATOM     30  C   UNL A   1      32.420  33.252  27.264  1.00  0.00     0.261 C 
BRANCH  30  31
ATOM     31  O   UNL A   1      32.368  33.908  28.533  1.00  0.00    -0.460 OA
BRANCH  31  32
ATOM     32  C   UNL A   1      33.340  34.805  28.814  1.00  0.00     0.338 C 
ATOM     33  O   UNL A   1      33.243  36.016  28.827  1.00  0.00    -0.246 OA
BRANCH  32  34
ATOM     34  C   UNL A   1      34.502  34.028  29.301  1.00  0.00     0.060 A 
ATOM     35  C   UNL A   1      35.776  34.298  28.799  1.00  0.00     0.016 A 
ATOM     36  C   UNL A   1      34.305  32.976  30.207  1.00  0.00     0.016 A 
ATOM     37  C   UNL A   1      36.859  33.530  29.226  1.00  0.00     0.010 A 
ATOM     38  C   UNL A   1      35.392  32.200  30.624  1.00  0.00     0.010 A 
ATOM     39  C   UNL A   1      36.681  32.490  30.158  1.00  0.00    -0.014 A 
BRANCH  39  40
ATOM     40  C   UNL A   1      37.873  31.846  30.765  1.00  0.00     0.031 A 
ATOM     41  C   UNL A   1      38.363  32.191  32.138  1.00  0.00     0.074 A 
ATOM     42  C   UNL A   1      38.511  30.911  30.037  1.00  0.00     0.049 A 
ATOM     43  N   UNL A   1      39.331  31.636  32.825  1.00  0.00    -0.248 NA
ATOM     44  C   UNL A   1      37.692  33.300  32.826  1.00  0.00     0.031 C 
ATOM     45  C   UNL A   1      38.145  30.516  28.675  1.00  0.00     0.029 A 
ATOM     46  N   UNL A   1      39.583  30.112  30.340  1.00  0.00    -0.354 N 
ATOM     47  C   UNL A   1      39.370  32.307  34.040  1.00  0.00     0.074 A 
ATOM     48  C   UNL A   1      38.365  33.350  33.970  1.00  0.00     0.031 C 
ATOM     49  C   UNL A   1      38.950  29.521  28.276  1.00  0.00     0.029 A 
ATOM     50  C   UNL A   1      39.913  29.237  29.333  1.00  0.00     0.049 A 
ATOM     51  H   UNL A   1      40.068  30.160  31.194  1.00  0.00     0.167 HD
ATOM     52  C   UNL A   1      40.159  32.062  35.117  1.00  0.00     0.037 A 
ATOM     53  C   UNL A   1      40.887  28.311  29.268  1.00  0.00     0.037 A 
ATOM     54  C   UNL A   1      41.184  31.046  35.165  1.00  0.00     0.049 A 
ATOM     55  C   UNL A   1      41.795  28.119  30.450  1.00  0.00     0.074 A 
ATOM     56  C   UNL A   1      42.018  30.709  36.220  1.00  0.00     0.029 A 
ATOM     57  N   UNL A   1      41.534  30.218  34.107  1.00  0.00    -0.354 N 
ATOM     58  N   UNL A   1      41.768  28.705  31.622  1.00  0.00    -0.248 NA
ATOM     59  C   UNL A   1      42.870  27.129  30.298  1.00  0.00     0.031 C 
ATOM     60  C   UNL A   1      42.915  29.730  35.779  1.00  0.00     0.029 A 
ATOM     61  C   UNL A   1      42.592  29.399  34.473  1.00  0.00     0.049 A 
ATOM     62  H   UNL A   1      41.093  30.212  33.227  1.00  0.00     0.167 HD
ATOM     63  C   UNL A   1      42.800  28.133  32.356  1.00  0.00     0.074 A 
ATOM     64  C   UNL A   1      43.413  27.135  31.505  1.00  0.00     0.031 C 
ATOM     65  C   UNL A   1      43.203  28.410  33.620  1.00  0.00     0.037 A 
BRANCH  52  66
ATOM     66  C   UNL A   1      39.952  32.917  36.337  1.00  0.00     0.057 A 
ATOM     67  C   UNL A   1      38.979  32.589  37.291  1.00  0.00     0.134 A 
ATOM     68  C   UNL A   1      40.684  34.094  36.545  1.00  0.00     0.134 A 
ATOM     69  F   UNL A   1      38.227  31.488  37.149  1.00  0.00    -0.206 F 
ATOM     70  C   UNL A   1      38.748  33.395  38.408  1.00  0.00     0.040 A 
ATOM     71  C   UNL A   1      40.484  34.891  37.675  1.00  0.00     0.040 A 
ATOM     72  F   UNL A   1      41.629  34.471  35.670  1.00  0.00    -0.206 F 
ATOM     73  C   UNL A   1      39.510  34.545  38.607  1.00  0.00     0.006 A 
ENDBRANCH  52  66
BRANCH  53  74
ATOM     74  C   UNL A   1      41.065  27.493  28.041  1.00  0.00     0.057 A 
ATOM     75  C   UNL A   1      40.412  26.264  27.884  1.00  0.00     0.134 A 
ATOM     76  C   UNL A   1      41.845  27.948  26.972  1.00  0.00     0.134 A 
ATOM     77  F   UNL A   1      39.659  25.765  28.876  1.00  0.00    -0.206 F 
ATOM     78  C   UNL A   1      40.520  25.523  26.708  1.00  0.00     0.040 A 
ATOM     79  C   UNL A   1      41.933  27.235  25.775  1.00  0.00     0.040 A 
ATOM     80  F   UNL A   1      42.486  29.123  27.054  1.00  0.00    -0.206 F 
ATOM     81  C   UNL A   1      41.268  26.017  25.642  1.00  0.00     0.006 A 
ENDBRANCH  53  74
BRANCH  65  82
ATOM     82  C   UNL A   1      44.341  27.591  34.169  1.00  0.00     0.057 A 
ATOM     83  C   UNL A   1      45.665  28.035  34.043  1.00  0.00     0.134 A 
ATOM     84  C   UNL A   1      44.135  26.369  34.824  1.00  0.00     0.134 A 
ATOM     85  F   UNL A   1      45.940  29.190  33.419  1.00  0.00    -0.206 F 
ATOM     86  C   UNL A   1      46.737  27.299  34.550  1.00  0.00     0.040 A 
ATOM     87  C   UNL A   1      45.195  25.643  35.370  1.00  0.00     0.040 A 
ATOM     88  F   UNL A   1      42.893  25.889  34.992  1.00  0.00    -0.206 F 
ATOM     89  C   UNL A   1      46.502  26.106  35.229  1.00  0.00     0.006 A 
ENDBRANCH  65  82
ENDBRANCH  39  40
ENDBRANCH  32  34
ENDBRANCH  31  32
ENDBRANCH  30  31
ENDBRANCH  29  30
ENDBRANCH  28  29
ENDBRANCH  27  28
ENDBRANCH   1  27
TORSDOF 22
ENDMDL
MODEL 3
REMARK VINA RESULT:      -9.9      1.861      2.700
REMARK SMILES N#Cc1ccc2c(c1)C=C(C(=O)OCCOCCOCCOCCOC(=O)c1ccc(-c3c4nc(c(-c5c(F)cccc5F)c5ccc([nH]5)c(-c5c(F)cccc5F)c5nc(c(-c6c(F)cccc6F)c6ccc3[nH]6)C=C5)C=C4)cc1)[C@@H](C(F)(F)F)O2
REMARK SMILES IDX 20 1 19 2 18 3 17 4 16 5 15 6 14 7 13 8 11 9 12 10 10 11
REMARK SMILES IDX 3 12 4 13 8 14 5 15 7 16 6 17 9 18 87 19 82 20 2 21 1 22
REMARK SMILES IDX 83 23 84 24 85 25 86 26 21 27 22 28 23 29 24 30 25 31 26 32
REMARK SMILES IDX 27 33 28 34 29 35 81 36 30 37 80 38 31 39 32 40 33 41 74 42
REMARK SMILES IDX 34 43 79 44 73 45 75 46 35 47 78 48 72 49 71 50 36 52 62 53
REMARK SMILES IDX 45 54 61 55 46 56 49 57 60 58 76 59 47 60 48 61 59 63 77 64
REMARK SMILES IDX 50 65 37 66 38 67 43 68 39 69 40 70 42 71 44 72 41 73 63 74
REMARK SMILES IDX 64 75 69 76 65 77 66 78 68 79 70 80 67 81 51 82 52 83 57 84
REMARK SMILES IDX 53 85 54 86 56 87 58 88 55 89
REMARK H PARENT 75 51 49 62
REMARK Flexibility Score: inf
ROOT
ATOM      1  C   UNL A   1      34.836  30.703  27.596  1.00  0.00     0.188 C 
ENDROOT
BRANCH   1   2
ATOM      2  O   UNL A   1      34.292  29.695  26.743  1.00  0.00    -0.377 OA
BRANCH   2   3
ATOM      3  C   UNL A   1      33.029  29.137  27.051  1.00  0.00     0.188 C 
BRANCH   3   4
ATOM      4  C   UNL A   1      32.212  28.624  25.846  1.00  0.00     0.188 C 
BRANCH   4   5
ATOM      5  O   UNL A   1      31.220  27.662  26.141  1.00  0.00    -0.376 OA
BRANCH   5   6
ATOM      6  C   UNL A   1      31.243  26.338  25.644  1.00  0.00     0.202 C 
BRANCH   6   7
ATOM      7  C   UNL A   1      31.772  25.100  26.388  1.00  0.00     0.261 C 
BRANCH   7   8
ATOM      8  O   UNL A   1      31.764  23.858  25.691  1.00  0.00    -0.460 OA
BRANCH   8   9
ATOM      9  C   UNL A   1      32.925  23.177  25.675  1.00  0.00     0.338 C 
ATOM     10  O   UNL A   1      33.920  23.410  26.336  1.00  0.00    -0.246 OA
BRANCH   9  11
ATOM     11  C   UNL A   1      32.733  21.971  24.842  1.00  0.00     0.087 C 
ATOM     12  C   UNL A   1      33.127  17.207  24.379  1.00  0.00     0.053 A 
ATOM     13  C   UNL A   1      32.865  17.327  23.011  1.00  0.00     0.023 A 
ATOM     14  C   UNL A   1      33.076  18.340  25.197  1.00  0.00     0.031 A 
ATOM     15  C   UNL A   1      32.529  18.570  22.469  1.00  0.00     0.048 A 
ATOM     16  C   UNL A   1      32.801  19.594  24.639  1.00  0.00     0.019 A 
ATOM     17  C   UNL A   1      32.499  19.703  23.282  1.00  0.00     0.128 A 
ATOM     18  C   UNL A   1      32.923  20.793  25.447  1.00  0.00     0.027 C 
ATOM     19  O   UNL A   1      32.182  20.878  22.665  1.00  0.00    -0.475 OA
ATOM     20  C   UNL A   1      32.296  22.123  23.408  1.00  0.00     0.316 C 
BRANCH  12  21
ATOM     21  C   UNL A   1      33.488  15.936  24.941  1.00  0.00     0.099 C 
ATOM     22  N   UNL A   1      33.789  14.919  25.401  1.00  0.00    -0.192 NA
ENDBRANCH  12  21
BRANCH  20  23
ATOM     23  C   UNL A   1      33.221  23.067  22.628  1.00  0.00     0.430 C 
ATOM     24  F   UNL A   1      32.807  24.353  22.719  1.00  0.00    -0.167 F 
ATOM     25  F   UNL A   1      34.490  23.035  23.095  1.00  0.00    -0.167 F 
ATOM     26  F   UNL A   1      33.266  22.749  21.314  1.00  0.00    -0.167 F 
ENDBRANCH  20  23
ENDBRANCH   9  11
ENDBRANCH   8   9
ENDBRANCH   7   8
ENDBRANCH   6   7
ENDBRANCH   5   6
ENDBRANCH   4   5
ENDBRANCH   3   4
ENDBRANCH   2   3
ENDBRANCH   1   2
BRANCH   1  27
ATOM     27  C   UNL A   1      33.973  31.792  28.288  1.00  0.00     0.188 C 
BRANCH  27  28
ATOM     28  O   UNL A   1      34.554  33.077  28.337  1.00  0.00    -0.376 OA
BRANCH  28  29
ATOM     29  C   UNL A   1      34.080  34.075  29.214  1.00  0.00     0.202 C 
BRANCH  29  30
ATOM     30  C   UNL A   1      34.565  34.143  30.667  1.00  0.00     0.261 C 
BRANCH  30  31
ATOM     31  O   UNL A   1      35.905  33.719  30.928  1.00  0.00    -0.460 OA
BRANCH  31  32
ATOM     32  C   UNL A   1      36.075  32.612  31.687  1.00  0.00     0.338 C 
ATOM     33  O   UNL A   1      35.327  32.185  32.544  1.00  0.00    -0.246 OA
BRANCH  32  34
ATOM     34  C   UNL A   1      37.254  31.904  31.140  1.00  0.00     0.060 A 
ATOM     35  C   UNL A   1      37.380  31.731  29.761  1.00  0.00     0.016 A 
ATOM     36  C   UNL A   1      38.197  31.344  32.014  1.00  0.00     0.016 A 
ATOM     37  C   UNL A   1      38.468  31.020  29.255  1.00  0.00     0.010 A 
ATOM     38  C   UNL A   1      39.281  30.622  31.503  1.00  0.00     0.010 A 
ATOM     39  C   UNL A   1      39.439  30.479  30.119  1.00  0.00    -0.014 A 
BRANCH  39  40
ATOM     40  C   UNL A   1      40.696  29.933  29.548  1.00  0.00     0.031 A 
ATOM     41  C   UNL A   1      40.823  28.511  29.092  1.00  0.00     0.074 A 
ATOM     42  C   UNL A   1      41.742  30.772  29.433  1.00  0.00     0.049 A 
ATOM     43  N   UNL A   1      41.830  27.932  28.486  1.00  0.00    -0.248 NA
ATOM     44  C   UNL A   1      39.683  27.624  29.354  1.00  0.00     0.031 C 
ATOM     45  C   UNL A   1      41.747  32.170  29.873  1.00  0.00     0.029 A 
ATOM     46  N   UNL A   1      42.991  30.586  28.900  1.00  0.00    -0.354 N 
ATOM     47  C   UNL A   1      41.439  26.618  28.267  1.00  0.00     0.074 A 
ATOM     48  C   UNL A   1      40.123  26.473  28.859  1.00  0.00     0.031 C 
ATOM     49  C   UNL A   1      42.923  32.725  29.553  1.00  0.00     0.029 A 
ATOM     50  C   UNL A   1      43.771  31.717  28.928  1.00  0.00     0.049 A 
ATOM     51  H   UNL A   1      43.299  29.726  28.535  1.00  0.00     0.167 HD
ATOM     52  C   UNL A   1      42.108  25.633  27.616  1.00  0.00     0.037 A 
ATOM     53  C   UNL A   1      45.030  31.918  28.499  1.00  0.00     0.037 A 
ATOM     54  C   UNL A   1      43.435  25.775  27.063  1.00  0.00     0.049 A 
ATOM     55  C   UNL A   1      45.773  30.783  27.853  1.00  0.00     0.074 A 
ATOM     56  C   UNL A   1      44.185  24.839  26.368  1.00  0.00     0.029 A 
ATOM     57  N   UNL A   1      44.220  26.915  27.161  1.00  0.00    -0.354 N 
ATOM     58  N   UNL A   1      45.361  29.569  27.579  1.00  0.00    -0.248 NA
ATOM     59  C   UNL A   1      47.161  31.051  27.453  1.00  0.00     0.031 C 
ATOM     60  C   UNL A   1      45.445  25.389  26.108  1.00  0.00     0.029 A 
ATOM     61  C   UNL A   1      45.457  26.694  26.572  1.00  0.00     0.049 A 
ATOM     62  H   UNL A   1      43.940  27.757  27.586  1.00  0.00     0.167 HD
ATOM     63  C   UNL A   1      46.427  28.940  26.947  1.00  0.00     0.074 A 
ATOM     64  C   UNL A   1      47.491  29.917  26.854  1.00  0.00     0.031 C 
ATOM     65  C   UNL A   1      46.516  27.668  26.486  1.00  0.00     0.037 A 
BRANCH  52  66
ATOM     66  C   UNL A   1      41.420  24.303  27.475  1.00  0.00     0.057 A 
ATOM     67  C   UNL A   1      40.356  24.134  26.578  1.00  0.00     0.134 A 
ATOM     68  C   UNL A   1      41.780  23.199  28.260  1.00  0.00     0.134 A 
ATOM     69  F   UNL A   1      39.944  25.151  25.808  1.00  0.00    -0.206 F 
ATOM     70  C   UNL A   1      39.681  22.916  26.465  1.00  0.00     0.040 A 
ATOM     71  C   UNL A   1      41.134  21.967  28.133  1.00  0.00     0.040 A 
ATOM     72  F   UNL A   1      42.787  23.292  29.142  1.00  0.00    -0.206 F 
ATOM     73  C   UNL A   1      40.077  21.825  27.236  1.00  0.00     0.006 A 
ENDBRANCH  52  66
BRANCH  53  74
ATOM     74  C   UNL A   1      45.678  33.244  28.666  1.00  0.00     0.057 A 
ATOM     75  C   UNL A   1      46.512  33.515  29.757  1.00  0.00     0.134 A 
ATOM     76  C   UNL A   1      45.525  34.253  27.707  1.00  0.00     0.134 A 
ATOM     77  F   UNL A   1      46.691  32.596  30.718  1.00  0.00    -0.206 F 
ATOM     78  C   UNL A   1      47.177  34.733  29.885  1.00  0.00     0.040 A 
ATOM     79  C   UNL A   1      46.213  35.462  27.803  1.00  0.00     0.040 A 
ATOM     80  F   UNL A   1      44.749  34.051  26.632  1.00  0.00    -0.206 F 
ATOM     81  C   UNL A   1      47.043  35.705  28.896  1.00  0.00     0.006 A 
ENDBRANCH  53  74
BRANCH  65  82
ATOM     82  C   UNL A   1      47.800  27.277  25.805  1.00  0.00     0.057 A 
ATOM     83  C   UNL A   1      48.876  26.772  26.549  1.00  0.00     0.134 A 
ATOM     84  C   UNL A   1      47.977  27.393  24.420  1.00  0.00     0.134 A 
ATOM     85  F   UNL A   1      48.784  26.642  27.880  1.00  0.00    -0.206 F 
ATOM     86  C   UNL A   1      50.074  26.394  25.940  1.00  0.00     0.040 A 
ATOM     87  C   UNL A   1      49.156  26.982  23.795  1.00  0.00     0.040 A 
ATOM     88  F   UNL A   1      46.985  27.857  23.644  1.00  0.00    -0.206 F 
ATOM     89  C   UNL A   1      50.211  26.485  24.557  1.00  0.00     0.006 A 
ENDBRANCH  65  82
ENDBRANCH  39  40
ENDBRANCH  32  34
ENDBRANCH  31  32
ENDBRANCH  30  31
ENDBRANCH  29  30
ENDBRANCH  28  29
ENDBRANCH  27  28
ENDBRANCH   1  27
TORSDOF 22
ENDMDL
