MODEL 1
REMARK VINA RESULT:      -9.3      0.000      0.000
REMARK SMILES Cc1c(CCC(=O)N[C@@H](C)C(=O)OCCOCCOCCOCCOC(=O)c2ccc(-c3c4nc(c(-c5c(F)cccc5F)c5ccc([nH]5)c(-c5c(F)cccc5F)c5nc(c(-c6c(F)cccc6F)c6ccc3[nH]6)C=C5)C=C4)cc2)c(=O)oc2cc3oc4c(c3cc12)CCCC4
REMARK SMILES IDX 18 1 17 2 16 3 15 4 14 5 13 6 11 7 12 8 9 9 10 10 8 11 6 12
REMARK SMILES IDX 7 13 5 15 4 16 3 17 1 18 2 19 93 20 82 21 85 22 92 23 83 24
REMARK SMILES IDX 84 25 86 26 91 27 87 28 90 29 88 30 89 31 94 32 97 33 95 34
REMARK SMILES IDX 96 35 19 36 20 37 21 38 22 39 23 40 24 41 25 42 26 43 27 44
REMARK SMILES IDX 28 45 29 46 81 47 30 48 80 49 31 50 32 51 33 52 74 53 34 54
REMARK SMILES IDX 79 55 73 56 75 57 35 58 78 59 72 60 71 61 36 63 62 64 45 65
REMARK SMILES IDX 61 66 46 67 49 68 60 69 76 70 47 71 48 72 59 74 77 75 50 76
REMARK SMILES IDX 37 77 38 78 43 79 39 80 40 81 42 82 44 83 41 84 63 85 64 86
REMARK SMILES IDX 69 87 65 88 66 89 68 90 70 91 67 92 51 93 52 94 57 95 53 96
REMARK SMILES IDX 54 97 56 98 58 99 55 100
REMARK H PARENT 8 14 75 62 49 73
REMARK Flexibility Score: inf
ROOT
ATOM      1  C   UNL A   1      32.927  24.815  21.430  1.00  0.00     0.188 C 
ENDROOT
BRANCH   1   2
ATOM      2  C   UNL A   1      32.578  26.295  21.639  1.00  0.00     0.188 C 
BRANCH   2   3
ATOM      3  O   UNL A   1      33.688  27.153  21.501  1.00  0.00    -0.376 OA
BRANCH   3   4
ATOM      4  C   UNL A   1      33.886  28.185  22.462  1.00  0.00     0.202 C 
BRANCH   4   5
ATOM      5  C   UNL A   1      33.063  28.293  23.769  1.00  0.00     0.261 C 
BRANCH   5   6
ATOM      6  O   UNL A   1      33.700  28.909  24.906  1.00  0.00    -0.462 OA
BRANCH   6   7
ATOM      7  C   UNL A   1      33.684  28.205  26.073  1.00  0.00     0.328 C 
ATOM      8  O   UNL A   1      33.728  26.978  26.134  1.00  0.00    -0.250 OA
BRANCH   7   9
ATOM      9  C   UNL A   1      33.611  29.079  27.353  1.00  0.00     0.189 C 
ATOM     10  C   UNL A   1      32.747  30.341  27.242  1.00  0.00     0.043 C 
BRANCH   9  11
ATOM     11  N   UNL A   1      34.759  29.306  28.241  1.00  0.00    -0.343 N 
ATOM     12  C   UNL A   1      35.812  30.163  28.085  1.00  0.00     0.221 C 
ATOM     13  O   UNL A   1      36.937  29.745  28.366  1.00  0.00    -0.275 OA
ATOM     14  H   UNL A   1      34.771  28.765  29.064  1.00  0.00     0.164 HD
BRANCH  12  15
ATOM     15  C   UNL A   1      35.593  31.629  27.727  1.00  0.00     0.105 C 
BRANCH  15  16
ATOM     16  C   UNL A   1      36.437  32.675  28.476  1.00  0.00     0.053 C 
BRANCH  16  17
ATOM     17  C   UNL A   1      35.956  32.852  29.891  1.00  0.00     0.042 A 
ATOM     18  C   UNL A   1      37.959  31.639  30.886  1.00  0.00     0.046 C 
ATOM     19  C   UNL A   1      36.731  32.511  30.925  1.00  0.00    -0.030 A 
ATOM     20  C   UNL A   1      36.421  33.229  32.142  1.00  0.00     0.022 A 
ATOM     21  C   UNL A   1      34.607  33.454  30.170  1.00  0.00     0.339 A 
ATOM     22  C   UNL A   1      35.116  33.449  32.528  1.00  0.00     0.142 A 
ATOM     23  C   UNL A   1      37.444  33.751  32.895  1.00  0.00     0.024 A 
ATOM     24  O   UNL A   1      33.886  33.850  29.260  1.00  0.00    -0.246 OA
ATOM     25  O   UNL A   1      34.148  33.395  31.509  1.00  0.00    -0.422 OA
ATOM     26  C   UNL A   1      34.796  33.710  33.874  1.00  0.00     0.095 A 
ATOM     27  C   UNL A   1      37.185  34.110  34.200  1.00  0.00     0.025 A 
ATOM     28  C   UNL A   1      35.919  33.855  34.702  1.00  0.00     0.138 A 
ATOM     29  C   UNL A   1      38.099  34.233  35.255  1.00  0.00     0.001 A 
ATOM     30  O   UNL A   1      36.072  33.540  36.038  1.00  0.00    -0.461 OA
ATOM     31  C   UNL A   1      37.433  33.549  36.249  1.00  0.00     0.108 A 
ATOM     32  C   UNL A   1      39.581  34.116  35.123  1.00  0.00     0.040 C 
ATOM     33  C   UNL A   1      38.136  32.405  36.907  1.00  0.00     0.076 C 
ATOM     34  C   UNL A   1      39.874  32.617  34.931  1.00  0.00     0.005 C 
ATOM     35  C   UNL A   1      38.952  31.686  35.774  1.00  0.00     0.008 C 
ENDBRANCH  16  17
ENDBRANCH  15  16
ENDBRANCH  12  15
ENDBRANCH   9  11
ENDBRANCH   7   9
ENDBRANCH   6   7
ENDBRANCH   5   6
ENDBRANCH   4   5
ENDBRANCH   3   4
ENDBRANCH   2   3
ENDBRANCH   1   2
BRANCH   1  36
ATOM     36  O   UNL A   1      33.221  23.995  22.557  1.00  0.00    -0.377 OA
BRANCH  36  37
ATOM     37  C   UNL A   1      34.199  24.409  23.502  1.00  0.00     0.188 C 
BRANCH  37  38
ATOM     38  C   UNL A   1      34.193  23.789  24.905  1.00  0.00     0.188 C 
BRANCH  38  39
ATOM     39  O   UNL A   1      34.988  22.636  25.022  1.00  0.00    -0.376 OA
BRANCH  39  40
ATOM     40  C   UNL A   1      36.052  22.573  25.948  1.00  0.00     0.202 C 
BRANCH  40  41
ATOM     41  C   UNL A   1      37.545  22.800  25.639  1.00  0.00     0.261 C 
BRANCH  41  42
ATOM     42  O   UNL A   1      38.306  23.724  26.417  1.00  0.00    -0.460 OA
BRANCH  42  43
ATOM     43  C   UNL A   1      39.511  23.338  26.886  1.00  0.00     0.338 C 
ATOM     44  O   UNL A   1      40.044  22.247  26.763  1.00  0.00    -0.246 OA
BRANCH  43  45
ATOM     45  C   UNL A   1      40.143  24.542  27.462  1.00  0.00     0.060 A 
ATOM     46  C   UNL A   1      41.419  24.477  28.030  1.00  0.00     0.016 A 
ATOM     47  C   UNL A   1      39.398  25.720  27.543  1.00  0.00     0.016 A 
ATOM     48  C   UNL A   1      41.952  25.604  28.669  1.00  0.00     0.010 A 
ATOM     49  C   UNL A   1      39.908  26.814  28.239  1.00  0.00     0.010 A 
ATOM     50  C   UNL A   1      41.200  26.786  28.788  1.00  0.00    -0.014 A 
BRANCH  50  51
ATOM     51  C   UNL A   1      41.812  28.032  29.315  1.00  0.00     0.031 A 
ATOM     52  C   UNL A   1      42.264  27.986  30.741  1.00  0.00     0.074 A 
ATOM     53  C   UNL A   1      42.278  29.051  28.564  1.00  0.00     0.049 A 
ATOM     54  N   UNL A   1      43.446  27.566  31.097  1.00  0.00    -0.248 NA
ATOM     55  C   UNL A   1      41.339  28.176  31.856  1.00  0.00     0.031 C 
ATOM     56  C   UNL A   1      42.668  28.954  27.157  1.00  0.00     0.029 A 
ATOM     57  N   UNL A   1      42.630  30.335  28.915  1.00  0.00    -0.354 N 
ATOM     58  C   UNL A   1      43.423  27.408  32.471  1.00  0.00     0.074 A 
ATOM     59  C   UNL A   1      42.096  27.800  32.898  1.00  0.00     0.031 C 
ATOM     60  C   UNL A   1      43.311  30.086  26.808  1.00  0.00     0.029 A 
ATOM     61  C   UNL A   1      43.319  31.021  27.921  1.00  0.00     0.049 A 
ATOM     62  H   UNL A   1      42.415  30.730  29.790  1.00  0.00     0.167 HD
ATOM     63  C   UNL A   1      44.489  26.976  33.193  1.00  0.00     0.037 A 
ATOM     64  C   UNL A   1      44.304  31.953  28.075  1.00  0.00     0.037 A 
ATOM     65  C   UNL A   1      45.693  26.711  32.473  1.00  0.00     0.049 A 
ATOM     66  C   UNL A   1      45.302  31.278  28.994  1.00  0.00     0.074 A 
ATOM     67  C   UNL A   1      46.452  25.633  32.080  1.00  0.00     0.029 A 
ATOM     68  N   UNL A   1      46.462  27.794  32.124  1.00  0.00    -0.354 N 
ATOM     69  N   UNL A   1      46.245  30.427  28.653  1.00  0.00    -0.248 NA
ATOM     70  C   UNL A   1      44.959  31.278  30.412  1.00  0.00     0.031 C 
ATOM     71  C   UNL A   1      47.371  26.152  31.117  1.00  0.00     0.029 A 
ATOM     72  C   UNL A   1      47.047  27.498  30.928  1.00  0.00     0.049 A 
ATOM     73  H   UNL A   1      46.569  28.626  32.639  1.00  0.00     0.167 HD
ATOM     74  C   UNL A   1      46.436  29.606  29.774  1.00  0.00     0.074 A 
ATOM     75  C   UNL A   1      45.527  30.139  30.773  1.00  0.00     0.031 C 
ATOM     76  C   UNL A   1      47.198  28.468  29.850  1.00  0.00     0.037 A 
BRANCH  63  77
ATOM     77  C   UNL A   1      44.572  27.001  34.661  1.00  0.00     0.057 A 
ATOM     78  C   UNL A   1      44.082  25.881  35.350  1.00  0.00     0.134 A 
ATOM     79  C   UNL A   1      44.828  28.162  35.386  1.00  0.00     0.134 A 
ATOM     80  F   UNL A   1      43.788  24.754  34.679  1.00  0.00    -0.206 F 
ATOM     81  C   UNL A   1      43.802  25.929  36.710  1.00  0.00     0.040 A 
ATOM     82  C   UNL A   1      44.568  28.217  36.756  1.00  0.00     0.040 A 
ATOM     83  F   UNL A   1      45.264  29.271  34.769  1.00  0.00    -0.206 F 
ATOM     84  C   UNL A   1      44.035  27.106  37.416  1.00  0.00     0.006 A 
ENDBRANCH  63  77
BRANCH  64  85
ATOM     85  C   UNL A   1      43.759  33.343  28.267  1.00  0.00     0.057 A 
ATOM     86  C   UNL A   1      44.078  34.318  27.298  1.00  0.00     0.134 A 
ATOM     87  C   UNL A   1      42.914  33.780  29.297  1.00  0.00     0.134 A 
ATOM     88  F   UNL A   1      44.970  34.045  26.333  1.00  0.00    -0.206 F 
ATOM     89  C   UNL A   1      43.490  35.588  27.276  1.00  0.00     0.040 A 
ATOM     90  C   UNL A   1      42.305  35.046  29.279  1.00  0.00     0.040 A 
ATOM     91  F   UNL A   1      42.629  33.001  30.348  1.00  0.00    -0.206 F 
ATOM     92  C   UNL A   1      42.572  35.944  28.253  1.00  0.00     0.006 A 
ENDBRANCH  64  85
BRANCH  76  93
ATOM     93  C   UNL A   1      48.168  28.098  28.768  1.00  0.00     0.057 A 
ATOM     94  C   UNL A   1      49.545  28.096  29.014  1.00  0.00     0.134 A 
ATOM     95  C   UNL A   1      47.733  27.442  27.602  1.00  0.00     0.134 A 
ATOM     96  F   UNL A   1      50.046  28.696  30.104  1.00  0.00    -0.206 F 
ATOM     97  C   UNL A   1      50.433  27.402  28.184  1.00  0.00     0.040 A 
ATOM     98  C   UNL A   1      48.601  26.700  26.797  1.00  0.00     0.040 A 
ATOM     99  F   UNL A   1      46.437  27.459  27.247  1.00  0.00    -0.206 F 
ATOM    100  C   UNL A   1      49.957  26.670  27.096  1.00  0.00     0.006 A 
ENDBRANCH  76  93
ENDBRANCH  50  51
ENDBRANCH  43  45
ENDBRANCH  42  43
ENDBRANCH  41  42
ENDBRANCH  40  41
ENDBRANCH  39  40
ENDBRANCH  38  39
ENDBRANCH  37  38
ENDBRANCH  36  37
ENDBRANCH   1  36
TORSDOF 24
ENDMDL
MODEL 2
REMARK VINA RESULT:      -9.3      6.647     13.225
REMARK SMILES Cc1c(CCC(=O)N[C@@H](C)C(=O)OCCOCCOCCOCCOC(=O)c2ccc(-c3c4nc(c(-c5c(F)cccc5F)c5ccc([nH]5)c(-c5c(F)cccc5F)c5nc(c(-c6c(F)cccc6F)c6ccc3[nH]6)C=C5)C=C4)cc2)c(=O)oc2cc3oc4c(c3cc12)CCCC4
REMARK SMILES IDX 18 1 17 2 16 3 15 4 14 5 13 6 11 7 12 8 9 9 10 10 8 11 6 12
REMARK SMILES IDX 7 13 5 15 4 16 3 17 1 18 2 19 93 20 82 21 85 22 92 23 83 24
REMARK SMILES IDX 84 25 86 26 91 27 87 28 90 29 88 30 89 31 94 32 97 33 95 34
REMARK SMILES IDX 96 35 19 36 20 37 21 38 22 39 23 40 24 41 25 42 26 43 27 44
REMARK SMILES IDX 28 45 29 46 81 47 30 48 80 49 31 50 32 51 33 52 74 53 34 54
REMARK SMILES IDX 79 55 73 56 75 57 35 58 78 59 72 60 71 61 36 63 62 64 45 65
REMARK SMILES IDX 61 66 46 67 49 68 60 69 76 70 47 71 48 72 59 74 77 75 50 76
REMARK SMILES IDX 37 77 38 78 43 79 39 80 40 81 42 82 44 83 41 84 63 85 64 86
REMARK SMILES IDX 69 87 65 88 66 89 68 90 70 91 67 92 51 93 52 94 57 95 53 96
REMARK SMILES IDX 54 97 56 98 58 99 55 100
REMARK H PARENT 8 14 75 62 49 73
REMARK Flexibility Score: inf
ROOT
ATOM      1  C   UNL A   1      43.312  29.305  27.335  1.00  0.00     0.188 C 
ENDROOT
BRANCH   1   2
ATOM      2  C   UNL A   1      42.456  28.706  26.210  1.00  0.00     0.188 C 
BRANCH   2   3
ATOM      3  O   UNL A   1      41.507  27.770  26.670  1.00  0.00    -0.376 OA
BRANCH   3   4
ATOM      4  C   UNL A   1      41.950  26.472  27.054  1.00  0.00     0.202 C 
BRANCH   4   5
ATOM      5  C   UNL A   1      41.766  25.903  28.481  1.00  0.00     0.261 C 
BRANCH   5   6
ATOM      6  O   UNL A   1      40.951  24.723  28.626  1.00  0.00    -0.462 OA
BRANCH   6   7
ATOM      7  C   UNL A   1      41.353  23.613  27.943  1.00  0.00     0.328 C 
ATOM      8  O   UNL A   1      42.227  22.844  28.340  1.00  0.00    -0.250 OA
BRANCH   7   9
ATOM      9  C   UNL A   1      40.612  23.377  26.602  1.00  0.00     0.189 C 
ATOM     10  C   UNL A   1      39.257  24.082  26.463  1.00  0.00     0.043 C 
BRANCH   9  11
ATOM     11  N   UNL A   1      40.605  22.087  25.900  1.00  0.00    -0.343 N 
ATOM     12  C   UNL A   1      39.730  21.045  26.021  1.00  0.00     0.221 C 
ATOM     13  O   UNL A   1      40.197  19.904  26.054  1.00  0.00    -0.275 OA
ATOM     14  H   UNL A   1      41.334  21.953  25.251  1.00  0.00     0.164 HD
BRANCH  12  15
ATOM     15  C   UNL A   1      38.222  21.267  25.962  1.00  0.00     0.105 C 
BRANCH  15  16
ATOM     16  C   UNL A   1      37.556  21.248  24.575  1.00  0.00     0.053 C 
BRANCH  16  17
ATOM     17  C   UNL A   1      36.068  21.447  24.681  1.00  0.00     0.042 A 
ATOM     18  C   UNL A   1      36.251  23.984  24.664  1.00  0.00     0.046 C 
ATOM     19  C   UNL A   1      35.531  22.664  24.567  1.00  0.00    -0.030 A 
ATOM     20  C   UNL A   1      34.154  22.650  24.122  1.00  0.00     0.022 A 
ATOM     21  C   UNL A   1      35.152  20.270  24.877  1.00  0.00     0.339 A 
ATOM     22  C   UNL A   1      33.252  21.734  24.620  1.00  0.00     0.142 A 
ATOM     23  C   UNL A   1      33.754  23.525  23.142  1.00  0.00     0.024 A 
ATOM     24  O   UNL A   1      35.588  19.124  24.916  1.00  0.00    -0.246 OA
ATOM     25  O   UNL A   1      33.797  20.560  25.171  1.00  0.00    -0.422 OA
ATOM     26  C   UNL A   1      31.868  21.983  24.569  1.00  0.00     0.095 A 
ATOM     27  C   UNL A   1      32.406  23.757  22.976  1.00  0.00     0.025 A 
ATOM     28  C   UNL A   1      31.530  23.145  23.859  1.00  0.00     0.138 A 
ATOM     29  C   UNL A   1      31.791  24.874  22.394  1.00  0.00     0.001 A 
ATOM     30  O   UNL A   1      30.476  24.017  24.050  1.00  0.00    -0.461 OA
ATOM     31  C   UNL A   1      30.814  25.140  23.328  1.00  0.00     0.108 A 
ATOM     32  C   UNL A   1      32.510  25.992  21.716  1.00  0.00     0.040 C 
ATOM     33  C   UNL A   1      30.776  26.507  23.936  1.00  0.00     0.076 C 
ATOM     34  C   UNL A   1      33.156  26.825  22.838  1.00  0.00     0.005 C 
ATOM     35  C   UNL A   1      32.273  26.944  24.116  1.00  0.00     0.008 C 
ENDBRANCH  16  17
ENDBRANCH  15  16
ENDBRANCH  12  15
ENDBRANCH   9  11
ENDBRANCH   7   9
ENDBRANCH   6   7
ENDBRANCH   5   6
ENDBRANCH   4   5
ENDBRANCH   3   4
ENDBRANCH   2   3
ENDBRANCH   1   2
BRANCH   1  36
ATOM     36  O   UNL A   1      44.673  28.910  27.468  1.00  0.00    -0.377 OA
BRANCH  36  37
ATOM     37  C   UNL A   1      45.503  28.814  26.318  1.00  0.00     0.188 C 
BRANCH  37  38
ATOM     38  C   UNL A   1      46.683  29.781  26.163  1.00  0.00     0.188 C 
BRANCH  38  39
ATOM     39  O   UNL A   1      46.308  31.088  25.808  1.00  0.00    -0.376 OA
BRANCH  39  40
ATOM     40  C   UNL A   1      46.752  32.203  26.551  1.00  0.00     0.202 C 
BRANCH  40  41
ATOM     41  C   UNL A   1      45.866  33.177  27.354  1.00  0.00     0.261 C 
BRANCH  41  42
ATOM     42  O   UNL A   1      44.456  32.967  27.431  1.00  0.00    -0.460 OA
BRANCH  42  43
ATOM     43  C   UNL A   1      43.761  33.584  28.409  1.00  0.00     0.338 C 
ATOM     44  O   UNL A   1      43.280  33.081  29.412  1.00  0.00    -0.246 OA
BRANCH  43  45
ATOM     45  C   UNL A   1      43.813  35.030  28.114  1.00  0.00     0.060 A 
ATOM     46  C   UNL A   1      43.095  35.566  27.041  1.00  0.00     0.016 A 
ATOM     47  C   UNL A   1      44.688  35.835  28.846  1.00  0.00     0.016 A 
ATOM     48  C   UNL A   1      43.247  36.919  26.711  1.00  0.00     0.010 A 
ATOM     49  C   UNL A   1      44.884  37.162  28.470  1.00  0.00     0.010 A 
ATOM     50  C   UNL A   1      44.149  37.734  27.418  1.00  0.00    -0.014 A 
BRANCH  50  51
ATOM     51  C   UNL A   1      44.198  39.200  27.187  1.00  0.00     0.031 A 
ATOM     52  C   UNL A   1      43.657  40.054  28.290  1.00  0.00     0.074 A 
ATOM     53  C   UNL A   1      44.955  39.818  26.257  1.00  0.00     0.049 A 
ATOM     54  N   UNL A   1      44.380  40.454  29.298  1.00  0.00    -0.248 NA
ATOM     55  C   UNL A   1      42.225  40.303  28.448  1.00  0.00     0.031 C 
ATOM     56  C   UNL A   1      46.148  39.254  25.626  1.00  0.00     0.029 A 
ATOM     57  N   UNL A   1      44.911  41.109  25.780  1.00  0.00    -0.354 N 
ATOM     58  C   UNL A   1      43.511  40.980  30.237  1.00  0.00     0.074 A 
ATOM     59  C   UNL A   1      42.186  40.868  29.665  1.00  0.00     0.031 C 
ATOM     60  C   UNL A   1      46.780  40.230  24.945  1.00  0.00     0.029 A 
ATOM     61  C   UNL A   1      46.017  41.465  25.016  1.00  0.00     0.049 A 
ATOM     62  H   UNL A   1      44.165  41.724  25.963  1.00  0.00     0.167 HD
ATOM     63  C   UNL A   1      43.916  41.492  31.428  1.00  0.00     0.037 A 
ATOM     64  C   UNL A   1      46.613  42.689  24.925  1.00  0.00     0.037 A 
ATOM     65  C   UNL A   1      45.320  41.504  31.683  1.00  0.00     0.049 A 
ATOM     66  C   UNL A   1      46.860  43.082  26.368  1.00  0.00     0.074 A 
ATOM     67  C   UNL A   1      46.236  40.858  32.482  1.00  0.00     0.029 A 
ATOM     68  N   UNL A   1      46.054  42.501  31.089  1.00  0.00    -0.354 N 
ATOM     69  N   UNL A   1      47.868  42.715  27.128  1.00  0.00    -0.248 NA
ATOM     70  C   UNL A   1      45.703  43.601  27.090  1.00  0.00     0.031 C 
ATOM     71  C   UNL A   1      47.514  41.210  31.947  1.00  0.00     0.029 A 
ATOM     72  C   UNL A   1      47.281  41.978  30.803  1.00  0.00     0.049 A 
ATOM     73  H   UNL A   1      45.751  43.419  30.905  1.00  0.00     0.167 HD
ATOM     74  C   UNL A   1      47.373  42.724  28.441  1.00  0.00     0.074 A 
ATOM     75  C   UNL A   1      46.002  43.182  28.309  1.00  0.00     0.031 C 
ATOM     76  C   UNL A   1      48.002  42.259  29.568  1.00  0.00     0.037 A 
BRANCH  63  77
ATOM     77  C   UNL A   1      43.056  42.250  32.350  1.00  0.00     0.057 A 
ATOM     78  C   UNL A   1      42.809  43.594  32.038  1.00  0.00     0.134 A 
ATOM     79  C   UNL A   1      42.732  41.798  33.627  1.00  0.00     0.134 A 
ATOM     80  F   UNL A   1      43.143  44.077  30.828  1.00  0.00    -0.206 F 
ATOM     81  C   UNL A   1      42.307  44.481  32.983  1.00  0.00     0.040 A 
ATOM     82  C   UNL A   1      42.209  42.674  34.580  1.00  0.00     0.040 A 
ATOM     83  F   UNL A   1      42.981  40.530  33.987  1.00  0.00    -0.206 F 
ATOM     84  C   UNL A   1      42.015  44.021  34.264  1.00  0.00     0.006 A 
ENDBRANCH  63  77
BRANCH  64  85
ATOM     85  C   UNL A   1      45.966  43.571  23.891  1.00  0.00     0.057 A 
ATOM     86  C   UNL A   1      46.802  44.396  23.108  1.00  0.00     0.134 A 
ATOM     87  C   UNL A   1      44.602  43.636  23.576  1.00  0.00     0.134 A 
ATOM     88  F   UNL A   1      48.109  44.502  23.398  1.00  0.00    -0.206 F 
ATOM     89  C   UNL A   1      46.338  45.121  22.006  1.00  0.00     0.040 A 
ATOM     90  C   UNL A   1      44.123  44.347  22.463  1.00  0.00     0.040 A 
ATOM     91  F   UNL A   1      43.681  43.004  24.315  1.00  0.00    -0.206 F 
ATOM     92  C   UNL A   1      44.995  45.071  21.659  1.00  0.00     0.006 A 
ENDBRANCH  64  85
BRANCH  76  93
ATOM     93  C   UNL A   1      49.461  41.911  29.569  1.00  0.00     0.057 A 
ATOM     94  C   UNL A   1      50.409  42.815  30.056  1.00  0.00     0.134 A 
ATOM     95  C   UNL A   1      49.885  40.581  29.392  1.00  0.00     0.134 A 
ATOM     96  F   UNL A   1      50.089  44.102  30.258  1.00  0.00    -0.206 F 
ATOM     97  C   UNL A   1      51.692  42.395  30.429  1.00  0.00     0.040 A 
ATOM     98  C   UNL A   1      51.142  40.140  29.811  1.00  0.00     0.040 A 
ATOM     99  F   UNL A   1      49.063  39.662  28.856  1.00  0.00    -0.206 F 
ATOM    100  C   UNL A   1      52.047  41.049  30.345  1.00  0.00     0.006 A 
ENDBRANCH  76  93
ENDBRANCH  50  51
ENDBRANCH  43  45
ENDBRANCH  42  43
ENDBRANCH  41  42
ENDBRANCH  40  41
ENDBRANCH  39  40
ENDBRANCH  38  39
ENDBRANCH  37  38
ENDBRANCH  36  37
ENDBRANCH   1  36
TORSDOF 24
ENDMDL
MODEL 3
REMARK VINA RESULT:      -9.0      4.752     11.401
REMARK SMILES Cc1c(CCC(=O)N[C@@H](C)C(=O)OCCOCCOCCOCCOC(=O)c2ccc(-c3c4nc(c(-c5c(F)cccc5F)c5ccc([nH]5)c(-c5c(F)cccc5F)c5nc(c(-c6c(F)cccc6F)c6ccc3[nH]6)C=C5)C=C4)cc2)c(=O)oc2cc3oc4c(c3cc12)CCCC4
REMARK SMILES IDX 18 1 17 2 16 3 15 4 14 5 13 6 11 7 12 8 9 9 10 10 8 11 6 12
REMARK SMILES IDX 7 13 5 15 4 16 3 17 1 18 2 19 93 20 82 21 85 22 92 23 83 24
REMARK SMILES IDX 84 25 86 26 91 27 87 28 90 29 88 30 89 31 94 32 97 33 95 34
REMARK SMILES IDX 96 35 19 36 20 37 21 38 22 39 23 40 24 41 25 42 26 43 27 44
REMARK SMILES IDX 28 45 29 46 81 47 30 48 80 49 31 50 32 51 33 52 74 53 34 54
REMARK SMILES IDX 79 55 73 56 75 57 35 58 78 59 72 60 71 61 36 63 62 64 45 65
REMARK SMILES IDX 61 66 46 67 49 68 60 69 76 70 47 71 48 72 59 74 77 75 50 76
REMARK SMILES IDX 37 77 38 78 43 79 39 80 40 81 42 82 44 83 41 84 63 85 64 86
REMARK SMILES IDX 69 87 65 88 66 89 68 90 70 91 67 92 51 93 52 94 57 95 53 96
REMARK SMILES IDX 54 97 56 98 58 99 55 100
REMARK H PARENT 8 14 75 62 49 73
REMARK Flexibility Score: inf
ROOT
ATOM      1  C   UNL A   1      33.620  27.870  24.926  1.00  0.00     0.188 C 
ENDROOT
BRANCH   1   2
ATOM      2  C   UNL A   1      32.453  28.081  23.952  1.00  0.00     0.188 C 
BRANCH   2   3
ATOM      3  O   UNL A   1      31.315  27.312  24.272  1.00  0.00    -0.376 OA
BRANCH   3   4
ATOM      4  C   UNL A   1      31.125  26.059  23.623  1.00  0.00     0.202 C 
BRANCH   4   5
ATOM      5  C   UNL A   1      30.977  24.723  24.389  1.00  0.00     0.261 C 
BRANCH   5   6
ATOM      6  O   UNL A   1      31.535  24.653  25.716  1.00  0.00    -0.462 OA
BRANCH   6   7
ATOM      7  C   UNL A   1      30.874  23.873  26.618  1.00  0.00     0.328 C 
ATOM      8  O   UNL A   1      29.798  24.176  27.128  1.00  0.00    -0.250 OA
BRANCH   7   9
ATOM      9  C   UNL A   1      31.589  22.540  26.963  1.00  0.00     0.189 C 
ATOM     10  C   UNL A   1      32.871  22.673  27.794  1.00  0.00     0.043 C 
BRANCH   9  11
ATOM     11  N   UNL A   1      31.686  21.411  26.028  1.00  0.00    -0.343 N 
ATOM     12  C   UNL A   1      32.631  21.164  25.072  1.00  0.00     0.221 C 
ATOM     13  O   UNL A   1      32.243  20.760  23.973  1.00  0.00    -0.275 OA
ATOM     14  H   UNL A   1      30.970  20.739  26.099  1.00  0.00     0.164 HD
BRANCH  12  15
ATOM     15  C   UNL A   1      34.120  21.235  25.393  1.00  0.00     0.105 C 
BRANCH  15  16
ATOM     16  C   UNL A   1      35.087  21.477  24.221  1.00  0.00     0.053 C 
BRANCH  16  17
ATOM     17  C   UNL A   1      36.519  21.300  24.649  1.00  0.00     0.042 A 
ATOM     18  C   UNL A   1      37.084  23.758  24.310  1.00  0.00     0.046 C 
ATOM     19  C   UNL A   1      37.319  22.357  24.814  1.00  0.00    -0.030 A 
ATOM     20  C   UNL A   1      38.411  22.119  25.733  1.00  0.00     0.022 A 
ATOM     21  C   UNL A   1      37.067  19.930  24.937  1.00  0.00     0.339 A 
ATOM     22  C   UNL A   1      39.119  20.936  25.709  1.00  0.00     0.142 A 
ATOM     23  C   UNL A   1      38.708  23.062  26.686  1.00  0.00     0.024 A 
ATOM     24  O   UNL A   1      36.355  18.933  24.870  1.00  0.00    -0.246 OA
ATOM     25  O   UNL A   1      38.467  19.831  25.132  1.00  0.00    -0.422 OA
ATOM     26  C   UNL A   1      40.422  20.864  26.237  1.00  0.00     0.095 A 
ATOM     27  C   UNL A   1      39.935  23.006  27.309  1.00  0.00     0.025 A 
ATOM     28  C   UNL A   1      40.832  22.039  26.886  1.00  0.00     0.138 A 
ATOM     29  C   UNL A   1      40.624  24.047  27.946  1.00  0.00     0.001 A 
ATOM     30  O   UNL A   1      42.096  22.584  26.999  1.00  0.00    -0.461 OA
ATOM     31  C   UNL A   1      41.884  23.880  27.414  1.00  0.00     0.108 A 
ATOM     32  C   UNL A   1      40.080  25.416  28.182  1.00  0.00     0.040 C 
ATOM     33  C   UNL A   1      42.510  25.044  26.713  1.00  0.00     0.076 C 
ATOM     34  C   UNL A   1      40.103  26.123  26.815  1.00  0.00     0.005 C 
ATOM     35  C   UNL A   1      41.346  25.767  25.946  1.00  0.00     0.008 C 
ENDBRANCH  16  17
ENDBRANCH  15  16
ENDBRANCH  12  15
ENDBRANCH   9  11
ENDBRANCH   7   9
ENDBRANCH   6   7
ENDBRANCH   5   6
ENDBRANCH   4   5
ENDBRANCH   3   4
ENDBRANCH   2   3
ENDBRANCH   1   2
BRANCH   1  36
ATOM     36  O   UNL A   1      33.762  28.732  26.051  1.00  0.00    -0.377 OA
BRANCH  36  37
ATOM     37  C   UNL A   1      32.946  29.891  26.167  1.00  0.00     0.188 C 
BRANCH  37  38
ATOM     38  C   UNL A   1      33.278  30.936  27.239  1.00  0.00     0.188 C 
BRANCH  38  39
ATOM     39  O   UNL A   1      34.617  31.363  27.225  1.00  0.00    -0.376 OA
BRANCH  39  40
ATOM     40  C   UNL A   1      35.303  31.653  28.424  1.00  0.00     0.202 C 
BRANCH  40  41
ATOM     41  C   UNL A   1      35.406  33.032  29.106  1.00  0.00     0.261 C 
BRANCH  41  42
ATOM     42  O   UNL A   1      36.685  33.618  29.348  1.00  0.00    -0.460 OA
BRANCH  42  43
ATOM     43  C   UNL A   1      37.440  33.134  30.357  1.00  0.00     0.338 C 
ATOM     44  O   UNL A   1      37.100  32.358  31.236  1.00  0.00    -0.246 OA
BRANCH  43  45
ATOM     45  C   UNL A   1      38.817  33.610  30.118  1.00  0.00     0.060 A 
ATOM     46  C   UNL A   1      39.885  33.115  30.872  1.00  0.00     0.016 A 
ATOM     47  C   UNL A   1      39.021  34.652  29.211  1.00  0.00     0.016 A 
ATOM     48  C   UNL A   1      41.164  33.661  30.705  1.00  0.00     0.010 A 
ATOM     49  C   UNL A   1      40.282  35.234  29.100  1.00  0.00     0.010 A 
ATOM     50  C   UNL A   1      41.378  34.733  29.821  1.00  0.00    -0.014 A 
BRANCH  50  51
ATOM     51  C   UNL A   1      42.751  35.210  29.515  1.00  0.00     0.031 A 
ATOM     52  C   UNL A   1      42.844  36.398  28.610  1.00  0.00     0.074 A 
ATOM     53  C   UNL A   1      43.862  34.888  30.210  1.00  0.00     0.049 A 
ATOM     54  N   UNL A   1      42.798  37.626  29.044  1.00  0.00    -0.248 NA
ATOM     55  C   UNL A   1      42.750  36.276  27.156  1.00  0.00     0.031 C 
ATOM     56  C   UNL A   1      43.885  34.402  31.589  1.00  0.00     0.029 A 
ATOM     57  N   UNL A   1      45.193  35.052  29.898  1.00  0.00    -0.354 N 
ATOM     58  C   UNL A   1      42.641  38.442  27.939  1.00  0.00     0.074 A 
ATOM     59  C   UNL A   1      42.619  37.561  26.790  1.00  0.00     0.031 C 
ATOM     60  C   UNL A   1      45.156  34.423  32.035  1.00  0.00     0.029 A 
ATOM     61  C   UNL A   1      46.052  34.845  30.971  1.00  0.00     0.049 A 
ATOM     62  H   UNL A   1      45.507  35.294  28.997  1.00  0.00     0.167 HD
ATOM     63  C   UNL A   1      42.549  39.795  28.013  1.00  0.00     0.037 A 
ATOM     64  C   UNL A   1      47.236  35.472  31.228  1.00  0.00     0.037 A 
ATOM     65  C   UNL A   1      42.655  40.380  29.311  1.00  0.00     0.049 A 
ATOM     66  C   UNL A   1      46.892  36.945  31.147  1.00  0.00     0.074 A 
ATOM     67  C   UNL A   1      41.853  41.007  30.236  1.00  0.00     0.029 A 
ATOM     68  N   UNL A   1      43.918  40.511  29.834  1.00  0.00    -0.354 N 
ATOM     69  N   UNL A   1      46.361  37.690  32.092  1.00  0.00    -0.248 NA
ATOM     70  C   UNL A   1      46.791  37.499  29.800  1.00  0.00     0.031 C 
ATOM     71  C   UNL A   1      42.622  41.038  31.441  1.00  0.00     0.029 A 
ATOM     72  C   UNL A   1      43.809  40.347  31.184  1.00  0.00     0.049 A 
ATOM     73  H   UNL A   1      44.744  40.689  29.330  1.00  0.00     0.167 HD
ATOM     74  C   UNL A   1      45.636  38.688  31.424  1.00  0.00     0.074 A 
ATOM     75  C   UNL A   1      45.875  38.429  30.016  1.00  0.00     0.031 C 
ATOM     76  C   UNL A   1      44.779  39.603  31.979  1.00  0.00     0.037 A 
BRANCH  63  77
ATOM     77  C   UNL A   1      42.599  40.703  26.857  1.00  0.00     0.057 A 
ATOM     78  C   UNL A   1      41.398  40.934  26.171  1.00  0.00     0.134 A 
ATOM     79  C   UNL A   1      43.791  41.094  26.252  1.00  0.00     0.134 A 
ATOM     80  F   UNL A   1      40.230  40.537  26.706  1.00  0.00    -0.206 F 
ATOM     81  C   UNL A   1      41.383  41.487  24.896  1.00  0.00     0.040 A 
ATOM     82  C   UNL A   1      43.788  41.667  24.980  1.00  0.00     0.040 A 
ATOM     83  F   UNL A   1      44.969  40.864  26.852  1.00  0.00    -0.206 F 
ATOM     84  C   UNL A   1      42.585  41.846  24.292  1.00  0.00     0.006 A 
ENDBRANCH  63  77
BRANCH  64  85
ATOM     85  C   UNL A   1      48.400  34.820  30.532  1.00  0.00     0.057 A 
ATOM     86  C   UNL A   1      49.381  34.192  31.329  1.00  0.00     0.134 A 
ATOM     87  C   UNL A   1      48.604  34.720  29.149  1.00  0.00     0.134 A 
ATOM     88  F   UNL A   1      49.350  34.322  32.665  1.00  0.00    -0.206 F 
ATOM     89  C   UNL A   1      50.407  33.407  30.793  1.00  0.00     0.040 A 
ATOM     90  C   UNL A   1      49.620  33.923  28.596  1.00  0.00     0.040 A 
ATOM     91  F   UNL A   1      47.823  35.371  28.277  1.00  0.00    -0.206 F 
ATOM     92  C   UNL A   1      50.509  33.242  29.419  1.00  0.00     0.006 A 
ENDBRANCH  64  85
BRANCH  76  93
ATOM     93  C   UNL A   1      44.714  39.822  33.462  1.00  0.00     0.057 A 
ATOM     94  C   UNL A   1      44.014  38.934  34.284  1.00  0.00     0.134 A 
ATOM     95  C   UNL A   1      45.597  40.713  34.099  1.00  0.00     0.134 A 
ATOM     96  F   UNL A   1      43.154  38.049  33.760  1.00  0.00    -0.206 F 
ATOM     97  C   UNL A   1      44.247  38.880  35.664  1.00  0.00     0.040 A 
ATOM     98  C   UNL A   1      45.879  40.631  35.464  1.00  0.00     0.040 A 
ATOM     99  F   UNL A   1      46.253  41.652  33.395  1.00  0.00    -0.206 F 
ATOM    100  C   UNL A   1      45.210  39.701  36.250  1.00  0.00     0.006 A 
ENDBRANCH  76  93
ENDBRANCH  50  51
ENDBRANCH  43  45
ENDBRANCH  42  43
ENDBRANCH  41  42
ENDBRANCH  40  41
ENDBRANCH  39  40
ENDBRANCH  38  39
ENDBRANCH  37  38
ENDBRANCH  36  37
ENDBRANCH   1  36
TORSDOF 24
ENDMDL
