MODEL 1
REMARK VINA RESULT:      -8.6      0.000      0.000
REMARK SMILES O=C(COCC(=O)OCCOCCOCCOCCOC(=O)c1ccc(-c2c3nc(c(-c4c(F)cccc4F)c4ccc([nH]4)c(-c4c(F)cccc4F)c4nc(c(-c5c(F)cccc5F)c5ccc2[nH]5)C=C4)C=C3)cc1)/[NH+]=C1\S[C@@H]2CS(=O)(=O)C[C@H]2N1c1ccc(Cl)cc1
REMARK SMILES IDX 13 1 12 2 11 3 10 4 9 5 8 6 6 7 7 8 5 9 4 10 3 11 2 12 1 13
REMARK SMILES IDX 77 14 78 15 79 17 87 18 80 19 86 20 81 21 85 22 82 23 83 24
REMARK SMILES IDX 84 25 88 26 89 27 94 28 90 29 93 30 91 31 92 32 14 33 15 34
REMARK SMILES IDX 16 35 17 36 18 37 19 38 20 39 21 40 22 41 23 42 24 43 76 44
REMARK SMILES IDX 25 45 75 46 26 47 27 48 28 49 69 50 29 51 74 52 68 53 70 54
REMARK SMILES IDX 30 55 73 56 67 57 66 58 31 60 57 61 40 62 56 63 41 64 44 65
REMARK SMILES IDX 55 66 71 67 42 68 43 69 54 71 72 72 45 73 32 74 33 75 38 76
REMARK SMILES IDX 34 77 35 78 37 79 39 80 36 81 58 82 59 83 64 84 60 85 61 86
REMARK SMILES IDX 63 87 65 88 62 89 46 90 47 91 52 92 48 93 49 94 51 95 53 96
REMARK SMILES IDX 50 97
REMARK H PARENT 77 16 70 59 44 70
REMARK Flexibility Score: inf
ROOT
ATOM      1  C   UNL A   1      46.641  40.594  25.540  1.00  0.00     0.188 C 
ENDROOT
BRANCH   1   2
ATOM      2  C   UNL A   1      46.776  41.336  24.206  1.00  0.00     0.188 C 
BRANCH   2   3
ATOM      3  O   UNL A   1      45.546  41.782  23.625  1.00  0.00    -0.376 OA
BRANCH   3   4
ATOM      4  C   UNL A   1      45.561  43.027  22.934  1.00  0.00     0.202 C 
BRANCH   4   5
ATOM      5  C   UNL A   1      44.279  43.432  22.185  1.00  0.00     0.261 C 
BRANCH   5   6
ATOM      6  O   UNL A   1      43.272  42.404  22.086  1.00  0.00    -0.462 OA
BRANCH   6   7
ATOM      7  C   UNL A   1      42.002  42.834  21.844  1.00  0.00     0.332 C 
ATOM      8  O   UNL A   1      41.237  43.266  22.701  1.00  0.00    -0.250 OA
BRANCH   7   9
ATOM      9  C   UNL A   1      41.599  42.779  20.350  1.00  0.00     0.283 C 
BRANCH   9  10
ATOM     10  O   UNL A   1      41.050  43.874  19.632  1.00  0.00    -0.358 OA
BRANCH  10  11
ATOM     11  C   UNL A   1      41.591  44.015  18.333  1.00  0.00     0.288 C 
BRANCH  11  12
ATOM     12  C   UNL A   1      43.053  43.618  17.983  1.00  0.00     0.333 C 
ATOM     13  O   UNL A   1      43.268  42.659  17.242  1.00  0.00    -0.244 OA
ATOM     14  N   UNL A   1      44.084  44.334  18.533  1.00  0.00    -0.202 N 
ATOM     15  C   UNL A   1      44.242  45.577  18.233  1.00  0.00     0.319 C 
ATOM     16  H   UNL A   1      44.707  43.898  19.159  1.00  0.00     0.316 HD
ATOM     17  S   UNL A   1      43.125  46.526  17.198  1.00  0.00    -0.029 SA
ATOM     18  N   UNL A   1      45.213  46.445  18.741  1.00  0.00    -0.217 N 
ATOM     19  C   UNL A   1      43.399  47.894  18.330  1.00  0.00     0.120 C 
ATOM     20  C   UNL A   1      44.934  47.859  18.431  1.00  0.00     0.212 C 
ATOM     21  C   UNL A   1      42.964  49.290  17.999  1.00  0.00     0.156 C 
ATOM     22  C   UNL A   1      45.234  48.935  19.446  1.00  0.00     0.188 C 
ATOM     23  S   UNL A   1      44.136  50.268  18.940  1.00  0.00     0.155 S 
ATOM     24  O   UNL A   1      43.475  50.782  20.121  1.00  0.00    -0.229 OA
ATOM     25  O   UNL A   1      44.848  51.120  18.014  1.00  0.00    -0.229 OA
BRANCH  18  26
ATOM     26  C   UNL A   1      46.507  46.032  19.091  1.00  0.00     0.128 A 
ATOM     27  C   UNL A   1      46.854  45.781  20.427  1.00  0.00     0.053 A 
ATOM     28  C   UNL A   1      47.494  45.807  18.115  1.00  0.00     0.053 A 
ATOM     29  C   UNL A   1      48.132  45.329  20.779  1.00  0.00     0.025 A 
ATOM     30  C   UNL A   1      48.779  45.363  18.460  1.00  0.00     0.025 A 
ATOM     31  C   UNL A   1      49.090  45.123  19.793  1.00  0.00     0.041 A 
ATOM     32  Cl  UNL A   1      50.655  44.553  20.227  1.00  0.00    -0.084 Cl
ENDBRANCH  18  26
ENDBRANCH  11  12
ENDBRANCH  10  11
ENDBRANCH   9  10
ENDBRANCH   7   9
ENDBRANCH   6   7
ENDBRANCH   5   6
ENDBRANCH   4   5
ENDBRANCH   3   4
ENDBRANCH   2   3
ENDBRANCH   1   2
BRANCH   1  33
ATOM     33  O   UNL A   1      45.266  40.316  25.813  1.00  0.00    -0.377 OA
BRANCH  33  34
ATOM     34  C   UNL A   1      44.890  39.003  26.218  1.00  0.00     0.188 C 
BRANCH  34  35
ATOM     35  C   UNL A   1      44.497  38.784  27.682  1.00  0.00     0.188 C 
BRANCH  35  36
ATOM     36  O   UNL A   1      44.032  39.909  28.426  1.00  0.00    -0.376 OA
BRANCH  36  37
ATOM     37  C   UNL A   1      43.418  39.694  29.695  1.00  0.00     0.202 C 
BRANCH  37  38
ATOM     38  C   UNL A   1      44.241  38.962  30.758  1.00  0.00     0.261 C 
BRANCH  38  39
ATOM     39  O   UNL A   1      43.941  37.563  30.840  1.00  0.00    -0.460 OA
BRANCH  39  40
ATOM     40  C   UNL A   1      44.593  36.903  31.828  1.00  0.00     0.338 C 
ATOM     41  O   UNL A   1      44.914  37.322  32.921  1.00  0.00    -0.246 OA
BRANCH  40  42
ATOM     42  C   UNL A   1      44.734  35.493  31.431  1.00  0.00     0.060 A 
ATOM     43  C   UNL A   1      44.709  35.178  30.067  1.00  0.00     0.016 A 
ATOM     44  C   UNL A   1      44.807  34.491  32.400  1.00  0.00     0.016 A 
ATOM     45  C   UNL A   1      44.731  33.851  29.661  1.00  0.00     0.010 A 
ATOM     46  C   UNL A   1      44.794  33.158  31.995  1.00  0.00     0.010 A 
ATOM     47  C   UNL A   1      44.715  32.841  30.628  1.00  0.00    -0.014 A 
BRANCH  47  48
ATOM     48  C   UNL A   1      44.379  31.467  30.213  1.00  0.00     0.031 A 
ATOM     49  C   UNL A   1      45.509  30.510  29.967  1.00  0.00     0.074 A 
ATOM     50  C   UNL A   1      43.099  31.082  30.094  1.00  0.00     0.049 A 
ATOM     51  N   UNL A   1      45.475  29.280  29.530  1.00  0.00    -0.248 NA
ATOM     52  C   UNL A   1      46.865  31.014  30.250  1.00  0.00     0.031 C 
ATOM     53  C   UNL A   1      41.935  31.921  30.372  1.00  0.00     0.029 A 
ATOM     54  N   UNL A   1      42.569  29.885  29.696  1.00  0.00    -0.354 N 
ATOM     55  C   UNL A   1      46.800  28.868  29.472  1.00  0.00     0.074 A 
ATOM     56  C   UNL A   1      47.616  29.985  29.892  1.00  0.00     0.031 C 
ATOM     57  C   UNL A   1      40.821  31.214  30.115  1.00  0.00     0.029 A 
ATOM     58  C   UNL A   1      41.199  29.893  29.620  1.00  0.00     0.049 A 
ATOM     59  H   UNL A   1      43.118  29.094  29.485  1.00  0.00     0.167 HD
ATOM     60  C   UNL A   1      47.287  27.661  29.104  1.00  0.00     0.037 A 
ATOM     61  C   UNL A   1      40.358  28.945  29.167  1.00  0.00     0.037 A 
ATOM     62  C   UNL A   1      46.457  26.563  28.685  1.00  0.00     0.049 A 
ATOM     63  C   UNL A   1      40.930  27.639  28.682  1.00  0.00     0.074 A 
ATOM     64  C   UNL A   1      46.838  25.292  28.299  1.00  0.00     0.029 A 
ATOM     65  N   UNL A   1      45.073  26.617  28.589  1.00  0.00    -0.354 N 
ATOM     66  N   UNL A   1      42.183  27.246  28.640  1.00  0.00    -0.248 NA
ATOM     67  C   UNL A   1      39.973  26.643  28.183  1.00  0.00     0.031 C 
ATOM     68  C   UNL A   1      45.690  24.595  27.911  1.00  0.00     0.029 A 
ATOM     69  C   UNL A   1      44.587  25.409  28.120  1.00  0.00     0.049 A 
ATOM     70  H   UNL A   1      44.520  27.397  28.820  1.00  0.00     0.167 HD
ATOM     71  C   UNL A   1      42.161  25.949  28.144  1.00  0.00     0.074 A 
ATOM     72  C   UNL A   1      40.770  25.618  27.912  1.00  0.00     0.031 C 
ATOM     73  C   UNL A   1      43.194  25.104  27.905  1.00  0.00     0.037 A 
BRANCH  60  74
ATOM     74  C   UNL A   1      48.777  27.486  29.099  1.00  0.00     0.057 A 
ATOM     75  C   UNL A   1      49.560  27.781  27.975  1.00  0.00     0.134 A 
ATOM     76  C   UNL A   1      49.442  27.031  30.245  1.00  0.00     0.134 A 
ATOM     77  F   UNL A   1      48.986  28.202  26.838  1.00  0.00    -0.206 F 
ATOM     78  C   UNL A   1      50.946  27.608  27.983  1.00  0.00     0.040 A 
ATOM     79  C   UNL A   1      50.830  26.882  30.276  1.00  0.00     0.040 A 
ATOM     80  F   UNL A   1      48.754  26.727  31.357  1.00  0.00    -0.206 F 
ATOM     81  C   UNL A   1      51.584  27.164  29.140  1.00  0.00     0.006 A 
ENDBRANCH  60  74
BRANCH  61  82
ATOM     82  C   UNL A   1      38.897  29.202  29.129  1.00  0.00     0.057 A 
ATOM     83  C   UNL A   1      38.257  29.580  27.943  1.00  0.00     0.134 A 
ATOM     84  C   UNL A   1      38.106  29.094  30.280  1.00  0.00     0.134 A 
ATOM     85  F   UNL A   1      38.963  29.719  26.810  1.00  0.00    -0.206 F 
ATOM     86  C   UNL A   1      36.890  29.863  27.907  1.00  0.00     0.040 A 
ATOM     87  C   UNL A   1      36.734  29.344  30.252  1.00  0.00     0.040 A 
ATOM     88  F   UNL A   1      38.656  28.729  31.448  1.00  0.00    -0.206 F 
ATOM     89  C   UNL A   1      36.124  29.740  29.064  1.00  0.00     0.006 A 
ENDBRANCH  61  82
BRANCH  73  90
ATOM     90  C   UNL A   1      42.855  23.728  27.408  1.00  0.00     0.057 A 
ATOM     91  C   UNL A   1      42.495  22.690  28.278  1.00  0.00     0.134 A 
ATOM     92  C   UNL A   1      42.849  23.452  26.034  1.00  0.00     0.134 A 
ATOM     93  F   UNL A   1      42.492  22.886  29.605  1.00  0.00    -0.206 F 
ATOM     94  C   UNL A   1      42.168  21.420  27.800  1.00  0.00     0.040 A 
ATOM     95  C   UNL A   1      42.491  22.197  25.543  1.00  0.00     0.040 A 
ATOM     96  F   UNL A   1      43.172  24.405  25.146  1.00  0.00    -0.206 F 
ATOM     97  C   UNL A   1      42.156  21.174  26.428  1.00  0.00     0.006 A 
ENDBRANCH  73  90
ENDBRANCH  47  48
ENDBRANCH  40  42
ENDBRANCH  39  40
ENDBRANCH  38  39
ENDBRANCH  37  38
ENDBRANCH  36  37
ENDBRANCH  35  36
ENDBRANCH  34  35
ENDBRANCH  33  34
ENDBRANCH   1  33
TORSDOF 24
ENDMDL
MODEL 2
REMARK VINA RESULT:      -8.3      9.353     13.876
REMARK SMILES O=C(COCC(=O)OCCOCCOCCOCCOC(=O)c1ccc(-c2c3nc(c(-c4c(F)cccc4F)c4ccc([nH]4)c(-c4c(F)cccc4F)c4nc(c(-c5c(F)cccc5F)c5ccc2[nH]5)C=C4)C=C3)cc1)/[NH+]=C1\S[C@@H]2CS(=O)(=O)C[C@H]2N1c1ccc(Cl)cc1
REMARK SMILES IDX 13 1 12 2 11 3 10 4 9 5 8 6 6 7 7 8 5 9 4 10 3 11 2 12 1 13
REMARK SMILES IDX 77 14 78 15 79 17 87 18 80 19 86 20 81 21 85 22 82 23 83 24
REMARK SMILES IDX 84 25 88 26 89 27 94 28 90 29 93 30 91 31 92 32 14 33 15 34
REMARK SMILES IDX 16 35 17 36 18 37 19 38 20 39 21 40 22 41 23 42 24 43 76 44
REMARK SMILES IDX 25 45 75 46 26 47 27 48 28 49 69 50 29 51 74 52 68 53 70 54
REMARK SMILES IDX 30 55 73 56 67 57 66 58 31 60 57 61 40 62 56 63 41 64 44 65
REMARK SMILES IDX 55 66 71 67 42 68 43 69 54 71 72 72 45 73 32 74 33 75 38 76
REMARK SMILES IDX 34 77 35 78 37 79 39 80 36 81 58 82 59 83 64 84 60 85 61 86
REMARK SMILES IDX 63 87 65 88 62 89 46 90 47 91 52 92 48 93 49 94 51 95 53 96
REMARK SMILES IDX 50 97
REMARK H PARENT 77 16 70 59 44 70
REMARK Flexibility Score: inf
ROOT
ATOM      1  C   UNL A   1      35.910  32.626  27.981  1.00  0.00     0.188 C 
ENDROOT
BRANCH   1   2
ATOM      2  C   UNL A   1      35.522  31.160  28.202  1.00  0.00     0.188 C 
BRANCH   2   3
ATOM      3  O   UNL A   1      36.534  30.202  27.877  1.00  0.00    -0.376 OA
BRANCH   3   4
ATOM      4  C   UNL A   1      37.063  29.420  28.944  1.00  0.00     0.202 C 
BRANCH   4   5
ATOM      5  C   UNL A   1      38.595  29.337  29.064  1.00  0.00     0.261 C 
BRANCH   5   6
ATOM      6  O   UNL A   1      39.213  28.257  28.336  1.00  0.00    -0.462 OA
BRANCH   6   7
ATOM      7  C   UNL A   1      40.417  28.535  27.763  1.00  0.00     0.332 C 
ATOM      8  O   UNL A   1      41.194  29.401  28.157  1.00  0.00    -0.250 OA
BRANCH   7   9
ATOM      9  C   UNL A   1      40.766  27.617  26.567  1.00  0.00     0.283 C 
BRANCH   9  10
ATOM     10  O   UNL A   1      41.470  26.389  26.683  1.00  0.00    -0.358 OA
BRANCH  10  11
ATOM     11  C   UNL A   1      42.116  26.233  27.932  1.00  0.00     0.288 C 
BRANCH  11  12
ATOM     12  C   UNL A   1      43.547  26.773  28.210  1.00  0.00     0.333 C 
ATOM     13  O   UNL A   1      43.770  27.424  29.231  1.00  0.00    -0.244 OA
ATOM     14  N   UNL A   1      44.536  26.532  27.293  1.00  0.00    -0.202 N 
ATOM     15  C   UNL A   1      44.925  25.326  27.061  1.00  0.00     0.319 C 
ATOM     16  H   UNL A   1      44.952  27.283  26.810  1.00  0.00     0.316 HD
ATOM     17  S   UNL A   1      44.187  23.859  27.783  1.00  0.00    -0.029 SA
ATOM     18  N   UNL A   1      45.887  24.920  26.130  1.00  0.00    -0.217 N 
ATOM     19  C   UNL A   1      44.416  23.078  26.182  1.00  0.00     0.120 C 
ATOM     20  C   UNL A   1      45.879  23.464  25.899  1.00  0.00     0.212 C 
ATOM     21  C   UNL A   1      44.258  21.598  25.997  1.00  0.00     0.156 C 
ATOM     22  C   UNL A   1      46.116  22.911  24.515  1.00  0.00     0.188 C 
ATOM     23  S   UNL A   1      45.342  21.289  24.602  1.00  0.00     0.155 S 
ATOM     24  O   UNL A   1      44.535  21.108  23.414  1.00  0.00    -0.229 OA
ATOM     25  O   UNL A   1      46.340  20.329  25.020  1.00  0.00    -0.229 OA
BRANCH  18  26
ATOM     26  C   UNL A   1      47.011  25.690  25.799  1.00  0.00     0.128 A 
ATOM     27  C   UNL A   1      46.884  27.026  25.392  1.00  0.00     0.053 A 
ATOM     28  C   UNL A   1      48.314  25.169  25.908  1.00  0.00     0.053 A 
ATOM     29  C   UNL A   1      48.006  27.812  25.100  1.00  0.00     0.025 A 
ATOM     30  C   UNL A   1      49.441  25.948  25.608  1.00  0.00     0.025 A 
ATOM     31  C   UNL A   1      49.281  27.269  25.208  1.00  0.00     0.041 A 
ATOM     32  Cl  UNL A   1      50.658  28.241  24.863  1.00  0.00    -0.084 Cl
ENDBRANCH  18  26
ENDBRANCH  11  12
ENDBRANCH  10  11
ENDBRANCH   9  10
ENDBRANCH   7   9
ENDBRANCH   6   7
ENDBRANCH   5   6
ENDBRANCH   4   5
ENDBRANCH   3   4
ENDBRANCH   2   3
ENDBRANCH   1   2
BRANCH   1  33
ATOM     33  O   UNL A   1      34.738  33.432  27.848  1.00  0.00    -0.377 OA
BRANCH  33  34
ATOM     34  C   UNL A   1      34.614  34.613  28.635  1.00  0.00     0.188 C 
BRANCH  34  35
ATOM     35  C   UNL A   1      33.903  34.508  29.987  1.00  0.00     0.188 C 
BRANCH  35  36
ATOM     36  O   UNL A   1      34.686  34.656  31.170  1.00  0.00    -0.376 OA
BRANCH  36  37
ATOM     37  C   UNL A   1      34.273  33.993  32.362  1.00  0.00     0.202 C 
BRANCH  37  38
ATOM     38  C   UNL A   1      35.029  32.722  32.756  1.00  0.00     0.261 C 
BRANCH  38  39
ATOM     39  O   UNL A   1      35.761  32.856  33.981  1.00  0.00    -0.460 OA
BRANCH  39  40
ATOM     40  C   UNL A   1      36.844  33.667  33.905  1.00  0.00     0.338 C 
ATOM     41  O   UNL A   1      36.890  34.870  34.062  1.00  0.00    -0.246 OA
BRANCH  40  42
ATOM     42  C   UNL A   1      38.043  32.827  33.748  1.00  0.00     0.060 A 
ATOM     43  C   UNL A   1      39.272  33.330  34.191  1.00  0.00     0.016 A 
ATOM     44  C   UNL A   1      37.961  31.595  33.097  1.00  0.00     0.016 A 
ATOM     45  C   UNL A   1      40.437  32.612  33.961  1.00  0.00     0.010 A 
ATOM     46  C   UNL A   1      39.133  30.891  32.835  1.00  0.00     0.010 A 
ATOM     47  C   UNL A   1      40.373  31.421  33.232  1.00  0.00    -0.014 A 
BRANCH  47  48
ATOM     48  C   UNL A   1      41.620  30.855  32.685  1.00  0.00     0.031 A 
ATOM     49  C   UNL A   1      42.291  29.755  33.455  1.00  0.00     0.074 A 
ATOM     50  C   UNL A   1      42.115  31.294  31.517  1.00  0.00     0.049 A 
ATOM     51  N   UNL A   1      43.424  29.150  33.221  1.00  0.00    -0.248 NA
ATOM     52  C   UNL A   1      41.587  29.276  34.657  1.00  0.00     0.031 C 
ATOM     53  C   UNL A   1      41.501  32.313  30.668  1.00  0.00     0.029 A 
ATOM     54  N   UNL A   1      43.258  30.939  30.853  1.00  0.00    -0.354 N 
ATOM     55  C   UNL A   1      43.575  28.230  34.251  1.00  0.00     0.074 A 
ATOM     56  C   UNL A   1      42.434  28.374  35.127  1.00  0.00     0.031 C 
ATOM     57  C   UNL A   1      42.289  32.516  29.599  1.00  0.00     0.029 A 
ATOM     58  C   UNL A   1      43.475  31.671  29.714  1.00  0.00     0.049 A 
ATOM     59  H   UNL A   1      43.865  30.227  31.163  1.00  0.00     0.167 HD
ATOM     60  C   UNL A   1      44.578  27.343  34.442  1.00  0.00     0.037 A 
ATOM     61  C   UNL A   1      44.535  31.674  28.883  1.00  0.00     0.037 A 
ATOM     62  C   UNL A   1      45.708  27.220  33.560  1.00  0.00     0.049 A 
ATOM     63  C   UNL A   1      45.680  30.737  29.164  1.00  0.00     0.074 A 
ATOM     64  C   UNL A   1      46.780  26.350  33.648  1.00  0.00     0.029 A 
ATOM     65  N   UNL A   1      45.914  28.001  32.431  1.00  0.00    -0.354 N 
ATOM     66  N   UNL A   1      45.815  29.859  30.131  1.00  0.00    -0.248 NA
ATOM     67  C   UNL A   1      46.818  30.788  28.238  1.00  0.00     0.031 C 
ATOM     68  C   UNL A   1      47.664  26.646  32.607  1.00  0.00     0.029 A 
ATOM     69  C   UNL A   1      47.110  27.654  31.830  1.00  0.00     0.049 A 
ATOM     70  H   UNL A   1      45.299  28.697  32.107  1.00  0.00     0.167 HD
ATOM     71  C   UNL A   1      47.034  29.231  29.910  1.00  0.00     0.074 A 
ATOM     72  C   UNL A   1      47.593  29.822  28.711  1.00  0.00     0.031 C 
ATOM     73  C   UNL A   1      47.639  28.254  30.630  1.00  0.00     0.037 A 
BRANCH  60  74
ATOM     74  C   UNL A   1      44.516  26.478  35.666  1.00  0.00     0.057 A 
ATOM     75  C   UNL A   1      43.880  25.229  35.667  1.00  0.00     0.134 A 
ATOM     76  C   UNL A   1      45.117  26.894  36.861  1.00  0.00     0.134 A 
ATOM     77  F   UNL A   1      43.266  24.778  34.562  1.00  0.00    -0.206 F 
ATOM     78  C   UNL A   1      43.825  24.437  36.815  1.00  0.00     0.040 A 
ATOM     79  C   UNL A   1      45.095  26.098  38.007  1.00  0.00     0.040 A 
ATOM     80  F   UNL A   1      45.741  28.080  36.932  1.00  0.00    -0.206 F 
ATOM     81  C   UNL A   1      44.441  24.869  37.988  1.00  0.00     0.006 A 
ENDBRANCH  60  74
BRANCH  61  82
ATOM     82  C   UNL A   1      44.573  32.605  27.727  1.00  0.00     0.057 A 
ATOM     83  C   UNL A   1      44.084  32.225  26.472  1.00  0.00     0.134 A 
ATOM     84  C   UNL A   1      45.114  33.891  27.844  1.00  0.00     0.134 A 
ATOM     85  F   UNL A   1      43.570  30.999  26.291  1.00  0.00    -0.206 F 
ATOM     86  C   UNL A   1      44.153  33.080  25.371  1.00  0.00     0.040 A 
ATOM     87  C   UNL A   1      45.163  34.767  26.759  1.00  0.00     0.040 A 
ATOM     88  F   UNL A   1      45.594  34.321  29.021  1.00  0.00    -0.206 F 
ATOM     89  C   UNL A   1      44.690  34.358  25.514  1.00  0.00     0.006 A 
ENDBRANCH  61  82
BRANCH  73  90
ATOM     90  C   UNL A   1      48.949  27.731  30.114  1.00  0.00     0.057 A 
ATOM     91  C   UNL A   1      50.167  28.360  30.401  1.00  0.00     0.134 A 
ATOM     92  C   UNL A   1      48.992  26.554  29.354  1.00  0.00     0.134 A 
ATOM     93  F   UNL A   1      50.194  29.495  31.115  1.00  0.00    -0.206 F 
ATOM     94  C   UNL A   1      51.378  27.853  29.928  1.00  0.00     0.040 A 
ATOM     95  C   UNL A   1      50.199  26.020  28.904  1.00  0.00     0.040 A 
ATOM     96  F   UNL A   1      47.862  25.895  29.053  1.00  0.00    -0.206 F 
ATOM     97  C   UNL A   1      51.396  26.674  29.184  1.00  0.00     0.006 A 
ENDBRANCH  73  90
ENDBRANCH  47  48
ENDBRANCH  40  42
ENDBRANCH  39  40
ENDBRANCH  38  39
ENDBRANCH  37  38
ENDBRANCH  36  37
ENDBRANCH  35  36
ENDBRANCH  34  35
ENDBRANCH  33  34
ENDBRANCH   1  33
TORSDOF 24
ENDMDL
MODEL 3
REMARK VINA RESULT:      -7.9      9.424     14.848
REMARK SMILES O=C(COCC(=O)OCCOCCOCCOCCOC(=O)c1ccc(-c2c3nc(c(-c4c(F)cccc4F)c4ccc([nH]4)c(-c4c(F)cccc4F)c4nc(c(-c5c(F)cccc5F)c5ccc2[nH]5)C=C4)C=C3)cc1)/[NH+]=C1\S[C@@H]2CS(=O)(=O)C[C@H]2N1c1ccc(Cl)cc1
REMARK SMILES IDX 13 1 12 2 11 3 10 4 9 5 8 6 6 7 7 8 5 9 4 10 3 11 2 12 1 13
REMARK SMILES IDX 77 14 78 15 79 17 87 18 80 19 86 20 81 21 85 22 82 23 83 24
REMARK SMILES IDX 84 25 88 26 89 27 94 28 90 29 93 30 91 31 92 32 14 33 15 34
REMARK SMILES IDX 16 35 17 36 18 37 19 38 20 39 21 40 22 41 23 42 24 43 76 44
REMARK SMILES IDX 25 45 75 46 26 47 27 48 28 49 69 50 29 51 74 52 68 53 70 54
REMARK SMILES IDX 30 55 73 56 67 57 66 58 31 60 57 61 40 62 56 63 41 64 44 65
REMARK SMILES IDX 55 66 71 67 42 68 43 69 54 71 72 72 45 73 32 74 33 75 38 76
REMARK SMILES IDX 34 77 35 78 37 79 39 80 36 81 58 82 59 83 64 84 60 85 61 86
REMARK SMILES IDX 63 87 65 88 62 89 46 90 47 91 52 92 48 93 49 94 51 95 53 96
REMARK SMILES IDX 50 97
REMARK H PARENT 77 16 70 59 44 70
REMARK Flexibility Score: inf
ROOT
ATOM      1  C   UNL A   1      41.788  35.225  34.218  1.00  0.00     0.188 C 
ENDROOT
BRANCH   1   2
ATOM      2  C   UNL A   1      41.013  34.485  33.123  1.00  0.00     0.188 C 
BRANCH   2   3
ATOM      3  O   UNL A   1      40.734  33.108  33.393  1.00  0.00    -0.376 OA
BRANCH   3   4
ATOM      4  C   UNL A   1      40.503  32.254  32.277  1.00  0.00     0.202 C 
BRANCH   4   5
ATOM      5  C   UNL A   1      39.603  31.027  32.503  1.00  0.00     0.261 C 
BRANCH   5   6
ATOM      6  O   UNL A   1      40.287  29.829  32.922  1.00  0.00    -0.462 OA
BRANCH   6   7
ATOM      7  C   UNL A   1      39.890  28.673  32.321  1.00  0.00     0.332 C 
ATOM      8  O   UNL A   1      39.290  27.763  32.887  1.00  0.00    -0.250 OA
BRANCH   7   9
ATOM      9  C   UNL A   1      40.219  28.609  30.810  1.00  0.00     0.283 C 
BRANCH   9  10
ATOM     10  O   UNL A   1      41.530  28.454  30.286  1.00  0.00    -0.358 OA
BRANCH  10  11
ATOM     11  C   UNL A   1      41.583  28.564  28.876  1.00  0.00     0.288 C 
BRANCH  11  12
ATOM     12  C   UNL A   1      40.954  27.504  27.927  1.00  0.00     0.333 C 
ATOM     13  O   UNL A   1      39.985  27.803  27.230  1.00  0.00    -0.244 OA
ATOM     14  N   UNL A   1      41.482  26.240  27.904  1.00  0.00    -0.202 N 
ATOM     15  C   UNL A   1      42.686  26.047  27.489  1.00  0.00     0.319 C 
ATOM     16  H   UNL A   1      40.939  25.475  28.205  1.00  0.00     0.316 HD
ATOM     17  S   UNL A   1      43.823  27.352  27.016  1.00  0.00    -0.029 SA
ATOM     18  N   UNL A   1      43.373  24.830  27.446  1.00  0.00    -0.217 N 
ATOM     19  C   UNL A   1      45.108  26.384  27.814  1.00  0.00     0.120 C 
ATOM     20  C   UNL A   1      44.819  24.999  27.210  1.00  0.00     0.212 C 
ATOM     21  C   UNL A   1      46.562  26.701  27.631  1.00  0.00     0.156 C 
ATOM     22  C   UNL A   1      45.814  24.106  27.909  1.00  0.00     0.188 C 
ATOM     23  S   UNL A   1      47.319  25.093  27.876  1.00  0.00     0.155 S 
ATOM     24  O   UNL A   1      47.915  25.053  29.194  1.00  0.00    -0.229 OA
ATOM     25  O   UNL A   1      48.055  24.762  26.676  1.00  0.00    -0.229 OA
BRANCH  18  26
ATOM     26  C   UNL A   1      42.746  23.601  27.197  1.00  0.00     0.128 A 
ATOM     27  C   UNL A   1      42.648  23.084  25.897  1.00  0.00     0.053 A 
ATOM     28  C   UNL A   1      42.233  22.814  28.244  1.00  0.00     0.053 A 
ATOM     29  C   UNL A   1      42.060  21.838  25.646  1.00  0.00     0.025 A 
ATOM     30  C   UNL A   1      41.634  21.570  28.000  1.00  0.00     0.025 A 
ATOM     31  C   UNL A   1      41.554  21.086  26.700  1.00  0.00     0.041 A 
ATOM     32  Cl  UNL A   1      40.845  19.549  26.392  1.00  0.00    -0.084 Cl
ENDBRANCH  18  26
ENDBRANCH  11  12
ENDBRANCH  10  11
ENDBRANCH   9  10
ENDBRANCH   7   9
ENDBRANCH   6   7
ENDBRANCH   5   6
ENDBRANCH   4   5
ENDBRANCH   3   4
ENDBRANCH   2   3
ENDBRANCH   1   2
BRANCH   1  33
ATOM     33  O   UNL A   1      43.143  35.428  33.813  1.00  0.00    -0.377 OA
BRANCH  33  34
ATOM     34  C   UNL A   1      43.431  36.405  32.816  1.00  0.00     0.188 C 
BRANCH  34  35
ATOM     35  C   UNL A   1      44.003  35.925  31.479  1.00  0.00     0.188 C 
BRANCH  35  36
ATOM     36  O   UNL A   1      43.508  36.526  30.284  1.00  0.00    -0.376 OA
BRANCH  36  37
ATOM     37  C   UNL A   1      42.704  35.749  29.401  1.00  0.00     0.202 C 
BRANCH  37  38
ATOM     38  C   UNL A   1      42.760  34.228  29.555  1.00  0.00     0.261 C 
BRANCH  38  39
ATOM     39  O   UNL A   1      43.477  33.578  28.498  1.00  0.00    -0.460 OA
BRANCH  39  40
ATOM     40  C   UNL A   1      44.810  33.460  28.711  1.00  0.00     0.338 C 
ATOM     41  O   UNL A   1      45.681  34.270  28.468  1.00  0.00    -0.246 OA
BRANCH  40  42
ATOM     42  C   UNL A   1      45.053  32.212  29.453  1.00  0.00     0.060 A 
ATOM     43  C   UNL A   1      45.734  32.285  30.675  1.00  0.00     0.016 A 
ATOM     44  C   UNL A   1      44.684  30.982  28.907  1.00  0.00     0.016 A 
ATOM     45  C   UNL A   1      46.075  31.120  31.348  1.00  0.00     0.010 A 
ATOM     46  C   UNL A   1      45.056  29.812  29.565  1.00  0.00     0.010 A 
ATOM     47  C   UNL A   1      45.786  29.884  30.764  1.00  0.00    -0.014 A 
BRANCH  47  48
ATOM     48  C   UNL A   1      46.454  28.678  31.288  1.00  0.00     0.031 A 
ATOM     49  C   UNL A   1      45.719  27.853  32.304  1.00  0.00     0.074 A 
ATOM     50  C   UNL A   1      47.666  28.318  30.840  1.00  0.00     0.049 A 
ATOM     51  N   UNL A   1      46.118  26.797  32.962  1.00  0.00    -0.248 NA
ATOM     52  C   UNL A   1      44.346  28.281  32.624  1.00  0.00     0.031 C 
ATOM     53  C   UNL A   1      48.430  29.020  29.810  1.00  0.00     0.029 A 
ATOM     54  N   UNL A   1      48.470  27.273  31.207  1.00  0.00    -0.354 N 
ATOM     55  C   UNL A   1      45.053  26.445  33.781  1.00  0.00     0.074 A 
ATOM     56  C   UNL A   1      44.002  27.411  33.561  1.00  0.00     0.031 C 
ATOM     57  C   UNL A   1      49.607  28.394  29.642  1.00  0.00     0.029 A 
ATOM     58  C   UNL A   1      49.689  27.276  30.578  1.00  0.00     0.049 A 
ATOM     59  H   UNL A   1      48.199  26.586  31.860  1.00  0.00     0.167 HD
ATOM     60  C   UNL A   1      44.966  25.401  34.638  1.00  0.00     0.037 A 
ATOM     61  C   UNL A   1      50.757  26.480  30.771  1.00  0.00     0.037 A 
ATOM     62  C   UNL A   1      46.027  24.453  34.846  1.00  0.00     0.049 A 
ATOM     63  C   UNL A   1      50.666  25.377  31.793  1.00  0.00     0.074 A 
ATOM     64  C   UNL A   1      46.048  23.351  35.682  1.00  0.00     0.029 A 
ATOM     65  N   UNL A   1      47.263  24.504  34.216  1.00  0.00    -0.354 N 
ATOM     66  N   UNL A   1      49.654  25.037  32.558  1.00  0.00    -0.248 NA
ATOM     67  C   UNL A   1      51.862  24.546  31.977  1.00  0.00     0.031 C 
ATOM     68  C   UNL A   1      47.317  22.772  35.602  1.00  0.00     0.029 A 
ATOM     69  C   UNL A   1      48.064  23.471  34.667  1.00  0.00     0.049 A 
ATOM     70  H   UNL A   1      47.528  25.176  33.548  1.00  0.00     0.167 HD
ATOM     71  C   UNL A   1      50.080  23.935  33.287  1.00  0.00     0.074 A 
ATOM     72  C   UNL A   1      51.437  23.656  32.864  1.00  0.00     0.031 C 
ATOM     73  C   UNL A   1      49.412  23.213  34.221  1.00  0.00     0.037 A 
BRANCH  60  74
ATOM     74  C   UNL A   1      43.704  25.265  35.437  1.00  0.00     0.057 A 
ATOM     75  C   UNL A   1      43.445  26.052  36.567  1.00  0.00     0.134 A 
ATOM     76  C   UNL A   1      42.721  24.340  35.059  1.00  0.00     0.134 A 
ATOM     77  F   UNL A   1      44.352  26.942  36.997  1.00  0.00    -0.206 F 
ATOM     78  C   UNL A   1      42.268  25.909  37.305  1.00  0.00     0.040 A 
ATOM     79  C   UNL A   1      41.527  24.209  35.769  1.00  0.00     0.040 A 
ATOM     80  F   UNL A   1      42.903  23.552  33.988  1.00  0.00    -0.206 F 
ATOM     81  C   UNL A   1      41.301  24.990  36.900  1.00  0.00     0.006 A 
ENDBRANCH  60  74
BRANCH  61  82
ATOM     82  C   UNL A   1      52.006  26.709  30.001  1.00  0.00     0.057 A 
ATOM     83  C   UNL A   1      53.070  27.438  30.544  1.00  0.00     0.134 A 
ATOM     84  C   UNL A   1      52.160  26.220  28.698  1.00  0.00     0.134 A 
ATOM     85  F   UNL A   1      52.977  27.948  31.781  1.00  0.00    -0.206 F 
ATOM     86  C   UNL A   1      54.231  27.692  29.812  1.00  0.00     0.040 A 
ATOM     87  C   UNL A   1      53.327  26.441  27.966  1.00  0.00     0.040 A 
ATOM     88  F   UNL A   1      51.180  25.507  28.121  1.00  0.00    -0.206 F 
ATOM     89  C   UNL A   1      54.364  27.188  28.519  1.00  0.00     0.006 A 
ENDBRANCH  61  82
BRANCH  73  90
ATOM     90  C   UNL A   1      50.121  22.028  34.812  1.00  0.00     0.057 A 
ATOM     91  C   UNL A   1      49.970  20.735  34.294  1.00  0.00     0.134 A 
ATOM     92  C   UNL A   1      51.003  22.195  35.889  1.00  0.00     0.134 A 
ATOM     93  F   UNL A   1      49.133  20.507  33.271  1.00  0.00    -0.206 F 
ATOM     94  C   UNL A   1      50.648  19.647  34.844  1.00  0.00     0.040 A 
ATOM     95  C   UNL A   1      51.712  21.120  36.424  1.00  0.00     0.040 A 
ATOM     96  F   UNL A   1      51.203  23.409  36.424  1.00  0.00    -0.206 F 
ATOM     97  C   UNL A   1      51.529  19.840  35.907  1.00  0.00     0.006 A 
ENDBRANCH  73  90
ENDBRANCH  47  48
ENDBRANCH  40  42
ENDBRANCH  39  40
ENDBRANCH  38  39
ENDBRANCH  37  38
ENDBRANCH  36  37
ENDBRANCH  35  36
ENDBRANCH  34  35
ENDBRANCH  33  34
ENDBRANCH   1  33
TORSDOF 24
ENDMDL
