MODEL 1
REMARK VINA RESULT:     -10.5      0.000      0.000
REMARK SMILES O=C(OCCOCCOCCOCCOC(=O)c1ccc(-c2c3nc(c(-c4c(F)cccc4F)c4ccc([nH]4)c(-c4c(F)cccc4F)c4nc(c(-c5c(F)cccc5F)c5ccc2[nH]5)C=C4)C=C3)cc1)c1ccc(/N=C\c2ccccc2O)cc1
REMARK SMILES IDX 8 1 7 2 6 3 5 4 4 5 3 6 2 7 1 8 72 9 73 10 86 11 74 12 85 13
REMARK SMILES IDX 75 14 76 15 77 16 78 17 79 18 83 19 80 20 82 21 81 22 84 23
REMARK SMILES IDX 9 25 10 26 11 27 12 28 13 29 14 30 15 31 16 32 17 33 18 34
REMARK SMILES IDX 19 35 71 36 20 37 70 38 21 39 22 40 23 41 64 42 24 43 69 44
REMARK SMILES IDX 63 45 65 46 25 47 68 48 62 49 61 50 26 52 52 53 35 54 51 55
REMARK SMILES IDX 36 56 39 57 50 58 66 59 37 60 38 61 49 63 67 64 40 65 27 66
REMARK SMILES IDX 28 67 33 68 29 69 30 70 32 71 34 72 31 73 53 74 54 75 59 76
REMARK SMILES IDX 55 77 56 78 58 79 60 80 57 81 41 82 42 83 47 84 43 85 44 86
REMARK SMILES IDX 46 87 48 88 45 89
REMARK H PARENT 84 24 65 51 39 62
REMARK Flexibility Score: inf
ROOT
ATOM      1  C   UNL A   1      34.349  31.010  27.944  1.00  0.00     0.188 C 
ENDROOT
BRANCH   1   2
ATOM      2  C   UNL A   1      33.781  29.868  27.099  1.00  0.00     0.188 C 
BRANCH   2   3
ATOM      3  O   UNL A   1      32.351  29.906  27.009  1.00  0.00    -0.376 OA
BRANCH   3   4
ATOM      4  C   UNL A   1      31.828  30.201  25.718  1.00  0.00     0.202 C 
BRANCH   4   5
ATOM      5  C   UNL A   1      32.230  29.259  24.588  1.00  0.00     0.261 C 
BRANCH   5   6
ATOM      6  O   UNL A   1      31.163  28.796  23.755  1.00  0.00    -0.460 OA
BRANCH   6   7
ATOM      7  C   UNL A   1      30.613  27.565  23.663  1.00  0.00     0.338 C 
ATOM      8  O   UNL A   1      29.656  27.431  22.898  1.00  0.00    -0.246 OA
BRANCH   7   9
ATOM      9  C   UNL A   1      31.062  26.358  24.434  1.00  0.00     0.060 A 
ATOM     10  C   UNL A   1      30.450  25.102  24.438  1.00  0.00     0.018 A 
ATOM     11  C   UNL A   1      32.159  26.549  25.296  1.00  0.00     0.018 A 
ATOM     12  C   UNL A   1      30.823  24.124  25.363  1.00  0.00     0.029 A 
ATOM     13  C   UNL A   1      32.526  25.573  26.226  1.00  0.00     0.029 A 
ATOM     14  C   UNL A   1      31.763  24.411  26.344  1.00  0.00     0.063 A 
BRANCH  14  15
ATOM     15  N   UNL A   1      31.754  23.608  27.496  1.00  0.00    -0.256 NA
ATOM     16  C   UNL A   1      32.560  22.585  27.579  1.00  0.00     0.123 C 
BRANCH  16  17
ATOM     17  C   UNL A   1      33.477  22.076  26.533  1.00  0.00     0.035 A 
ATOM     18  C   UNL A   1      34.761  22.630  26.548  1.00  0.00     0.013 A 
ATOM     19  C   UNL A   1      33.190  20.994  25.691  1.00  0.00     0.124 A 
ATOM     20  C   UNL A   1      35.776  22.049  25.789  1.00  0.00     0.001 A 
ATOM     21  C   UNL A   1      34.209  20.413  24.939  1.00  0.00     0.047 A 
ATOM     22  C   UNL A   1      35.505  20.927  25.005  1.00  0.00     0.004 A 
BRANCH  19  23
ATOM     23  O   UNL A   1      31.954  20.422  25.577  1.00  0.00    -0.507 OA
ATOM     24  H   UNL A   1      31.850  19.500  25.706  1.00  0.00     0.293 HD
ENDBRANCH  19  23
ENDBRANCH  16  17
ENDBRANCH  14  15
ENDBRANCH   7   9
ENDBRANCH   6   7
ENDBRANCH   5   6
ENDBRANCH   4   5
ENDBRANCH   3   4
ENDBRANCH   2   3
ENDBRANCH   1   2
BRANCH   1  25
ATOM     25  O   UNL A   1      33.625  32.238  27.903  1.00  0.00    -0.377 OA
BRANCH  25  26
ATOM     26  C   UNL A   1      34.345  33.424  28.213  1.00  0.00     0.188 C 
BRANCH  26  27
ATOM     27  C   UNL A   1      33.556  34.706  28.548  1.00  0.00     0.188 C 
BRANCH  27  28
ATOM     28  O   UNL A   1      33.004  34.706  29.852  1.00  0.00    -0.376 OA
BRANCH  28  29
ATOM     29  C   UNL A   1      33.669  35.497  30.825  1.00  0.00     0.202 C 
BRANCH  29  30
ATOM     30  C   UNL A   1      34.495  34.783  31.910  1.00  0.00     0.261 C 
BRANCH  30  31
ATOM     31  O   UNL A   1      35.486  33.844  31.457  1.00  0.00    -0.460 OA
BRANCH  31  32
ATOM     32  C   UNL A   1      35.825  32.807  32.254  1.00  0.00     0.338 C 
ATOM     33  O   UNL A   1      35.183  32.359  33.188  1.00  0.00    -0.246 OA
BRANCH  32  34
ATOM     34  C   UNL A   1      36.999  32.142  31.625  1.00  0.00     0.060 A 
ATOM     35  C   UNL A   1      37.940  31.514  32.456  1.00  0.00     0.016 A 
ATOM     36  C   UNL A   1      37.094  31.996  30.236  1.00  0.00     0.016 A 
ATOM     37  C   UNL A   1      38.965  30.735  31.902  1.00  0.00     0.010 A 
ATOM     38  C   UNL A   1      38.134  31.238  29.682  1.00  0.00     0.010 A 
ATOM     39  C   UNL A   1      39.083  30.612  30.510  1.00  0.00    -0.014 A 
BRANCH  39  40
ATOM     40  C   UNL A   1      40.302  30.007  29.911  1.00  0.00     0.031 A 
ATOM     41  C   UNL A   1      41.490  30.903  29.685  1.00  0.00     0.074 A 
ATOM     42  C   UNL A   1      40.369  28.708  29.559  1.00  0.00     0.049 A 
ATOM     43  N   UNL A   1      42.635  30.641  29.110  1.00  0.00    -0.248 NA
ATOM     44  C   UNL A   1      41.364  32.285  30.175  1.00  0.00     0.031 C 
ATOM     45  C   UNL A   1      39.310  27.719  29.751  1.00  0.00     0.029 A 
ATOM     46  N   UNL A   1      41.378  28.003  28.946  1.00  0.00    -0.354 N 
ATOM     47  C   UNL A   1      43.360  31.823  29.164  1.00  0.00     0.074 A 
ATOM     48  C   UNL A   1      42.523  32.810  29.810  1.00  0.00     0.031 C 
ATOM     49  C   UNL A   1      39.717  26.540  29.242  1.00  0.00     0.029 A 
ATOM     50  C   UNL A   1      41.050  26.699  28.659  1.00  0.00     0.049 A 
ATOM     51  H   UNL A   1      42.256  28.396  28.732  1.00  0.00     0.167 HD
ATOM     52  C   UNL A   1      44.614  32.070  28.717  1.00  0.00     0.037 A 
ATOM     53  C   UNL A   1      41.733  25.756  27.975  1.00  0.00     0.037 A 
ATOM     54  C   UNL A   1      45.450  31.097  28.068  1.00  0.00     0.049 A 
ATOM     55  C   UNL A   1      43.095  26.083  27.409  1.00  0.00     0.074 A 
ATOM     56  C   UNL A   1      46.748  31.249  27.611  1.00  0.00     0.029 A 
ATOM     57  N   UNL A   1      45.068  29.800  27.769  1.00  0.00    -0.354 N 
ATOM     58  N   UNL A   1      43.791  27.190  27.509  1.00  0.00    -0.248 NA
ATOM     59  C   UNL A   1      43.763  25.030  26.626  1.00  0.00     0.031 C 
ATOM     60  C   UNL A   1      47.130  30.061  26.983  1.00  0.00     0.029 A 
ATOM     61  C   UNL A   1      46.091  29.152  27.099  1.00  0.00     0.049 A 
ATOM     62  H   UNL A   1      44.199  29.399  27.998  1.00  0.00     0.167 HD
ATOM     63  C   UNL A   1      44.981  26.958  26.826  1.00  0.00     0.074 A 
ATOM     64  C   UNL A   1      44.924  25.599  26.334  1.00  0.00     0.031 C 
ATOM     65  C   UNL A   1      46.026  27.796  26.620  1.00  0.00     0.037 A 
BRANCH  52  66
ATOM     66  C   UNL A   1      45.151  33.457  28.888  1.00  0.00     0.057 A 
ATOM     67  C   UNL A   1      45.906  33.825  30.009  1.00  0.00     0.134 A 
ATOM     68  C   UNL A   1      44.959  34.421  27.890  1.00  0.00     0.134 A 
ATOM     69  F   UNL A   1      46.110  32.952  31.006  1.00  0.00    -0.206 F 
ATOM     70  C   UNL A   1      46.445  35.106  30.134  1.00  0.00     0.040 A 
ATOM     71  C   UNL A   1      45.512  35.697  27.993  1.00  0.00     0.040 A 
ATOM     72  F   UNL A   1      44.244  34.130  26.792  1.00  0.00    -0.206 F 
ATOM     73  C   UNL A   1      46.257  36.042  29.119  1.00  0.00     0.006 A 
ENDBRANCH  52  66
BRANCH  53  74
ATOM     74  C   UNL A   1      41.137  24.415  27.729  1.00  0.00     0.057 A 
ATOM     75  C   UNL A   1      41.614  23.271  28.383  1.00  0.00     0.134 A 
ATOM     76  C   UNL A   1      40.130  24.231  26.772  1.00  0.00     0.134 A 
ATOM     77  F   UNL A   1      42.602  23.373  29.285  1.00  0.00    -0.206 F 
ATOM     78  C   UNL A   1      41.134  21.995  28.076  1.00  0.00     0.040 A 
ATOM     79  C   UNL A   1      39.620  22.964  26.477  1.00  0.00     0.040 A 
ATOM     80  F   UNL A   1      39.634  25.281  26.101  1.00  0.00    -0.206 F 
ATOM     81  C   UNL A   1      40.131  21.840  27.122  1.00  0.00     0.006 A 
ENDBRANCH  53  74
BRANCH  65  82
ATOM     82  C   UNL A   1      47.205  27.266  25.855  1.00  0.00     0.057 A 
ATOM     83  C   UNL A   1      48.228  26.543  26.483  1.00  0.00     0.134 A 
ATOM     84  C   UNL A   1      47.289  27.430  24.466  1.00  0.00     0.134 A 
ATOM     85  F   UNL A   1      48.213  26.359  27.812  1.00  0.00    -0.206 F 
ATOM     86  C   UNL A   1      49.304  26.024  25.759  1.00  0.00     0.040 A 
ATOM     87  C   UNL A   1      48.345  26.891  23.729  1.00  0.00     0.040 A 
ATOM     88  F   UNL A   1      46.336  28.100  23.800  1.00  0.00    -0.206 F 
ATOM     89  C   UNL A   1      49.359  26.191  24.377  1.00  0.00     0.006 A 
ENDBRANCH  65  82
ENDBRANCH  39  40
ENDBRANCH  32  34
ENDBRANCH  31  32
ENDBRANCH  30  31
ENDBRANCH  29  30
ENDBRANCH  28  29
ENDBRANCH  27  28
ENDBRANCH  26  27
ENDBRANCH  25  26
ENDBRANCH   1  25
TORSDOF 23
ENDMDL
MODEL 2
REMARK VINA RESULT:      -9.7      4.804     11.388
REMARK SMILES O=C(OCCOCCOCCOCCOC(=O)c1ccc(-c2c3nc(c(-c4c(F)cccc4F)c4ccc([nH]4)c(-c4c(F)cccc4F)c4nc(c(-c5c(F)cccc5F)c5ccc2[nH]5)C=C4)C=C3)cc1)c1ccc(/N=C\c2ccccc2O)cc1
REMARK SMILES IDX 8 1 7 2 6 3 5 4 4 5 3 6 2 7 1 8 72 9 73 10 86 11 74 12 85 13
REMARK SMILES IDX 75 14 76 15 77 16 78 17 79 18 83 19 80 20 82 21 81 22 84 23
REMARK SMILES IDX 9 25 10 26 11 27 12 28 13 29 14 30 15 31 16 32 17 33 18 34
REMARK SMILES IDX 19 35 71 36 20 37 70 38 21 39 22 40 23 41 64 42 24 43 69 44
REMARK SMILES IDX 63 45 65 46 25 47 68 48 62 49 61 50 26 52 52 53 35 54 51 55
REMARK SMILES IDX 36 56 39 57 50 58 66 59 37 60 38 61 49 63 67 64 40 65 27 66
REMARK SMILES IDX 28 67 33 68 29 69 30 70 32 71 34 72 31 73 53 74 54 75 59 76
REMARK SMILES IDX 55 77 56 78 58 79 60 80 57 81 41 82 42 83 47 84 43 85 44 86
REMARK SMILES IDX 46 87 48 88 45 89
REMARK H PARENT 84 24 65 51 39 62
REMARK Flexibility Score: inf
ROOT
ATOM      1  C   UNL A   1      39.490  24.729  27.116  1.00  0.00     0.188 C 
ENDROOT
BRANCH   1   2
ATOM      2  C   UNL A   1      39.806  25.720  28.238  1.00  0.00     0.188 C 
BRANCH   2   3
ATOM      3  O   UNL A   1      38.999  26.903  28.174  1.00  0.00    -0.376 OA
BRANCH   3   4
ATOM      4  C   UNL A   1      39.642  28.053  27.636  1.00  0.00     0.202 C 
BRANCH   4   5
ATOM      5  C   UNL A   1      39.318  29.388  28.297  1.00  0.00     0.261 C 
BRANCH   5   6
ATOM      6  O   UNL A   1      39.935  29.619  29.567  1.00  0.00    -0.460 OA
BRANCH   6   7
ATOM      7  C   UNL A   1      39.608  29.133  30.785  1.00  0.00     0.338 C 
ATOM      8  O   UNL A   1      40.105  28.054  31.114  1.00  0.00    -0.246 OA
BRANCH   7   9
ATOM      9  C   UNL A   1      38.674  29.795  31.757  1.00  0.00     0.060 A 
ATOM     10  C   UNL A   1      37.284  29.881  31.644  1.00  0.00     0.018 A 
ATOM     11  C   UNL A   1      39.280  30.460  32.841  1.00  0.00     0.018 A 
ATOM     12  C   UNL A   1      36.544  30.711  32.488  1.00  0.00     0.029 A 
ATOM     13  C   UNL A   1      38.540  31.296  33.681  1.00  0.00     0.029 A 
ATOM     14  C   UNL A   1      37.189  31.522  33.413  1.00  0.00     0.063 A 
BRANCH  14  15
ATOM     15  N   UNL A   1      36.487  32.644  33.882  1.00  0.00    -0.256 NA
ATOM     16  C   UNL A   1      36.343  33.686  33.110  1.00  0.00     0.123 C 
BRANCH  16  17
ATOM     17  C   UNL A   1      36.919  33.894  31.761  1.00  0.00     0.035 A 
ATOM     18  C   UNL A   1      38.272  34.251  31.743  1.00  0.00     0.013 A 
ATOM     19  C   UNL A   1      36.258  33.589  30.565  1.00  0.00     0.124 A 
ATOM     20  C   UNL A   1      38.980  34.219  30.542  1.00  0.00     0.001 A 
ATOM     21  C   UNL A   1      36.972  33.552  29.369  1.00  0.00     0.047 A 
ATOM     22  C   UNL A   1      38.336  33.846  29.361  1.00  0.00     0.004 A 
BRANCH  19  23
ATOM     23  O   UNL A   1      34.930  33.276  30.486  1.00  0.00    -0.507 OA
ATOM     24  H   UNL A   1      34.572  32.948  29.684  1.00  0.00     0.293 HD
ENDBRANCH  19  23
ENDBRANCH  16  17
ENDBRANCH  14  15
ENDBRANCH   7   9
ENDBRANCH   6   7
ENDBRANCH   5   6
ENDBRANCH   4   5
ENDBRANCH   3   4
ENDBRANCH   2   3
ENDBRANCH   1   2
BRANCH   1  25
ATOM     25  O   UNL A   1      40.590  23.958  26.635  1.00  0.00    -0.377 OA
BRANCH  25  26
ATOM     26  C   UNL A   1      41.044  22.894  27.461  1.00  0.00     0.188 C 
BRANCH  26  27
ATOM     27  C   UNL A   1      41.031  21.459  26.896  1.00  0.00     0.188 C 
BRANCH  27  28
ATOM     28  O   UNL A   1      41.829  21.298  25.738  1.00  0.00    -0.376 OA
BRANCH  28  29
ATOM     29  C   UNL A   1      43.197  21.661  25.851  1.00  0.00     0.202 C 
BRANCH  29  30
ATOM     30  C   UNL A   1      43.774  22.669  24.842  1.00  0.00     0.261 C 
BRANCH  30  31
ATOM     31  O   UNL A   1      43.697  24.060  25.199  1.00  0.00    -0.460 OA
BRANCH  31  32
ATOM     32  C   UNL A   1      44.838  24.775  25.317  1.00  0.00     0.338 C 
ATOM     33  O   UNL A   1      45.826  24.703  24.608  1.00  0.00    -0.246 OA
BRANCH  32  34
ATOM     34  C   UNL A   1      44.574  25.853  26.311  1.00  0.00     0.060 A 
ATOM     35  C   UNL A   1      45.668  26.470  26.938  1.00  0.00     0.016 A 
ATOM     36  C   UNL A   1      43.285  26.362  26.505  1.00  0.00     0.016 A 
ATOM     37  C   UNL A   1      45.474  27.597  27.748  1.00  0.00     0.010 A 
ATOM     38  C   UNL A   1      43.090  27.473  27.336  1.00  0.00     0.010 A 
ATOM     39  C   UNL A   1      44.182  28.091  27.972  1.00  0.00    -0.014 A 
BRANCH  39  40
ATOM     40  C   UNL A   1      43.941  29.117  29.021  1.00  0.00     0.031 A 
ATOM     41  C   UNL A   1      43.659  28.636  30.419  1.00  0.00     0.074 A 
ATOM     42  C   UNL A   1      43.956  30.438  28.760  1.00  0.00     0.049 A 
ATOM     43  N   UNL A   1      43.341  29.319  31.488  1.00  0.00    -0.248 NA
ATOM     44  C   UNL A   1      43.746  27.182  30.636  1.00  0.00     0.031 C 
ATOM     45  C   UNL A   1      44.249  31.047  27.464  1.00  0.00     0.029 A 
ATOM     46  N   UNL A   1      43.698  31.510  29.583  1.00  0.00    -0.354 N 
ATOM     47  C   UNL A   1      43.185  28.380  32.499  1.00  0.00     0.074 A 
ATOM     48  C   UNL A   1      43.424  27.079  31.916  1.00  0.00     0.031 C 
ATOM     49  C   UNL A   1      44.130  32.384  27.573  1.00  0.00     0.029 A 
ATOM     50  C   UNL A   1      43.720  32.724  28.937  1.00  0.00     0.049 A 
ATOM     51  H   UNL A   1      43.516  31.418  30.546  1.00  0.00     0.167 HD
ATOM     52  C   UNL A   1      42.871  28.581  33.800  1.00  0.00     0.037 A 
ATOM     53  C   UNL A   1      43.412  33.960  29.386  1.00  0.00     0.037 A 
ATOM     54  C   UNL A   1      42.625  29.870  34.387  1.00  0.00     0.049 A 
ATOM     55  C   UNL A   1      42.978  34.146  30.821  1.00  0.00     0.074 A 
ATOM     56  C   UNL A   1      42.334  30.171  35.706  1.00  0.00     0.029 A 
ATOM     57  N   UNL A   1      42.626  31.067  33.691  1.00  0.00    -0.354 N 
ATOM     58  N   UNL A   1      42.882  33.257  31.781  1.00  0.00    -0.248 NA
ATOM     59  C   UNL A   1      42.602  35.508  31.234  1.00  0.00     0.031 C 
ATOM     60  C   UNL A   1      42.100  31.546  35.797  1.00  0.00     0.029 A 
ATOM     61  C   UNL A   1      42.302  32.107  34.546  1.00  0.00     0.049 A 
ATOM     62  H   UNL A   1      42.827  31.165  32.733  1.00  0.00     0.167 HD
ATOM     63  C   UNL A   1      42.460  33.954  32.908  1.00  0.00     0.074 A 
ATOM     64  C   UNL A   1      42.340  35.343  32.523  1.00  0.00     0.031 C 
ATOM     65  C   UNL A   1      42.192  33.487  34.152  1.00  0.00     0.037 A 
BRANCH  52  66
ATOM     66  C   UNL A   1      42.746  27.373  34.678  1.00  0.00     0.057 A 
ATOM     67  C   UNL A   1      43.804  26.932  35.483  1.00  0.00     0.134 A 
ATOM     68  C   UNL A   1      41.533  26.678  34.761  1.00  0.00     0.134 A 
ATOM     69  F   UNL A   1      44.995  27.545  35.436  1.00  0.00    -0.206 F 
ATOM     70  C   UNL A   1      43.661  25.836  36.335  1.00  0.00     0.040 A 
ATOM     71  C   UNL A   1      41.371  25.596  35.626  1.00  0.00     0.040 A 
ATOM     72  F   UNL A   1      40.482  27.052  34.014  1.00  0.00    -0.206 F 
ATOM     73  C   UNL A   1      42.437  25.172  36.415  1.00  0.00     0.006 A 
ENDBRANCH  52  66
BRANCH  53  74
ATOM     74  C   UNL A   1      43.445  35.132  28.470  1.00  0.00     0.057 A 
ATOM     75  C   UNL A   1      44.639  35.811  28.194  1.00  0.00     0.134 A 
ATOM     76  C   UNL A   1      42.269  35.653  27.913  1.00  0.00     0.134 A 
ATOM     77  F   UNL A   1      45.795  35.386  28.724  1.00  0.00    -0.206 F 
ATOM     78  C   UNL A   1      44.659  36.977  27.423  1.00  0.00     0.040 A 
ATOM     79  C   UNL A   1      42.279  36.800  27.116  1.00  0.00     0.040 A 
ATOM     80  F   UNL A   1      41.090  35.058  28.144  1.00  0.00    -0.206 F 
ATOM     81  C   UNL A   1      43.476  37.472  26.879  1.00  0.00     0.006 A 
ENDBRANCH  53  74
BRANCH  65  82
ATOM     82  C   UNL A   1      41.768  34.481  35.195  1.00  0.00     0.057 A 
ATOM     83  C   UNL A   1      42.701  35.167  35.984  1.00  0.00     0.134 A 
ATOM     84  C   UNL A   1      40.415  34.799  35.372  1.00  0.00     0.134 A 
ATOM     85  F   UNL A   1      44.011  34.903  35.871  1.00  0.00    -0.206 F 
ATOM     86  C   UNL A   1      42.301  36.116  36.927  1.00  0.00     0.040 A 
ATOM     87  C   UNL A   1      40.005  35.766  36.292  1.00  0.00     0.040 A 
ATOM     88  F   UNL A   1      39.470  34.190  34.640  1.00  0.00    -0.206 F 
ATOM     89  C   UNL A   1      40.950  36.423  37.077  1.00  0.00     0.006 A 
ENDBRANCH  65  82
ENDBRANCH  39  40
ENDBRANCH  32  34
ENDBRANCH  31  32
ENDBRANCH  30  31
ENDBRANCH  29  30
ENDBRANCH  28  29
ENDBRANCH  27  28
ENDBRANCH  26  27
ENDBRANCH  25  26
ENDBRANCH   1  25
TORSDOF 23
ENDMDL
MODEL 3
REMARK VINA RESULT:      -9.6      4.903      9.723
REMARK SMILES O=C(OCCOCCOCCOCCOC(=O)c1ccc(-c2c3nc(c(-c4c(F)cccc4F)c4ccc([nH]4)c(-c4c(F)cccc4F)c4nc(c(-c5c(F)cccc5F)c5ccc2[nH]5)C=C4)C=C3)cc1)c1ccc(/N=C\c2ccccc2O)cc1
REMARK SMILES IDX 8 1 7 2 6 3 5 4 4 5 3 6 2 7 1 8 72 9 73 10 86 11 74 12 85 13
REMARK SMILES IDX 75 14 76 15 77 16 78 17 79 18 83 19 80 20 82 21 81 22 84 23
REMARK SMILES IDX 9 25 10 26 11 27 12 28 13 29 14 30 15 31 16 32 17 33 18 34
REMARK SMILES IDX 19 35 71 36 20 37 70 38 21 39 22 40 23 41 64 42 24 43 69 44
REMARK SMILES IDX 63 45 65 46 25 47 68 48 62 49 61 50 26 52 52 53 35 54 51 55
REMARK SMILES IDX 36 56 39 57 50 58 66 59 37 60 38 61 49 63 67 64 40 65 27 66
REMARK SMILES IDX 28 67 33 68 29 69 30 70 32 71 34 72 31 73 53 74 54 75 59 76
REMARK SMILES IDX 55 77 56 78 58 79 60 80 57 81 41 82 42 83 47 84 43 85 44 86
REMARK SMILES IDX 46 87 48 88 45 89
REMARK H PARENT 84 24 65 51 39 62
REMARK Flexibility Score: inf
ROOT
ATOM      1  C   UNL A   1      39.325  21.053  25.715  1.00  0.00     0.188 C 
ENDROOT
BRANCH   1   2
ATOM      2  C   UNL A   1      38.945  22.465  26.165  1.00  0.00     0.188 C 
BRANCH   2   3
ATOM      3  O   UNL A   1      37.548  22.740  26.000  1.00  0.00    -0.376 OA
BRANCH   3   4
ATOM      4  C   UNL A   1      37.228  23.701  25.000  1.00  0.00     0.202 C 
BRANCH   4   5
ATOM      5  C   UNL A   1      36.130  23.318  24.013  1.00  0.00     0.261 C 
BRANCH   5   6
ATOM      6  O   UNL A   1      35.787  21.930  23.972  1.00  0.00    -0.460 OA
BRANCH   6   7
ATOM      7  C   UNL A   1      35.124  21.178  24.878  1.00  0.00     0.338 C 
ATOM      8  O   UNL A   1      35.614  20.086  25.172  1.00  0.00    -0.246 OA
BRANCH   7   9
ATOM      9  C   UNL A   1      33.829  21.559  25.536  1.00  0.00     0.060 A 
ATOM     10  C   UNL A   1      32.545  21.313  25.042  1.00  0.00     0.018 A 
ATOM     11  C   UNL A   1      33.937  22.310  26.722  1.00  0.00     0.018 A 
ATOM     12  C   UNL A   1      31.425  21.909  25.625  1.00  0.00     0.029 A 
ATOM     13  C   UNL A   1      32.816  22.912  27.300  1.00  0.00     0.029 A 
ATOM     14  C   UNL A   1      31.577  22.817  26.666  1.00  0.00     0.063 A 
BRANCH  14  15
ATOM     15  N   UNL A   1      30.525  23.719  26.889  1.00  0.00    -0.256 NA
ATOM     16  C   UNL A   1      30.375  24.747  26.099  1.00  0.00     0.123 C 
BRANCH  16  17
ATOM     17  C   UNL A   1      31.259  25.162  24.986  1.00  0.00     0.035 A 
ATOM     18  C   UNL A   1      32.364  25.934  25.362  1.00  0.00     0.013 A 
ATOM     19  C   UNL A   1      31.146  24.693  23.671  1.00  0.00     0.124 A 
ATOM     20  C   UNL A   1      33.393  26.161  24.448  1.00  0.00     0.001 A 
ATOM     21  C   UNL A   1      32.180  24.917  22.764  1.00  0.00     0.047 A 
ATOM     22  C   UNL A   1      33.312  25.632  23.160  1.00  0.00     0.004 A 
BRANCH  19  23
ATOM     23  O   UNL A   1      30.080  23.975  23.206  1.00  0.00    -0.507 OA
ATOM     24  H   UNL A   1      29.939  23.889  22.283  1.00  0.00     0.293 HD
ENDBRANCH  19  23
ENDBRANCH  16  17
ENDBRANCH  14  15
ENDBRANCH   7   9
ENDBRANCH   6   7
ENDBRANCH   5   6
ENDBRANCH   4   5
ENDBRANCH   3   4
ENDBRANCH   2   3
ENDBRANCH   1   2
BRANCH   1  25
ATOM     25  O   UNL A   1      40.312  20.391  26.504  1.00  0.00    -0.377 OA
BRANCH  25  26
ATOM     26  C   UNL A   1      40.837  19.173  25.992  1.00  0.00     0.188 C 
BRANCH  26  27
ATOM     27  C   UNL A   1      42.336  18.869  26.193  1.00  0.00     0.188 C 
BRANCH  27  28
ATOM     28  O   UNL A   1      43.087  18.906  24.994  1.00  0.00    -0.376 OA
BRANCH  28  29
ATOM     29  C   UNL A   1      43.927  20.034  24.802  1.00  0.00     0.202 C 
BRANCH  29  30
ATOM     30  C   UNL A   1      43.959  21.119  25.894  1.00  0.00     0.261 C 
BRANCH  30  31
ATOM     31  O   UNL A   1      43.020  22.200  25.760  1.00  0.00    -0.460 OA
BRANCH  31  32
ATOM     32  C   UNL A   1      42.723  22.954  26.842  1.00  0.00     0.338 C 
ATOM     33  O   UNL A   1      42.064  22.619  27.810  1.00  0.00    -0.246 OA
BRANCH  32  34
ATOM     34  C   UNL A   1      43.563  24.180  26.759  1.00  0.00     0.060 A 
ATOM     35  C   UNL A   1      43.758  24.776  25.503  1.00  0.00     0.016 A 
ATOM     36  C   UNL A   1      44.017  24.829  27.913  1.00  0.00     0.016 A 
ATOM     37  C   UNL A   1      44.397  26.020  25.403  1.00  0.00     0.010 A 
ATOM     38  C   UNL A   1      44.679  26.060  27.809  1.00  0.00     0.010 A 
ATOM     39  C   UNL A   1      44.884  26.657  26.553  1.00  0.00    -0.014 A 
BRANCH  39  40
ATOM     40  C   UNL A   1      45.778  27.839  26.434  1.00  0.00     0.031 A 
ATOM     41  C   UNL A   1      47.254  27.587  26.275  1.00  0.00     0.074 A 
ATOM     42  C   UNL A   1      45.318  29.105  26.476  1.00  0.00     0.049 A 
ATOM     43  N   UNL A   1      48.246  28.438  26.230  1.00  0.00    -0.248 NA
ATOM     44  C   UNL A   1      47.662  26.177  26.152  1.00  0.00     0.031 C 
ATOM     45  C   UNL A   1      43.915  29.497  26.591  1.00  0.00     0.029 A 
ATOM     46  N   UNL A   1      45.999  30.300  26.444  1.00  0.00    -0.354 N 
ATOM     47  C   UNL A   1      49.392  27.669  26.081  1.00  0.00     0.074 A 
ATOM     48  C   UNL A   1      48.979  26.284  26.061  1.00  0.00     0.031 C 
ATOM     49  C   UNL A   1      43.841  30.840  26.645  1.00  0.00     0.029 A 
ATOM     50  C   UNL A   1      45.192  31.402  26.601  1.00  0.00     0.049 A 
ATOM     51  H   UNL A   1      46.973  30.362  26.318  1.00  0.00     0.167 HD
ATOM     52  C   UNL A   1      50.678  28.078  25.969  1.00  0.00     0.037 A 
ATOM     53  C   UNL A   1      45.510  32.708  26.731  1.00  0.00     0.037 A 
ATOM     54  C   UNL A   1      51.098  29.452  25.995  1.00  0.00     0.049 A 
ATOM     55  C   UNL A   1      46.961  33.130  26.691  1.00  0.00     0.074 A 
ATOM     56  C   UNL A   1      52.377  29.961  25.854  1.00  0.00     0.029 A 
ATOM     57  N   UNL A   1      50.254  30.533  26.188  1.00  0.00    -0.354 N 
ATOM     58  N   UNL A   1      48.033  32.399  26.499  1.00  0.00    -0.248 NA
ATOM     59  C   UNL A   1      47.246  34.560  26.893  1.00  0.00     0.031 C 
ATOM     60  C   UNL A   1      52.314  31.348  26.021  1.00  0.00     0.029 A 
ATOM     61  C   UNL A   1      50.990  31.706  26.210  1.00  0.00     0.049 A 
ATOM     62  H   UNL A   1      49.277  30.476  26.295  1.00  0.00     0.167 HD
ATOM     63  C   UNL A   1      49.109  33.280  26.535  1.00  0.00     0.074 A 
ATOM     64  C   UNL A   1      48.562  34.602  26.744  1.00  0.00     0.031 C 
ATOM     65  C   UNL A   1      50.433  33.018  26.411  1.00  0.00     0.037 A 
BRANCH  52  66
ATOM     66  C   UNL A   1      51.732  27.023  25.836  1.00  0.00     0.057 A 
ATOM     67  C   UNL A   1      52.165  26.563  24.587  1.00  0.00     0.134 A 
ATOM     68  C   UNL A   1      52.362  26.502  26.974  1.00  0.00     0.134 A 
ATOM     69  F   UNL A   1      51.590  27.011  23.461  1.00  0.00    -0.206 F 
ATOM     70  C   UNL A   1      53.184  25.617  24.473  1.00  0.00     0.040 A 
ATOM     71  C   UNL A   1      53.397  25.573  26.872  1.00  0.00     0.040 A 
ATOM     72  F   UNL A   1      51.991  26.901  28.201  1.00  0.00    -0.206 F 
ATOM     73  C   UNL A   1      53.810  25.127  25.619  1.00  0.00     0.006 A 
ENDBRANCH  52  66
BRANCH  53  74
ATOM     74  C   UNL A   1      44.454  33.730  26.963  1.00  0.00     0.057 A 
ATOM     75  C   UNL A   1      43.802  34.364  25.897  1.00  0.00     0.134 A 
ATOM     76  C   UNL A   1      44.127  34.156  28.257  1.00  0.00     0.134 A 
ATOM     77  F   UNL A   1      44.095  34.027  24.632  1.00  0.00    -0.206 F 
ATOM     78  C   UNL A   1      42.889  35.401  26.107  1.00  0.00     0.040 A 
ATOM     79  C   UNL A   1      43.194  35.170  28.482  1.00  0.00     0.040 A 
ATOM     80  F   UNL A   1      44.719  33.599  29.323  1.00  0.00    -0.206 F 
ATOM     81  C   UNL A   1      42.580  35.804  27.404  1.00  0.00     0.006 A 
ENDBRANCH  53  74
BRANCH  65  82
ATOM     82  C   UNL A   1      51.383  34.180  26.469  1.00  0.00     0.057 A 
ATOM     83  C   UNL A   1      51.962  34.600  27.674  1.00  0.00     0.134 A 
ATOM     84  C   UNL A   1      51.766  34.850  25.300  1.00  0.00     0.134 A 
ATOM     85  F   UNL A   1      51.630  34.007  28.831  1.00  0.00    -0.206 F 
ATOM     86  C   UNL A   1      52.871  35.659  27.715  1.00  0.00     0.040 A 
ATOM     87  C   UNL A   1      52.696  35.891  25.325  1.00  0.00     0.040 A 
ATOM     88  F   UNL A   1      51.261  34.490  24.111  1.00  0.00    -0.206 F 
ATOM     89  C   UNL A   1      53.246  36.303  26.538  1.00  0.00     0.006 A 
ENDBRANCH  65  82
ENDBRANCH  39  40
ENDBRANCH  32  34
ENDBRANCH  31  32
ENDBRANCH  30  31
ENDBRANCH  29  30
ENDBRANCH  28  29
ENDBRANCH  27  28
ENDBRANCH  26  27
ENDBRANCH  25  26
ENDBRANCH   1  25
TORSDOF 23
ENDMDL
