MODEL 1
REMARK VINA RESULT:     -11.0      0.000      0.000
REMARK SMILES O=C(OCCOCCOCCOCCOC(=O)[C@@H](Cc1c[nH]c2ccccc12)Nc1ncnc2ccccc12)c1ccc(-c2c3nc(c(-c4c(F)cccc4F)c4ccc([nH]4)c(-c4c(F)cccc4F)c4nc(c(-c5c(F)cccc5F)c5ccc2[nH]5)C=C4)C=C3)cc1
REMARK SMILES IDX 9 1 8 2 7 3 6 4 5 5 4 6 3 7 2 8 1 9 40 10 41 11 93 12 42 13
REMARK SMILES IDX 92 14 43 15 44 16 45 17 86 18 46 19 91 20 85 21 87 22 47 23
REMARK SMILES IDX 90 24 84 25 83 26 48 28 74 29 57 30 73 31 58 32 61 33 72 34
REMARK SMILES IDX 88 35 59 36 60 37 71 39 89 40 62 41 49 42 50 43 55 44 51 45
REMARK SMILES IDX 52 46 54 47 56 48 53 49 75 50 76 51 81 52 77 53 78 54 80 55
REMARK SMILES IDX 82 56 79 57 63 58 64 59 69 60 65 61 66 62 68 63 70 64 67 65
REMARK SMILES IDX 10 66 11 67 12 68 13 69 14 70 15 71 16 72 17 73 18 74 19 75
REMARK SMILES IDX 20 76 21 77 28 78 22 79 23 80 27 81 24 83 26 84 25 85 29 86
REMARK SMILES IDX 30 88 31 89 39 90 32 91 34 92 38 93 33 94 35 95 37 96 36 97
REMARK H PARENT 87 27 61 38 22 82 29 87
REMARK Flexibility Score: inf
ROOT
ATOM      1  O   UNL A   1      42.052  19.275  26.870  1.00  0.00    -0.377 OA
ENDROOT
BRANCH   1   2
ATOM      2  C   UNL A   1      42.633  18.628  25.749  1.00  0.00     0.188 C 
BRANCH   2   3
ATOM      3  C   UNL A   1      44.070  19.000  25.468  1.00  0.00     0.188 C 
BRANCH   3   4
ATOM      4  O   UNL A   1      44.171  19.710  24.242  1.00  0.00    -0.376 OA
BRANCH   4   5
ATOM      5  C   UNL A   1      44.847  20.956  24.368  1.00  0.00     0.202 C 
BRANCH   5   6
ATOM      6  C   UNL A   1      44.256  21.871  25.451  1.00  0.00     0.261 C 
BRANCH   6   7
ATOM      7  O   UNL A   1      43.637  23.075  24.950  1.00  0.00    -0.460 OA
BRANCH   7   8
ATOM      8  C   UNL A   1      43.959  24.370  25.198  1.00  0.00     0.338 C 
ATOM      9  O   UNL A   1      44.944  24.844  24.631  1.00  0.00    -0.246 OA
BRANCH   8  10
ATOM     10  C   UNL A   1      43.265  25.233  26.211  1.00  0.00     0.060 A 
ATOM     11  C   UNL A   1      43.547  26.575  26.437  1.00  0.00     0.016 A 
ATOM     12  C   UNL A   1      42.201  24.669  26.944  1.00  0.00     0.016 A 
ATOM     13  C   UNL A   1      42.801  27.356  27.303  1.00  0.00     0.010 A 
ATOM     14  C   UNL A   1      41.470  25.430  27.870  1.00  0.00     0.010 A 
ATOM     15  C   UNL A   1      41.785  26.778  28.052  1.00  0.00    -0.014 A 
BRANCH  15  16
ATOM     16  C   UNL A   1      41.303  27.583  29.186  1.00  0.00     0.031 A 
ATOM     17  C   UNL A   1      42.148  27.582  30.425  1.00  0.00     0.074 A 
ATOM     18  C   UNL A   1      40.317  28.477  29.006  1.00  0.00     0.049 A 
ATOM     19  N   UNL A   1      41.983  28.229  31.545  1.00  0.00    -0.248 NA
ATOM     20  C   UNL A   1      43.379  26.769  30.373  1.00  0.00     0.031 C 
ATOM     21  C   UNL A   1      39.593  28.692  27.750  1.00  0.00     0.029 A 
ATOM     22  N   UNL A   1      39.792  29.410  29.858  1.00  0.00    -0.354 N 
ATOM     23  C   UNL A   1      43.073  27.884  32.335  1.00  0.00     0.074 A 
ATOM     24  C   UNL A   1      43.903  26.988  31.567  1.00  0.00     0.031 C 
ATOM     25  C   UNL A   1      38.726  29.705  27.913  1.00  0.00     0.029 A 
ATOM     26  C   UNL A   1      38.786  30.161  29.298  1.00  0.00     0.049 A 
ATOM     27  H   UNL A   1      40.104  29.531  30.784  1.00  0.00     0.167 HD
ATOM     28  C   UNL A   1      43.340  28.273  33.601  1.00  0.00     0.037 A 
ATOM     29  C   UNL A   1      37.988  31.081  29.870  1.00  0.00     0.037 A 
ATOM     30  C   UNL A   1      42.478  29.151  34.341  1.00  0.00     0.049 A 
ATOM     31  C   UNL A   1      38.207  31.381  31.330  1.00  0.00     0.074 A 
ATOM     32  C   UNL A   1      42.543  29.520  35.669  1.00  0.00     0.029 A 
ATOM     33  N   UNL A   1      41.379  29.799  33.790  1.00  0.00    -0.354 N 
ATOM     34  N   UNL A   1      39.158  30.953  32.127  1.00  0.00    -0.248 NA
ATOM     35  C   UNL A   1      37.229  32.262  31.980  1.00  0.00     0.031 C 
ATOM     36  C   UNL A   1      41.455  30.361  35.932  1.00  0.00     0.029 A 
ATOM     37  C   UNL A   1      40.742  30.552  34.756  1.00  0.00     0.049 A 
ATOM     38  H   UNL A   1      41.097  29.731  32.849  1.00  0.00     0.167 HD
ATOM     39  C   UNL A   1      38.901  31.514  33.369  1.00  0.00     0.074 A 
ATOM     40  C   UNL A   1      37.716  32.336  33.211  1.00  0.00     0.031 C 
ATOM     41  C   UNL A   1      39.568  31.360  34.539  1.00  0.00     0.037 A 
BRANCH  28  42
ATOM     42  C   UNL A   1      44.534  27.654  34.258  1.00  0.00     0.057 A 
ATOM     43  C   UNL A   1      45.802  28.250  34.224  1.00  0.00     0.134 A 
ATOM     44  C   UNL A   1      44.427  26.396  34.864  1.00  0.00     0.134 A 
ATOM     45  F   UNL A   1      45.981  29.434  33.620  1.00  0.00    -0.206 F 
ATOM     46  C   UNL A   1      46.925  27.603  34.749  1.00  0.00     0.040 A 
ATOM     47  C   UNL A   1      45.537  25.749  35.409  1.00  0.00     0.040 A 
ATOM     48  F   UNL A   1      43.245  25.763  34.914  1.00  0.00    -0.206 F 
ATOM     49  C   UNL A   1      46.793  26.349  35.344  1.00  0.00     0.006 A 
ENDBRANCH  28  42
BRANCH  29  50
ATOM     50  C   UNL A   1      36.872  31.701  29.106  1.00  0.00     0.057 A 
ATOM     51  C   UNL A   1      36.922  33.031  28.671  1.00  0.00     0.134 A 
ATOM     52  C   UNL A   1      35.701  30.983  28.823  1.00  0.00     0.134 A 
ATOM     53  F   UNL A   1      38.001  33.785  28.927  1.00  0.00    -0.206 F 
ATOM     54  C   UNL A   1      35.850  33.624  27.999  1.00  0.00     0.040 A 
ATOM     55  C   UNL A   1      34.633  31.553  28.128  1.00  0.00     0.040 A 
ATOM     56  F   UNL A   1      35.577  29.706  29.218  1.00  0.00    -0.206 F 
ATOM     57  C   UNL A   1      34.703  32.882  27.722  1.00  0.00     0.006 A 
ENDBRANCH  29  50
BRANCH  41  58
ATOM     58  C   UNL A   1      39.038  32.114  35.718  1.00  0.00     0.057 A 
ATOM     59  C   UNL A   1      38.190  31.511  36.653  1.00  0.00     0.134 A 
ATOM     60  C   UNL A   1      39.427  33.441  35.944  1.00  0.00     0.134 A 
ATOM     61  F   UNL A   1      37.775  30.247  36.480  1.00  0.00    -0.206 F 
ATOM     62  C   UNL A   1      37.732  32.209  37.770  1.00  0.00     0.040 A 
ATOM     63  C   UNL A   1      38.996  34.139  37.069  1.00  0.00     0.040 A 
ATOM     64  F   UNL A   1      40.246  34.066  35.085  1.00  0.00    -0.206 F 
ATOM     65  C   UNL A   1      38.142  33.524  37.984  1.00  0.00     0.006 A 
ENDBRANCH  41  58
ENDBRANCH  15  16
ENDBRANCH   8  10
ENDBRANCH   7   8
ENDBRANCH   6   7
ENDBRANCH   5   6
ENDBRANCH   4   5
ENDBRANCH   3   4
ENDBRANCH   2   3
ENDBRANCH   1   2
BRANCH   1  66
ATOM     66  C   UNL A   1      40.785  19.909  26.760  1.00  0.00     0.188 C 
BRANCH  66  67
ATOM     67  C   UNL A   1      40.718  21.444  26.699  1.00  0.00     0.188 C 
BRANCH  67  68
ATOM     68  O   UNL A   1      39.525  21.960  26.142  1.00  0.00    -0.376 OA
BRANCH  68  69
ATOM     69  C   UNL A   1      38.697  21.078  25.379  1.00  0.00     0.202 C 
BRANCH  69  70
ATOM     70  C   UNL A   1      37.164  21.236  25.371  1.00  0.00     0.261 C 
BRANCH  70  71
ATOM     71  O   UNL A   1      36.687  22.261  24.480  1.00  0.00    -0.462 OA
BRANCH  71  72
ATOM     72  C   UNL A   1      36.031  23.287  25.090  1.00  0.00     0.329 C 
ATOM     73  O   UNL A   1      36.622  24.130  25.766  1.00  0.00    -0.250 OA
BRANCH  72  74
ATOM     74  C   UNL A   1      34.530  23.430  24.707  1.00  0.00     0.195 C 
BRANCH  74  75
ATOM     75  C   UNL A   1      33.511  22.329  25.012  1.00  0.00     0.074 C 
BRANCH  75  76
ATOM     76  C   UNL A   1      33.019  21.406  23.943  1.00  0.00    -0.020 A 
ATOM     77  C   UNL A   1      32.096  21.658  22.947  1.00  0.00     0.087 A 
ATOM     78  C   UNL A   1      33.301  19.999  23.889  1.00  0.00     0.003 A 
ATOM     79  N   UNL A   1      31.781  20.474  22.335  1.00  0.00    -0.361 N 
ATOM     80  C   UNL A   1      32.498  19.444  22.894  1.00  0.00     0.046 A 
ATOM     81  C   UNL A   1      34.133  19.138  24.637  1.00  0.00     0.010 A 
ATOM     82  H   UNL A   1      31.134  20.375  21.600  1.00  0.00     0.166 HD
ATOM     83  C   UNL A   1      32.481  18.073  22.612  1.00  0.00     0.026 A 
ATOM     84  C   UNL A   1      34.141  17.769  24.359  1.00  0.00     0.001 A 
ATOM     85  C   UNL A   1      33.323  17.245  23.362  1.00  0.00     0.002 A 
ENDBRANCH  75  76
ENDBRANCH  74  75
BRANCH  74  86
ATOM     86  N   UNL A   1      34.003  24.687  25.275  1.00  0.00    -0.356 N 
ATOM     87  H   UNL A   1      33.873  24.736  26.248  1.00  0.00     0.163 HD
BRANCH  86  88
ATOM     88  C   UNL A   1      33.683  25.795  24.522  1.00  0.00     0.137 A 
ATOM     89  N   UNL A   1      33.832  25.554  23.210  1.00  0.00    -0.219 NA
ATOM     90  C   UNL A   1      33.305  27.062  25.018  1.00  0.00     0.043 A 
ATOM     91  C   UNL A   1      33.558  26.557  22.375  1.00  0.00     0.224 A 
ATOM     92  C   UNL A   1      33.070  28.032  24.029  1.00  0.00     0.076 A 
ATOM     93  C   UNL A   1      33.185  27.456  26.381  1.00  0.00     0.014 A 
ATOM     94  N   UNL A   1      33.178  27.788  22.721  1.00  0.00    -0.236 NA
ATOM     95  C   UNL A   1      32.727  29.324  24.411  1.00  0.00     0.029 A 
ATOM     96  C   UNL A   1      32.832  28.757  26.741  1.00  0.00     0.001 A 
ATOM     97  C   UNL A   1      32.605  29.696  25.751  1.00  0.00     0.002 A 
ENDBRANCH  86  88
ENDBRANCH  74  86
ENDBRANCH  72  74
ENDBRANCH  71  72
ENDBRANCH  70  71
ENDBRANCH  69  70
ENDBRANCH  68  69
ENDBRANCH  67  68
ENDBRANCH  66  67
ENDBRANCH   1  66
TORSDOF 24
ENDMDL
MODEL 2
REMARK VINA RESULT:     -10.9      1.321      4.094
REMARK SMILES O=C(OCCOCCOCCOCCOC(=O)[C@@H](Cc1c[nH]c2ccccc12)Nc1ncnc2ccccc12)c1ccc(-c2c3nc(c(-c4c(F)cccc4F)c4ccc([nH]4)c(-c4c(F)cccc4F)c4nc(c(-c5c(F)cccc5F)c5ccc2[nH]5)C=C4)C=C3)cc1
REMARK SMILES IDX 9 1 8 2 7 3 6 4 5 5 4 6 3 7 2 8 1 9 40 10 41 11 93 12 42 13
REMARK SMILES IDX 92 14 43 15 44 16 45 17 86 18 46 19 91 20 85 21 87 22 47 23
REMARK SMILES IDX 90 24 84 25 83 26 48 28 74 29 57 30 73 31 58 32 61 33 72 34
REMARK SMILES IDX 88 35 59 36 60 37 71 39 89 40 62 41 49 42 50 43 55 44 51 45
REMARK SMILES IDX 52 46 54 47 56 48 53 49 75 50 76 51 81 52 77 53 78 54 80 55
REMARK SMILES IDX 82 56 79 57 63 58 64 59 69 60 65 61 66 62 68 63 70 64 67 65
REMARK SMILES IDX 10 66 11 67 12 68 13 69 14 70 15 71 16 72 17 73 18 74 19 75
REMARK SMILES IDX 20 76 21 77 28 78 22 79 23 80 27 81 24 83 26 84 25 85 29 86
REMARK SMILES IDX 30 88 31 89 39 90 32 91 34 92 38 93 33 94 35 95 37 96 36 97
REMARK H PARENT 87 27 61 38 22 82 29 87
REMARK Flexibility Score: inf
ROOT
ATOM      1  O   UNL A   1      39.249  22.014  26.625  1.00  0.00    -0.377 OA
ENDROOT
BRANCH   1   2
ATOM      2  C   UNL A   1      40.416  21.398  26.104  1.00  0.00     0.188 C 
BRANCH   2   3
ATOM      3  C   UNL A   1      41.111  20.442  27.045  1.00  0.00     0.188 C 
BRANCH   3   4
ATOM      4  O   UNL A   1      42.512  20.673  27.047  1.00  0.00    -0.376 OA
BRANCH   4   5
ATOM      5  C   UNL A   1      43.145  20.293  25.830  1.00  0.00     0.202 C 
BRANCH   5   6
ATOM      6  C   UNL A   1      44.127  21.344  25.292  1.00  0.00     0.261 C 
BRANCH   6   7
ATOM      7  O   UNL A   1      44.237  22.535  26.101  1.00  0.00    -0.460 OA
BRANCH   7   8
ATOM      8  C   UNL A   1      43.918  23.816  25.785  1.00  0.00     0.338 C 
ATOM      9  O   UNL A   1      44.277  24.253  24.692  1.00  0.00    -0.246 OA
BRANCH   8  10
ATOM     10  C   UNL A   1      43.258  24.778  26.729  1.00  0.00     0.060 A 
ATOM     11  C   UNL A   1      43.631  26.106  26.898  1.00  0.00     0.016 A 
ATOM     12  C   UNL A   1      42.132  24.331  27.451  1.00  0.00     0.016 A 
ATOM     13  C   UNL A   1      42.918  26.983  27.697  1.00  0.00     0.010 A 
ATOM     14  C   UNL A   1      41.431  25.191  28.312  1.00  0.00     0.010 A 
ATOM     15  C   UNL A   1      41.839  26.520  28.438  1.00  0.00    -0.014 A 
BRANCH  15  16
ATOM     16  C   UNL A   1      41.383  27.416  29.513  1.00  0.00     0.031 A 
ATOM     17  C   UNL A   1      42.255  27.513  30.729  1.00  0.00     0.074 A 
ATOM     18  C   UNL A   1      40.392  28.294  29.282  1.00  0.00     0.049 A 
ATOM     19  N   UNL A   1      42.115  28.249  31.796  1.00  0.00    -0.248 NA
ATOM     20  C   UNL A   1      43.484  26.696  30.716  1.00  0.00     0.031 C 
ATOM     21  C   UNL A   1      39.642  28.407  28.029  1.00  0.00     0.029 A 
ATOM     22  N   UNL A   1      39.887  29.294  30.067  1.00  0.00    -0.354 N 
ATOM     23  C   UNL A   1      43.222  27.968  32.587  1.00  0.00     0.074 A 
ATOM     24  C   UNL A   1      44.035  27.010  31.876  1.00  0.00     0.031 C 
ATOM     25  C   UNL A   1      38.778  29.432  28.129  1.00  0.00     0.029 A 
ATOM     26  C   UNL A   1      38.870  29.999  29.470  1.00  0.00     0.049 A 
ATOM     27  H   UNL A   1      40.220  29.489  30.973  1.00  0.00     0.167 HD
ATOM     28  C   UNL A   1      43.517  28.458  33.811  1.00  0.00     0.037 A 
ATOM     29  C   UNL A   1      38.084  30.964  29.983  1.00  0.00     0.037 A 
ATOM     30  C   UNL A   1      42.672  29.395  34.496  1.00  0.00     0.049 A 
ATOM     31  C   UNL A   1      38.335  31.381  31.408  1.00  0.00     0.074 A 
ATOM     32  C   UNL A   1      42.766  29.870  35.789  1.00  0.00     0.029 A 
ATOM     33  N   UNL A   1      41.561  29.998  33.919  1.00  0.00    -0.354 N 
ATOM     34  N   UNL A   1      39.304  31.017  32.217  1.00  0.00    -0.248 NA
ATOM     35  C   UNL A   1      37.373  32.315  32.006  1.00  0.00     0.031 C 
ATOM     36  C   UNL A   1      41.684  30.732  36.006  1.00  0.00     0.029 A 
ATOM     37  C   UNL A   1      40.946  30.828  34.835  1.00  0.00     0.049 A 
ATOM     38  H   UNL A   1      41.258  29.854  32.993  1.00  0.00     0.167 HD
ATOM     39  C   UNL A   1      39.074  31.678  33.414  1.00  0.00     0.074 A 
ATOM     40  C   UNL A   1      37.886  32.488  33.216  1.00  0.00     0.031 C 
ATOM     41  C   UNL A   1      39.768  31.619  34.578  1.00  0.00     0.037 A 
BRANCH  28  42
ATOM     42  C   UNL A   1      44.725  27.892  34.490  1.00  0.00     0.057 A 
ATOM     43  C   UNL A   1      44.670  26.730  35.271  1.00  0.00     0.134 A 
ATOM     44  C   UNL A   1      45.948  28.570  34.425  1.00  0.00     0.134 A 
ATOM     45  F   UNL A   1      43.517  26.057  35.410  1.00  0.00    -0.206 F 
ATOM     46  C   UNL A   1      45.784  26.279  35.985  1.00  0.00     0.040 A 
ATOM     47  C   UNL A   1      47.073  28.119  35.118  1.00  0.00     0.040 A 
ATOM     48  F   UNL A   1      46.063  29.699  33.710  1.00  0.00    -0.206 F 
ATOM     49  C   UNL A   1      46.990  26.975  35.909  1.00  0.00     0.006 A 
ENDBRANCH  28  42
BRANCH  29  50
ATOM     50  C   UNL A   1      36.952  31.523  29.196  1.00  0.00     0.057 A 
ATOM     51  C   UNL A   1      36.979  32.824  28.682  1.00  0.00     0.134 A 
ATOM     52  C   UNL A   1      35.788  30.773  28.969  1.00  0.00     0.134 A 
ATOM     53  F   UNL A   1      38.049  33.607  28.881  1.00  0.00    -0.206 F 
ATOM     54  C   UNL A   1      35.891  33.362  27.988  1.00  0.00     0.040 A 
ATOM     55  C   UNL A   1      34.705  31.286  28.253  1.00  0.00     0.040 A 
ATOM     56  F   UNL A   1      35.686  29.520  29.440  1.00  0.00    -0.206 F 
ATOM     57  C   UNL A   1      34.752  32.590  27.768  1.00  0.00     0.006 A 
ENDBRANCH  29  50
BRANCH  41  58
ATOM     58  C   UNL A   1      39.264  32.468  35.703  1.00  0.00     0.057 A 
ATOM     59  C   UNL A   1      38.361  31.970  36.650  1.00  0.00     0.134 A 
ATOM     60  C   UNL A   1      39.732  33.777  35.867  1.00  0.00     0.134 A 
ATOM     61  F   UNL A   1      37.871  30.727  36.535  1.00  0.00    -0.206 F 
ATOM     62  C   UNL A   1      37.928  32.754  37.717  1.00  0.00     0.040 A 
ATOM     63  C   UNL A   1      39.324  34.562  36.944  1.00  0.00     0.040 A 
ATOM     64  F   UNL A   1      40.605  34.303  34.995  1.00  0.00    -0.206 F 
ATOM     65  C   UNL A   1      38.416  34.051  37.870  1.00  0.00     0.006 A 
ENDBRANCH  41  58
ENDBRANCH  15  16
ENDBRANCH   8  10
ENDBRANCH   7   8
ENDBRANCH   6   7
ENDBRANCH   5   6
ENDBRANCH   4   5
ENDBRANCH   3   4
ENDBRANCH   2   3
ENDBRANCH   1   2
BRANCH   1  66
ATOM     66  C   UNL A   1      38.242  22.504  25.750  1.00  0.00     0.188 C 
BRANCH  66  67
ATOM     67  C   UNL A   1      37.516  21.519  24.817  1.00  0.00     0.188 C 
BRANCH  67  68
ATOM     68  O   UNL A   1      36.180  21.872  24.513  1.00  0.00    -0.376 OA
BRANCH  68  69
ATOM     69  C   UNL A   1      35.911  23.215  24.103  1.00  0.00     0.202 C 
BRANCH  69  70
ATOM     70  C   UNL A   1      35.025  23.509  22.876  1.00  0.00     0.261 C 
BRANCH  70  71
ATOM     71  O   UNL A   1      34.399  24.805  22.905  1.00  0.00    -0.462 OA
BRANCH  71  72
ATOM     72  C   UNL A   1      33.222  24.886  22.224  1.00  0.00     0.329 C 
ATOM     73  O   UNL A   1      33.161  24.721  21.004  1.00  0.00    -0.250 OA
BRANCH  72  74
ATOM     74  C   UNL A   1      31.952  24.998  23.114  1.00  0.00     0.195 C 
BRANCH  74  75
ATOM     75  C   UNL A   1      30.873  26.052  22.852  1.00  0.00     0.074 C 
BRANCH  75  76
ATOM     76  C   UNL A   1      30.990  27.438  23.400  1.00  0.00    -0.020 A 
ATOM     77  C   UNL A   1      31.065  28.632  22.710  1.00  0.00     0.087 A 
ATOM     78  C   UNL A   1      31.238  27.751  24.779  1.00  0.00     0.003 A 
ATOM     79  N   UNL A   1      31.386  29.628  23.594  1.00  0.00    -0.361 N 
ATOM     80  C   UNL A   1      31.504  29.117  24.863  1.00  0.00     0.046 A 
ATOM     81  C   UNL A   1      31.311  26.980  25.960  1.00  0.00     0.010 A 
ATOM     82  H   UNL A   1      31.515  30.573  23.354  1.00  0.00     0.166 HD
ATOM     83  C   UNL A   1      31.842  29.750  26.065  1.00  0.00     0.026 A 
ATOM     84  C   UNL A   1      31.633  27.597  27.172  1.00  0.00     0.001 A 
ATOM     85  C   UNL A   1      31.897  28.963  27.220  1.00  0.00     0.002 A 
ENDBRANCH  75  76
ENDBRANCH  74  75
BRANCH  74  86
ATOM     86  N   UNL A   1      31.280  23.684  23.167  1.00  0.00    -0.356 N 
ATOM     87  H   UNL A   1      30.358  23.622  22.829  1.00  0.00     0.163 HD
BRANCH  86  88
ATOM     88  C   UNL A   1      31.867  22.540  23.660  1.00  0.00     0.137 A 
ATOM     89  N   UNL A   1      31.798  21.534  22.773  1.00  0.00    -0.219 NA
ATOM     90  C   UNL A   1      32.426  22.375  24.946  1.00  0.00     0.043 A 
ATOM     91  C   UNL A   1      32.328  20.367  23.140  1.00  0.00     0.224 A 
ATOM     92  C   UNL A   1      32.926  21.088  25.207  1.00  0.00     0.076 A 
ATOM     93  C   UNL A   1      32.490  23.340  25.991  1.00  0.00     0.014 A 
ATOM     94  N   UNL A   1      32.895  20.094  24.315  1.00  0.00    -0.236 NA
ATOM     95  C   UNL A   1      33.464  20.808  26.457  1.00  0.00     0.029 A 
ATOM     96  C   UNL A   1      33.043  23.038  27.236  1.00  0.00     0.001 A 
ATOM     97  C   UNL A   1      33.529  21.765  27.471  1.00  0.00     0.002 A 
ENDBRANCH  86  88
ENDBRANCH  74  86
ENDBRANCH  72  74
ENDBRANCH  71  72
ENDBRANCH  70  71
ENDBRANCH  69  70
ENDBRANCH  68  69
ENDBRANCH  67  68
ENDBRANCH  66  67
ENDBRANCH   1  66
TORSDOF 24
ENDMDL
MODEL 3
REMARK VINA RESULT:     -10.6      0.764      5.835
REMARK SMILES O=C(OCCOCCOCCOCCOC(=O)[C@@H](Cc1c[nH]c2ccccc12)Nc1ncnc2ccccc12)c1ccc(-c2c3nc(c(-c4c(F)cccc4F)c4ccc([nH]4)c(-c4c(F)cccc4F)c4nc(c(-c5c(F)cccc5F)c5ccc2[nH]5)C=C4)C=C3)cc1
REMARK SMILES IDX 9 1 8 2 7 3 6 4 5 5 4 6 3 7 2 8 1 9 40 10 41 11 93 12 42 13
REMARK SMILES IDX 92 14 43 15 44 16 45 17 86 18 46 19 91 20 85 21 87 22 47 23
REMARK SMILES IDX 90 24 84 25 83 26 48 28 74 29 57 30 73 31 58 32 61 33 72 34
REMARK SMILES IDX 88 35 59 36 60 37 71 39 89 40 62 41 49 42 50 43 55 44 51 45
REMARK SMILES IDX 52 46 54 47 56 48 53 49 75 50 76 51 81 52 77 53 78 54 80 55
REMARK SMILES IDX 82 56 79 57 63 58 64 59 69 60 65 61 66 62 68 63 70 64 67 65
REMARK SMILES IDX 10 66 11 67 12 68 13 69 14 70 15 71 16 72 17 73 18 74 19 75
REMARK SMILES IDX 20 76 21 77 28 78 22 79 23 80 27 81 24 83 26 84 25 85 29 86
REMARK SMILES IDX 30 88 31 89 39 90 32 91 34 92 38 93 33 94 35 95 37 96 36 97
REMARK H PARENT 87 27 61 38 22 82 29 87
REMARK Flexibility Score: inf
ROOT
ATOM      1  O   UNL A   1      42.664  18.962  26.785  1.00  0.00    -0.377 OA
ENDROOT
BRANCH   1   2
ATOM      2  C   UNL A   1      43.052  19.028  25.423  1.00  0.00     0.188 C 
BRANCH   2   3
ATOM      3  C   UNL A   1      44.438  19.578  25.177  1.00  0.00     0.188 C 
BRANCH   3   4
ATOM      4  O   UNL A   1      44.518  20.171  23.889  1.00  0.00    -0.376 OA
BRANCH   4   5
ATOM      5  C   UNL A   1      44.947  21.528  23.921  1.00  0.00     0.202 C 
BRANCH   5   6
ATOM      6  C   UNL A   1      44.781  22.196  25.294  1.00  0.00     0.261 C 
BRANCH   6   7
ATOM      7  O   UNL A   1      43.846  23.294  25.320  1.00  0.00    -0.460 OA
BRANCH   7   8
ATOM      8  C   UNL A   1      44.092  24.626  25.417  1.00  0.00     0.338 C 
ATOM      9  O   UNL A   1      44.921  25.122  24.654  1.00  0.00    -0.246 OA
BRANCH   8  10
ATOM     10  C   UNL A   1      43.509  25.517  26.475  1.00  0.00     0.060 A 
ATOM     11  C   UNL A   1      43.954  26.801  26.764  1.00  0.00     0.016 A 
ATOM     12  C   UNL A   1      42.383  25.053  27.185  1.00  0.00     0.016 A 
ATOM     13  C   UNL A   1      43.310  27.625  27.671  1.00  0.00     0.010 A 
ATOM     14  C   UNL A   1      41.751  25.852  28.151  1.00  0.00     0.010 A 
ATOM     15  C   UNL A   1      42.230  27.141  28.397  1.00  0.00    -0.014 A 
BRANCH  15  16
ATOM     16  C   UNL A   1      41.851  27.943  29.571  1.00  0.00     0.031 A 
ATOM     17  C   UNL A   1      40.608  28.776  29.450  1.00  0.00     0.074 A 
ATOM     18  C   UNL A   1      42.434  27.714  30.759  1.00  0.00     0.049 A 
ATOM     19  N   UNL A   1      40.028  29.537  30.335  1.00  0.00    -0.248 NA
ATOM     20  C   UNL A   1      39.896  28.699  28.160  1.00  0.00     0.031 C 
ATOM     21  C   UNL A   1      43.508  26.746  30.998  1.00  0.00     0.029 A 
ATOM     22  N   UNL A   1      42.169  28.233  31.997  1.00  0.00    -0.354 N 
ATOM     23  C   UNL A   1      38.900  30.045  29.703  1.00  0.00     0.074 A 
ATOM     24  C   UNL A   1      38.863  29.496  28.369  1.00  0.00     0.031 C 
ATOM     25  C   UNL A   1      43.800  26.734  32.309  1.00  0.00     0.029 A 
ATOM     26  C   UNL A   1      42.984  27.737  32.986  1.00  0.00     0.049 A 
ATOM     27  H   UNL A   1      41.462  28.898  32.163  1.00  0.00     0.167 HD
ATOM     28  C   UNL A   1      37.989  30.912  30.197  1.00  0.00     0.037 A 
ATOM     29  C   UNL A   1      43.073  28.096  34.280  1.00  0.00     0.037 A 
ATOM     30  C   UNL A   1      38.071  31.453  31.524  1.00  0.00     0.049 A 
ATOM     31  C   UNL A   1      42.148  29.181  34.766  1.00  0.00     0.074 A 
ATOM     32  C   UNL A   1      37.307  32.440  32.112  1.00  0.00     0.029 A 
ATOM     33  N   UNL A   1      38.996  31.033  32.472  1.00  0.00    -0.354 N 
ATOM     34  N   UNL A   1      41.160  29.769  34.131  1.00  0.00    -0.248 NA
ATOM     35  C   UNL A   1      42.364  29.676  36.130  1.00  0.00     0.031 C 
ATOM     36  C   UNL A   1      37.799  32.647  33.407  1.00  0.00     0.029 A 
ATOM     37  C   UNL A   1      38.837  31.755  33.638  1.00  0.00     0.049 A 
ATOM     38  H   UNL A   1      39.666  30.325  32.333  1.00  0.00     0.167 HD
ATOM     39  C   UNL A   1      40.634  30.698  35.016  1.00  0.00     0.074 A 
ATOM     40  C   UNL A   1      41.396  30.574  36.244  1.00  0.00     0.031 C 
ATOM     41  C   UNL A   1      39.622  31.583  34.836  1.00  0.00     0.037 A 
BRANCH  28  42
ATOM     42  C   UNL A   1      36.928  31.385  29.251  1.00  0.00     0.057 A 
ATOM     43  C   UNL A   1      36.938  32.672  28.699  1.00  0.00     0.134 A 
ATOM     44  C   UNL A   1      35.835  30.561  28.955  1.00  0.00     0.134 A 
ATOM     45  F   UNL A   1      37.934  33.526  28.979  1.00  0.00    -0.206 F 
ATOM     46  C   UNL A   1      35.882  33.132  27.905  1.00  0.00     0.040 A 
ATOM     47  C   UNL A   1      34.785  31.002  28.148  1.00  0.00     0.040 A 
ATOM     48  F   UNL A   1      35.757  29.324  29.467  1.00  0.00    -0.206 F 
ATOM     49  C   UNL A   1      34.802  32.295  27.629  1.00  0.00     0.006 A 
ENDBRANCH  28  42
BRANCH  29  50
ATOM     50  C   UNL A   1      44.115  27.507  35.164  1.00  0.00     0.057 A 
ATOM     51  C   UNL A   1      43.844  26.423  36.006  1.00  0.00     0.134 A 
ATOM     52  C   UNL A   1      45.409  28.045  35.215  1.00  0.00     0.134 A 
ATOM     53  F   UNL A   1      42.621  25.874  36.028  1.00  0.00    -0.206 F 
ATOM     54  C   UNL A   1      44.812  25.907  36.873  1.00  0.00     0.040 A 
ATOM     55  C   UNL A   1      46.395  27.522  36.054  1.00  0.00     0.040 A 
ATOM     56  F   UNL A   1      45.740  29.091  34.443  1.00  0.00    -0.206 F 
ATOM     57  C   UNL A   1      46.093  26.454  36.894  1.00  0.00     0.006 A 
ENDBRANCH  29  50
BRANCH  41  58
ATOM     58  C   UNL A   1      39.281  32.458  36.001  1.00  0.00     0.057 A 
ATOM     59  C   UNL A   1      38.393  32.039  36.998  1.00  0.00     0.134 A 
ATOM     60  C   UNL A   1      39.891  33.709  36.149  1.00  0.00     0.134 A 
ATOM     61  F   UNL A   1      37.770  30.855  36.901  1.00  0.00    -0.206 F 
ATOM     62  C   UNL A   1      38.112  32.844  38.100  1.00  0.00     0.040 A 
ATOM     63  C   UNL A   1      39.637  34.512  37.259  1.00  0.00     0.040 A 
ATOM     64  F   UNL A   1      40.758  34.158  35.228  1.00  0.00    -0.206 F 
ATOM     65  C   UNL A   1      38.741  34.081  38.236  1.00  0.00     0.006 A 
ENDBRANCH  41  58
ENDBRANCH  15  16
ENDBRANCH   8  10
ENDBRANCH   7   8
ENDBRANCH   6   7
ENDBRANCH   5   6
ENDBRANCH   4   5
ENDBRANCH   3   4
ENDBRANCH   2   3
ENDBRANCH   1   2
BRANCH   1  66
ATOM     66  C   UNL A   1      41.535  19.690  27.249  1.00  0.00     0.188 C 
BRANCH  66  67
ATOM     67  C   UNL A   1      41.445  21.198  26.958  1.00  0.00     0.188 C 
BRANCH  67  68
ATOM     68  O   UNL A   1      40.247  21.605  26.327  1.00  0.00    -0.376 OA
BRANCH  68  69
ATOM     69  C   UNL A   1      39.477  20.619  25.634  1.00  0.00     0.202 C 
BRANCH  69  70
ATOM     70  C   UNL A   1      37.989  20.856  25.310  1.00  0.00     0.261 C 
BRANCH  70  71
ATOM     71  O   UNL A   1      37.723  22.123  24.679  1.00  0.00    -0.462 OA
BRANCH  71  72
ATOM     72  C   UNL A   1      36.937  22.967  25.403  1.00  0.00     0.329 C 
ATOM     73  O   UNL A   1      37.413  23.809  26.167  1.00  0.00    -0.250 OA
BRANCH  72  74
ATOM     74  C   UNL A   1      35.424  22.927  25.046  1.00  0.00     0.195 C 
BRANCH  74  75
ATOM     75  C   UNL A   1      34.508  21.802  25.534  1.00  0.00     0.074 C 
BRANCH  75  76
ATOM     76  C   UNL A   1      33.676  21.007  24.579  1.00  0.00    -0.020 A 
ATOM     77  C   UNL A   1      32.499  21.371  23.954  1.00  0.00     0.087 A 
ATOM     78  C   UNL A   1      33.877  19.615  24.287  1.00  0.00     0.003 A 
ATOM     79  N   UNL A   1      31.968  20.264  23.346  1.00  0.00    -0.361 N 
ATOM     80  C   UNL A   1      32.785  19.177  23.539  1.00  0.00     0.046 A 
ATOM     81  C   UNL A   1      34.869  18.675  24.640  1.00  0.00     0.010 A 
ATOM     82  H   UNL A   1      31.122  20.250  22.844  1.00  0.00     0.166 HD
ATOM     83  C   UNL A   1      32.633  17.848  23.128  1.00  0.00     0.026 A 
ATOM     84  C   UNL A   1      34.741  17.346  24.226  1.00  0.00     0.001 A 
ATOM     85  C   UNL A   1      33.636  16.939  23.483  1.00  0.00     0.002 A 
ENDBRANCH  75  76
ENDBRANCH  74  75
BRANCH  74  86
ATOM     86  N   UNL A   1      34.799  24.206  25.443  1.00  0.00    -0.356 N 
ATOM     87  H   UNL A   1      34.818  24.453  26.395  1.00  0.00     0.163 HD
BRANCH  86  88
ATOM     88  C   UNL A   1      34.192  25.071  24.561  1.00  0.00     0.137 A 
ATOM     89  N   UNL A   1      34.201  24.579  23.311  1.00  0.00    -0.219 NA
ATOM     90  C   UNL A   1      33.670  26.347  24.866  1.00  0.00     0.043 A 
ATOM     91  C   UNL A   1      33.645  25.333  22.361  1.00  0.00     0.224 A 
ATOM     92  C   UNL A   1      33.138  27.041  23.766  1.00  0.00     0.076 A 
ATOM     93  C   UNL A   1      33.670  27.001  26.131  1.00  0.00     0.014 A 
ATOM     94  N   UNL A   1      33.108  26.542  22.528  1.00  0.00    -0.236 NA
ATOM     95  C   UNL A   1      32.631  28.322  23.951  1.00  0.00     0.029 A 
ATOM     96  C   UNL A   1      33.148  28.285  26.294  1.00  0.00     0.001 A 
ATOM     97  C   UNL A   1      32.629  28.949  25.197  1.00  0.00     0.002 A 
ENDBRANCH  86  88
ENDBRANCH  74  86
ENDBRANCH  72  74
ENDBRANCH  71  72
ENDBRANCH  70  71
ENDBRANCH  69  70
ENDBRANCH  68  69
ENDBRANCH  67  68
ENDBRANCH  66  67
ENDBRANCH   1  66
TORSDOF 24
ENDMDL
