MODEL 1
REMARK VINA RESULT:     -10.4      0.000      0.000
REMARK SMILES CCCC[C@H](C(=O)OCCOCCOCCOCCOC(=O)c1ccc(-c2c3nc(c(-c4c(F)cccc4F)c4ccc([nH]4)c(-c4c(F)cccc4F)c4nc(c(-c5c(F)cccc5F)c5ccc2[nH]5)C=C4)C=C3)cc1)N1C(=O)/C(=C/c2cccc(Br)c2)SC1=S
REMARK SMILES IDX 13 1 12 2 11 3 10 4 9 5 8 6 6 7 7 8 5 9 4 10 3 11 2 12 1 13
REMARK SMILES IDX 77 14 78 15 90 16 79 17 80 18 89 19 91 20 81 21 82 22 83 23
REMARK SMILES IDX 88 24 84 25 86 26 85 27 87 28 14 29 15 30 16 31 17 32 18 33
REMARK SMILES IDX 19 34 20 35 21 36 22 37 23 38 24 39 76 40 25 41 75 42 26 43
REMARK SMILES IDX 27 44 28 45 69 46 29 47 74 48 68 49 70 50 30 51 73 52 67 53
REMARK SMILES IDX 66 54 31 56 57 57 40 58 56 59 41 60 44 61 55 62 71 63 42 64
REMARK SMILES IDX 43 65 54 67 72 68 45 69 32 70 33 71 38 72 34 73 35 74 37 75
REMARK SMILES IDX 39 76 36 77 58 78 59 79 64 80 60 81 61 82 63 83 65 84 62 85
REMARK SMILES IDX 46 86 47 87 52 88 48 89 49 90 51 91 53 92 50 93
REMARK H PARENT 70 55 44 66
REMARK Flexibility Score: inf
ROOT
ATOM      1  C   UNL A   1      39.616  21.750  26.515  1.00  0.00     0.188 C 
ENDROOT
BRANCH   1   2
ATOM      2  C   UNL A   1      38.298  21.919  25.744  1.00  0.00     0.188 C 
BRANCH   2   3
ATOM      3  O   UNL A   1      37.607  23.133  25.927  1.00  0.00    -0.376 OA
BRANCH   3   4
ATOM      4  C   UNL A   1      36.209  23.205  25.699  1.00  0.00     0.202 C 
BRANCH   4   5
ATOM      5  C   UNL A   1      35.437  24.487  25.318  1.00  0.00     0.261 C 
BRANCH   5   6
ATOM      6  O   UNL A   1      34.334  24.870  26.155  1.00  0.00    -0.462 OA
BRANCH   6   7
ATOM      7  C   UNL A   1      33.514  25.841  25.667  1.00  0.00     0.329 C 
ATOM      8  O   UNL A   1      33.895  26.981  25.404  1.00  0.00    -0.250 OA
BRANCH   7   9
ATOM      9  C   UNL A   1      32.079  25.355  25.286  1.00  0.00     0.202 C 
BRANCH   9  10
ATOM     10  C   UNL A   1      31.433  26.680  24.732  1.00  0.00     0.038 C 
BRANCH  10  11
ATOM     11  C   UNL A   1      31.065  27.932  25.522  1.00  0.00     0.002 C 
BRANCH  11  12
ATOM     12  C   UNL A   1      31.360  29.260  24.843  1.00  0.00    -0.003 C 
ATOM     13  C   UNL A   1      32.004  30.235  25.811  1.00  0.00     0.004 C 
ENDBRANCH  11  12
ENDBRANCH  10  11
ENDBRANCH   9  10
BRANCH   9  14
ATOM     14  N   UNL A   1      32.017  24.033  24.579  1.00  0.00    -0.278 N 
ATOM     15  C   UNL A   1      31.693  22.831  25.177  1.00  0.00     0.266 C 
ATOM     16  C   UNL A   1      32.503  23.882  23.280  1.00  0.00     0.149 C 
ATOM     17  O   UNL A   1      31.081  22.632  26.214  1.00  0.00    -0.268 OA
ATOM     18  C   UNL A   1      32.192  21.676  24.383  1.00  0.00     0.081 C 
ATOM     19  S   UNL A   1      32.475  22.186  22.787  1.00  0.00    -0.054 SA
ATOM     20  S   UNL A   1      33.127  25.036  22.241  1.00  0.00    -0.052 S 
ATOM     21  C   UNL A   1      32.385  20.483  24.968  1.00  0.00     0.029 C 
BRANCH  21  22
ATOM     22  C   UNL A   1      32.795  19.194  24.385  1.00  0.00    -0.023 A 
ATOM     23  C   UNL A   1      32.304  18.887  23.104  1.00  0.00     0.008 A 
ATOM     24  C   UNL A   1      33.614  18.260  25.027  1.00  0.00     0.023 A 
ATOM     25  C   UNL A   1      32.686  17.718  22.446  1.00  0.00     0.002 A 
ATOM     26  C   UNL A   1      34.006  17.096  24.358  1.00  0.00     0.018 A 
ATOM     27  C   UNL A   1      33.557  16.828  23.067  1.00  0.00     0.016 A 
ATOM     28  Br  UNL A   1      35.180  15.879  25.206  1.00  0.00    -0.051 Br
ENDBRANCH  21  22
ENDBRANCH   9  14
ENDBRANCH   7   9
ENDBRANCH   6   7
ENDBRANCH   5   6
ENDBRANCH   4   5
ENDBRANCH   3   4
ENDBRANCH   2   3
ENDBRANCH   1   2
BRANCH   1  29
ATOM     29  O   UNL A   1      40.790  21.415  25.798  1.00  0.00    -0.377 OA
BRANCH  29  30
ATOM     30  C   UNL A   1      41.732  20.526  26.385  1.00  0.00     0.188 C 
BRANCH  30  31
ATOM     31  C   UNL A   1      42.744  19.743  25.521  1.00  0.00     0.188 C 
BRANCH  31  32
ATOM     32  O   UNL A   1      44.101  19.872  25.905  1.00  0.00    -0.376 OA
BRANCH  32  33
ATOM     33  C   UNL A   1      44.993  20.532  25.022  1.00  0.00     0.202 C 
BRANCH  33  34
ATOM     34  C   UNL A   1      45.500  21.929  25.421  1.00  0.00     0.261 C 
BRANCH  34  35
ATOM     35  O   UNL A   1      44.572  22.760  26.135  1.00  0.00    -0.460 OA
BRANCH  35  36
ATOM     36  C   UNL A   1      43.686  23.482  25.419  1.00  0.00     0.338 C 
ATOM     37  O   UNL A   1      43.298  23.265  24.282  1.00  0.00    -0.246 OA
BRANCH  36  38
ATOM     38  C   UNL A   1      43.109  24.498  26.320  1.00  0.00     0.060 A 
ATOM     39  C   UNL A   1      43.601  25.810  26.274  1.00  0.00     0.016 A 
ATOM     40  C   UNL A   1      42.077  24.158  27.196  1.00  0.00     0.016 A 
ATOM     41  C   UNL A   1      43.074  26.782  27.124  1.00  0.00     0.010 A 
ATOM     42  C   UNL A   1      41.569  25.127  28.065  1.00  0.00     0.010 A 
ATOM     43  C   UNL A   1      42.083  26.436  28.051  1.00  0.00    -0.014 A 
BRANCH  43  44
ATOM     44  C   UNL A   1      41.704  27.391  29.118  1.00  0.00     0.031 A 
ATOM     45  C   UNL A   1      42.483  27.376  30.404  1.00  0.00     0.074 A 
ATOM     46  C   UNL A   1      40.697  28.264  28.948  1.00  0.00     0.049 A 
ATOM     47  N   UNL A   1      42.294  28.065  31.500  1.00  0.00    -0.248 NA
ATOM     48  C   UNL A   1      43.630  26.455  30.461  1.00  0.00     0.031 C 
ATOM     49  C   UNL A   1      39.898  28.407  27.732  1.00  0.00     0.029 A 
ATOM     50  N   UNL A   1      40.166  29.189  29.813  1.00  0.00    -0.354 N 
ATOM     51  C   UNL A   1      43.291  27.656  32.377  1.00  0.00     0.074 A 
ATOM     52  C   UNL A   1      44.064  26.640  31.698  1.00  0.00     0.031 C 
ATOM     53  C   UNL A   1      38.966  29.355  27.935  1.00  0.00     0.029 A 
ATOM     54  C   UNL A   1      39.078  29.854  29.305  1.00  0.00     0.049 A 
ATOM     55  H   UNL A   1      40.532  29.358  30.710  1.00  0.00     0.167 HD
ATOM     56  C   UNL A   1      43.540  28.093  33.634  1.00  0.00     0.037 A 
ATOM     57  C   UNL A   1      38.250  30.740  29.892  1.00  0.00     0.037 A 
ATOM     58  C   UNL A   1      42.763  29.100  34.309  1.00  0.00     0.049 A 
ATOM     59  C   UNL A   1      38.493  31.143  31.325  1.00  0.00     0.074 A 
ATOM     60  C   UNL A   1      42.948  29.626  35.575  1.00  0.00     0.029 A 
ATOM     61  N   UNL A   1      41.643  29.721  33.777  1.00  0.00    -0.354 N 
ATOM     62  N   UNL A   1      39.454  30.776  32.138  1.00  0.00    -0.248 NA
ATOM     63  C   UNL A   1      37.532  32.083  31.922  1.00  0.00     0.031 C 
ATOM     64  C   UNL A   1      41.904  30.519  35.833  1.00  0.00     0.029 A 
ATOM     65  C   UNL A   1      41.105  30.598  34.704  1.00  0.00     0.049 A 
ATOM     66  H   UNL A   1      41.284  29.563  32.874  1.00  0.00     0.167 HD
ATOM     67  C   UNL A   1      39.228  31.456  33.330  1.00  0.00     0.074 A 
ATOM     68  C   UNL A   1      38.051  32.274  33.125  1.00  0.00     0.031 C 
ATOM     69  C   UNL A   1      39.931  31.407  34.489  1.00  0.00     0.037 A 
BRANCH  56  70
ATOM     70  C   UNL A   1      44.683  27.458  34.374  1.00  0.00     0.057 A 
ATOM     71  C   UNL A   1      45.977  27.992  34.344  1.00  0.00     0.134 A 
ATOM     72  C   UNL A   1      44.476  26.312  35.152  1.00  0.00     0.134 A 
ATOM     73  F   UNL A   1      46.248  29.080  33.607  1.00  0.00    -0.206 F 
ATOM     74  C   UNL A   1      47.029  27.396  35.043  1.00  0.00     0.040 A 
ATOM     75  C   UNL A   1      45.513  25.724  35.878  1.00  0.00     0.040 A 
ATOM     76  F   UNL A   1      43.260  25.749  35.227  1.00  0.00    -0.206 F 
ATOM     77  C   UNL A   1      46.796  26.262  35.819  1.00  0.00     0.006 A 
ENDBRANCH  56  70
BRANCH  57  78
ATOM     78  C   UNL A   1      37.092  31.291  29.141  1.00  0.00     0.057 A 
ATOM     79  C   UNL A   1      37.109  32.595  28.633  1.00  0.00     0.134 A 
ATOM     80  C   UNL A   1      35.929  30.537  28.940  1.00  0.00     0.134 A 
ATOM     81  F   UNL A   1      38.182  33.377  28.816  1.00  0.00    -0.206 F 
ATOM     82  C   UNL A   1      36.005  33.136  27.969  1.00  0.00     0.040 A 
ATOM     83  C   UNL A   1      34.830  31.054  28.252  1.00  0.00     0.040 A 
ATOM     84  F   UNL A   1      35.846  29.281  29.405  1.00  0.00    -0.206 F 
ATOM     85  C   UNL A   1      34.864  32.361  27.772  1.00  0.00     0.006 A 
ENDBRANCH  57  78
BRANCH  69  86
ATOM     86  C   UNL A   1      39.463  32.280  35.618  1.00  0.00     0.057 A 
ATOM     87  C   UNL A   1      39.904  33.601  35.766  1.00  0.00     0.134 A 
ATOM     88  C   UNL A   1      38.526  31.805  36.548  1.00  0.00     0.134 A 
ATOM     89  F   UNL A   1      40.807  34.115  34.919  1.00  0.00    -0.206 F 
ATOM     90  C   UNL A   1      39.450  34.410  36.811  1.00  0.00     0.040 A 
ATOM     91  C   UNL A   1      38.042  32.614  37.577  1.00  0.00     0.040 A 
ATOM     92  F   UNL A   1      38.052  30.554  36.459  1.00  0.00    -0.206 F 
ATOM     93  C   UNL A   1      38.511  33.918  37.715  1.00  0.00     0.006 A 
ENDBRANCH  69  86
ENDBRANCH  43  44
ENDBRANCH  36  38
ENDBRANCH  35  36
ENDBRANCH  34  35
ENDBRANCH  33  34
ENDBRANCH  32  33
ENDBRANCH  31  32
ENDBRANCH  30  31
ENDBRANCH  29  30
ENDBRANCH   1  29
TORSDOF 25
ENDMDL
MODEL 2
REMARK VINA RESULT:      -9.0      1.628      2.434
REMARK SMILES CCCC[C@H](C(=O)OCCOCCOCCOCCOC(=O)c1ccc(-c2c3nc(c(-c4c(F)cccc4F)c4ccc([nH]4)c(-c4c(F)cccc4F)c4nc(c(-c5c(F)cccc5F)c5ccc2[nH]5)C=C4)C=C3)cc1)N1C(=O)/C(=C/c2cccc(Br)c2)SC1=S
REMARK SMILES IDX 13 1 12 2 11 3 10 4 9 5 8 6 6 7 7 8 5 9 4 10 3 11 2 12 1 13
REMARK SMILES IDX 77 14 78 15 90 16 79 17 80 18 89 19 91 20 81 21 82 22 83 23
REMARK SMILES IDX 88 24 84 25 86 26 85 27 87 28 14 29 15 30 16 31 17 32 18 33
REMARK SMILES IDX 19 34 20 35 21 36 22 37 23 38 24 39 76 40 25 41 75 42 26 43
REMARK SMILES IDX 27 44 28 45 69 46 29 47 74 48 68 49 70 50 30 51 73 52 67 53
REMARK SMILES IDX 66 54 31 56 57 57 40 58 56 59 41 60 44 61 55 62 71 63 42 64
REMARK SMILES IDX 43 65 54 67 72 68 45 69 32 70 33 71 38 72 34 73 35 74 37 75
REMARK SMILES IDX 39 76 36 77 58 78 59 79 64 80 60 81 61 82 63 83 65 84 62 85
REMARK SMILES IDX 46 86 47 87 52 88 48 89 49 90 51 91 53 92 50 93
REMARK H PARENT 70 55 44 66
REMARK Flexibility Score: inf
ROOT
ATOM      1  C   UNL A   1      39.694  21.430  26.499  1.00  0.00     0.188 C 
ENDROOT
BRANCH   1   2
ATOM      2  C   UNL A   1      38.404  21.530  25.670  1.00  0.00     0.188 C 
BRANCH   2   3
ATOM      3  O   UNL A   1      37.838  22.812  25.530  1.00  0.00    -0.376 OA
BRANCH   3   4
ATOM      4  C   UNL A   1      36.460  22.961  25.231  1.00  0.00     0.202 C 
BRANCH   4   5
ATOM      5  C   UNL A   1      35.794  24.264  24.739  1.00  0.00     0.261 C 
BRANCH   5   6
ATOM      6  O   UNL A   1      34.936  24.958  25.660  1.00  0.00    -0.462 OA
BRANCH   6   7
ATOM      7  C   UNL A   1      33.872  25.612  25.117  1.00  0.00     0.329 C 
ATOM      8  O   UNL A   1      33.984  26.552  24.330  1.00  0.00    -0.250 OA
BRANCH   7   9
ATOM      9  C   UNL A   1      32.482  24.966  25.420  1.00  0.00     0.202 C 
BRANCH   9  10
ATOM     10  C   UNL A   1      31.498  26.123  25.009  1.00  0.00     0.038 C 
BRANCH  10  11
ATOM     11  C   UNL A   1      30.207  26.002  24.204  1.00  0.00     0.002 C 
BRANCH  11  12
ATOM     12  C   UNL A   1      29.700  27.280  23.558  1.00  0.00    -0.003 C 
ATOM     13  C   UNL A   1      30.842  28.080  22.961  1.00  0.00     0.004 C 
ENDBRANCH  11  12
ENDBRANCH  10  11
ENDBRANCH   9  10
BRANCH   9  14
ATOM     14  N   UNL A   1      32.329  23.540  24.982  1.00  0.00    -0.278 N 
ATOM     15  C   UNL A   1      32.264  22.453  25.832  1.00  0.00     0.266 C 
ATOM     16  C   UNL A   1      32.460  23.175  23.641  1.00  0.00     0.149 C 
ATOM     17  O   UNL A   1      31.967  22.424  27.015  1.00  0.00    -0.268 OA
ATOM     18  C   UNL A   1      32.615  21.189  25.129  1.00  0.00     0.081 C 
ATOM     19  S   UNL A   1      32.425  21.419  23.456  1.00  0.00    -0.054 SA
ATOM     20  S   UNL A   1      32.700  24.144  22.298  1.00  0.00    -0.052 S 
ATOM     21  C   UNL A   1      33.043  20.123  25.823  1.00  0.00     0.029 C 
BRANCH  21  22
ATOM     22  C   UNL A   1      33.373  18.762  25.366  1.00  0.00    -0.023 A 
ATOM     23  C   UNL A   1      34.510  18.620  24.553  1.00  0.00     0.008 A 
ATOM     24  C   UNL A   1      32.625  17.621  25.672  1.00  0.00     0.023 A 
ATOM     25  C   UNL A   1      34.938  17.363  24.123  1.00  0.00     0.002 A 
ATOM     26  C   UNL A   1      33.064  16.362  25.251  1.00  0.00     0.018 A 
ATOM     27  C   UNL A   1      34.223  16.227  24.490  1.00  0.00     0.016 A 
ATOM     28  Br  UNL A   1      32.087  14.817  25.738  1.00  0.00    -0.051 Br
ENDBRANCH  21  22
ENDBRANCH   9  14
ENDBRANCH   7   9
ENDBRANCH   6   7
ENDBRANCH   5   6
ENDBRANCH   4   5
ENDBRANCH   3   4
ENDBRANCH   2   3
ENDBRANCH   1   2
BRANCH   1  29
ATOM     29  O   UNL A   1      40.936  21.663  25.860  1.00  0.00    -0.377 OA
BRANCH  29  30
ATOM     30  C   UNL A   1      42.136  21.261  26.508  1.00  0.00     0.188 C 
BRANCH  30  31
ATOM     31  C   UNL A   1      43.494  21.290  25.774  1.00  0.00     0.188 C 
BRANCH  31  32
ATOM     32  O   UNL A   1      44.389  22.307  26.187  1.00  0.00    -0.376 OA
BRANCH  32  33
ATOM     33  C   UNL A   1      44.730  23.325  25.259  1.00  0.00     0.202 C 
BRANCH  33  34
ATOM     34  C   UNL A   1      43.964  24.657  25.337  1.00  0.00     0.261 C 
BRANCH  34  35
ATOM     35  O   UNL A   1      42.940  24.742  26.340  1.00  0.00    -0.460 OA
BRANCH  35  36
ATOM     36  C   UNL A   1      41.738  25.236  25.979  1.00  0.00     0.338 C 
ATOM     37  O   UNL A   1      40.996  24.819  25.106  1.00  0.00    -0.246 OA
BRANCH  36  38
ATOM     38  C   UNL A   1      41.374  26.280  26.957  1.00  0.00     0.060 A 
ATOM     39  C   UNL A   1      41.879  27.577  26.792  1.00  0.00     0.016 A 
ATOM     40  C   UNL A   1      40.527  25.979  28.025  1.00  0.00     0.016 A 
ATOM     41  C   UNL A   1      41.553  28.574  27.711  1.00  0.00     0.010 A 
ATOM     42  C   UNL A   1      40.223  26.973  28.959  1.00  0.00     0.010 A 
ATOM     43  C   UNL A   1      40.756  28.267  28.820  1.00  0.00    -0.014 A 
BRANCH  43  44
ATOM     44  C   UNL A   1      40.617  29.246  29.924  1.00  0.00     0.031 A 
ATOM     45  C   UNL A   1      41.591  29.180  31.068  1.00  0.00     0.074 A 
ATOM     46  C   UNL A   1      39.654  30.184  29.908  1.00  0.00     0.049 A 
ATOM     47  N   UNL A   1      41.626  29.881  32.172  1.00  0.00    -0.248 NA
ATOM     48  C   UNL A   1      42.669  28.185  30.950  1.00  0.00     0.031 C 
ATOM     49  C   UNL A   1      38.682  30.378  28.835  1.00  0.00     0.029 A 
ATOM     50  N   UNL A   1      39.332  31.142  30.836  1.00  0.00    -0.354 N 
ATOM     51  C   UNL A   1      42.722  29.407  32.882  1.00  0.00     0.074 A 
ATOM     52  C   UNL A   1      43.308  28.342  32.099  1.00  0.00     0.031 C 
ATOM     53  C   UNL A   1      37.858  31.386  29.174  1.00  0.00     0.029 A 
ATOM     54  C   UNL A   1      38.222  31.877  30.502  1.00  0.00     0.049 A 
ATOM     55  H   UNL A   1      39.849  31.288  31.661  1.00  0.00     0.167 HD
ATOM     56  C   UNL A   1      43.199  29.828  34.077  1.00  0.00     0.037 A 
ATOM     57  C   UNL A   1      37.559  32.817  31.205  1.00  0.00     0.037 A 
ATOM     58  C   UNL A   1      42.609  30.884  34.857  1.00  0.00     0.049 A 
ATOM     59  C   UNL A   1      38.056  33.204  32.575  1.00  0.00     0.074 A 
ATOM     60  C   UNL A   1      43.030  31.398  36.070  1.00  0.00     0.029 A 
ATOM     61  N   UNL A   1      41.460  31.578  34.505  1.00  0.00    -0.354 N 
ATOM     62  N   UNL A   1      39.110  32.775  33.227  1.00  0.00    -0.248 NA
ATOM     63  C   UNL A   1      37.267  34.206  33.308  1.00  0.00     0.031 C 
ATOM     64  C   UNL A   1      42.101  32.358  36.483  1.00  0.00     0.029 A 
ATOM     65  C   UNL A   1      41.137  32.490  35.497  1.00  0.00     0.049 A 
ATOM     66  H   UNL A   1      40.951  31.443  33.674  1.00  0.00     0.167 HD
ATOM     67  C   UNL A   1      39.124  33.469  34.432  1.00  0.00     0.074 A 
ATOM     68  C   UNL A   1      37.985  34.363  34.410  1.00  0.00     0.031 C 
ATOM     69  C   UNL A   1      39.999  33.374  35.464  1.00  0.00     0.037 A 
BRANCH  56  70
ATOM     70  C   UNL A   1      44.402  29.119  34.631  1.00  0.00     0.057 A 
ATOM     71  C   UNL A   1      44.289  27.982  35.441  1.00  0.00     0.134 A 
ATOM     72  C   UNL A   1      45.694  29.566  34.324  1.00  0.00     0.134 A 
ATOM     73  F   UNL A   1      43.081  27.510  35.786  1.00  0.00    -0.206 F 
ATOM     74  C   UNL A   1      45.416  27.329  35.943  1.00  0.00     0.040 A 
ATOM     75  C   UNL A   1      46.828  28.904  34.796  1.00  0.00     0.040 A 
ATOM     76  F   UNL A   1      45.876  30.648  33.551  1.00  0.00    -0.206 F 
ATOM     77  C   UNL A   1      46.691  27.786  35.614  1.00  0.00     0.006 A 
ENDBRANCH  56  70
BRANCH  57  78
ATOM     78  C   UNL A   1      36.333  33.443  30.644  1.00  0.00     0.057 A 
ATOM     79  C   UNL A   1      35.067  33.155  31.165  1.00  0.00     0.134 A 
ATOM     80  C   UNL A   1      36.397  34.322  29.556  1.00  0.00     0.134 A 
ATOM     81  F   UNL A   1      34.936  32.300  32.190  1.00  0.00    -0.206 F 
ATOM     82  C   UNL A   1      33.907  33.701  30.611  1.00  0.00     0.040 A 
ATOM     83  C   UNL A   1      35.249  34.898  29.011  1.00  0.00     0.040 A 
ATOM     84  F   UNL A   1      37.580  34.637  29.007  1.00  0.00    -0.206 F 
ATOM     85  C   UNL A   1      33.998  34.581  29.535  1.00  0.00     0.006 A 
ENDBRANCH  57  78
BRANCH  69  86
ATOM     86  C   UNL A   1      39.777  34.277  36.644  1.00  0.00     0.057 A 
ATOM     87  C   UNL A   1      40.297  35.577  36.691  1.00  0.00     0.134 A 
ATOM     88  C   UNL A   1      38.998  33.855  37.731  1.00  0.00     0.134 A 
ATOM     89  F   UNL A   1      41.060  36.041  35.690  1.00  0.00    -0.206 F 
ATOM     90  C   UNL A   1      40.072  36.415  37.786  1.00  0.00     0.040 A 
ATOM     91  C   UNL A   1      38.741  34.694  38.816  1.00  0.00     0.040 A 
ATOM     92  F   UNL A   1      38.460  32.626  37.746  1.00  0.00    -0.206 F 
ATOM     93  C   UNL A   1      39.285  35.975  38.849  1.00  0.00     0.006 A 
ENDBRANCH  69  86
ENDBRANCH  43  44
ENDBRANCH  36  38
ENDBRANCH  35  36
ENDBRANCH  34  35
ENDBRANCH  33  34
ENDBRANCH  32  33
ENDBRANCH  31  32
ENDBRANCH  30  31
ENDBRANCH  29  30
ENDBRANCH   1  29
TORSDOF 25
ENDMDL
MODEL 3
REMARK VINA RESULT:      -8.9      6.687     10.996
REMARK SMILES CCCC[C@H](C(=O)OCCOCCOCCOCCOC(=O)c1ccc(-c2c3nc(c(-c4c(F)cccc4F)c4ccc([nH]4)c(-c4c(F)cccc4F)c4nc(c(-c5c(F)cccc5F)c5ccc2[nH]5)C=C4)C=C3)cc1)N1C(=O)/C(=C/c2cccc(Br)c2)SC1=S
REMARK SMILES IDX 13 1 12 2 11 3 10 4 9 5 8 6 6 7 7 8 5 9 4 10 3 11 2 12 1 13
REMARK SMILES IDX 77 14 78 15 90 16 79 17 80 18 89 19 91 20 81 21 82 22 83 23
REMARK SMILES IDX 88 24 84 25 86 26 85 27 87 28 14 29 15 30 16 31 17 32 18 33
REMARK SMILES IDX 19 34 20 35 21 36 22 37 23 38 24 39 76 40 25 41 75 42 26 43
REMARK SMILES IDX 27 44 28 45 69 46 29 47 74 48 68 49 70 50 30 51 73 52 67 53
REMARK SMILES IDX 66 54 31 56 57 57 40 58 56 59 41 60 44 61 55 62 71 63 42 64
REMARK SMILES IDX 43 65 54 67 72 68 45 69 32 70 33 71 38 72 34 73 35 74 37 75
REMARK SMILES IDX 39 76 36 77 58 78 59 79 64 80 60 81 61 82 63 83 65 84 62 85
REMARK SMILES IDX 46 86 47 87 52 88 48 89 49 90 51 91 53 92 50 93
REMARK H PARENT 70 55 44 66
REMARK Flexibility Score: inf
ROOT
ATOM      1  C   UNL A   1      35.548  21.380  24.422  1.00  0.00     0.188 C 
ENDROOT
BRANCH   1   2
ATOM      2  C   UNL A   1      34.128  20.821  24.593  1.00  0.00     0.188 C 
BRANCH   2   3
ATOM      3  O   UNL A   1      33.085  21.543  23.980  1.00  0.00    -0.376 OA
BRANCH   3   4
ATOM      4  C   UNL A   1      33.375  22.576  23.052  1.00  0.00     0.202 C 
BRANCH   4   5
ATOM      5  C   UNL A   1      33.377  24.085  23.376  1.00  0.00     0.261 C 
BRANCH   5   6
ATOM      6  O   UNL A   1      32.339  24.890  22.792  1.00  0.00    -0.462 OA
BRANCH   6   7
ATOM      7  C   UNL A   1      31.104  24.782  23.355  1.00  0.00     0.329 C 
ATOM      8  O   UNL A   1      30.301  23.897  23.065  1.00  0.00    -0.250 OA
BRANCH   7   9
ATOM      9  C   UNL A   1      30.840  25.764  24.543  1.00  0.00     0.202 C 
BRANCH   9  10
ATOM     10  C   UNL A   1      30.420  24.768  25.688  1.00  0.00     0.038 C 
BRANCH  10  11
ATOM     11  C   UNL A   1      30.988  23.379  25.964  1.00  0.00     0.002 C 
BRANCH  11  12
ATOM     12  C   UNL A   1      31.436  23.113  27.392  1.00  0.00    -0.003 C 
ATOM     13  C   UNL A   1      32.875  22.635  27.431  1.00  0.00     0.004 C 
ENDBRANCH  11  12
ENDBRANCH  10  11
ENDBRANCH   9  10
BRANCH   9  14
ATOM     14  N   UNL A   1      31.855  26.855  24.711  1.00  0.00    -0.278 N 
ATOM     15  C   UNL A   1      32.858  26.862  25.659  1.00  0.00     0.266 C 
ATOM     16  C   UNL A   1      31.725  28.075  24.045  1.00  0.00     0.149 C 
ATOM     17  O   UNL A   1      33.343  25.923  26.268  1.00  0.00    -0.268 OA
ATOM     18  C   UNL A   1      33.362  28.241  25.909  1.00  0.00     0.081 C 
ATOM     19  S   UNL A   1      32.952  29.225  24.586  1.00  0.00    -0.054 SA
ATOM     20  S   UNL A   1      30.577  28.555  22.926  1.00  0.00    -0.052 S 
ATOM     21  C   UNL A   1      33.988  28.536  27.059  1.00  0.00     0.029 C 
BRANCH  21  22
ATOM     22  C   UNL A   1      34.628  29.787  27.498  1.00  0.00    -0.023 A 
ATOM     23  C   UNL A   1      33.851  30.956  27.444  1.00  0.00     0.008 A 
ATOM     24  C   UNL A   1      35.951  29.886  27.941  1.00  0.00     0.023 A 
ATOM     25  C   UNL A   1      34.351  32.178  27.897  1.00  0.00     0.002 A 
ATOM     26  C   UNL A   1      36.444  31.108  28.407  1.00  0.00     0.018 A 
ATOM     27  C   UNL A   1      35.647  32.251  28.399  1.00  0.00     0.016 A 
ATOM     28  Br  UNL A   1      38.210  31.212  29.078  1.00  0.00    -0.051 Br
ENDBRANCH  21  22
ENDBRANCH   9  14
ENDBRANCH   7   9
ENDBRANCH   6   7
ENDBRANCH   5   6
ENDBRANCH   4   5
ENDBRANCH   3   4
ENDBRANCH   2   3
ENDBRANCH   1   2
BRANCH   1  29
ATOM     29  O   UNL A   1      36.298  21.706  25.579  1.00  0.00    -0.377 OA
BRANCH  29  30
ATOM     30  C   UNL A   1      37.629  22.183  25.432  1.00  0.00     0.188 C 
BRANCH  30  31
ATOM     31  C   UNL A   1      38.843  21.302  25.796  1.00  0.00     0.188 C 
BRANCH  31  32
ATOM     32  O   UNL A   1      39.692  21.822  26.804  1.00  0.00    -0.376 OA
BRANCH  32  33
ATOM     33  C   UNL A   1      41.075  21.963  26.517  1.00  0.00     0.202 C 
BRANCH  33  34
ATOM     34  C   UNL A   1      41.998  22.454  27.645  1.00  0.00     0.261 C 
BRANCH  34  35
ATOM     35  O   UNL A   1      41.573  23.636  28.343  1.00  0.00    -0.460 OA
BRANCH  35  36
ATOM     36  C   UNL A   1      41.276  24.731  27.613  1.00  0.00     0.338 C 
ATOM     37  O   UNL A   1      40.172  25.113  27.263  1.00  0.00    -0.246 OA
BRANCH  36  38
ATOM     38  C   UNL A   1      42.519  25.510  27.456  1.00  0.00     0.060 A 
ATOM     39  C   UNL A   1      43.222  25.914  28.599  1.00  0.00     0.016 A 
ATOM     40  C   UNL A   1      42.994  25.829  26.183  1.00  0.00     0.016 A 
ATOM     41  C   UNL A   1      44.394  26.658  28.471  1.00  0.00     0.010 A 
ATOM     42  C   UNL A   1      44.154  26.597  26.057  1.00  0.00     0.010 A 
ATOM     43  C   UNL A   1      44.844  27.038  27.201  1.00  0.00    -0.014 A 
BRANCH  43  44
ATOM     44  C   UNL A   1      45.934  28.033  27.070  1.00  0.00     0.031 A 
ATOM     45  C   UNL A   1      45.572  29.491  27.012  1.00  0.00     0.074 A 
ATOM     46  C   UNL A   1      47.223  27.653  27.016  1.00  0.00     0.049 A 
ATOM     47  N   UNL A   1      46.341  30.533  26.831  1.00  0.00    -0.248 NA
ATOM     48  C   UNL A   1      44.145  29.814  27.178  1.00  0.00     0.031 C 
ATOM     49  C   UNL A   1      47.703  26.276  27.109  1.00  0.00     0.029 A 
ATOM     50  N   UNL A   1      48.363  28.401  26.856  1.00  0.00    -0.354 N 
ATOM     51  C   UNL A   1      45.493  31.633  26.853  1.00  0.00     0.074 A 
ATOM     52  C   UNL A   1      44.149  31.131  27.037  1.00  0.00     0.031 C 
ATOM     53  C   UNL A   1      49.042  26.276  26.987  1.00  0.00     0.029 A 
ATOM     54  C   UNL A   1      49.505  27.645  26.769  1.00  0.00     0.049 A 
ATOM     55  H   UNL A   1      48.360  29.384  26.809  1.00  0.00     0.167 HD
ATOM     56  C   UNL A   1      45.809  32.944  26.737  1.00  0.00     0.037 A 
ATOM     57  C   UNL A   1      50.775  28.017  26.509  1.00  0.00     0.037 A 
ATOM     58  C   UNL A   1      47.147  33.440  26.547  1.00  0.00     0.049 A 
ATOM     59  C   UNL A   1      51.089  29.475  26.290  1.00  0.00     0.074 A 
ATOM     60  C   UNL A   1      47.573  34.752  26.438  1.00  0.00     0.029 A 
ATOM     61  N   UNL A   1      48.274  32.641  26.422  1.00  0.00    -0.354 N 
ATOM     62  N   UNL A   1      50.288  30.513  26.344  1.00  0.00    -0.248 NA
ATOM     63  C   UNL A   1      52.484  29.813  25.973  1.00  0.00     0.031 C 
ATOM     64  C   UNL A   1      48.948  34.744  26.184  1.00  0.00     0.029 A 
ATOM     65  C   UNL A   1      49.391  33.431  26.200  1.00  0.00     0.049 A 
ATOM     66  H   UNL A   1      48.281  31.658  26.483  1.00  0.00     0.167 HD
ATOM     67  C   UNL A   1      51.085  31.625  26.091  1.00  0.00     0.074 A 
ATOM     68  C   UNL A   1      52.435  31.135  25.906  1.00  0.00     0.031 C 
ATOM     69  C   UNL A   1      50.730  32.932  26.016  1.00  0.00     0.037 A 
BRANCH  56  70
ATOM     70  C   UNL A   1      44.681  33.935  26.777  1.00  0.00     0.057 A 
ATOM     71  C   UNL A   1      43.939  34.265  25.636  1.00  0.00     0.134 A 
ATOM     72  C   UNL A   1      44.314  34.545  27.983  1.00  0.00     0.134 A 
ATOM     73  F   UNL A   1      44.247  33.729  24.445  1.00  0.00    -0.206 F 
ATOM     74  C   UNL A   1      42.888  35.183  25.689  1.00  0.00     0.040 A 
ATOM     75  C   UNL A   1      43.246  35.442  28.054  1.00  0.00     0.040 A 
ATOM     76  F   UNL A   1      44.980  34.273  29.116  1.00  0.00    -0.206 F 
ATOM     77  C   UNL A   1      42.534  35.768  26.903  1.00  0.00     0.006 A 
ENDBRANCH  56  70
BRANCH  57  78
ATOM     78  C   UNL A   1      51.848  26.993  26.412  1.00  0.00     0.057 A 
ATOM     79  C   UNL A   1      52.711  26.741  27.485  1.00  0.00     0.134 A 
ATOM     80  C   UNL A   1      52.054  26.263  25.235  1.00  0.00     0.134 A 
ATOM     81  F   UNL A   1      52.584  27.427  28.630  1.00  0.00    -0.206 F 
ATOM     82  C   UNL A   1      53.753  25.816  27.383  1.00  0.00     0.040 A 
ATOM     83  C   UNL A   1      53.072  25.314  25.130  1.00  0.00     0.040 A 
ATOM     84  F   UNL A   1      51.264  26.459  24.169  1.00  0.00    -0.206 F 
ATOM     85  C   UNL A   1      53.930  25.094  26.205  1.00  0.00     0.006 A 
ENDBRANCH  57  78
BRANCH  69  86
ATOM     86  C   UNL A   1      51.821  33.929  25.750  1.00  0.00     0.057 A 
ATOM     87  C   UNL A   1      52.432  34.655  26.782  1.00  0.00     0.134 A 
ATOM     88  C   UNL A   1      52.297  34.138  24.447  1.00  0.00     0.134 A 
ATOM     89  F   UNL A   1      52.019  34.512  28.050  1.00  0.00    -0.206 F 
ATOM     90  C   UNL A   1      53.456  35.569  26.525  1.00  0.00     0.040 A 
ATOM     91  C   UNL A   1      53.341  35.025  24.183  1.00  0.00     0.040 A 
ATOM     92  F   UNL A   1      51.766  33.468  23.413  1.00  0.00    -0.206 F 
ATOM     93  C   UNL A   1      53.918  35.750  25.223  1.00  0.00     0.006 A 
ENDBRANCH  69  86
ENDBRANCH  43  44
ENDBRANCH  36  38
ENDBRANCH  35  36
ENDBRANCH  34  35
ENDBRANCH  33  34
ENDBRANCH  32  33
ENDBRANCH  31  32
ENDBRANCH  30  31
ENDBRANCH  29  30
ENDBRANCH   1  29
TORSDOF 25
ENDMDL
