MODEL 1
REMARK VINA RESULT:     -11.6      0.000      0.000
REMARK SMILES O=C(OCCOCCOCCOCCOC(=O)[C@H]1Cc2c([nH]c3ccccc23)[C@H](c2c[nH]c3ccccc23)[NH2+]1)c1ccc(-c2c3nc(c(-c4c(F)cccc4F)c4ccc([nH]4)c(-c4c(F)cccc4F)c4nc(c(-c5c(F)cccc5F)c5ccc2[nH]5)C=C4)C=C3)cc1
REMARK SMILES IDX 8 1 7 2 6 3 5 4 4 5 3 6 2 7 1 8 40 9 41 10 93 11 42 12 92 13
REMARK SMILES IDX 43 14 44 15 45 16 86 17 46 18 91 19 85 20 87 21 47 22 90 23
REMARK SMILES IDX 84 24 83 25 48 27 74 28 57 29 73 30 58 31 61 32 72 33 88 34
REMARK SMILES IDX 59 35 60 36 71 38 89 39 62 40 49 41 50 42 55 43 51 44 52 45
REMARK SMILES IDX 54 46 56 47 53 48 75 49 76 50 81 51 77 52 78 53 80 54 82 55
REMARK SMILES IDX 79 56 63 57 64 58 69 59 65 60 66 61 68 62 70 63 67 64 9 65
REMARK SMILES IDX 10 66 11 67 12 68 13 69 14 70 15 71 16 72 17 73 18 74 19 75
REMARK SMILES IDX 39 76 20 77 29 78 21 81 28 82 22 83 23 84 27 85 24 87 26 88
REMARK SMILES IDX 25 89 30 90 31 91 38 92 32 93 33 94 37 95 34 97 36 98 35 99
REMARK H PARENT 87 26 61 37 39 79 39 80 22 86 32 96
REMARK Flexibility Score: inf
ROOT
ATOM      1  C   UNL A   1      42.605  20.896  25.944  1.00  0.00     0.188 C 
ENDROOT
BRANCH   1   2
ATOM      2  C   UNL A   1      43.924  20.260  25.508  1.00  0.00     0.188 C 
BRANCH   2   3
ATOM      3  O   UNL A   1      45.025  21.153  25.711  1.00  0.00    -0.376 OA
BRANCH   3   4
ATOM      4  C   UNL A   1      45.703  21.563  24.519  1.00  0.00     0.202 C 
BRANCH   4   5
ATOM      5  C   UNL A   1      45.114  22.814  23.875  1.00  0.00     0.261 C 
BRANCH   5   6
ATOM      6  O   UNL A   1      44.433  23.641  24.826  1.00  0.00    -0.460 OA
BRANCH   6   7
ATOM      7  C   UNL A   1      44.703  24.929  25.152  1.00  0.00     0.338 C 
ATOM      8  O   UNL A   1      45.684  25.455  24.626  1.00  0.00    -0.246 OA
BRANCH   7   9
ATOM      9  C   UNL A   1      43.893  25.771  26.100  1.00  0.00     0.060 A 
ATOM     10  C   UNL A   1      43.790  27.165  26.095  1.00  0.00     0.016 A 
ATOM     11  C   UNL A   1      43.132  25.071  27.055  1.00  0.00     0.016 A 
ATOM     12  C   UNL A   1      42.994  27.848  27.001  1.00  0.00     0.010 A 
ATOM     13  C   UNL A   1      42.343  25.746  27.991  1.00  0.00     0.010 A 
ATOM     14  C   UNL A   1      42.300  27.141  27.974  1.00  0.00    -0.014 A 
BRANCH  14  15
ATOM     15  C   UNL A   1      41.765  27.923  29.096  1.00  0.00     0.031 A 
ATOM     16  C   UNL A   1      42.587  27.963  30.348  1.00  0.00     0.074 A 
ATOM     17  C   UNL A   1      40.693  28.711  28.916  1.00  0.00     0.049 A 
ATOM     18  N   UNL A   1      42.341  28.549  31.484  1.00  0.00    -0.248 NA
ATOM     19  C   UNL A   1      43.886  27.263  30.298  1.00  0.00     0.031 C 
ATOM     20  C   UNL A   1      39.953  28.858  27.661  1.00  0.00     0.029 A 
ATOM     21  N   UNL A   1      40.062  29.561  29.781  1.00  0.00    -0.354 N 
ATOM     22  C   UNL A   1      43.436  28.266  32.291  1.00  0.00     0.074 A 
ATOM     23  C   UNL A   1      44.354  27.465  31.519  1.00  0.00     0.031 C 
ATOM     24  C   UNL A   1      38.963  29.748  27.841  1.00  0.00     0.029 A 
ATOM     25  C   UNL A   1      38.964  30.180  29.234  1.00  0.00     0.049 A 
ATOM     26  H   UNL A   1      40.364  29.714  30.705  1.00  0.00     0.167 HD
ATOM     27  C   UNL A   1      43.636  28.636  33.575  1.00  0.00     0.037 A 
ATOM     28  C   UNL A   1      38.050  30.969  29.826  1.00  0.00     0.037 A 
ATOM     29  C   UNL A   1      42.690  29.428  34.310  1.00  0.00     0.049 A 
ATOM     30  C   UNL A   1      38.229  31.263  31.293  1.00  0.00     0.074 A 
ATOM     31  C   UNL A   1      42.718  29.802  35.638  1.00  0.00     0.029 A 
ATOM     32  N   UNL A   1      41.535  29.967  33.757  1.00  0.00    -0.354 N 
ATOM     33  N   UNL A   1      39.216  30.918  32.091  1.00  0.00    -0.248 NA
ATOM     34  C   UNL A   1      37.168  32.033  31.950  1.00  0.00     0.031 C 
ATOM     35  C   UNL A   1      41.552  30.531  35.900  1.00  0.00     0.029 A 
ATOM     36  C   UNL A   1      40.828  30.657  34.722  1.00  0.00     0.049 A 
ATOM     37  H   UNL A   1      41.261  29.870  32.817  1.00  0.00     0.167 HD
ATOM     38  C   UNL A   1      38.905  31.444  33.335  1.00  0.00     0.074 A 
ATOM     39  C   UNL A   1      37.647  32.149  33.181  1.00  0.00     0.031 C 
ATOM     40  C   UNL A   1      39.585  31.354  34.505  1.00  0.00     0.037 A 
BRANCH  27  41
ATOM     41  C   UNL A   1      44.861  28.105  34.256  1.00  0.00     0.057 A 
ATOM     42  C   UNL A   1      46.081  28.794  34.252  1.00  0.00     0.134 A 
ATOM     43  C   UNL A   1      44.827  26.856  34.886  1.00  0.00     0.134 A 
ATOM     44  F   UNL A   1      46.192  29.979  33.633  1.00  0.00    -0.206 F 
ATOM     45  C   UNL A   1      47.228  28.248  34.835  1.00  0.00     0.040 A 
ATOM     46  C   UNL A   1      45.961  26.310  35.490  1.00  0.00     0.040 A 
ATOM     47  F   UNL A   1      43.695  26.136  34.911  1.00  0.00    -0.206 F 
ATOM     48  C   UNL A   1      47.168  27.004  35.459  1.00  0.00     0.006 A 
ENDBRANCH  27  41
BRANCH  28  49
ATOM     49  C   UNL A   1      36.864  31.460  29.074  1.00  0.00     0.057 A 
ATOM     50  C   UNL A   1      36.758  32.791  28.654  1.00  0.00     0.134 A 
ATOM     51  C   UNL A   1      35.785  30.613  28.786  1.00  0.00     0.134 A 
ATOM     52  F   UNL A   1      37.744  33.662  28.914  1.00  0.00    -0.206 F 
ATOM     53  C   UNL A   1      35.617  33.266  28.001  1.00  0.00     0.040 A 
ATOM     54  C   UNL A   1      34.652  31.065  28.107  1.00  0.00     0.040 A 
ATOM     55  F   UNL A   1      35.814  29.325  29.160  1.00  0.00    -0.206 F 
ATOM     56  C   UNL A   1      34.561  32.400  27.722  1.00  0.00     0.006 A 
ENDBRANCH  28  49
BRANCH  40  57
ATOM     57  C   UNL A   1      38.998  32.069  35.683  1.00  0.00     0.057 A 
ATOM     58  C   UNL A   1      39.206  33.437  35.893  1.00  0.00     0.134 A 
ATOM     59  C   UNL A   1      38.166  31.388  36.580  1.00  0.00     0.134 A 
ATOM     60  F   UNL A   1      40.003  34.139  35.072  1.00  0.00    -0.206 F 
ATOM     61  C   UNL A   1      38.619  34.100  36.969  1.00  0.00     0.040 A 
ATOM     62  C   UNL A   1      37.552  32.047  37.642  1.00  0.00     0.040 A 
ATOM     63  F   UNL A   1      37.922  30.078  36.421  1.00  0.00    -0.206 F 
ATOM     64  C   UNL A   1      37.783  33.406  37.842  1.00  0.00     0.006 A 
ENDBRANCH  40  57
ENDBRANCH  14  15
ENDBRANCH   7   9
ENDBRANCH   6   7
ENDBRANCH   5   6
ENDBRANCH   4   5
ENDBRANCH   3   4
ENDBRANCH   2   3
ENDBRANCH   1   2
BRANCH   1  65
ATOM     65  O   UNL A   1      41.784  20.059  26.751  1.00  0.00    -0.377 OA
BRANCH  65  66
ATOM     66  C   UNL A   1      40.776  20.724  27.501  1.00  0.00     0.188 C 
BRANCH  66  67
ATOM     67  C   UNL A   1      40.052  21.929  26.881  1.00  0.00     0.188 C 
BRANCH  67  68
ATOM     68  O   UNL A   1      40.161  23.125  27.637  1.00  0.00    -0.376 OA
BRANCH  68  69
ATOM     69  C   UNL A   1      39.118  24.070  27.421  1.00  0.00     0.202 C 
BRANCH  69  70
ATOM     70  C   UNL A   1      38.452  24.028  26.038  1.00  0.00     0.261 C 
BRANCH  70  71
ATOM     71  O   UNL A   1      37.111  23.509  25.984  1.00  0.00    -0.459 OA
BRANCH  71  72
ATOM     72  C   UNL A   1      36.504  23.299  24.783  1.00  0.00     0.365 C 
ATOM     73  O   UNL A   1      36.947  23.702  23.713  1.00  0.00    -0.245 OA
BRANCH  72  74
ATOM     74  C   UNL A   1      35.207  22.468  24.940  1.00  0.00     0.298 C 
ATOM     75  C   UNL A   1      35.469  20.998  24.510  1.00  0.00     0.115 C 
ATOM     76  N   UNL A   1      34.700  22.510  26.346  1.00  0.00    -0.323 N 
ATOM     77  C   UNL A   1      34.371  20.110  25.001  1.00  0.00    -0.006 A 
ATOM     78  C   UNL A   1      33.390  21.921  26.560  1.00  0.00     0.264 C 
ATOM     79  H   UNL A   1      34.654  23.487  26.633  1.00  0.00     0.347 HD
ATOM     80  H   UNL A   1      35.350  21.947  26.893  1.00  0.00     0.347 HD
ATOM     81  C   UNL A   1      33.419  20.567  25.900  1.00  0.00     0.083 A 
ATOM     82  C   UNL A   1      34.121  18.733  24.761  1.00  0.00     0.003 A 
ATOM     83  N   UNL A   1      32.555  19.533  26.146  1.00  0.00    -0.353 N 
ATOM     84  C   UNL A   1      32.946  18.411  25.445  1.00  0.00     0.046 A 
ATOM     85  C   UNL A   1      34.778  17.724  24.029  1.00  0.00     0.010 A 
ATOM     86  H   UNL A   1      31.768  19.584  26.736  1.00  0.00     0.166 HD
ATOM     87  C   UNL A   1      32.361  17.139  25.374  1.00  0.00     0.026 A 
ATOM     88  C   UNL A   1      34.217  16.444  23.967  1.00  0.00     0.001 A 
ATOM     89  C   UNL A   1      33.016  16.164  24.614  1.00  0.00     0.002 A 
BRANCH  78  90
ATOM     90  C   UNL A   1      32.287  22.841  26.087  1.00  0.00     0.041 A 
ATOM     91  C   UNL A   1      31.008  22.425  25.745  1.00  0.00     0.093 A 
ATOM     92  C   UNL A   1      32.285  24.285  25.922  1.00  0.00     0.009 A 
ATOM     93  N   UNL A   1      30.311  23.494  25.260  1.00  0.00    -0.361 N 
ATOM     94  C   UNL A   1      31.082  24.627  25.304  1.00  0.00     0.046 A 
ATOM     95  C   UNL A   1      33.193  25.341  26.182  1.00  0.00     0.011 A 
ATOM     96  H   UNL A   1      29.385  23.456  24.926  1.00  0.00     0.166 HD
ATOM     97  C   UNL A   1      30.801  25.922  24.848  1.00  0.00     0.026 A 
ATOM     98  C   UNL A   1      32.940  26.634  25.721  1.00  0.00     0.001 A 
ATOM     99  C   UNL A   1      31.765  26.913  25.042  1.00  0.00     0.002 A 
ENDBRANCH  78  90
ENDBRANCH  72  74
ENDBRANCH  71  72
ENDBRANCH  70  71
ENDBRANCH  69  70
ENDBRANCH  68  69
ENDBRANCH  67  68
ENDBRANCH  66  67
ENDBRANCH  65  66
ENDBRANCH   1  65
TORSDOF 21
ENDMDL
MODEL 2
REMARK VINA RESULT:     -11.4      0.796      5.797
REMARK SMILES O=C(OCCOCCOCCOCCOC(=O)[C@H]1Cc2c([nH]c3ccccc23)[C@H](c2c[nH]c3ccccc23)[NH2+]1)c1ccc(-c2c3nc(c(-c4c(F)cccc4F)c4ccc([nH]4)c(-c4c(F)cccc4F)c4nc(c(-c5c(F)cccc5F)c5ccc2[nH]5)C=C4)C=C3)cc1
REMARK SMILES IDX 8 1 7 2 6 3 5 4 4 5 3 6 2 7 1 8 40 9 41 10 93 11 42 12 92 13
REMARK SMILES IDX 43 14 44 15 45 16 86 17 46 18 91 19 85 20 87 21 47 22 90 23
REMARK SMILES IDX 84 24 83 25 48 27 74 28 57 29 73 30 58 31 61 32 72 33 88 34
REMARK SMILES IDX 59 35 60 36 71 38 89 39 62 40 49 41 50 42 55 43 51 44 52 45
REMARK SMILES IDX 54 46 56 47 53 48 75 49 76 50 81 51 77 52 78 53 80 54 82 55
REMARK SMILES IDX 79 56 63 57 64 58 69 59 65 60 66 61 68 62 70 63 67 64 9 65
REMARK SMILES IDX 10 66 11 67 12 68 13 69 14 70 15 71 16 72 17 73 18 74 19 75
REMARK SMILES IDX 39 76 20 77 29 78 21 81 28 82 22 83 23 84 27 85 24 87 26 88
REMARK SMILES IDX 25 89 30 90 31 91 38 92 32 93 33 94 37 95 34 97 36 98 35 99
REMARK H PARENT 87 26 61 37 39 79 39 80 22 86 32 96
REMARK Flexibility Score: inf
ROOT
ATOM      1  C   UNL A   1      42.670  21.157  25.826  1.00  0.00     0.188 C 
ENDROOT
BRANCH   1   2
ATOM      2  C   UNL A   1      44.085  20.717  25.452  1.00  0.00     0.188 C 
BRANCH   2   3
ATOM      3  O   UNL A   1      45.051  21.710  25.812  1.00  0.00    -0.376 OA
BRANCH   3   4
ATOM      4  C   UNL A   1      45.988  22.048  24.784  1.00  0.00     0.202 C 
BRANCH   4   5
ATOM      5  C   UNL A   1      45.829  23.467  24.249  1.00  0.00     0.261 C 
BRANCH   5   6
ATOM      6  O   UNL A   1      45.012  24.278  25.102  1.00  0.00    -0.460 OA
BRANCH   6   7
ATOM      7  C   UNL A   1      45.102  25.613  25.317  1.00  0.00     0.338 C 
ATOM      8  O   UNL A   1      45.869  26.254  24.599  1.00  0.00    -0.246 OA
BRANCH   7   9
ATOM      9  C   UNL A   1      44.332  26.376  26.359  1.00  0.00     0.060 A 
ATOM     10  C   UNL A   1      44.363  27.758  26.573  1.00  0.00     0.016 A 
ATOM     11  C   UNL A   1      43.461  25.619  27.166  1.00  0.00     0.016 A 
ATOM     12  C   UNL A   1      43.594  28.370  27.550  1.00  0.00     0.010 A 
ATOM     13  C   UNL A   1      42.697  26.218  28.171  1.00  0.00     0.010 A 
ATOM     14  C   UNL A   1      42.789  27.596  28.375  1.00  0.00    -0.014 A 
BRANCH  14  15
ATOM     15  C   UNL A   1      42.278  28.245  29.588  1.00  0.00     0.031 A 
ATOM     16  C   UNL A   1      40.966  28.958  29.475  1.00  0.00     0.074 A 
ATOM     17  C   UNL A   1      42.877  28.028  30.771  1.00  0.00     0.049 A 
ATOM     18  N   UNL A   1      40.306  29.631  30.374  1.00  0.00    -0.248 NA
ATOM     19  C   UNL A   1      40.290  28.876  28.165  1.00  0.00     0.031 C 
ATOM     20  C   UNL A   1      44.060  27.190  30.978  1.00  0.00     0.029 A 
ATOM     21  N   UNL A   1      42.553  28.469  32.024  1.00  0.00    -0.354 N 
ATOM     22  C   UNL A   1      39.156  30.074  29.734  1.00  0.00     0.074 A 
ATOM     23  C   UNL A   1      39.197  29.591  28.375  1.00  0.00     0.031 C 
ATOM     24  C   UNL A   1      44.362  27.179  32.287  1.00  0.00     0.029 A 
ATOM     25  C   UNL A   1      43.436  28.057  32.992  1.00  0.00     0.049 A 
ATOM     26  H   UNL A   1      41.764  29.027  32.213  1.00  0.00     0.167 HD
ATOM     27  C   UNL A   1      38.164  30.836  30.246  1.00  0.00     0.037 A 
ATOM     28  C   UNL A   1      43.495  28.403  34.291  1.00  0.00     0.037 A 
ATOM     29  C   UNL A   1      38.167  31.303  31.603  1.00  0.00     0.049 A 
ATOM     30  C   UNL A   1      42.448  29.356  34.807  1.00  0.00     0.074 A 
ATOM     31  C   UNL A   1      37.279  32.152  32.231  1.00  0.00     0.029 A 
ATOM     32  N   UNL A   1      39.127  30.946  32.543  1.00  0.00    -0.354 N 
ATOM     33  N   UNL A   1      41.407  29.858  34.180  1.00  0.00    -0.248 NA
ATOM     34  C   UNL A   1      42.588  29.809  36.194  1.00  0.00     0.031 C 
ATOM     35  C   UNL A   1      37.729  32.345  33.543  1.00  0.00     0.029 A 
ATOM     36  C   UNL A   1      38.865  31.573  33.745  1.00  0.00     0.049 A 
ATOM     37  H   UNL A   1      39.881  30.337  32.376  1.00  0.00     0.167 HD
ATOM     38  C   UNL A   1      40.759  30.668  35.100  1.00  0.00     0.074 A 
ATOM     39  C   UNL A   1      41.514  30.574  36.335  1.00  0.00     0.031 C 
ATOM     40  C   UNL A   1      39.646  31.429  34.948  1.00  0.00     0.037 A 
BRANCH  27  41
ATOM     41  C   UNL A   1      37.080  31.267  29.306  1.00  0.00     0.057 A 
ATOM     42  C   UNL A   1      37.038  32.549  28.742  1.00  0.00     0.134 A 
ATOM     43  C   UNL A   1      36.030  30.393  28.998  1.00  0.00     0.134 A 
ATOM     44  F   UNL A   1      37.992  33.448  29.026  1.00  0.00    -0.206 F 
ATOM     45  C   UNL A   1      35.981  32.951  27.922  1.00  0.00     0.040 A 
ATOM     46  C   UNL A   1      34.979  30.776  28.162  1.00  0.00     0.040 A 
ATOM     47  F   UNL A   1      35.999  29.157  29.517  1.00  0.00    -0.206 F 
ATOM     48  C   UNL A   1      34.949  32.062  27.628  1.00  0.00     0.006 A 
ENDBRANCH  27  41
BRANCH  28  49
ATOM     49  C   UNL A   1      44.603  27.923  35.158  1.00  0.00     0.057 A 
ATOM     50  C   UNL A   1      45.763  28.680  35.359  1.00  0.00     0.134 A 
ATOM     51  C   UNL A   1      44.546  26.668  35.783  1.00  0.00     0.134 A 
ATOM     52  F   UNL A   1      45.895  29.880  34.776  1.00  0.00    -0.206 F 
ATOM     53  C   UNL A   1      46.829  28.201  36.126  1.00  0.00     0.040 A 
ATOM     54  C   UNL A   1      45.589  26.190  36.576  1.00  0.00     0.040 A 
ATOM     55  F   UNL A   1      43.467  25.885  35.633  1.00  0.00    -0.206 F 
ATOM     56  C   UNL A   1      46.742  26.952  36.739  1.00  0.00     0.006 A 
ENDBRANCH  28  49
BRANCH  40  57
ATOM     57  C   UNL A   1      39.169  32.173  36.156  1.00  0.00     0.057 A 
ATOM     58  C   UNL A   1      39.586  33.481  36.429  1.00  0.00     0.134 A 
ATOM     59  C   UNL A   1      38.233  31.591  37.021  1.00  0.00     0.134 A 
ATOM     60  F   UNL A   1      40.490  34.085  35.641  1.00  0.00    -0.206 F 
ATOM     61  C   UNL A   1      39.102  34.179  37.533  1.00  0.00     0.040 A 
ATOM     62  C   UNL A   1      37.721  32.290  38.111  1.00  0.00     0.040 A 
ATOM     63  F   UNL A   1      37.788  30.345  36.802  1.00  0.00    -0.206 F 
ATOM     64  C   UNL A   1      38.160  33.586  38.373  1.00  0.00     0.006 A 
ENDBRANCH  40  57
ENDBRANCH  14  15
ENDBRANCH   7   9
ENDBRANCH   6   7
ENDBRANCH   5   6
ENDBRANCH   4   5
ENDBRANCH   3   4
ENDBRANCH   2   3
ENDBRANCH   1   2
BRANCH   1  65
ATOM     65  O   UNL A   1      41.915  20.180  26.533  1.00  0.00    -0.377 OA
BRANCH  65  66
ATOM     66  C   UNL A   1      40.793  20.672  27.253  1.00  0.00     0.188 C 
BRANCH  66  67
ATOM     67  C   UNL A   1      39.987  21.846  26.676  1.00  0.00     0.188 C 
BRANCH  67  68
ATOM     68  O   UNL A   1      39.947  22.991  27.512  1.00  0.00    -0.376 OA
BRANCH  68  69
ATOM     69  C   UNL A   1      38.882  23.896  27.241  1.00  0.00     0.202 C 
BRANCH  69  70
ATOM     70  C   UNL A   1      38.365  23.909  25.795  1.00  0.00     0.261 C 
BRANCH  70  71
ATOM     71  O   UNL A   1      36.977  23.578  25.604  1.00  0.00    -0.459 OA
BRANCH  71  72
ATOM     72  C   UNL A   1      36.500  23.306  24.358  1.00  0.00     0.365 C 
ATOM     73  O   UNL A   1      37.045  23.673  23.323  1.00  0.00    -0.245 OA
BRANCH  72  74
ATOM     74  C   UNL A   1      35.208  22.455  24.417  1.00  0.00     0.298 C 
ATOM     75  C   UNL A   1      35.570  20.944  24.378  1.00  0.00     0.115 C 
ATOM     76  N   UNL A   1      34.410  22.761  25.644  1.00  0.00    -0.323 N 
ATOM     77  C   UNL A   1      34.401  20.119  24.810  1.00  0.00    -0.006 A 
ATOM     78  C   UNL A   1      33.091  22.157  25.702  1.00  0.00     0.264 C 
ATOM     79  H   UNL A   1      34.294  23.772  25.697  1.00  0.00     0.347 HD
ATOM     80  H   UNL A   1      34.932  22.362  26.423  1.00  0.00     0.347 HD
ATOM     81  C   UNL A   1      33.274  20.699  25.371  1.00  0.00     0.083 A 
ATOM     82  C   UNL A   1      34.222  18.710  24.825  1.00  0.00     0.003 A 
ATOM     83  N   UNL A   1      32.387  19.694  25.648  1.00  0.00    -0.353 N 
ATOM     84  C   UNL A   1      32.930  18.473  25.302  1.00  0.00     0.046 A 
ATOM     85  C   UNL A   1      35.030  17.609  24.480  1.00  0.00     0.010 A 
ATOM     86  H   UNL A   1      31.491  19.823  26.037  1.00  0.00     0.166 HD
ATOM     87  C   UNL A   1      32.387  17.184  25.387  1.00  0.00     0.026 A 
ATOM     88  C   UNL A   1      34.508  16.315  24.580  1.00  0.00     0.001 A 
ATOM     89  C   UNL A   1      33.199  16.110  25.008  1.00  0.00     0.002 A 
BRANCH  78  90
ATOM     90  C   UNL A   1      32.106  22.897  24.824  1.00  0.00     0.041 A 
ATOM     91  C   UNL A   1      31.686  22.462  23.575  1.00  0.00     0.093 A 
ATOM     92  C   UNL A   1      31.385  24.134  25.069  1.00  0.00     0.009 A 
ATOM     93  N   UNL A   1      30.889  23.420  23.018  1.00  0.00    -0.361 N 
ATOM     94  C   UNL A   1      30.734  24.474  23.883  1.00  0.00     0.046 A 
ATOM     95  C   UNL A   1      31.250  25.037  26.153  1.00  0.00     0.011 A 
ATOM     96  H   UNL A   1      30.483  23.363  22.123  1.00  0.00     0.166 HD
ATOM     97  C   UNL A   1      30.065  25.692  23.702  1.00  0.00     0.026 A 
ATOM     98  C   UNL A   1      30.603  26.263  25.989  1.00  0.00     0.001 A 
ATOM     99  C   UNL A   1      30.037  26.593  24.769  1.00  0.00     0.002 A 
ENDBRANCH  78  90
ENDBRANCH  72  74
ENDBRANCH  71  72
ENDBRANCH  70  71
ENDBRANCH  69  70
ENDBRANCH  68  69
ENDBRANCH  67  68
ENDBRANCH  66  67
ENDBRANCH  65  66
ENDBRANCH   1  65
TORSDOF 21
ENDMDL
MODEL 3
REMARK VINA RESULT:     -11.2      1.814      6.358
REMARK SMILES O=C(OCCOCCOCCOCCOC(=O)[C@H]1Cc2c([nH]c3ccccc23)[C@H](c2c[nH]c3ccccc23)[NH2+]1)c1ccc(-c2c3nc(c(-c4c(F)cccc4F)c4ccc([nH]4)c(-c4c(F)cccc4F)c4nc(c(-c5c(F)cccc5F)c5ccc2[nH]5)C=C4)C=C3)cc1
REMARK SMILES IDX 8 1 7 2 6 3 5 4 4 5 3 6 2 7 1 8 40 9 41 10 93 11 42 12 92 13
REMARK SMILES IDX 43 14 44 15 45 16 86 17 46 18 91 19 85 20 87 21 47 22 90 23
REMARK SMILES IDX 84 24 83 25 48 27 74 28 57 29 73 30 58 31 61 32 72 33 88 34
REMARK SMILES IDX 59 35 60 36 71 38 89 39 62 40 49 41 50 42 55 43 51 44 52 45
REMARK SMILES IDX 54 46 56 47 53 48 75 49 76 50 81 51 77 52 78 53 80 54 82 55
REMARK SMILES IDX 79 56 63 57 64 58 69 59 65 60 66 61 68 62 70 63 67 64 9 65
REMARK SMILES IDX 10 66 11 67 12 68 13 69 14 70 15 71 16 72 17 73 18 74 19 75
REMARK SMILES IDX 39 76 20 77 29 78 21 81 28 82 22 83 23 84 27 85 24 87 26 88
REMARK SMILES IDX 25 89 30 90 31 91 38 92 32 93 33 94 37 95 34 97 36 98 35 99
REMARK H PARENT 87 26 61 37 39 79 39 80 22 86 32 96
REMARK Flexibility Score: inf
ROOT
ATOM      1  C   UNL A   1      44.950  23.855  28.019  1.00  0.00     0.188 C 
ENDROOT
BRANCH   1   2
ATOM      2  C   UNL A   1      46.271  24.192  27.329  1.00  0.00     0.188 C 
BRANCH   2   3
ATOM      3  O   UNL A   1      46.167  25.400  26.567  1.00  0.00    -0.376 OA
BRANCH   3   4
ATOM      4  C   UNL A   1      44.843  25.935  26.453  1.00  0.00     0.202 C 
BRANCH   4   5
ATOM      5  C   UNL A   1      44.347  26.047  25.015  1.00  0.00     0.261 C 
BRANCH   5   6
ATOM      6  O   UNL A   1      42.918  26.107  24.940  1.00  0.00    -0.460 OA
BRANCH   6   7
ATOM      7  C   UNL A   1      42.021  25.847  25.923  1.00  0.00     0.338 C 
ATOM      8  O   UNL A   1      41.524  24.721  25.956  1.00  0.00    -0.246 OA
BRANCH   7   9
ATOM      9  C   UNL A   1      41.591  26.823  26.984  1.00  0.00     0.060 A 
ATOM     10  C   UNL A   1      41.891  28.188  27.031  1.00  0.00     0.016 A 
ATOM     11  C   UNL A   1      40.767  26.308  28.003  1.00  0.00     0.016 A 
ATOM     12  C   UNL A   1      41.424  29.010  28.044  1.00  0.00     0.010 A 
ATOM     13  C   UNL A   1      40.308  27.119  29.045  1.00  0.00     0.010 A 
ATOM     14  C   UNL A   1      40.664  28.469  29.073  1.00  0.00    -0.014 A 
BRANCH  14  15
ATOM     15  C   UNL A   1      40.498  29.299  30.271  1.00  0.00     0.031 A 
ATOM     16  C   UNL A   1      39.366  30.281  30.264  1.00  0.00     0.074 A 
ATOM     17  C   UNL A   1      41.212  29.035  31.378  1.00  0.00     0.049 A 
ATOM     18  N   UNL A   1      39.012  31.146  31.171  1.00  0.00    -0.248 NA
ATOM     19  C   UNL A   1      38.494  30.263  29.073  1.00  0.00     0.031 C 
ATOM     20  C   UNL A   1      42.205  27.967  31.508  1.00  0.00     0.029 A 
ATOM     21  N   UNL A   1      41.186  29.624  32.612  1.00  0.00    -0.354 N 
ATOM     22  C   UNL A   1      37.898  31.792  30.650  1.00  0.00     0.074 A 
ATOM     23  C   UNL A   1      37.625  31.220  29.355  1.00  0.00     0.031 C 
ATOM     24  C   UNL A   1      42.696  27.979  32.758  1.00  0.00     0.029 A 
ATOM     25  C   UNL A   1      42.099  29.091  33.489  1.00  0.00     0.049 A 
ATOM     26  H   UNL A   1      40.573  30.357  32.848  1.00  0.00     0.167 HD
ATOM     27  C   UNL A   1      37.183  32.792  31.211  1.00  0.00     0.037 A 
ATOM     28  C   UNL A   1      42.430  29.504  34.726  1.00  0.00     0.037 A 
ATOM     29  C   UNL A   1      37.495  33.340  32.501  1.00  0.00     0.049 A 
ATOM     30  C   UNL A   1      41.703  30.703  35.278  1.00  0.00     0.074 A 
ATOM     31  C   UNL A   1      36.917  34.409  33.154  1.00  0.00     0.029 A 
ATOM     32  N   UNL A   1      38.490  32.842  33.334  1.00  0.00    -0.354 N 
ATOM     33  N   UNL A   1      40.710  31.382  34.750  1.00  0.00    -0.248 NA
ATOM     34  C   UNL A   1      42.150  31.207  36.580  1.00  0.00     0.031 C 
ATOM     35  C   UNL A   1      37.594  34.586  34.366  1.00  0.00     0.029 A 
ATOM     36  C   UNL A   1      38.557  33.593  34.490  1.00  0.00     0.049 A 
ATOM     37  H   UNL A   1      39.062  32.067  33.129  1.00  0.00     0.167 HD
ATOM     38  C   UNL A   1      40.399  32.379  35.662  1.00  0.00     0.074 A 
ATOM     39  C   UNL A   1      41.298  32.203  36.786  1.00  0.00     0.031 C 
ATOM     40  C   UNL A   1      39.465  33.360  35.585  1.00  0.00     0.037 A 
BRANCH  27  41
ATOM     41  C   UNL A   1      36.084  33.391  30.387  1.00  0.00     0.057 A 
ATOM     42  C   UNL A   1      36.334  34.254  29.312  1.00  0.00     0.134 A 
ATOM     43  C   UNL A   1      34.746  33.134  30.710  1.00  0.00     0.134 A 
ATOM     44  F   UNL A   1      37.593  34.573  28.974  1.00  0.00    -0.206 F 
ATOM     45  C   UNL A   1      35.292  34.855  28.601  1.00  0.00     0.040 A 
ATOM     46  C   UNL A   1      33.696  33.711  29.993  1.00  0.00     0.040 A 
ATOM     47  F   UNL A   1      34.436  32.330  31.738  1.00  0.00    -0.206 F 
ATOM     48  C   UNL A   1      33.969  34.580  28.939  1.00  0.00     0.006 A 
ENDBRANCH  27  41
BRANCH  28  49
ATOM     49  C   UNL A   1      43.531  28.847  35.479  1.00  0.00     0.057 A 
ATOM     50  C   UNL A   1      44.870  29.210  35.296  1.00  0.00     0.134 A 
ATOM     51  C   UNL A   1      43.272  27.805  36.382  1.00  0.00     0.134 A 
ATOM     52  F   UNL A   1      45.193  30.184  34.432  1.00  0.00    -0.206 F 
ATOM     53  C   UNL A   1      45.908  28.551  35.960  1.00  0.00     0.040 A 
ATOM     54  C   UNL A   1      44.295  27.158  37.076  1.00  0.00     0.040 A 
ATOM     55  F   UNL A   1      42.013  27.401  36.608  1.00  0.00    -0.206 F 
ATOM     56  C   UNL A   1      45.621  27.523  36.856  1.00  0.00     0.006 A 
ENDBRANCH  28  49
BRANCH  40  57
ATOM     57  C   UNL A   1      39.350  34.275  36.764  1.00  0.00     0.057 A 
ATOM     58  C   UNL A   1      38.632  33.914  37.910  1.00  0.00     0.134 A 
ATOM     59  C   UNL A   1      40.019  35.505  36.771  1.00  0.00     0.134 A 
ATOM     60  F   UNL A   1      37.962  32.753  37.956  1.00  0.00    -0.206 F 
ATOM     61  C   UNL A   1      38.568  34.757  39.018  1.00  0.00     0.040 A 
ATOM     62  C   UNL A   1      39.986  36.342  37.884  1.00  0.00     0.040 A 
ATOM     63  F   UNL A   1      40.733  35.897  35.705  1.00  0.00    -0.206 F 
ATOM     64  C   UNL A   1      39.254  35.972  39.010  1.00  0.00     0.006 A 
ENDBRANCH  40  57
ENDBRANCH  14  15
ENDBRANCH   7   9
ENDBRANCH   6   7
ENDBRANCH   5   6
ENDBRANCH   4   5
ENDBRANCH   3   4
ENDBRANCH   2   3
ENDBRANCH   1   2
BRANCH   1  65
ATOM     65  O   UNL A   1      44.469  22.540  27.765  1.00  0.00    -0.377 OA
BRANCH  65  66
ATOM     66  C   UNL A   1      44.299  22.201  26.395  1.00  0.00     0.188 C 
BRANCH  66  67
ATOM     67  C   UNL A   1      42.880  21.996  25.843  1.00  0.00     0.188 C 
BRANCH  67  68
ATOM     68  O   UNL A   1      42.510  20.636  25.680  1.00  0.00    -0.376 OA
BRANCH  68  69
ATOM     69  C   UNL A   1      41.190  20.318  26.107  1.00  0.00     0.202 C 
BRANCH  69  70
ATOM     70  C   UNL A   1      40.312  21.509  26.515  1.00  0.00     0.261 C 
BRANCH  70  71
ATOM     71  O   UNL A   1      38.916  21.429  26.173  1.00  0.00    -0.459 OA
BRANCH  71  72
ATOM     72  C   UNL A   1      38.193  22.563  25.965  1.00  0.00     0.365 C 
ATOM     73  O   UNL A   1      38.612  23.693  26.194  1.00  0.00    -0.245 OA
BRANCH  72  74
ATOM     74  C   UNL A   1      36.794  22.248  25.382  1.00  0.00     0.298 C 
ATOM     75  C   UNL A   1      36.654  20.718  25.148  1.00  0.00     0.115 C 
ATOM     76  N   UNL A   1      35.705  22.732  26.285  1.00  0.00    -0.323 N 
ATOM     77  C   UNL A   1      35.217  20.352  24.953  1.00  0.00    -0.006 A 
ATOM     78  C   UNL A   1      34.359  22.655  25.745  1.00  0.00     0.264 C 
ATOM     79  H   UNL A   1      35.896  23.707  26.511  1.00  0.00     0.347 HD
ATOM     80  H   UNL A   1      35.716  22.109  27.093  1.00  0.00     0.347 HD
ATOM     81  C   UNL A   1      34.200  21.262  25.194  1.00  0.00     0.083 A 
ATOM     82  C   UNL A   1      34.622  19.112  24.601  1.00  0.00     0.003 A 
ATOM     83  N   UNL A   1      33.014  20.637  24.919  1.00  0.00    -0.353 N 
ATOM     84  C   UNL A   1      33.243  19.332  24.531  1.00  0.00     0.046 A 
ATOM     85  C   UNL A   1      35.116  17.820  24.334  1.00  0.00     0.010 A 
ATOM     86  H   UNL A   1      32.125  21.057  24.986  1.00  0.00     0.166 HD
ATOM     87  C   UNL A   1      32.343  18.333  24.141  1.00  0.00     0.026 A 
ATOM     88  C   UNL A   1      34.225  16.807  23.964  1.00  0.00     0.001 A 
ATOM     89  C   UNL A   1      32.862  17.067  23.849  1.00  0.00     0.002 A 
BRANCH  78  90
ATOM     90  C   UNL A   1      34.096  23.771  24.758  1.00  0.00     0.041 A 
ATOM     91  C   UNL A   1      34.120  23.622  23.379  1.00  0.00     0.093 A 
ATOM     92  C   UNL A   1      33.746  25.160  24.995  1.00  0.00     0.009 A 
ATOM     93  N   UNL A   1      33.951  24.846  22.799  1.00  0.00    -0.361 N 
ATOM     94  C   UNL A   1      33.777  25.809  23.760  1.00  0.00     0.046 A 
ATOM     95  C   UNL A   1      33.453  25.959  26.129  1.00  0.00     0.011 A 
ATOM     96  H   UNL A   1      33.954  25.014  21.829  1.00  0.00     0.166 HD
ATOM     97  C   UNL A   1      33.641  27.198  23.625  1.00  0.00     0.026 A 
ATOM     98  C   UNL A   1      33.331  27.345  26.018  1.00  0.00     0.001 A 
ATOM     99  C   UNL A   1      33.447  27.957  24.780  1.00  0.00     0.002 A 
ENDBRANCH  78  90
ENDBRANCH  72  74
ENDBRANCH  71  72
ENDBRANCH  70  71
ENDBRANCH  69  70
ENDBRANCH  68  69
ENDBRANCH  67  68
ENDBRANCH  66  67
ENDBRANCH  65  66
ENDBRANCH   1  65
TORSDOF 21
ENDMDL
