MODEL 1
REMARK VINA RESULT:     -13.4      0.000      0.000
REMARK SMILES Cc1ccc(CCC(=O)N2CCC3(CC2)[C@H](C(=O)OCCOCCOCCOCCOC(=O)c2ccc(-c4c5nc(c(-c6c(F)cccc6F)c6ccc([nH]6)c(-c6c(F)cccc6F)c6nc(c(-c7c(F)cccc7F)c7ccc4[nH]7)C=C6)C=C5)cc2)CC(=O)N3C)cc1
REMARK SMILES IDX 24 1 23 2 22 3 21 4 20 5 19 6 17 7 18 8 16 9 8 10 9 11 10 12
REMARK SMILES IDX 11 13 15 14 12 15 14 16 13 17 91 18 88 19 89 20 92 21 90 22
REMARK SMILES IDX 7 23 6 24 5 25 1 26 2 27 3 28 94 29 4 30 93 31 25 32 26 33
REMARK SMILES IDX 27 34 28 35 29 36 30 37 31 38 32 39 33 40 34 41 35 42 87 43
REMARK SMILES IDX 36 44 86 45 37 46 38 47 39 48 80 49 40 50 85 51 79 52 81 53
REMARK SMILES IDX 41 54 84 55 78 56 77 57 42 59 68 60 51 61 67 62 52 63 55 64
REMARK SMILES IDX 66 65 82 66 53 67 54 68 65 70 83 71 56 72 43 73 44 74 49 75
REMARK SMILES IDX 45 76 46 77 48 78 50 79 47 80 69 81 70 82 75 83 71 84 72 85
REMARK SMILES IDX 74 86 76 87 73 88 57 89 58 90 63 91 59 92 60 93 62 94 64 95
REMARK SMILES IDX 61 96
REMARK H PARENT 81 58 55 69
REMARK Flexibility Score: inf
ROOT
ATOM      1  C   UNL A   1      31.918  29.598  26.912  1.00  0.00     0.188 C 
ENDROOT
BRANCH   1   2
ATOM      2  C   UNL A   1      31.436  27.886  27.278  1.00  0.00     0.188 C 
BRANCH   2   3
ATOM      3  O   UNL A   1      31.138  26.752  26.430  1.00  0.00    -0.376 OA
BRANCH   3   4
ATOM      4  C   UNL A   1      31.216  25.306  26.621  1.00  0.00     0.202 C 
BRANCH   4   5
ATOM      5  C   UNL A   1      30.283  24.156  26.271  1.00  0.00     0.261 C 
BRANCH   5   6
ATOM      6  O   UNL A   1      30.606  22.848  26.495  1.00  0.00    -0.463 OA
BRANCH   6   7
ATOM      7  C   UNL A   1      31.887  22.734  26.796  1.00  0.00     0.311 C 
ATOM      8  O   UNL A   1      32.453  22.953  27.857  1.00  0.00    -0.252 OA
BRANCH   7   9
ATOM      9  C   UNL A   1      32.571  22.410  25.554  1.00  0.00     0.134 C 
ATOM     10  C   UNL A   1      32.870  26.824  22.294  1.00  0.00     0.222 C 
ATOM     11  O   UNL A   1      33.485  27.895  22.347  1.00  0.00    -0.275 OA
ATOM     12  N   UNL A   1      33.468  25.639  22.710  1.00  0.00    -0.343 N 
ATOM     13  C   UNL A   1      34.573  25.540  23.613  1.00  0.00     0.122 C 
ATOM     14  C   UNL A   1      33.047  24.351  22.370  1.00  0.00     0.122 C 
ATOM     15  C   UNL A   1      34.250  24.662  24.908  1.00  0.00     0.051 C 
ATOM     16  C   UNL A   1      32.469  23.728  23.585  1.00  0.00     0.051 C 
ATOM     17  C   UNL A   1      33.502  23.306  24.642  1.00  0.00     0.060 C 
ATOM     18  N   UNL A   1      34.506  22.286  24.262  1.00  0.00    -0.339 N 
ATOM     19  C   UNL A   1      33.205  21.051  25.787  1.00  0.00     0.118 C 
ATOM     20  C   UNL A   1      34.436  21.098  24.983  1.00  0.00     0.223 C 
ATOM     21  C   UNL A   1      35.781  22.560  23.637  1.00  0.00     0.147 C 
ATOM     22  O   UNL A   1      35.270  20.206  24.993  1.00  0.00    -0.275 OA
BRANCH  10  23
ATOM     23  C   UNL A   1      31.337  26.870  22.011  1.00  0.00     0.105 C 
BRANCH  23  24
ATOM     24  C   UNL A   1      30.219  26.739  23.084  1.00  0.00     0.045 C 
BRANCH  24  25
ATOM     25  C   UNL A   1      29.429  27.999  23.435  1.00  0.00    -0.047 A 
ATOM     26  C   UNL A   1      27.657  31.767  22.431  1.00  0.00     0.044 C 
ATOM     27  C   UNL A   1      28.191  30.507  23.074  1.00  0.00    -0.051 A 
ATOM     28  C   UNL A   1      29.523  30.431  23.503  1.00  0.00     0.004 A 
ATOM     29  C   UNL A   1      27.431  29.326  23.034  1.00  0.00     0.004 A 
ATOM     30  C   UNL A   1      30.118  29.184  23.762  1.00  0.00     0.004 A 
ATOM     31  C   UNL A   1      28.052  28.077  23.192  1.00  0.00     0.004 A 
ENDBRANCH  24  25
ENDBRANCH  23  24
ENDBRANCH  10  23
ENDBRANCH   7   9
ENDBRANCH   6   7
ENDBRANCH   5   6
ENDBRANCH   4   5
ENDBRANCH   3   4
ENDBRANCH   2   3
ENDBRANCH   1   2
BRANCH   1  32
ATOM     32  O   UNL A   1      33.082  30.935  27.469  1.00  0.00    -0.377 OA
BRANCH  32  33
ATOM     33  C   UNL A   1      32.698  33.000  27.456  1.00  0.00     0.188 C 
BRANCH  33  34
ATOM     34  C   UNL A   1      34.060  34.153  28.192  1.00  0.00     0.188 C 
BRANCH  34  35
ATOM     35  O   UNL A   1      34.326  34.500  29.632  1.00  0.00    -0.376 OA
BRANCH  35  36
ATOM     36  C   UNL A   1      34.501  33.732  30.854  1.00  0.00     0.202 C 
BRANCH  36  37
ATOM     37  C   UNL A   1      35.106  32.392  30.462  1.00  0.00     0.261 C 
BRANCH  37  38
ATOM     38  O   UNL A   1      36.136  31.961  31.395  1.00  0.00    -0.460 OA
BRANCH  38  39
ATOM     39  C   UNL A   1      36.660  30.706  31.226  1.00  0.00     0.338 C 
ATOM     40  O   UNL A   1      36.279  29.719  31.835  1.00  0.00    -0.246 OA
BRANCH  39  41
ATOM     41  C   UNL A   1      37.865  30.741  30.298  1.00  0.00     0.060 A 
ATOM     42  C   UNL A   1      37.832  30.138  29.029  1.00  0.00     0.016 A 
ATOM     43  C   UNL A   1      39.118  31.089  30.802  1.00  0.00     0.016 A 
ATOM     44  C   UNL A   1      39.045  29.703  28.390  1.00  0.00     0.010 A 
ATOM     45  C   UNL A   1      40.294  30.567  30.216  1.00  0.00     0.010 A 
ATOM     46  C   UNL A   1      40.294  29.760  29.053  1.00  0.00    -0.014 A 
BRANCH  46  47
ATOM     47  C   UNL A   1      41.601  29.103  28.540  1.00  0.00     0.031 A 
ATOM     48  C   UNL A   1      41.579  27.535  28.643  1.00  0.00     0.074 A 
ATOM     49  C   UNL A   1      42.680  29.621  27.790  1.00  0.00     0.049 A 
ATOM     50  N   UNL A   1      42.522  26.669  28.355  1.00  0.00    -0.248 NA
ATOM     51  C   UNL A   1      40.371  26.838  29.091  1.00  0.00     0.031 C 
ATOM     52  C   UNL A   1      42.885  30.309  26.400  1.00  0.00     0.029 A 
ATOM     53  N   UNL A   1      43.654  30.381  28.388  1.00  0.00    -0.354 N 
ATOM     54  C   UNL A   1      41.919  25.438  28.091  1.00  0.00     0.074 A 
ATOM     55  C   UNL A   1      40.648  25.569  28.777  1.00  0.00     0.031 C 
ATOM     56  C   UNL A   1      43.981  31.031  26.225  1.00  0.00     0.029 A 
ATOM     57  C   UNL A   1      44.528  31.053  27.544  1.00  0.00     0.049 A 
ATOM     58  H   UNL A   1      43.730  30.446  29.368  1.00  0.00     0.167 HD
ATOM     59  C   UNL A   1      42.455  24.501  27.216  1.00  0.00     0.037 A 
ATOM     60  C   UNL A   1      45.267  32.137  27.768  1.00  0.00     0.037 A 
ATOM     61  C   UNL A   1      43.743  24.948  26.494  1.00  0.00     0.049 A 
ATOM     62  C   UNL A   1      46.318  30.734  27.277  1.00  0.00     0.074 A 
ATOM     63  C   UNL A   1      44.127  24.975  25.149  1.00  0.00     0.029 A 
ATOM     64  N   UNL A   1      44.784  25.665  27.135  1.00  0.00    -0.354 N 
ATOM     65  N   UNL A   1      46.161  29.597  26.536  1.00  0.00    -0.248 NA
ATOM     66  C   UNL A   1      47.575  30.585  28.018  1.00  0.00     0.031 C 
ATOM     67  C   UNL A   1      45.409  25.644  25.009  1.00  0.00     0.029 A 
ATOM     68  C   UNL A   1      45.786  26.187  26.257  1.00  0.00     0.049 A 
ATOM     69  H   UNL A   1      44.815  25.793  28.111  1.00  0.00     0.167 HD
ATOM     70  C   UNL A   1      46.999  28.519  26.954  1.00  0.00     0.074 A 
ATOM     71  C   UNL A   1      47.927  29.298  27.809  1.00  0.00     0.031 C 
ATOM     72  C   UNL A   1      46.936  27.082  26.800  1.00  0.00     0.037 A 
BRANCH  59  73
ATOM     73  C   UNL A   1      41.718  23.143  26.806  1.00  0.00     0.057 A 
ATOM     74  C   UNL A   1      42.423  21.915  26.749  1.00  0.00     0.134 A 
ATOM     75  C   UNL A   1      40.344  22.945  26.500  1.00  0.00     0.134 A 
ATOM     76  F   UNL A   1      43.718  21.830  27.066  1.00  0.00    -0.206 F 
ATOM     77  C   UNL A   1      41.846  20.669  26.402  1.00  0.00     0.040 A 
ATOM     78  C   UNL A   1      39.747  21.702  26.177  1.00  0.00     0.040 A 
ATOM     79  F   UNL A   1      39.439  23.919  26.503  1.00  0.00    -0.206 F 
ATOM     80  C   UNL A   1      40.499  20.551  26.121  1.00  0.00     0.006 A 
ENDBRANCH  59  73
BRANCH  60  81
ATOM     81  C   UNL A   1      43.769  33.154  27.691  1.00  0.00     0.057 A 
ATOM     82  C   UNL A   1      43.021  33.626  29.142  1.00  0.00     0.134 A 
ATOM     83  C   UNL A   1      43.542  34.276  26.332  1.00  0.00     0.134 A 
ATOM     84  F   UNL A   1      42.911  32.719  30.128  1.00  0.00    -0.206 F 
ATOM     85  C   UNL A   1      42.280  35.178  29.452  1.00  0.00     0.040 A 
ATOM     86  C   UNL A   1      42.988  35.991  26.504  1.00  0.00     0.040 A 
ATOM     87  F   UNL A   1      43.922  33.839  25.121  1.00  0.00    -0.206 F 
ATOM     88  C   UNL A   1      42.284  36.482  28.223  1.00  0.00     0.006 A 
ENDBRANCH  60  81
BRANCH  72  89
ATOM     89  C   UNL A   1      48.056  26.196  27.376  1.00  0.00     0.057 A 
ATOM     90  C   UNL A   1      49.126  25.696  26.633  1.00  0.00     0.134 A 
ATOM     91  C   UNL A   1      48.065  25.795  28.736  1.00  0.00     0.134 A 
ATOM     92  F   UNL A   1      49.111  25.712  25.291  1.00  0.00    -0.206 F 
ATOM     93  C   UNL A   1      50.262  25.152  27.245  1.00  0.00     0.040 A 
ATOM     94  C   UNL A   1      49.162  25.206  29.353  1.00  0.00     0.040 A 
ATOM     95  F   UNL A   1      47.013  25.926  29.553  1.00  0.00    -0.206 F 
ATOM     96  C   UNL A   1      50.299  24.951  28.619  1.00  0.00     0.006 A 
ENDBRANCH  72  89
ENDBRANCH  46  47
ENDBRANCH  39  41
ENDBRANCH  38  39
ENDBRANCH  37  38
ENDBRANCH  36  37
ENDBRANCH  35  36
ENDBRANCH  34  35
ENDBRANCH  33  34
ENDBRANCH  32  33
ENDBRANCH   1  32
TORSDOF 23
ENDMDL
MODEL 2
REMARK VINA RESULT:     -12.9      2.938      7.691
REMARK SMILES Cc1ccc(CCC(=O)N2CCC3(CC2)[C@H](C(=O)OCCOCCOCCOCCOC(=O)c2ccc(-c4c5nc(c(-c6c(F)cccc6F)c6ccc([nH]6)c(-c6c(F)cccc6F)c6nc(c(-c7c(F)cccc7F)c7ccc4[nH]7)C=C6)C=C5)cc2)CC(=O)N3C)cc1
REMARK SMILES IDX 24 1 23 2 22 3 21 4 20 5 19 6 17 7 18 8 16 9 8 10 9 11 10 12
REMARK SMILES IDX 11 13 15 14 12 15 14 16 13 17 91 18 88 19 89 20 92 21 90 22
REMARK SMILES IDX 7 23 6 24 5 25 1 26 2 27 3 28 94 29 4 30 93 31 25 32 26 33
REMARK SMILES IDX 27 34 28 35 29 36 30 37 31 38 32 39 33 40 34 41 35 42 87 43
REMARK SMILES IDX 36 44 86 45 37 46 38 47 39 48 80 49 40 50 85 51 79 52 81 53
REMARK SMILES IDX 41 54 84 55 78 56 77 57 42 59 68 60 51 61 67 62 52 63 55 64
REMARK SMILES IDX 66 65 82 66 53 67 54 68 65 70 83 71 56 72 43 73 44 74 49 75
REMARK SMILES IDX 45 76 46 77 48 78 50 79 47 80 69 81 70 82 75 83 71 84 72 85
REMARK SMILES IDX 74 86 76 87 73 88 57 89 58 90 63 91 59 92 60 93 62 94 64 95
REMARK SMILES IDX 61 96
REMARK H PARENT 81 58 55 69
REMARK Flexibility Score: inf
ROOT
ATOM      1  C   UNL A   1      35.820  24.253  25.187  1.00  0.00     0.188 C 
ENDROOT
BRANCH   1   2
ATOM      2  C   UNL A   1      34.302  25.117  25.687  1.00  0.00     0.188 C 
BRANCH   2   3
ATOM      3  O   UNL A   1      33.155  24.707  26.466  1.00  0.00    -0.376 OA
BRANCH   3   4
ATOM      4  C   UNL A   1      32.852  23.519  27.260  1.00  0.00     0.202 C 
BRANCH   4   5
ATOM      5  C   UNL A   1      33.672  22.305  27.675  1.00  0.00     0.261 C 
BRANCH   5   6
ATOM      6  O   UNL A   1      33.447  21.055  27.170  1.00  0.00    -0.463 OA
BRANCH   6   7
ATOM      7  C   UNL A   1      34.020  20.924  25.988  1.00  0.00     0.311 C 
ATOM      8  O   UNL A   1      35.204  20.990  25.692  1.00  0.00    -0.252 OA
BRANCH   7   9
ATOM      9  C   UNL A   1      32.939  20.810  25.021  1.00  0.00     0.134 C 
ATOM     10  C   UNL A   1      31.859  25.687  22.730  1.00  0.00     0.222 C 
ATOM     11  O   UNL A   1      32.469  26.428  21.951  1.00  0.00    -0.275 OA
ATOM     12  N   UNL A   1      31.893  24.305  22.571  1.00  0.00    -0.343 N 
ATOM     13  C   UNL A   1      32.904  23.576  21.870  1.00  0.00     0.122 C 
ATOM     14  C   UNL A   1      30.983  23.400  23.123  1.00  0.00     0.122 C 
ATOM     15  C   UNL A   1      33.636  22.485  22.781  1.00  0.00     0.051 C 
ATOM     16  C   UNL A   1      31.688  22.643  24.187  1.00  0.00     0.051 C 
ATOM     17  C   UNL A   1      32.692  21.600  23.673  1.00  0.00     0.060 C 
ATOM     18  N   UNL A   1      32.173  20.487  22.844  1.00  0.00    -0.339 N 
ATOM     19  C   UNL A   1      32.749  19.320  24.806  1.00  0.00     0.118 C 
ATOM     20  C   UNL A   1      32.328  19.222  23.400  1.00  0.00     0.223 C 
ATOM     21  C   UNL A   1      32.012  20.521  21.407  1.00  0.00     0.147 C 
ATOM     22  O   UNL A   1      32.169  18.154  22.828  1.00  0.00    -0.275 OA
BRANCH  10  23
ATOM     23  C   UNL A   1      31.282  26.310  24.037  1.00  0.00     0.105 C 
BRANCH  23  24
ATOM     24  C   UNL A   1      29.775  26.558  24.329  1.00  0.00     0.045 C 
BRANCH  24  25
ATOM     25  C   UNL A   1      29.182  27.893  23.881  1.00  0.00    -0.047 A 
ATOM     26  C   UNL A   1      28.026  30.708  20.867  1.00  0.00     0.044 C 
ATOM     27  C   UNL A   1      28.349  29.939  22.128  1.00  0.00    -0.051 A 
ATOM     28  C   UNL A   1      29.646  29.947  22.659  1.00  0.00     0.004 A 
ATOM     29  C   UNL A   1      27.418  29.024  22.646  1.00  0.00     0.004 A 
ATOM     30  C   UNL A   1      30.038  28.976  23.596  1.00  0.00     0.004 A 
ATOM     31  C   UNL A   1      27.837  27.992  23.501  1.00  0.00     0.004 A 
ENDBRANCH  24  25
ENDBRANCH  23  24
ENDBRANCH  10  23
ENDBRANCH   7   9
ENDBRANCH   6   7
ENDBRANCH   5   6
ENDBRANCH   4   5
ENDBRANCH   3   4
ENDBRANCH   2   3
ENDBRANCH   1   2
BRANCH   1  32
ATOM     32  O   UNL A   1      37.343  23.455  25.894  1.00  0.00    -0.377 OA
BRANCH  32  33
ATOM     33  C   UNL A   1      38.905  24.438  26.895  1.00  0.00     0.188 C 
BRANCH  33  34
ATOM     34  C   UNL A   1      40.520  23.426  27.214  1.00  0.00     0.188 C 
BRANCH  34  35
ATOM     35  O   UNL A   1      40.725  21.936  27.161  1.00  0.00    -0.376 OA
BRANCH  35  36
ATOM     36  C   UNL A   1      41.826  21.043  27.484  1.00  0.00     0.202 C 
BRANCH  36  37
ATOM     37  C   UNL A   1      42.417  20.561  26.167  1.00  0.00     0.261 C 
BRANCH  37  38
ATOM     38  O   UNL A   1      43.035  21.641  25.415  1.00  0.00    -0.460 OA
BRANCH  38  39
ATOM     39  C   UNL A   1      44.398  21.612  25.265  1.00  0.00     0.338 C 
ATOM     40  O   UNL A   1      45.019  20.645  24.854  1.00  0.00    -0.246 OA
BRANCH  39  41
ATOM     41  C   UNL A   1      45.031  22.881  25.816  1.00  0.00     0.060 A 
ATOM     42  C   UNL A   1      44.996  23.182  27.189  1.00  0.00     0.016 A 
ATOM     43  C   UNL A   1      45.375  23.917  24.949  1.00  0.00     0.016 A 
ATOM     44  C   UNL A   1      45.093  24.542  27.646  1.00  0.00     0.010 A 
ATOM     45  C   UNL A   1      45.365  25.258  25.398  1.00  0.00     0.010 A 
ATOM     46  C   UNL A   1      45.112  25.629  26.740  1.00  0.00    -0.014 A 
BRANCH  46  47
ATOM     47  C   UNL A   1      44.977  27.120  27.142  1.00  0.00     0.031 A 
ATOM     48  C   UNL A   1      43.483  27.607  27.194  1.00  0.00     0.074 A 
ATOM     49  C   UNL A   1      45.904  28.031  27.693  1.00  0.00     0.049 A 
ATOM     50  N   UNL A   1      43.007  28.805  27.440  1.00  0.00    -0.248 NA
ATOM     51  C   UNL A   1      42.387  26.661  26.975  1.00  0.00     0.031 C 
ATOM     52  C   UNL A   1      46.800  28.123  28.972  1.00  0.00     0.029 A 
ATOM     53  N   UNL A   1      46.847  28.643  26.904  1.00  0.00    -0.354 N 
ATOM     54  C   UNL A   1      41.694  28.667  27.897  1.00  0.00     0.074 A 
ATOM     55  C   UNL A   1      41.325  27.367  27.371  1.00  0.00     0.031 C 
ATOM     56  C   UNL A   1      47.849  28.931  28.934  1.00  0.00     0.029 A 
ATOM     57  C   UNL A   1      47.867  29.318  27.560  1.00  0.00     0.049 A 
ATOM     58  H   UNL A   1      46.801  28.604  25.921  1.00  0.00     0.167 HD
ATOM     59  C   UNL A   1      41.101  29.559  28.782  1.00  0.00     0.037 A 
ATOM     60  C   UNL A   1      49.089  29.636  27.139  1.00  0.00     0.037 A 
ATOM     61  C   UNL A   1      42.025  30.688  29.286  1.00  0.00     0.049 A 
ATOM     62  C   UNL A   1      48.170  31.131  27.624  1.00  0.00     0.074 A 
ATOM     63  C   UNL A   1      42.351  31.160  30.562  1.00  0.00     0.029 A 
ATOM     64  N   UNL A   1      42.942  31.371  28.450  1.00  0.00    -0.354 N 
ATOM     65  N   UNL A   1      47.151  31.424  28.485  1.00  0.00    -0.248 NA
ATOM     66  C   UNL A   1      48.329  32.294  26.745  1.00  0.00     0.031 C 
ATOM     67  C   UNL A   1      43.402  32.158  30.470  1.00  0.00     0.029 A 
ATOM     68  C   UNL A   1      43.866  32.221  29.138  1.00  0.00     0.049 A 
ATOM     69  H   UNL A   1      42.942  31.270  27.470  1.00  0.00     0.167 HD
ATOM     70  C   UNL A   1      46.348  32.529  28.068  1.00  0.00     0.074 A 
ATOM     71  C   UNL A   1      47.259  33.067  27.030  1.00  0.00     0.031 C 
ATOM     72  C   UNL A   1      44.999  32.958  28.367  1.00  0.00     0.037 A 
BRANCH  59  73
ATOM     73  C   UNL A   1      39.647  29.350  29.413  1.00  0.00     0.057 A 
ATOM     74  C   UNL A   1      38.478  29.515  28.629  1.00  0.00     0.134 A 
ATOM     75  C   UNL A   1      39.310  28.955  30.736  1.00  0.00     0.134 A 
ATOM     76  F   UNL A   1      38.538  29.817  27.328  1.00  0.00    -0.206 F 
ATOM     77  C   UNL A   1      37.155  29.344  29.106  1.00  0.00     0.040 A 
ATOM     78  C   UNL A   1      37.994  28.754  31.220  1.00  0.00     0.040 A 
ATOM     79  F   UNL A   1      40.208  28.702  31.683  1.00  0.00    -0.206 F 
ATOM     80  C   UNL A   1      36.903  28.953  30.406  1.00  0.00     0.006 A 
ENDBRANCH  59  73
BRANCH  60  81
ATOM     81  C   UNL A   1      49.580  27.900  27.309  1.00  0.00     0.057 A 
ATOM     82  C   UNL A   1      49.495  26.884  25.950  1.00  0.00     0.134 A 
ATOM     83  C   UNL A   1      50.824  27.455  28.499  1.00  0.00     0.134 A 
ATOM     84  F   UNL A   1      48.421  26.981  25.147  1.00  0.00    -0.206 F 
ATOM     85  C   UNL A   1      50.642  25.634  25.535  1.00  0.00     0.040 A 
ATOM     86  C   UNL A   1      52.208  26.339  28.162  1.00  0.00     0.040 A 
ATOM     87  F   UNL A   1      50.779  28.089  29.681  1.00  0.00    -0.206 F 
ATOM     88  C   UNL A   1      52.100  25.329  26.531  1.00  0.00     0.006 A 
ENDBRANCH  60  81
BRANCH  72  89
ATOM     89  C   UNL A   1      44.444  34.250  27.740  1.00  0.00     0.057 A 
ATOM     90  C   UNL A   1      43.800  34.312  26.503  1.00  0.00     0.134 A 
ATOM     91  C   UNL A   1      44.573  35.507  28.383  1.00  0.00     0.134 A 
ATOM     92  F   UNL A   1      43.868  33.295  25.630  1.00  0.00    -0.206 F 
ATOM     93  C   UNL A   1      43.059  35.433  26.110  1.00  0.00     0.040 A 
ATOM     94  C   UNL A   1      43.888  36.647  27.981  1.00  0.00     0.040 A 
ATOM     95  F   UNL A   1      45.381  35.723  29.428  1.00  0.00    -0.206 F 
ATOM     96  C   UNL A   1      43.064  36.592  26.878  1.00  0.00     0.006 A 
ENDBRANCH  72  89
ENDBRANCH  46  47
ENDBRANCH  39  41
ENDBRANCH  38  39
ENDBRANCH  37  38
ENDBRANCH  36  37
ENDBRANCH  35  36
ENDBRANCH  34  35
ENDBRANCH  33  34
ENDBRANCH  32  33
ENDBRANCH   1  32
TORSDOF 23
ENDMDL
MODEL 3
REMARK VINA RESULT:     -12.3      4.782      9.522
REMARK SMILES Cc1ccc(CCC(=O)N2CCC3(CC2)[C@H](C(=O)OCCOCCOCCOCCOC(=O)c2ccc(-c4c5nc(c(-c6c(F)cccc6F)c6ccc([nH]6)c(-c6c(F)cccc6F)c6nc(c(-c7c(F)cccc7F)c7ccc4[nH]7)C=C6)C=C5)cc2)CC(=O)N3C)cc1
REMARK SMILES IDX 24 1 23 2 22 3 21 4 20 5 19 6 17 7 18 8 16 9 8 10 9 11 10 12
REMARK SMILES IDX 11 13 15 14 12 15 14 16 13 17 91 18 88 19 89 20 92 21 90 22
REMARK SMILES IDX 7 23 6 24 5 25 1 26 2 27 3 28 94 29 4 30 93 31 25 32 26 33
REMARK SMILES IDX 27 34 28 35 29 36 30 37 31 38 32 39 33 40 34 41 35 42 87 43
REMARK SMILES IDX 36 44 86 45 37 46 38 47 39 48 80 49 40 50 85 51 79 52 81 53
REMARK SMILES IDX 41 54 84 55 78 56 77 57 42 59 68 60 51 61 67 62 52 63 55 64
REMARK SMILES IDX 66 65 82 66 53 67 54 68 65 70 83 71 56 72 43 73 44 74 49 75
REMARK SMILES IDX 45 76 46 77 48 78 50 79 47 80 69 81 70 82 75 83 71 84 72 85
REMARK SMILES IDX 74 86 76 87 73 88 57 89 58 90 63 91 59 92 60 93 62 94 64 95
REMARK SMILES IDX 61 96
REMARK H PARENT 81 58 55 69
REMARK Flexibility Score: inf
ROOT
ATOM      1  C   UNL A   1      39.702  25.278  27.305  1.00  0.00     0.188 C 
ENDROOT
BRANCH   1   2
ATOM      2  C   UNL A   1      40.462  23.714  27.830  1.00  0.00     0.188 C 
BRANCH   2   3
ATOM      3  O   UNL A   1      40.398  22.370  27.301  1.00  0.00    -0.376 OA
BRANCH   3   4
ATOM      4  C   UNL A   1      39.817  21.793  26.090  1.00  0.00     0.202 C 
BRANCH   4   5
ATOM      5  C   UNL A   1      38.425  21.287  25.740  1.00  0.00     0.261 C 
BRANCH   5   6
ATOM      6  O   UNL A   1      37.339  22.112  25.658  1.00  0.00    -0.463 OA
BRANCH   6   7
ATOM      7  C   UNL A   1      36.666  21.879  24.546  1.00  0.00     0.311 C 
ATOM      8  O   UNL A   1      36.888  22.275  23.411  1.00  0.00    -0.252 OA
BRANCH   7   9
ATOM      9  C   UNL A   1      35.477  21.137  24.937  1.00  0.00     0.134 C 
ATOM     10  C   UNL A   1      31.006  24.314  24.604  1.00  0.00     0.222 C 
ATOM     11  O   UNL A   1      30.375  24.820  23.669  1.00  0.00    -0.275 OA
ATOM     12  N   UNL A   1      31.538  23.033  24.493  1.00  0.00    -0.343 N 
ATOM     13  C   UNL A   1      31.833  22.362  23.265  1.00  0.00     0.122 C 
ATOM     14  C   UNL A   1      31.931  22.220  25.558  1.00  0.00     0.122 C 
ATOM     15  C   UNL A   1      33.366  21.926  23.141  1.00  0.00     0.051 C 
ATOM     16  C   UNL A   1      33.412  22.133  25.538  1.00  0.00     0.051 C 
ATOM     17  C   UNL A   1      33.988  21.254  24.418  1.00  0.00     0.060 C 
ATOM     18  N   UNL A   1      33.630  19.817  24.411  1.00  0.00    -0.339 N 
ATOM     19  C   UNL A   1      35.910  19.683  24.984  1.00  0.00     0.118 C 
ATOM     20  C   UNL A   1      34.702  18.946  24.582  1.00  0.00     0.223 C 
ATOM     21  C   UNL A   1      32.463  19.249  23.773  1.00  0.00     0.147 C 
ATOM     22  O   UNL A   1      34.688  17.737  24.410  1.00  0.00    -0.275 OA
BRANCH  10  23
ATOM     23  C   UNL A   1      31.422  25.233  25.792  1.00  0.00     0.105 C 
BRANCH  23  24
ATOM     24  C   UNL A   1      30.660  26.508  26.254  1.00  0.00     0.045 C 
BRANCH  24  25
ATOM     25  C   UNL A   1      31.397  27.842  26.156  1.00  0.00    -0.047 A 
ATOM     26  C   UNL A   1      31.617  32.096  26.614  1.00  0.00     0.044 C 
ATOM     27  C   UNL A   1      31.822  30.625  26.328  1.00  0.00    -0.051 A 
ATOM     28  C   UNL A   1      31.346  30.054  25.140  1.00  0.00     0.004 A 
ATOM     29  C   UNL A   1      32.280  29.772  27.345  1.00  0.00     0.004 A 
ATOM     30  C   UNL A   1      31.210  28.660  25.023  1.00  0.00     0.004 A 
ATOM     31  C   UNL A   1      32.048  28.389  27.270  1.00  0.00     0.004 A 
ENDBRANCH  24  25
ENDBRANCH  23  24
ENDBRANCH  10  23
ENDBRANCH   7   9
ENDBRANCH   6   7
ENDBRANCH   5   6
ENDBRANCH   4   5
ENDBRANCH   3   4
ENDBRANCH   2   3
ENDBRANCH   1   2
BRANCH   1  32
ATOM     32  O   UNL A   1      39.940  27.119  27.403  1.00  0.00    -0.377 OA
BRANCH  32  33
ATOM     33  C   UNL A   1      41.036  28.300  26.057  1.00  0.00     0.188 C 
BRANCH  33  34
ATOM     34  C   UNL A   1      42.437  27.424  25.056  1.00  0.00     0.188 C 
BRANCH  34  35
ATOM     35  O   UNL A   1      43.595  26.611  25.568  1.00  0.00    -0.376 OA
BRANCH  35  36
ATOM     36  C   UNL A   1      44.340  25.466  25.070  1.00  0.00     0.202 C 
BRANCH  36  37
ATOM     37  C   UNL A   1      45.752  25.571  25.627  1.00  0.00     0.261 C 
BRANCH  37  38
ATOM     38  O   UNL A   1      45.766  26.026  27.008  1.00  0.00    -0.460 OA
BRANCH  38  39
ATOM     39  C   UNL A   1      45.756  25.072  27.992  1.00  0.00     0.338 C 
ATOM     40  O   UNL A   1      46.398  24.035  27.943  1.00  0.00    -0.246 OA
BRANCH  39  41
ATOM     41  C   UNL A   1      44.734  25.411  29.066  1.00  0.00     0.060 A 
ATOM     42  C   UNL A   1      43.435  25.835  28.735  1.00  0.00     0.016 A 
ATOM     43  C   UNL A   1      45.152  25.616  30.381  1.00  0.00     0.016 A 
ATOM     44  C   UNL A   1      42.668  26.638  29.650  1.00  0.00     0.010 A 
ATOM     45  C   UNL A   1      44.435  26.490  31.230  1.00  0.00     0.010 A 
ATOM     46  C   UNL A   1      43.225  27.123  30.857  1.00  0.00    -0.014 A 
BRANCH  46  47
ATOM     47  C   UNL A   1      42.561  28.177  31.779  1.00  0.00     0.031 A 
ATOM     48  C   UNL A   1      41.731  29.249  30.984  1.00  0.00     0.074 A 
ATOM     49  C   UNL A   1      42.366  28.211  33.177  1.00  0.00     0.049 A 
ATOM     50  N   UNL A   1      41.090  30.304  31.431  1.00  0.00    -0.248 NA
ATOM     51  C   UNL A   1      41.564  29.132  29.534  1.00  0.00     0.031 C 
ATOM     52  C   UNL A   1      41.664  27.325  34.259  1.00  0.00     0.029 A 
ATOM     53  N   UNL A   1      43.388  28.558  34.024  1.00  0.00    -0.354 N 
ATOM     54  C   UNL A   1      40.100  30.638  30.504  1.00  0.00     0.074 A 
ATOM     55  C   UNL A   1      40.602  30.025  29.289  1.00  0.00     0.031 C 
ATOM     56  C   UNL A   1      42.054  27.464  35.517  1.00  0.00     0.029 A 
ATOM     57  C   UNL A   1      43.186  28.321  35.377  1.00  0.00     0.049 A 
ATOM     58  H   UNL A   1      44.225  28.955  33.688  1.00  0.00     0.167 HD
ATOM     59  C   UNL A   1      38.903  31.249  30.858  1.00  0.00     0.037 A 
ATOM     60  C   UNL A   1      44.072  28.155  36.357  1.00  0.00     0.037 A 
ATOM     61  C   UNL A   1      38.711  31.473  32.373  1.00  0.00     0.049 A 
ATOM     62  C   UNL A   1      42.966  29.554  36.724  1.00  0.00     0.074 A 
ATOM     63  C   UNL A   1      37.679  31.157  33.264  1.00  0.00     0.029 A 
ATOM     64  N   UNL A   1      39.750  31.907  33.232  1.00  0.00    -0.354 N 
ATOM     65  N   UNL A   1      41.691  29.915  36.392  1.00  0.00    -0.248 NA
ATOM     66  C   UNL A   1      43.605  30.741  37.301  1.00  0.00     0.031 C 
ATOM     67  C   UNL A   1      38.084  31.463  34.625  1.00  0.00     0.029 A 
ATOM     68  C   UNL A   1      39.446  31.838  34.629  1.00  0.00     0.049 A 
ATOM     69  H   UNL A   1      40.615  32.232  32.893  1.00  0.00     0.167 HD
ATOM     70  C   UNL A   1      41.487  31.328  36.352  1.00  0.00     0.074 A 
ATOM     71  C   UNL A   1      42.724  31.735  37.061  1.00  0.00     0.031 C 
ATOM     72  C   UNL A   1      40.521  32.184  35.698  1.00  0.00     0.037 A 
BRANCH  59  73
ATOM     73  C   UNL A   1      37.708  31.524  29.833  1.00  0.00     0.057 A 
ATOM     74  C   UNL A   1      36.714  30.545  29.587  1.00  0.00     0.134 A 
ATOM     75  C   UNL A   1      37.438  32.708  29.094  1.00  0.00     0.134 A 
ATOM     76  F   UNL A   1      36.710  29.369  30.221  1.00  0.00    -0.206 F 
ATOM     77  C   UNL A   1      35.620  30.710  28.701  1.00  0.00     0.040 A 
ATOM     78  C   UNL A   1      36.335  32.897  28.225  1.00  0.00     0.040 A 
ATOM     79  F   UNL A   1      38.190  33.802  29.151  1.00  0.00    -0.206 F 
ATOM     80  C   UNL A   1      35.418  31.893  28.019  1.00  0.00     0.006 A 
ENDBRANCH  59  73
BRANCH  60  81
ATOM     81  C   UNL A   1      44.450  26.505  35.711  1.00  0.00     0.057 A 
ATOM     82  C   UNL A   1      45.809  26.304  34.711  1.00  0.00     0.134 A 
ATOM     83  C   UNL A   1      44.001  25.070  36.659  1.00  0.00     0.134 A 
ATOM     84  F   UNL A   1      46.050  27.232  33.769  1.00  0.00    -0.206 F 
ATOM     85  C   UNL A   1      46.893  24.934  34.722  1.00  0.00     0.040 A 
ATOM     86  C   UNL A   1      45.091  23.655  36.950  1.00  0.00     0.040 A 
ATOM     87  F   UNL A   1      42.815  25.112  37.287  1.00  0.00    -0.206 F 
ATOM     88  C   UNL A   1      46.680  23.578  35.873  1.00  0.00     0.006 A 
ENDBRANCH  60  81
BRANCH  72  89
ATOM     89  C   UNL A   1      40.584  33.709  35.897  1.00  0.00     0.057 A 
ATOM     90  C   UNL A   1      41.404  34.566  35.162  1.00  0.00     0.134 A 
ATOM     91  C   UNL A   1      39.808  34.366  36.886  1.00  0.00     0.134 A 
ATOM     92  F   UNL A   1      42.415  34.095  34.417  1.00  0.00    -0.206 F 
ATOM     93  C   UNL A   1      41.217  35.954  35.167  1.00  0.00     0.040 A 
ATOM     94  C   UNL A   1      39.649  35.745  36.944  1.00  0.00     0.040 A 
ATOM     95  F   UNL A   1      39.168  33.723  37.871  1.00  0.00    -0.206 F 
ATOM     96  C   UNL A   1      40.300  36.543  36.029  1.00  0.00     0.006 A 
ENDBRANCH  72  89
ENDBRANCH  46  47
ENDBRANCH  39  41
ENDBRANCH  38  39
ENDBRANCH  37  38
ENDBRANCH  36  37
ENDBRANCH  35  36
ENDBRANCH  34  35
ENDBRANCH  33  34
ENDBRANCH  32  33
ENDBRANCH   1  32
TORSDOF 23
ENDMDL
