MODEL 1
REMARK VINA RESULT:     -10.3      0.000      0.000
REMARK SMILES Cc1ccc2c(c1C)O[C@@H](C(=O)OCCOCCOCCOCCOC(=O)c1ccc(-c3c4nc(c(-c5c(F)cccc5F)c5ccc([nH]5)c(-c5c(F)cccc5F)c5nc(c(-c6c(F)cccc6F)c6ccc3[nH]6)C=C5)C=C4)cc1)CC2=O
REMARK SMILES IDX 20 1 19 2 18 3 17 4 16 5 15 6 14 7 13 8 11 9 12 10 10 11
REMARK SMILES IDX 1 12 2 13 3 14 7 15 4 16 6 17 8 18 5 19 9 20 83 21 82 22
REMARK SMILES IDX 84 23 21 24 22 25 23 26 24 27 25 28 26 29 27 30 28 31 29 32
REMARK SMILES IDX 81 33 30 34 80 35 31 36 32 37 33 38 74 39 34 40 79 41 73 42
REMARK SMILES IDX 75 43 35 44 78 45 72 46 71 47 36 49 62 50 45 51 61 52 46 53
REMARK SMILES IDX 49 54 60 55 76 56 47 57 48 58 59 60 77 61 50 62 37 63 38 64
REMARK SMILES IDX 43 65 39 66 40 67 42 68 44 69 41 70 63 71 64 72 69 73 65 74
REMARK SMILES IDX 66 75 68 76 70 77 67 78 51 79 52 80 57 81 53 82 54 83 56 84
REMARK SMILES IDX 58 85 55 86
REMARK H PARENT 75 48 49 59
REMARK Flexibility Score: inf
ROOT
ATOM      1  C   UNL A   1      40.661  21.485  26.155  1.00  0.00     0.188 C 
ENDROOT
BRANCH   1   2
ATOM      2  O   UNL A   1      39.283  21.431  26.491  1.00  0.00    -0.377 OA
BRANCH   2   3
ATOM      3  C   UNL A   1      38.371  21.973  25.562  1.00  0.00     0.188 C 
BRANCH   3   4
ATOM      4  C   UNL A   1      37.234  21.037  25.138  1.00  0.00     0.188 C 
BRANCH   4   5
ATOM      5  O   UNL A   1      35.955  21.551  24.809  1.00  0.00    -0.376 OA
BRANCH   5   6
ATOM      6  C   UNL A   1      34.769  20.947  25.304  1.00  0.00     0.202 C 
BRANCH   6   7
ATOM      7  C   UNL A   1      33.896  21.612  26.387  1.00  0.00     0.261 C 
BRANCH   7   8
ATOM      8  O   UNL A   1      33.900  23.054  26.464  1.00  0.00    -0.460 OA
BRANCH   8   9
ATOM      9  C   UNL A   1      33.395  23.721  25.397  1.00  0.00     0.347 C 
ATOM     10  O   UNL A   1      32.209  23.692  25.078  1.00  0.00    -0.248 OA
BRANCH   9  11
ATOM     11  C   UNL A   1      34.449  24.443  24.528  1.00  0.00     0.290 C 
ATOM     12  C   UNL A   1      31.618  29.700  25.508  1.00  0.00     0.045 C 
ATOM     13  C   UNL A   1      32.056  28.483  24.745  1.00  0.00    -0.044 A 
ATOM     14  C   UNL A   1      31.445  28.197  23.508  1.00  0.00     0.005 A 
ATOM     15  C   UNL A   1      33.086  27.651  25.225  1.00  0.00    -0.005 A 
ATOM     16  C   UNL A   1      31.845  27.102  22.744  1.00  0.00     0.016 A 
ATOM     17  C   UNL A   1      33.486  26.561  24.443  1.00  0.00     0.134 A 
ATOM     18  C   UNL A   1      33.742  27.832  26.569  1.00  0.00     0.049 C 
ATOM     19  C   UNL A   1      32.873  26.293  23.214  1.00  0.00     0.060 A 
ATOM     20  O   UNL A   1      34.517  25.806  24.945  1.00  0.00    -0.477 OA
ATOM     21  C   UNL A   1      33.362  25.157  22.413  1.00  0.00     0.170 C 
ATOM     22  C   UNL A   1      34.505  24.393  23.008  1.00  0.00     0.138 C 
ATOM     23  O   UNL A   1      32.931  24.930  21.287  1.00  0.00    -0.294 OA
ENDBRANCH   9  11
ENDBRANCH   8   9
ENDBRANCH   7   8
ENDBRANCH   6   7
ENDBRANCH   5   6
ENDBRANCH   4   5
ENDBRANCH   3   4
ENDBRANCH   2   3
ENDBRANCH   1   2
BRANCH   1  24
ATOM     24  C   UNL A   1      41.519  20.242  26.454  1.00  0.00     0.188 C 
BRANCH  24  25
ATOM     25  O   UNL A   1      42.361  19.856  25.377  1.00  0.00    -0.376 OA
BRANCH  25  26
ATOM     26  C   UNL A   1      43.734  20.216  25.427  1.00  0.00     0.202 C 
BRANCH  26  27
ATOM     27  C   UNL A   1      44.145  21.621  24.953  1.00  0.00     0.261 C 
BRANCH  27  28
ATOM     28  O   UNL A   1      44.109  22.681  25.924  1.00  0.00    -0.460 OA
BRANCH  28  29
ATOM     29  C   UNL A   1      44.441  23.929  25.546  1.00  0.00     0.338 C 
ATOM     30  O   UNL A   1      45.190  24.253  24.638  1.00  0.00    -0.246 OA
BRANCH  29  31
ATOM     31  C   UNL A   1      43.579  24.863  26.302  1.00  0.00     0.060 A 
ATOM     32  C   UNL A   1      43.713  26.243  26.089  1.00  0.00     0.016 A 
ATOM     33  C   UNL A   1      42.651  24.380  27.226  1.00  0.00     0.016 A 
ATOM     34  C   UNL A   1      42.941  27.147  26.819  1.00  0.00     0.010 A 
ATOM     35  C   UNL A   1      41.913  25.287  27.994  1.00  0.00     0.010 A 
ATOM     36  C   UNL A   1      42.088  26.672  27.823  1.00  0.00    -0.014 A 
BRANCH  36  37
ATOM     37  C   UNL A   1      41.643  27.601  28.888  1.00  0.00     0.031 A 
ATOM     38  C   UNL A   1      42.405  27.571  30.186  1.00  0.00     0.074 A 
ATOM     39  C   UNL A   1      40.619  28.455  28.722  1.00  0.00     0.049 A 
ATOM     40  N   UNL A   1      42.178  28.209  31.304  1.00  0.00    -0.248 NA
ATOM     41  C   UNL A   1      43.590  26.697  30.222  1.00  0.00     0.031 C 
ATOM     42  C   UNL A   1      39.853  28.638  27.493  1.00  0.00     0.029 A 
ATOM     43  N   UNL A   1      40.042  29.324  29.616  1.00  0.00    -0.354 N 
ATOM     44  C   UNL A   1      43.189  27.814  32.172  1.00  0.00     0.074 A 
ATOM     45  C   UNL A   1      44.015  26.862  31.463  1.00  0.00     0.031 C 
ATOM     46  C   UNL A   1      38.888  29.550  27.716  1.00  0.00     0.029 A 
ATOM     47  C   UNL A   1      38.944  29.980  29.114  1.00  0.00     0.049 A 
ATOM     48  H   UNL A   1      40.383  29.463  30.529  1.00  0.00     0.167 HD
ATOM     49  C   UNL A   1      43.416  28.207  33.447  1.00  0.00     0.037 A 
ATOM     50  C   UNL A   1      38.074  30.803  29.730  1.00  0.00     0.037 A 
ATOM     51  C   UNL A   1      42.571  29.120  34.165  1.00  0.00     0.049 A 
ATOM     52  C   UNL A   1      38.264  31.119  31.196  1.00  0.00     0.074 A 
ATOM     53  C   UNL A   1      42.692  29.564  35.470  1.00  0.00     0.029 A 
ATOM     54  N   UNL A   1      41.434  29.716  33.642  1.00  0.00    -0.354 N 
ATOM     55  N   UNL A   1      39.220  30.743  32.011  1.00  0.00    -0.248 NA
ATOM     56  C   UNL A   1      37.244  31.971  31.826  1.00  0.00     0.031 C 
ATOM     57  C   UNL A   1      41.593  30.381  35.753  1.00  0.00     0.029 A 
ATOM     58  C   UNL A   1      40.828  30.503  34.604  1.00  0.00     0.049 A 
ATOM     59  H   UNL A   1      41.106  29.596  32.720  1.00  0.00     0.167 HD
ATOM     60  C   UNL A   1      38.943  31.347  33.233  1.00  0.00     0.074 A 
ATOM     61  C   UNL A   1      37.731  32.118  33.050  1.00  0.00     0.031 C 
ATOM     62  C   UNL A   1      39.629  31.278  34.400  1.00  0.00     0.037 A 
BRANCH  49  63
ATOM     63  C   UNL A   1      44.594  27.598  34.149  1.00  0.00     0.057 A 
ATOM     64  C   UNL A   1      45.860  28.187  34.055  1.00  0.00     0.134 A 
ATOM     65  C   UNL A   1      44.474  26.440  34.931  1.00  0.00     0.134 A 
ATOM     66  F   UNL A   1      46.045  29.297  33.325  1.00  0.00    -0.206 F 
ATOM     67  C   UNL A   1      46.966  27.647  34.715  1.00  0.00     0.040 A 
ATOM     68  C   UNL A   1      45.566  25.910  35.621  1.00  0.00     0.040 A 
ATOM     69  F   UNL A   1      43.284  25.840  35.080  1.00  0.00    -0.206 F 
ATOM     70  C   UNL A   1      46.818  26.512  35.509  1.00  0.00     0.006 A 
ENDBRANCH  49  63
BRANCH  50  71
ATOM     71  C   UNL A   1      36.915  31.371  28.992  1.00  0.00     0.057 A 
ATOM     72  C   UNL A   1      35.774  30.605  28.721  1.00  0.00     0.134 A 
ATOM     73  C   UNL A   1      36.894  32.715  28.600  1.00  0.00     0.134 A 
ATOM     74  F   UNL A   1      35.726  29.312  29.073  1.00  0.00    -0.206 F 
ATOM     75  C   UNL A   1      34.656  31.154  28.090  1.00  0.00     0.040 A 
ATOM     76  C   UNL A   1      35.771  33.285  27.995  1.00  0.00     0.040 A 
ATOM     77  F   UNL A   1      37.944  33.509  28.856  1.00  0.00    -0.206 F 
ATOM     78  C   UNL A   1      34.649  32.502  27.737  1.00  0.00     0.006 A 
ENDBRANCH  50  71
BRANCH  62  79
ATOM     79  C   UNL A   1      39.131  32.106  35.551  1.00  0.00     0.057 A 
ATOM     80  C   UNL A   1      39.529  33.443  35.683  1.00  0.00     0.134 A 
ATOM     81  C   UNL A   1      38.299  31.580  36.548  1.00  0.00     0.134 A 
ATOM     82  F   UNL A   1      40.336  34.008  34.771  1.00  0.00    -0.206 F 
ATOM     83  C   UNL A   1      39.122  34.225  36.765  1.00  0.00     0.040 A 
ATOM     84  C   UNL A   1      37.859  32.362  37.618  1.00  0.00     0.040 A 
ATOM     85  F   UNL A   1      37.873  30.310  36.478  1.00  0.00    -0.206 F 
ATOM     86  C   UNL A   1      38.277  33.687  37.732  1.00  0.00     0.006 A 
ENDBRANCH  62  79
ENDBRANCH  36  37
ENDBRANCH  29  31
ENDBRANCH  28  29
ENDBRANCH  27  28
ENDBRANCH  26  27
ENDBRANCH  25  26
ENDBRANCH  24  25
ENDBRANCH   1  24
TORSDOF 20
ENDMDL
MODEL 2
REMARK VINA RESULT:      -9.7      1.222      6.307
REMARK SMILES Cc1ccc2c(c1C)O[C@@H](C(=O)OCCOCCOCCOCCOC(=O)c1ccc(-c3c4nc(c(-c5c(F)cccc5F)c5ccc([nH]5)c(-c5c(F)cccc5F)c5nc(c(-c6c(F)cccc6F)c6ccc3[nH]6)C=C5)C=C4)cc1)CC2=O
REMARK SMILES IDX 20 1 19 2 18 3 17 4 16 5 15 6 14 7 13 8 11 9 12 10 10 11
REMARK SMILES IDX 1 12 2 13 3 14 7 15 4 16 6 17 8 18 5 19 9 20 83 21 82 22
REMARK SMILES IDX 84 23 21 24 22 25 23 26 24 27 25 28 26 29 27 30 28 31 29 32
REMARK SMILES IDX 81 33 30 34 80 35 31 36 32 37 33 38 74 39 34 40 79 41 73 42
REMARK SMILES IDX 75 43 35 44 78 45 72 46 71 47 36 49 62 50 45 51 61 52 46 53
REMARK SMILES IDX 49 54 60 55 76 56 47 57 48 58 59 60 77 61 50 62 37 63 38 64
REMARK SMILES IDX 43 65 39 66 40 67 42 68 44 69 41 70 63 71 64 72 69 73 65 74
REMARK SMILES IDX 66 75 68 76 70 77 67 78 51 79 52 80 57 81 53 82 54 83 56 84
REMARK SMILES IDX 58 85 55 86
REMARK H PARENT 75 48 49 59
REMARK Flexibility Score: inf
ROOT
ATOM      1  C   UNL A   1      39.557  22.766  26.447  1.00  0.00     0.188 C 
ENDROOT
BRANCH   1   2
ATOM      2  O   UNL A   1      38.190  22.951  26.112  1.00  0.00    -0.377 OA
BRANCH   2   3
ATOM      3  C   UNL A   1      37.538  21.885  25.458  1.00  0.00     0.188 C 
BRANCH   3   4
ATOM      4  C   UNL A   1      36.018  22.029  25.326  1.00  0.00     0.188 C 
BRANCH   4   5
ATOM      5  O   UNL A   1      35.143  21.272  26.145  1.00  0.00    -0.376 OA
BRANCH   5   6
ATOM      6  C   UNL A   1      34.365  21.890  27.160  1.00  0.00     0.202 C 
BRANCH   6   7
ATOM      7  C   UNL A   1      32.832  22.023  27.056  1.00  0.00     0.261 C 
BRANCH   7   8
ATOM      8  O   UNL A   1      32.300  23.217  26.442  1.00  0.00    -0.460 OA
BRANCH   8   9
ATOM      9  C   UNL A   1      31.226  23.056  25.629  1.00  0.00     0.347 C 
ATOM     10  O   UNL A   1      30.217  22.435  25.955  1.00  0.00    -0.248 OA
BRANCH   9  11
ATOM     11  C   UNL A   1      31.404  23.621  24.203  1.00  0.00     0.290 C 
ATOM     12  C   UNL A   1      34.387  28.366  26.483  1.00  0.00     0.045 C 
ATOM     13  C   UNL A   1      33.241  27.614  25.870  1.00  0.00    -0.044 A 
ATOM     14  C   UNL A   1      31.978  28.234  25.799  1.00  0.00     0.005 A 
ATOM     15  C   UNL A   1      33.417  26.323  25.333  1.00  0.00    -0.005 A 
ATOM     16  C   UNL A   1      30.893  27.593  25.204  1.00  0.00     0.016 A 
ATOM     17  C   UNL A   1      32.323  25.695  24.727  1.00  0.00     0.134 A 
ATOM     18  C   UNL A   1      34.707  25.552  25.432  1.00  0.00     0.049 C 
ATOM     19  C   UNL A   1      31.076  26.326  24.661  1.00  0.00     0.060 A 
ATOM     20  O   UNL A   1      32.563  24.453  24.192  1.00  0.00    -0.477 OA
ATOM     21  C   UNL A   1      29.970  25.635  23.975  1.00  0.00     0.170 C 
ATOM     22  C   UNL A   1      30.308  24.297  23.392  1.00  0.00     0.138 C 
ATOM     23  O   UNL A   1      28.883  26.176  23.801  1.00  0.00    -0.294 OA
ENDBRANCH   9  11
ENDBRANCH   8   9
ENDBRANCH   7   8
ENDBRANCH   6   7
ENDBRANCH   5   6
ENDBRANCH   4   5
ENDBRANCH   3   4
ENDBRANCH   2   3
ENDBRANCH   1   2
BRANCH   1  24
ATOM     24  C   UNL A   1      40.024  21.337  26.777  1.00  0.00     0.188 C 
BRANCH  24  25
ATOM     25  O   UNL A   1      41.300  21.015  26.240  1.00  0.00    -0.376 OA
BRANCH  25  26
ATOM     26  C   UNL A   1      42.458  21.509  26.898  1.00  0.00     0.202 C 
BRANCH  26  27
ATOM     27  C   UNL A   1      43.466  22.341  26.087  1.00  0.00     0.261 C 
BRANCH  27  28
ATOM     28  O   UNL A   1      42.953  23.468  25.355  1.00  0.00    -0.460 OA
BRANCH  28  29
ATOM     29  C   UNL A   1      43.699  24.584  25.261  1.00  0.00     0.338 C 
ATOM     30  O   UNL A   1      44.580  24.820  24.450  1.00  0.00    -0.246 OA
BRANCH  29  31
ATOM     31  C   UNL A   1      43.129  25.576  26.199  1.00  0.00     0.060 A 
ATOM     32  C   UNL A   1      43.978  26.520  26.797  1.00  0.00     0.016 A 
ATOM     33  C   UNL A   1      41.766  25.568  26.496  1.00  0.00     0.016 A 
ATOM     34  C   UNL A   1      43.472  27.439  27.715  1.00  0.00     0.010 A 
ATOM     35  C   UNL A   1      41.267  26.455  27.455  1.00  0.00     0.010 A 
ATOM     36  C   UNL A   1      42.127  27.365  28.098  1.00  0.00    -0.014 A 
BRANCH  36  37
ATOM     37  C   UNL A   1      41.706  27.991  29.373  1.00  0.00     0.031 A 
ATOM     38  C   UNL A   1      40.501  28.894  29.328  1.00  0.00     0.074 A 
ATOM     39  C   UNL A   1      42.342  27.767  30.535  1.00  0.00     0.049 A 
ATOM     40  N   UNL A   1      39.972  29.631  30.269  1.00  0.00    -0.248 NA
ATOM     41  C   UNL A   1      39.797  28.971  28.036  1.00  0.00     0.031 C 
ATOM     42  C   UNL A   1      43.467  26.857  30.728  1.00  0.00     0.029 A 
ATOM     43  N   UNL A   1      42.126  28.311  31.776  1.00  0.00    -0.354 N 
ATOM     44  C   UNL A   1      38.878  30.256  29.684  1.00  0.00     0.074 A 
ATOM     45  C   UNL A   1      38.832  29.835  28.301  1.00  0.00     0.031 C 
ATOM     46  C   UNL A   1      43.860  26.922  32.014  1.00  0.00     0.029 A 
ATOM     47  C   UNL A   1      43.041  27.908  32.719  1.00  0.00     0.049 A 
ATOM     48  H   UNL A   1      41.387  28.931  31.973  1.00  0.00     0.167 HD
ATOM     49  C   UNL A   1      37.986  31.106  30.244  1.00  0.00     0.037 A 
ATOM     50  C   UNL A   1      43.209  28.320  33.991  1.00  0.00     0.037 A 
ATOM     51  C   UNL A   1      38.057  31.558  31.606  1.00  0.00     0.049 A 
ATOM     52  C   UNL A   1      42.288  29.376  34.555  1.00  0.00     0.074 A 
ATOM     53  C   UNL A   1      37.222  32.440  32.267  1.00  0.00     0.029 A 
ATOM     54  N   UNL A   1      39.033  31.173  32.511  1.00  0.00    -0.354 N 
ATOM     55  N   UNL A   1      41.255  29.963  33.999  1.00  0.00    -0.248 NA
ATOM     56  C   UNL A   1      42.563  29.829  35.927  1.00  0.00     0.031 C 
ATOM     57  C   UNL A   1      37.730  32.636  33.555  1.00  0.00     0.029 A 
ATOM     58  C   UNL A   1      38.839  31.821  33.718  1.00  0.00     0.049 A 
ATOM     59  H   UNL A   1      39.759  30.534  32.322  1.00  0.00     0.167 HD
ATOM     60  C   UNL A   1      40.733  30.818  34.964  1.00  0.00     0.074 A 
ATOM     61  C   UNL A   1      41.560  30.669  36.143  1.00  0.00     0.031 C 
ATOM     62  C   UNL A   1      39.663  31.648  34.888  1.00  0.00     0.037 A 
BRANCH  49  63
ATOM     63  C   UNL A   1      36.899  31.636  29.355  1.00  0.00     0.057 A 
ATOM     64  C   UNL A   1      35.763  30.865  29.083  1.00  0.00     0.134 A 
ATOM     65  C   UNL A   1      36.967  32.914  28.782  1.00  0.00     0.134 A 
ATOM     66  F   UNL A   1      35.633  29.635  29.600  1.00  0.00    -0.206 F 
ATOM     67  C   UNL A   1      34.732  31.346  28.275  1.00  0.00     0.040 A 
ATOM     68  C   UNL A   1      35.927  33.418  27.998  1.00  0.00     0.040 A 
ATOM     69  F   UNL A   1      38.018  33.713  29.022  1.00  0.00    -0.206 F 
ATOM     70  C   UNL A   1      34.807  32.630  27.739  1.00  0.00     0.006 A 
ENDBRANCH  49  63
BRANCH  50  71
ATOM     71  C   UNL A   1      44.310  27.771  34.826  1.00  0.00     0.057 A 
ATOM     72  C   UNL A   1      44.120  26.648  35.641  1.00  0.00     0.134 A 
ATOM     73  C   UNL A   1      45.599  28.316  34.775  1.00  0.00     0.134 A 
ATOM     74  F   UNL A   1      42.912  26.073  35.733  1.00  0.00    -0.206 F 
ATOM     75  C   UNL A   1      45.169  26.087  36.373  1.00  0.00     0.040 A 
ATOM     76  C   UNL A   1      46.664  27.749  35.479  1.00  0.00     0.040 A 
ATOM     77  F   UNL A   1      45.853  29.376  33.993  1.00  0.00    -0.206 F 
ATOM     78  C   UNL A   1      46.448  26.631  36.282  1.00  0.00     0.006 A 
ENDBRANCH  50  71
BRANCH  62  79
ATOM     79  C   UNL A   1      39.282  32.408  36.127  1.00  0.00     0.057 A 
ATOM     80  C   UNL A   1      38.318  31.890  37.003  1.00  0.00     0.134 A 
ATOM     81  C   UNL A   1      39.827  33.660  36.436  1.00  0.00     0.134 A 
ATOM     82  F   UNL A   1      37.745  30.700  36.762  1.00  0.00    -0.206 F 
ATOM     83  C   UNL A   1      37.906  32.591  38.137  1.00  0.00     0.040 A 
ATOM     84  C   UNL A   1      39.447  34.357  37.586  1.00  0.00     0.040 A 
ATOM     85  F   UNL A   1      40.760  34.210  35.646  1.00  0.00    -0.206 F 
ATOM     86  C   UNL A   1      38.479  33.825  38.436  1.00  0.00     0.006 A 
ENDBRANCH  62  79
ENDBRANCH  36  37
ENDBRANCH  29  31
ENDBRANCH  28  29
ENDBRANCH  27  28
ENDBRANCH  26  27
ENDBRANCH  25  26
ENDBRANCH  24  25
ENDBRANCH   1  24
TORSDOF 20
ENDMDL
MODEL 3
REMARK VINA RESULT:      -9.7      1.542      6.365
REMARK SMILES Cc1ccc2c(c1C)O[C@@H](C(=O)OCCOCCOCCOCCOC(=O)c1ccc(-c3c4nc(c(-c5c(F)cccc5F)c5ccc([nH]5)c(-c5c(F)cccc5F)c5nc(c(-c6c(F)cccc6F)c6ccc3[nH]6)C=C5)C=C4)cc1)CC2=O
REMARK SMILES IDX 20 1 19 2 18 3 17 4 16 5 15 6 14 7 13 8 11 9 12 10 10 11
REMARK SMILES IDX 1 12 2 13 3 14 7 15 4 16 6 17 8 18 5 19 9 20 83 21 82 22
REMARK SMILES IDX 84 23 21 24 22 25 23 26 24 27 25 28 26 29 27 30 28 31 29 32
REMARK SMILES IDX 81 33 30 34 80 35 31 36 32 37 33 38 74 39 34 40 79 41 73 42
REMARK SMILES IDX 75 43 35 44 78 45 72 46 71 47 36 49 62 50 45 51 61 52 46 53
REMARK SMILES IDX 49 54 60 55 76 56 47 57 48 58 59 60 77 61 50 62 37 63 38 64
REMARK SMILES IDX 43 65 39 66 40 67 42 68 44 69 41 70 63 71 64 72 69 73 65 74
REMARK SMILES IDX 66 75 68 76 70 77 67 78 51 79 52 80 57 81 53 82 54 83 56 84
REMARK SMILES IDX 58 85 55 86
REMARK H PARENT 75 48 49 59
REMARK Flexibility Score: inf
ROOT
ATOM      1  C   UNL A   1      40.201  21.979  26.049  1.00  0.00     0.188 C 
ENDROOT
BRANCH   1   2
ATOM      2  O   UNL A   1      38.894  21.466  26.257  1.00  0.00    -0.377 OA
BRANCH   2   3
ATOM      3  C   UNL A   1      37.825  22.165  25.657  1.00  0.00     0.188 C 
BRANCH   3   4
ATOM      4  C   UNL A   1      36.746  21.285  25.017  1.00  0.00     0.188 C 
BRANCH   4   5
ATOM      5  O   UNL A   1      35.505  21.838  24.611  1.00  0.00    -0.376 OA
BRANCH   5   6
ATOM      6  C   UNL A   1      34.275  21.340  25.117  1.00  0.00     0.202 C 
BRANCH   6   7
ATOM      7  C   UNL A   1      33.469  22.085  26.200  1.00  0.00     0.261 C 
BRANCH   7   8
ATOM      8  O   UNL A   1      33.942  23.383  26.619  1.00  0.00    -0.460 OA
BRANCH   8   9
ATOM      9  C   UNL A   1      33.343  24.460  26.052  1.00  0.00     0.347 C 
ATOM     10  O   UNL A   1      32.215  24.844  26.351  1.00  0.00    -0.248 OA
BRANCH   9  11
ATOM     11  C   UNL A   1      34.144  25.117  24.906  1.00  0.00     0.290 C 
ATOM     12  C   UNL A   1      31.873  30.510  26.445  1.00  0.00     0.045 C 
ATOM     13  C   UNL A   1      32.043  29.259  25.633  1.00  0.00    -0.044 A 
ATOM     14  C   UNL A   1      31.109  28.972  24.618  1.00  0.00     0.005 A 
ATOM     15  C   UNL A   1      33.136  28.394  25.842  1.00  0.00    -0.005 A 
ATOM     16  C   UNL A   1      31.246  27.844  23.811  1.00  0.00     0.016 A 
ATOM     17  C   UNL A   1      33.269  27.272  25.017  1.00  0.00     0.134 A 
ATOM     18  C   UNL A   1      34.139  28.578  26.950  1.00  0.00     0.049 C 
ATOM     19  C   UNL A   1      32.335  27.003  24.010  1.00  0.00     0.060 A 
ATOM     20  O   UNL A   1      34.371  26.484  25.244  1.00  0.00    -0.477 OA
ATOM     21  C   UNL A   1      32.546  25.829  23.144  1.00  0.00     0.170 C 
ATOM     22  C   UNL A   1      33.781  25.031  23.431  1.00  0.00     0.138 C 
ATOM     23  O   UNL A   1      31.817  25.596  22.186  1.00  0.00    -0.294 OA
ENDBRANCH   9  11
ENDBRANCH   8   9
ENDBRANCH   7   8
ENDBRANCH   6   7
ENDBRANCH   5   6
ENDBRANCH   4   5
ENDBRANCH   3   4
ENDBRANCH   2   3
ENDBRANCH   1   2
BRANCH   1  24
ATOM     24  C   UNL A   1      41.375  20.984  26.106  1.00  0.00     0.188 C 
BRANCH  24  25
ATOM     25  O   UNL A   1      42.553  21.454  25.466  1.00  0.00    -0.376 OA
BRANCH  25  26
ATOM     26  C   UNL A   1      43.586  22.007  26.269  1.00  0.00     0.202 C 
BRANCH  26  27
ATOM     27  C   UNL A   1      43.758  23.536  26.297  1.00  0.00     0.261 C 
BRANCH  27  28
ATOM     28  O   UNL A   1      42.588  24.325  26.574  1.00  0.00    -0.460 OA
BRANCH  28  29
ATOM     29  C   UNL A   1      42.448  25.523  25.977  1.00  0.00     0.338 C 
ATOM     30  O   UNL A   1      42.638  25.791  24.802  1.00  0.00    -0.246 OA
BRANCH  29  31
ATOM     31  C   UNL A   1      41.823  26.435  26.959  1.00  0.00     0.060 A 
ATOM     32  C   UNL A   1      42.147  27.800  26.929  1.00  0.00     0.016 A 
ATOM     33  C   UNL A   1      40.930  25.945  27.913  1.00  0.00     0.016 A 
ATOM     34  C   UNL A   1      41.603  28.674  27.870  1.00  0.00     0.010 A 
ATOM     35  C   UNL A   1      40.424  26.811  28.888  1.00  0.00     0.010 A 
ATOM     36  C   UNL A   1      40.793  28.169  28.894  1.00  0.00    -0.014 A 
BRANCH  36  37
ATOM     37  C   UNL A   1      40.608  28.969  30.127  1.00  0.00     0.031 A 
ATOM     38  C   UNL A   1      39.515  30.006  30.115  1.00  0.00     0.074 A 
ATOM     39  C   UNL A   1      41.358  28.788  31.227  1.00  0.00     0.049 A 
ATOM     40  N   UNL A   1      39.195  30.895  31.017  1.00  0.00    -0.248 NA
ATOM     41  C   UNL A   1      38.665  30.036  28.911  1.00  0.00     0.031 C 
ATOM     42  C   UNL A   1      42.391  27.771  31.395  1.00  0.00     0.029 A 
ATOM     43  N   UNL A   1      41.363  29.479  32.413  1.00  0.00    -0.354 N 
ATOM     44  C   UNL A   1      38.111  31.587  30.492  1.00  0.00     0.074 A 
ATOM     45  C   UNL A   1      37.844  31.036  29.182  1.00  0.00     0.031 C 
ATOM     46  C   UNL A   1      42.949  27.917  32.612  1.00  0.00     0.029 A 
ATOM     47  C   UNL A   1      42.340  29.064  33.286  1.00  0.00     0.049 A 
ATOM     48  H   UNL A   1      40.728  30.202  32.619  1.00  0.00     0.167 HD
ATOM     49  C   UNL A   1      37.397  32.593  31.047  1.00  0.00     0.037 A 
ATOM     50  C   UNL A   1      42.713  29.580  34.474  1.00  0.00     0.037 A 
ATOM     51  C   UNL A   1      37.689  33.170  32.330  1.00  0.00     0.049 A 
ATOM     52  C   UNL A   1      41.993  30.794  35.013  1.00  0.00     0.074 A 
ATOM     53  C   UNL A   1      37.047  34.212  32.975  1.00  0.00     0.029 A 
ATOM     54  N   UNL A   1      38.724  32.762  33.157  1.00  0.00    -0.354 N 
ATOM     55  N   UNL A   1      40.969  31.445  34.513  1.00  0.00    -0.248 NA
ATOM     56  C   UNL A   1      42.488  31.348  36.282  1.00  0.00     0.031 C 
ATOM     57  C   UNL A   1      37.733  34.474  34.165  1.00  0.00     0.029 A 
ATOM     58  C   UNL A   1      38.757  33.549  34.294  1.00  0.00     0.049 A 
ATOM     59  H   UNL A   1      39.345  32.022  32.962  1.00  0.00     0.167 HD
ATOM     60  C   UNL A   1      40.672  32.452  35.425  1.00  0.00     0.074 A 
ATOM     61  C   UNL A   1      41.620  32.323  36.511  1.00  0.00     0.031 C 
ATOM     62  C   UNL A   1      39.699  33.396  35.375  1.00  0.00     0.037 A 
BRANCH  49  63
ATOM     63  C   UNL A   1      36.271  33.161  30.233  1.00  0.00     0.057 A 
ATOM     64  C   UNL A   1      36.533  34.023  29.161  1.00  0.00     0.134 A 
ATOM     65  C   UNL A   1      34.931  32.843  30.496  1.00  0.00     0.134 A 
ATOM     66  F   UNL A   1      37.792  34.367  28.853  1.00  0.00    -0.206 F 
ATOM     67  C   UNL A   1      35.502  34.548  28.379  1.00  0.00     0.040 A 
ATOM     68  C   UNL A   1      33.895  33.337  29.701  1.00  0.00     0.040 A 
ATOM     69  F   UNL A   1      34.614  32.005  31.494  1.00  0.00    -0.206 F 
ATOM     70  C   UNL A   1      34.180  34.196  28.641  1.00  0.00     0.006 A 
ENDBRANCH  49  63
BRANCH  50  71
ATOM     71  C   UNL A   1      43.843  28.987  35.236  1.00  0.00     0.057 A 
ATOM     72  C   UNL A   1      45.167  29.384  35.008  1.00  0.00     0.134 A 
ATOM     73  C   UNL A   1      43.619  28.059  36.261  1.00  0.00     0.134 A 
ATOM     74  F   UNL A   1      45.452  30.273  34.045  1.00  0.00    -0.206 F 
ATOM     75  C   UNL A   1      46.224  28.882  35.770  1.00  0.00     0.040 A 
ATOM     76  C   UNL A   1      44.664  27.571  37.049  1.00  0.00     0.040 A 
ATOM     77  F   UNL A   1      42.372  27.660  36.548  1.00  0.00    -0.206 F 
ATOM     78  C   UNL A   1      45.971  27.982  36.802  1.00  0.00     0.006 A 
ENDBRANCH  50  71
BRANCH  62  79
ATOM     79  C   UNL A   1      39.564  34.320  36.553  1.00  0.00     0.057 A 
ATOM     80  C   UNL A   1      40.161  35.587  36.527  1.00  0.00     0.134 A 
ATOM     81  C   UNL A   1      38.887  33.950  37.722  1.00  0.00     0.134 A 
ATOM     82  F   UNL A   1      40.837  36.002  35.444  1.00  0.00    -0.206 F 
ATOM     83  C   UNL A   1      40.095  36.451  37.622  1.00  0.00     0.040 A 
ATOM     84  C   UNL A   1      38.786  34.818  38.811  1.00  0.00     0.040 A 
ATOM     85  F   UNL A   1      38.285  32.755  37.810  1.00  0.00    -0.206 F 
ATOM     86  C   UNL A   1      39.397  36.069  38.765  1.00  0.00     0.006 A 
ENDBRANCH  62  79
ENDBRANCH  36  37
ENDBRANCH  29  31
ENDBRANCH  28  29
ENDBRANCH  27  28
ENDBRANCH  26  27
ENDBRANCH  25  26
ENDBRANCH  24  25
ENDBRANCH   1  24
TORSDOF 20
ENDMDL
