MODEL 1
REMARK VINA RESULT:      -9.7      0.000      0.000
REMARK SMILES C[NH+](C)[C@@H]1CC[N@@H+](Cc2ccc(C(=O)OCCOCCOCCOCCOC(=O)c3ccc(-c4c5nc(c(-c6c(F)cccc6F)c6ccc([nH]6)c(-c6c(F)cccc6F)c6nc(c(-c7c(F)cccc7F)c7ccc4[nH]7)C=C6)C=C5)cc3)cn2)C1
REMARK SMILES IDX 20 1 19 2 18 3 17 4 16 5 15 6 13 7 14 8 12 9 9 10 10 11
REMARK SMILES IDX 85 12 11 13 84 14 8 15 7 16 4 17 5 18 86 19 6 20 2 22 1 23
REMARK SMILES IDX 3 24 21 26 22 27 23 28 24 29 25 30 26 31 27 32 28 33 29 34
REMARK SMILES IDX 30 35 31 36 83 37 32 38 82 39 33 40 34 41 35 42 76 43 36 44
REMARK SMILES IDX 81 45 75 46 77 47 37 48 80 49 74 50 73 51 38 53 64 54 47 55
REMARK SMILES IDX 63 56 48 57 51 58 62 59 78 60 49 61 50 62 61 64 79 65 52 66
REMARK SMILES IDX 39 67 40 68 45 69 41 70 42 71 44 72 46 73 43 74 65 75 66 76
REMARK SMILES IDX 71 77 67 78 68 79 70 80 72 81 69 82 53 83 54 84 59 85 55 86
REMARK SMILES IDX 56 87 58 88 60 89 57 90
REMARK H PARENT 7 21 2 25 77 52 51 63
REMARK Flexibility Score: inf
ROOT
ATOM      1  C   UNL A   1      33.235  36.738  29.806  1.00  0.00     0.188 C 
ENDROOT
BRANCH   1   2
ATOM      2  C   UNL A   1      33.287  35.197  29.779  1.00  0.00     0.188 C 
BRANCH   2   3
ATOM      3  O   UNL A   1      32.525  34.643  28.720  1.00  0.00    -0.376 OA
BRANCH   3   4
ATOM      4  C   UNL A   1      33.112  33.748  27.794  1.00  0.00     0.202 C 
BRANCH   4   5
ATOM      5  C   UNL A   1      34.386  32.949  28.121  1.00  0.00     0.261 C 
BRANCH   5   6
ATOM      6  O   UNL A   1      34.206  31.573  28.445  1.00  0.00    -0.460 OA
BRANCH   6   7
ATOM      7  C   UNL A   1      34.781  30.670  27.629  1.00  0.00     0.339 C 
ATOM      8  O   UNL A   1      35.970  30.434  27.517  1.00  0.00    -0.246 OA
BRANCH   7   9
ATOM      9  C   UNL A   1      33.706  29.860  27.033  1.00  0.00     0.078 A 
ATOM     10  C   UNL A   1      31.830  28.182  25.962  1.00  0.00     0.095 A 
ATOM     11  C   UNL A   1      31.720  29.548  25.713  1.00  0.00     0.031 A 
ATOM     12  N   UNL A   1      32.736  27.667  26.835  1.00  0.00    -0.254 NA
ATOM     13  C   UNL A   1      32.689  30.396  26.238  1.00  0.00     0.019 A 
ATOM     14  C   UNL A   1      33.653  28.513  27.350  1.00  0.00     0.127 A 
BRANCH  10  15
ATOM     15  C   UNL A   1      31.122  27.193  25.055  1.00  0.00     0.319 C 
BRANCH  15  16
ATOM     16  N   UNL A   1      31.920  26.665  23.928  1.00  0.00    -0.325 N 
ATOM     17  C   UNL A   1      32.349  24.247  23.996  1.00  0.00     0.245 C 
ATOM     18  C   UNL A   1      31.122  24.535  23.120  1.00  0.00     0.132 C 
ATOM     19  C   UNL A   1      32.935  25.659  24.268  1.00  0.00     0.328 C 
ATOM     20  C   UNL A   1      31.121  26.039  22.869  1.00  0.00     0.269 C 
ATOM     21  H   UNL A   1      32.369  27.525  23.618  1.00  0.00     0.348 HD
BRANCH  17  22
ATOM     22  N   UNL A   1      33.300  23.273  23.412  1.00  0.00    -0.333 N 
ATOM     23  C   UNL A   1      34.693  23.663  23.655  1.00  0.00     0.332 C 
ATOM     24  C   UNL A   1      33.093  21.920  23.946  1.00  0.00     0.332 C 
ATOM     25  H   UNL A   1      33.117  23.268  22.409  1.00  0.00     0.348 HD
ENDBRANCH  17  22
ENDBRANCH  15  16
ENDBRANCH  10  15
ENDBRANCH   7   9
ENDBRANCH   6   7
ENDBRANCH   5   6
ENDBRANCH   4   5
ENDBRANCH   3   4
ENDBRANCH   2   3
ENDBRANCH   1   2
BRANCH   1  26
ATOM     26  O   UNL A   1      32.751  37.299  31.016  1.00  0.00    -0.377 OA
BRANCH  26  27
ATOM     27  C   UNL A   1      33.691  37.613  32.047  1.00  0.00     0.188 C 
BRANCH  27  28
ATOM     28  C   UNL A   1      33.579  37.061  33.493  1.00  0.00     0.188 C 
BRANCH  28  29
ATOM     29  O   UNL A   1      34.583  36.130  33.866  1.00  0.00    -0.376 OA
BRANCH  29  30
ATOM     30  C   UNL A   1      35.265  35.431  32.841  1.00  0.00     0.202 C 
BRANCH  30  31
ATOM     31  C   UNL A   1      35.058  33.912  32.799  1.00  0.00     0.261 C 
BRANCH  31  32
ATOM     32  O   UNL A   1      36.117  33.155  32.193  1.00  0.00    -0.460 OA
BRANCH  32  33
ATOM     33  C   UNL A   1      36.757  32.254  32.967  1.00  0.00     0.338 C 
ATOM     34  O   UNL A   1      36.454  31.898  34.094  1.00  0.00    -0.246 OA
BRANCH  33  35
ATOM     35  C   UNL A   1      37.800  31.619  32.140  1.00  0.00     0.060 A 
ATOM     36  C   UNL A   1      38.904  31.026  32.768  1.00  0.00     0.016 A 
ATOM     37  C   UNL A   1      37.677  31.592  30.749  1.00  0.00     0.016 A 
ATOM     38  C   UNL A   1      39.905  30.429  32.001  1.00  0.00     0.010 A 
ATOM     39  C   UNL A   1      38.690  31.014  29.982  1.00  0.00     0.010 A 
ATOM     40  C   UNL A   1      39.822  30.458  30.602  1.00  0.00    -0.014 A 
BRANCH  40  41
ATOM     41  C   UNL A   1      41.002  30.088  29.786  1.00  0.00     0.031 A 
ATOM     42  C   UNL A   1      41.078  28.689  29.237  1.00  0.00     0.074 A 
ATOM     43  C   UNL A   1      41.982  30.970  29.525  1.00  0.00     0.049 A 
ATOM     44  N   UNL A   1      42.030  28.113  28.551  1.00  0.00    -0.248 NA
ATOM     45  C   UNL A   1      39.919  27.821  29.507  1.00  0.00     0.031 C 
ATOM     46  C   UNL A   1      42.006  32.363  29.962  1.00  0.00     0.029 A 
ATOM     47  N   UNL A   1      43.157  30.812  28.831  1.00  0.00    -0.354 N 
ATOM     48  C   UNL A   1      41.590  26.818  28.312  1.00  0.00     0.074 A 
ATOM     49  C   UNL A   1      40.302  26.681  28.956  1.00  0.00     0.031 C 
ATOM     50  C   UNL A   1      43.148  32.932  29.536  1.00  0.00     0.029 A 
ATOM     51  C   UNL A   1      43.949  31.934  28.829  1.00  0.00     0.049 A 
ATOM     52  H   UNL A   1      43.407  29.975  28.378  1.00  0.00     0.167 HD
ATOM     53  C   UNL A   1      42.200  25.833  27.612  1.00  0.00     0.037 A 
ATOM     54  C   UNL A   1      45.189  32.121  28.334  1.00  0.00     0.037 A 
ATOM     55  C   UNL A   1      43.484  25.970  26.978  1.00  0.00     0.049 A 
ATOM     56  C   UNL A   1      45.886  30.981  27.634  1.00  0.00     0.074 A 
ATOM     57  C   UNL A   1      44.179  25.036  26.229  1.00  0.00     0.029 A 
ATOM     58  N   UNL A   1      44.273  27.110  27.030  1.00  0.00    -0.354 N 
ATOM     59  N   UNL A   1      45.451  29.770  27.385  1.00  0.00    -0.248 NA
ATOM     60  C   UNL A   1      47.248  31.239  27.144  1.00  0.00     0.031 C 
ATOM     61  C   UNL A   1      45.414  25.591  25.880  1.00  0.00     0.029 A 
ATOM     62  C   UNL A   1      45.462  26.891  26.356  1.00  0.00     0.049 A 
ATOM     63  H   UNL A   1      44.023  27.949  27.480  1.00  0.00     0.167 HD
ATOM     64  C   UNL A   1      46.471  29.131  26.687  1.00  0.00     0.074 A 
ATOM     65  C   UNL A   1      47.541  30.096  26.539  1.00  0.00     0.031 C 
ATOM     66  C   UNL A   1      46.518  27.862  26.212  1.00  0.00     0.037 A 
BRANCH  53  67
ATOM     67  C   UNL A   1      41.496  24.510  27.526  1.00  0.00     0.057 A 
ATOM     68  C   UNL A   1      40.431  24.290  26.643  1.00  0.00     0.134 A 
ATOM     69  C   UNL A   1      41.903  23.434  28.325  1.00  0.00     0.134 A 
ATOM     70  F   UNL A   1      39.980  25.283  25.860  1.00  0.00    -0.206 F 
ATOM     71  C   UNL A   1      39.780  23.057  26.576  1.00  0.00     0.040 A 
ATOM     72  C   UNL A   1      41.280  22.188  28.246  1.00  0.00     0.040 A 
ATOM     73  F   UNL A   1      42.918  23.574  29.191  1.00  0.00    -0.206 F 
ATOM     74  C   UNL A   1      40.210  21.999  27.374  1.00  0.00     0.006 A 
ENDBRANCH  53  67
BRANCH  54  75
ATOM     75  C   UNL A   1      45.868  33.433  28.497  1.00  0.00     0.057 A 
ATOM     76  C   UNL A   1      45.766  34.429  27.519  1.00  0.00     0.134 A 
ATOM     77  C   UNL A   1      46.660  33.710  29.617  1.00  0.00     0.134 A 
ATOM     78  F   UNL A   1      45.044  34.215  26.410  1.00  0.00    -0.206 F 
ATOM     79  C   UNL A   1      46.443  35.645  27.638  1.00  0.00     0.040 A 
ATOM     80  C   UNL A   1      47.320  34.931  29.764  1.00  0.00     0.040 A 
ATOM     81  F   UNL A   1      46.801  32.798  30.590  1.00  0.00    -0.206 F 
ATOM     82  C   UNL A   1      47.219  35.901  28.768  1.00  0.00     0.006 A 
ENDBRANCH  54  75
BRANCH  66  83
ATOM     83  C   UNL A   1      47.750  27.451  25.455  1.00  0.00     0.057 A 
ATOM     84  C   UNL A   1      48.832  26.820  26.082  1.00  0.00     0.134 A 
ATOM     85  C   UNL A   1      47.832  27.645  24.069  1.00  0.00     0.134 A 
ATOM     86  F   UNL A   1      48.822  26.612  27.407  1.00  0.00    -0.206 F 
ATOM     87  C   UNL A   1      49.960  26.421  25.363  1.00  0.00     0.040 A 
ATOM     88  C   UNL A   1      48.940  27.222  23.335  1.00  0.00     0.040 A 
ATOM     89  F   UNL A   1      46.827  28.233  23.402  1.00  0.00    -0.206 F 
ATOM     90  C   UNL A   1      50.012  26.614  23.985  1.00  0.00     0.006 A 
ENDBRANCH  66  83
ENDBRANCH  40  41
ENDBRANCH  33  35
ENDBRANCH  32  33
ENDBRANCH  31  32
ENDBRANCH  30  31
ENDBRANCH  29  30
ENDBRANCH  28  29
ENDBRANCH  27  28
ENDBRANCH  26  27
ENDBRANCH   1  26
TORSDOF 23
ENDMDL
MODEL 2
REMARK VINA RESULT:      -9.4      5.521     11.269
REMARK SMILES C[NH+](C)[C@@H]1CC[N@@H+](Cc2ccc(C(=O)OCCOCCOCCOCCOC(=O)c3ccc(-c4c5nc(c(-c6c(F)cccc6F)c6ccc([nH]6)c(-c6c(F)cccc6F)c6nc(c(-c7c(F)cccc7F)c7ccc4[nH]7)C=C6)C=C5)cc3)cn2)C1
REMARK SMILES IDX 20 1 19 2 18 3 17 4 16 5 15 6 13 7 14 8 12 9 9 10 10 11
REMARK SMILES IDX 85 12 11 13 84 14 8 15 7 16 4 17 5 18 86 19 6 20 2 22 1 23
REMARK SMILES IDX 3 24 21 26 22 27 23 28 24 29 25 30 26 31 27 32 28 33 29 34
REMARK SMILES IDX 30 35 31 36 83 37 32 38 82 39 33 40 34 41 35 42 76 43 36 44
REMARK SMILES IDX 81 45 75 46 77 47 37 48 80 49 74 50 73 51 38 53 64 54 47 55
REMARK SMILES IDX 63 56 48 57 51 58 62 59 78 60 49 61 50 62 61 64 79 65 52 66
REMARK SMILES IDX 39 67 40 68 45 69 41 70 42 71 44 72 46 73 43 74 65 75 66 76
REMARK SMILES IDX 71 77 67 78 68 79 70 80 72 81 69 82 53 83 54 84 59 85 55 86
REMARK SMILES IDX 56 87 58 88 60 89 57 90
REMARK H PARENT 7 21 2 25 77 52 51 63
REMARK Flexibility Score: inf
ROOT
ATOM      1  C   UNL A   1      41.482  20.305  27.016  1.00  0.00     0.188 C 
ENDROOT
BRANCH   1   2
ATOM      2  C   UNL A   1      40.224  20.676  26.206  1.00  0.00     0.188 C 
BRANCH   2   3
ATOM      3  O   UNL A   1      39.656  21.909  26.613  1.00  0.00    -0.376 OA
BRANCH   3   4
ATOM      4  C   UNL A   1      38.560  22.468  25.914  1.00  0.00     0.202 C 
BRANCH   4   5
ATOM      5  C   UNL A   1      37.704  21.644  24.935  1.00  0.00     0.261 C 
BRANCH   5   6
ATOM      6  O   UNL A   1      36.363  22.084  24.739  1.00  0.00    -0.460 OA
BRANCH   6   7
ATOM      7  C   UNL A   1      36.152  22.999  23.775  1.00  0.00     0.339 C 
ATOM      8  O   UNL A   1      36.722  23.080  22.702  1.00  0.00    -0.246 OA
BRANCH   7   9
ATOM      9  C   UNL A   1      34.958  23.774  24.149  1.00  0.00     0.078 A 
ATOM     10  C   UNL A   1      32.686  25.216  24.639  1.00  0.00     0.095 A 
ATOM     11  C   UNL A   1      33.664  25.160  25.629  1.00  0.00     0.031 A 
ATOM     12  N   UNL A   1      32.744  24.463  23.508  1.00  0.00    -0.254 NA
ATOM     13  C   UNL A   1      34.829  24.448  25.368  1.00  0.00     0.019 A 
ATOM     14  C   UNL A   1      33.875  23.762  23.286  1.00  0.00     0.127 A 
BRANCH  10  15
ATOM     15  C   UNL A   1      31.654  26.328  24.663  1.00  0.00     0.319 C 
BRANCH  15  16
ATOM     16  N   UNL A   1      31.979  27.528  23.862  1.00  0.00    -0.325 N 
ATOM     17  C   UNL A   1      30.202  29.219  23.746  1.00  0.00     0.245 C 
ATOM     18  C   UNL A   1      31.192  29.577  24.863  1.00  0.00     0.132 C 
ATOM     19  C   UNL A   1      30.904  28.047  23.007  1.00  0.00     0.328 C 
ATOM     20  C   UNL A   1      32.409  28.682  24.657  1.00  0.00     0.269 C 
ATOM     21  H   UNL A   1      32.733  27.151  23.288  1.00  0.00     0.348 HD
BRANCH  17  22
ATOM     22  N   UNL A   1      29.813  30.361  22.887  1.00  0.00    -0.333 N 
ATOM     23  C   UNL A   1      28.835  29.965  21.867  1.00  0.00     0.332 C 
ATOM     24  C   UNL A   1      29.247  31.467  23.671  1.00  0.00     0.332 C 
ATOM     25  H   UNL A   1      30.670  30.677  22.433  1.00  0.00     0.348 HD
ENDBRANCH  17  22
ENDBRANCH  15  16
ENDBRANCH  10  15
ENDBRANCH   7   9
ENDBRANCH   6   7
ENDBRANCH   5   6
ENDBRANCH   4   5
ENDBRANCH   3   4
ENDBRANCH   2   3
ENDBRANCH   1   2
BRANCH   1  26
ATOM     26  O   UNL A   1      42.166  19.148  26.563  1.00  0.00    -0.377 OA
BRANCH  26  27
ATOM     27  C   UNL A   1      43.049  19.270  25.445  1.00  0.00     0.188 C 
BRANCH  27  28
ATOM     28  C   UNL A   1      44.220  20.286  25.396  1.00  0.00     0.188 C 
BRANCH  28  29
ATOM     29  O   UNL A   1      44.431  20.907  24.138  1.00  0.00    -0.376 OA
BRANCH  29  30
ATOM     30  C   UNL A   1      44.346  22.319  24.063  1.00  0.00     0.202 C 
BRANCH  30  31
ATOM     31  C   UNL A   1      43.282  22.985  24.945  1.00  0.00     0.261 C 
BRANCH  31  32
ATOM     32  O   UNL A   1      43.213  24.417  24.864  1.00  0.00    -0.460 OA
BRANCH  32  33
ATOM     33  C   UNL A   1      44.300  25.113  25.255  1.00  0.00     0.338 C 
ATOM     34  O   UNL A   1      45.354  25.240  24.653  1.00  0.00    -0.246 OA
BRANCH  33  35
ATOM     35  C   UNL A   1      43.934  25.864  26.470  1.00  0.00     0.060 A 
ATOM     36  C   UNL A   1      43.134  25.247  27.441  1.00  0.00     0.016 A 
ATOM     37  C   UNL A   1      44.396  27.169  26.657  1.00  0.00     0.016 A 
ATOM     38  C   UNL A   1      42.770  25.946  28.592  1.00  0.00     0.010 A 
ATOM     39  C   UNL A   1      44.013  27.875  27.799  1.00  0.00     0.010 A 
ATOM     40  C   UNL A   1      43.173  27.278  28.755  1.00  0.00    -0.014 A 
BRANCH  40  41
ATOM     41  C   UNL A   1      42.562  28.108  29.820  1.00  0.00     0.031 A 
ATOM     42  C   UNL A   1      43.223  28.134  31.171  1.00  0.00     0.074 A 
ATOM     43  C   UNL A   1      41.452  28.833  29.597  1.00  0.00     0.049 A 
ATOM     44  N   UNL A   1      42.847  28.732  32.272  1.00  0.00    -0.248 NA
ATOM     45  C   UNL A   1      44.477  27.374  31.296  1.00  0.00     0.031 C 
ATOM     46  C   UNL A   1      40.743  28.926  28.323  1.00  0.00     0.029 A 
ATOM     47  N   UNL A   1      40.723  29.625  30.449  1.00  0.00    -0.354 N 
ATOM     48  C   UNL A   1      43.813  28.417  33.218  1.00  0.00     0.074 A 
ATOM     49  C   UNL A   1      44.773  27.547  32.574  1.00  0.00     0.031 C 
ATOM     50  C   UNL A   1      39.670  29.721  28.480  1.00  0.00     0.029 A 
ATOM     51  C   UNL A   1      39.598  30.163  29.873  1.00  0.00     0.049 A 
ATOM     52  H   UNL A   1      40.981  29.791  31.384  1.00  0.00     0.167 HD
ATOM     53  C   UNL A   1      43.898  28.822  34.507  1.00  0.00     0.037 A 
ATOM     54  C   UNL A   1      38.613  30.905  30.417  1.00  0.00     0.037 A 
ATOM     55  C   UNL A   1      42.939  29.682  35.147  1.00  0.00     0.049 A 
ATOM     56  C   UNL A   1      38.684  31.272  31.878  1.00  0.00     0.074 A 
ATOM     57  C   UNL A   1      42.946  30.166  36.444  1.00  0.00     0.029 A 
ATOM     58  N   UNL A   1      41.793  30.177  34.541  1.00  0.00    -0.354 N 
ATOM     59  N   UNL A   1      39.616  30.996  32.759  1.00  0.00    -0.248 NA
ATOM     60  C   UNL A   1      37.564  32.056  32.419  1.00  0.00     0.031 C 
ATOM     61  C   UNL A   1      41.773  30.902  36.640  1.00  0.00     0.029 A 
ATOM     62  C   UNL A   1      41.068  30.931  35.448  1.00  0.00     0.049 A 
ATOM     63  H   UNL A   1      41.534  30.014  33.605  1.00  0.00     0.167 HD
ATOM     64  C   UNL A   1      39.210  31.595  33.947  1.00  0.00     0.074 A 
ATOM     65  C   UNL A   1      37.955  32.261  33.670  1.00  0.00     0.031 C 
ATOM     66  C   UNL A   1      39.821  31.594  35.157  1.00  0.00     0.037 A 
BRANCH  53  67
ATOM     67  C   UNL A   1      45.054  28.311  35.316  1.00  0.00     0.057 A 
ATOM     68  C   UNL A   1      44.962  27.152  36.097  1.00  0.00     0.134 A 
ATOM     69  C   UNL A   1      46.286  28.979  35.297  1.00  0.00     0.134 A 
ATOM     70  F   UNL A   1      43.807  26.473  36.173  1.00  0.00    -0.206 F 
ATOM     71  C   UNL A   1      46.043  26.690  36.849  1.00  0.00     0.040 A 
ATOM     72  C   UNL A   1      47.382  28.510  36.021  1.00  0.00     0.040 A 
ATOM     73  F   UNL A   1      46.445  30.095  34.568  1.00  0.00    -0.206 F 
ATOM     74  C   UNL A   1      47.261  27.367  36.807  1.00  0.00     0.006 A 
ENDBRANCH  53  67
BRANCH  54  75
ATOM     75  C   UNL A   1      37.459  31.338  29.587  1.00  0.00     0.057 A 
ATOM     76  C   UNL A   1      36.356  30.500  29.383  1.00  0.00     0.134 A 
ATOM     77  C   UNL A   1      37.444  32.586  28.952  1.00  0.00     0.134 A 
ATOM     78  F   UNL A   1      36.322  29.282  29.942  1.00  0.00    -0.206 F 
ATOM     79  C   UNL A   1      35.291  30.877  28.562  1.00  0.00     0.040 A 
ATOM     80  C   UNL A   1      36.374  32.988  28.152  1.00  0.00     0.040 A 
ATOM     81  F   UNL A   1      38.470  33.436  29.105  1.00  0.00    -0.206 F 
ATOM     82  C   UNL A   1      35.296  32.129  27.949  1.00  0.00     0.006 A 
ENDBRANCH  54  75
BRANCH  66  83
ATOM     83  C   UNL A   1      39.162  32.364  36.267  1.00  0.00     0.057 A 
ATOM     84  C   UNL A   1      39.484  33.701  36.537  1.00  0.00     0.134 A 
ATOM     85  C   UNL A   1      38.157  31.774  37.045  1.00  0.00     0.134 A 
ATOM     86  F   UNL A   1      40.445  34.323  35.838  1.00  0.00    -0.206 F 
ATOM     87  C   UNL A   1      38.848  34.412  37.556  1.00  0.00     0.040 A 
ATOM     88  C   UNL A   1      37.492  32.485  38.044  1.00  0.00     0.040 A 
ATOM     89  F   UNL A   1      37.790  30.501  36.833  1.00  0.00    -0.206 F 
ATOM     90  C   UNL A   1      37.843  33.807  38.307  1.00  0.00     0.006 A 
ENDBRANCH  66  83
ENDBRANCH  40  41
ENDBRANCH  33  35
ENDBRANCH  32  33
ENDBRANCH  31  32
ENDBRANCH  30  31
ENDBRANCH  29  30
ENDBRANCH  28  29
ENDBRANCH  27  28
ENDBRANCH  26  27
ENDBRANCH   1  26
TORSDOF 23
ENDMDL
MODEL 3
REMARK VINA RESULT:      -9.2      5.590     11.076
REMARK SMILES C[NH+](C)[C@@H]1CC[N@@H+](Cc2ccc(C(=O)OCCOCCOCCOCCOC(=O)c3ccc(-c4c5nc(c(-c6c(F)cccc6F)c6ccc([nH]6)c(-c6c(F)cccc6F)c6nc(c(-c7c(F)cccc7F)c7ccc4[nH]7)C=C6)C=C5)cc3)cn2)C1
REMARK SMILES IDX 20 1 19 2 18 3 17 4 16 5 15 6 13 7 14 8 12 9 9 10 10 11
REMARK SMILES IDX 85 12 11 13 84 14 8 15 7 16 4 17 5 18 86 19 6 20 2 22 1 23
REMARK SMILES IDX 3 24 21 26 22 27 23 28 24 29 25 30 26 31 27 32 28 33 29 34
REMARK SMILES IDX 30 35 31 36 83 37 32 38 82 39 33 40 34 41 35 42 76 43 36 44
REMARK SMILES IDX 81 45 75 46 77 47 37 48 80 49 74 50 73 51 38 53 64 54 47 55
REMARK SMILES IDX 63 56 48 57 51 58 62 59 78 60 49 61 50 62 61 64 79 65 52 66
REMARK SMILES IDX 39 67 40 68 45 69 41 70 42 71 44 72 46 73 43 74 65 75 66 76
REMARK SMILES IDX 71 77 67 78 68 79 70 80 72 81 69 82 53 83 54 84 59 85 55 86
REMARK SMILES IDX 56 87 58 88 60 89 57 90
REMARK H PARENT 7 21 2 25 77 52 51 63
REMARK Flexibility Score: inf
ROOT
ATOM      1  C   UNL A   1      41.464  20.362  27.040  1.00  0.00     0.188 C 
ENDROOT
BRANCH   1   2
ATOM      2  C   UNL A   1      40.202  20.673  26.209  1.00  0.00     0.188 C 
BRANCH   2   3
ATOM      3  O   UNL A   1      39.589  21.895  26.583  1.00  0.00    -0.376 OA
BRANCH   3   4
ATOM      4  C   UNL A   1      38.500  22.416  25.843  1.00  0.00     0.202 C 
BRANCH   4   5
ATOM      5  C   UNL A   1      37.696  21.556  24.852  1.00  0.00     0.261 C 
BRANCH   5   6
ATOM      6  O   UNL A   1      36.342  21.942  24.631  1.00  0.00    -0.460 OA
BRANCH   6   7
ATOM      7  C   UNL A   1      36.111  22.844  23.660  1.00  0.00     0.339 C 
ATOM      8  O   UNL A   1      36.667  22.918  22.579  1.00  0.00    -0.246 OA
BRANCH   7   9
ATOM      9  C   UNL A   1      34.917  23.616  24.043  1.00  0.00     0.078 A 
ATOM     10  C   UNL A   1      32.644  25.050  24.548  1.00  0.00     0.095 A 
ATOM     11  C   UNL A   1      33.629  24.998  25.531  1.00  0.00     0.031 A 
ATOM     12  N   UNL A   1      32.696  24.297  23.417  1.00  0.00    -0.254 NA
ATOM     13  C   UNL A   1      34.795  24.289  25.262  1.00  0.00     0.019 A 
ATOM     14  C   UNL A   1      33.829  23.600  23.187  1.00  0.00     0.127 A 
BRANCH  10  15
ATOM     15  C   UNL A   1      31.609  26.159  24.578  1.00  0.00     0.319 C 
BRANCH  15  16
ATOM     16  N   UNL A   1      31.934  27.368  23.792  1.00  0.00    -0.325 N 
ATOM     17  C   UNL A   1      30.150  29.053  23.682  1.00  0.00     0.245 C 
ATOM     18  C   UNL A   1      31.132  29.404  24.809  1.00  0.00     0.132 C 
ATOM     19  C   UNL A   1      30.862  27.892  22.935  1.00  0.00     0.328 C 
ATOM     20  C   UNL A   1      32.354  28.516  24.601  1.00  0.00     0.269 C 
ATOM     21  H   UNL A   1      32.692  27.000  23.218  1.00  0.00     0.348 HD
BRANCH  17  22
ATOM     22  N   UNL A   1      29.762  30.203  22.833  1.00  0.00    -0.333 N 
ATOM     23  C   UNL A   1      28.674  29.853  21.912  1.00  0.00     0.332 C 
ATOM     24  C   UNL A   1      29.341  31.359  23.636  1.00  0.00     0.332 C 
ATOM     25  H   UNL A   1      30.594  30.451  22.298  1.00  0.00     0.348 HD
ENDBRANCH  17  22
ENDBRANCH  15  16
ENDBRANCH  10  15
ENDBRANCH   7   9
ENDBRANCH   6   7
ENDBRANCH   5   6
ENDBRANCH   4   5
ENDBRANCH   3   4
ENDBRANCH   2   3
ENDBRANCH   1   2
BRANCH   1  26
ATOM     26  O   UNL A   1      42.233  19.266  26.574  1.00  0.00    -0.377 OA
BRANCH  26  27
ATOM     27  C   UNL A   1      43.116  19.472  25.469  1.00  0.00     0.188 C 
BRANCH  27  28
ATOM     28  C   UNL A   1      44.197  20.584  25.444  1.00  0.00     0.188 C 
BRANCH  28  29
ATOM     29  O   UNL A   1      44.358  21.245  24.198  1.00  0.00    -0.376 OA
BRANCH  29  30
ATOM     30  C   UNL A   1      44.198  22.652  24.159  1.00  0.00     0.202 C 
BRANCH  30  31
ATOM     31  C   UNL A   1      43.118  23.240  25.075  1.00  0.00     0.261 C 
BRANCH  31  32
ATOM     32  O   UNL A   1      42.995  24.671  25.055  1.00  0.00    -0.460 OA
BRANCH  32  33
ATOM     33  C   UNL A   1      44.077  25.390  25.417  1.00  0.00     0.338 C 
ATOM     34  O   UNL A   1      45.078  25.607  24.755  1.00  0.00    -0.246 OA
BRANCH  33  35
ATOM     35  C   UNL A   1      43.767  26.041  26.704  1.00  0.00     0.060 A 
ATOM     36  C   UNL A   1      43.003  25.350  27.654  1.00  0.00     0.016 A 
ATOM     37  C   UNL A   1      44.248  27.323  26.978  1.00  0.00     0.016 A 
ATOM     38  C   UNL A   1      42.693  25.953  28.873  1.00  0.00     0.010 A 
ATOM     39  C   UNL A   1      43.918  27.935  28.189  1.00  0.00     0.010 A 
ATOM     40  C   UNL A   1      43.113  27.265  29.128  1.00  0.00    -0.014 A 
BRANCH  40  41
ATOM     41  C   UNL A   1      42.553  28.008  30.281  1.00  0.00     0.031 A 
ATOM     42  C   UNL A   1      41.283  28.789  30.077  1.00  0.00     0.074 A 
ATOM     43  C   UNL A   1      43.146  27.987  31.487  1.00  0.00     0.049 A 
ATOM     44  N   UNL A   1      40.637  29.562  30.911  1.00  0.00    -0.248 NA
ATOM     45  C   UNL A   1      40.664  28.686  28.745  1.00  0.00     0.031 C 
ATOM     46  C   UNL A   1      44.353  27.236  31.824  1.00  0.00     0.029 A 
ATOM     47  N   UNL A   1      42.809  28.629  32.654  1.00  0.00    -0.354 N 
ATOM     48  C   UNL A   1      39.540  30.040  30.205  1.00  0.00     0.074 A 
ATOM     49  C   UNL A   1      39.628  29.500  28.866  1.00  0.00     0.031 C 
ATOM     50  C   UNL A   1      44.665  27.471  33.111  1.00  0.00     0.029 A 
ATOM     51  C   UNL A   1      43.701  28.414  33.676  1.00  0.00     0.049 A 
ATOM     52  H   UNL A   1      42.006  29.188  32.748  1.00  0.00     0.167 HD
ATOM     53  C   UNL A   1      38.545  30.851  30.636  1.00  0.00     0.037 A 
ATOM     54  C   UNL A   1      43.744  28.942  34.916  1.00  0.00     0.037 A 
ATOM     55  C   UNL A   1      38.465  31.392  31.966  1.00  0.00     0.049 A 
ATOM     56  C   UNL A   1      42.672  29.911  35.345  1.00  0.00     0.074 A 
ATOM     57  C   UNL A   1      37.486  32.208  32.507  1.00  0.00     0.029 A 
ATOM     58  N   UNL A   1      39.407  31.182  32.963  1.00  0.00    -0.354 N 
ATOM     59  N   UNL A   1      41.623  30.335  34.684  1.00  0.00    -0.248 NA
ATOM     60  C   UNL A   1      42.793  30.475  36.698  1.00  0.00     0.031 C 
ATOM     61  C   UNL A   1      37.868  32.540  33.810  1.00  0.00     0.029 A 
ATOM     62  C   UNL A   1      39.050  31.881  34.103  1.00  0.00     0.049 A 
ATOM     63  H   UNL A   1      40.210  30.620  32.871  1.00  0.00     0.167 HD
ATOM     64  C   UNL A   1      40.944  31.189  35.546  1.00  0.00     0.074 A 
ATOM     65  C   UNL A   1      41.694  31.212  36.785  1.00  0.00     0.031 C 
ATOM     66  C   UNL A   1      39.804  31.892  35.333  1.00  0.00     0.037 A 
BRANCH  53  67
ATOM     67  C   UNL A   1      37.482  31.225  29.644  1.00  0.00     0.057 A 
ATOM     68  C   UNL A   1      37.485  32.457  28.979  1.00  0.00     0.134 A 
ATOM     69  C   UNL A   1      36.451  30.328  29.337  1.00  0.00     0.134 A 
ATOM     70  F   UNL A   1      38.435  33.368  29.238  1.00  0.00    -0.206 F 
ATOM     71  C   UNL A   1      36.488  32.795  28.063  1.00  0.00     0.040 A 
ATOM     72  C   UNL A   1      35.464  30.643  28.401  1.00  0.00     0.040 A 
ATOM     73  F   UNL A   1      36.388  29.129  29.936  1.00  0.00    -0.206 F 
ATOM     74  C   UNL A   1      35.476  31.882  27.767  1.00  0.00     0.006 A 
ENDBRANCH  53  67
BRANCH  54  75
ATOM     75  C   UNL A   1      44.851  28.584  35.841  1.00  0.00     0.057 A 
ATOM     76  C   UNL A   1      45.987  29.394  35.962  1.00  0.00     0.134 A 
ATOM     77  C   UNL A   1      44.815  27.410  36.603  1.00  0.00     0.134 A 
ATOM     78  F   UNL A   1      46.094  30.518  35.239  1.00  0.00    -0.206 F 
ATOM     79  C   UNL A   1      47.055  29.039  36.789  1.00  0.00     0.040 A 
ATOM     80  C   UNL A   1      45.862  27.057  37.455  1.00  0.00     0.040 A 
ATOM     81  F   UNL A   1      43.756  26.589  36.533  1.00  0.00    -0.206 F 
ATOM     82  C   UNL A   1      46.991  27.869  37.544  1.00  0.00     0.006 A 
ENDBRANCH  54  75
BRANCH  66  83
ATOM     83  C   UNL A   1      39.274  32.717  36.472  1.00  0.00     0.057 A 
ATOM     84  C   UNL A   1      38.334  32.213  37.380  1.00  0.00     0.134 A 
ATOM     85  C   UNL A   1      39.748  34.017  36.689  1.00  0.00     0.134 A 
ATOM     86  F   UNL A   1      37.832  30.980  37.224  1.00  0.00    -0.206 F 
ATOM     87  C   UNL A   1      37.868  32.982  38.448  1.00  0.00     0.040 A 
ATOM     88  C   UNL A   1      39.313  34.783  37.771  1.00  0.00     0.040 A 
ATOM     89  F   UNL A   1      40.658  34.559  35.865  1.00  0.00    -0.206 F 
ATOM     90  C   UNL A   1      38.364  34.267  38.651  1.00  0.00     0.006 A 
ENDBRANCH  66  83
ENDBRANCH  40  41
ENDBRANCH  33  35
ENDBRANCH  32  33
ENDBRANCH  31  32
ENDBRANCH  30  31
ENDBRANCH  29  30
ENDBRANCH  28  29
ENDBRANCH  27  28
ENDBRANCH  26  27
ENDBRANCH   1  26
TORSDOF 23
ENDMDL
