MODEL 1
REMARK VINA RESULT:      -9.8      0.000      0.000
REMARK SMILES Cc1c(C(=O)OCCOCCOCCOCCOC(=O)c2ccc(-c3c4nc(c(-c5c(F)cccc5F)c5ccc([nH]5)c(-c5c(F)cccc5F)c5nc(c(-c6c(F)cccc6F)c6ccc3[nH]6)C=C5)C=C4)cc2)sc2ncnc(NCc3cn4c(n3)SCC4)c12
REMARK SMILES IDX 11 1 10 2 9 3 8 4 7 5 6 6 4 7 5 8 3 9 1 10 2 11 91 12 75 13
REMARK SMILES IDX 76 14 80 15 77 16 79 17 78 18 81 19 82 21 83 22 84 23 87 24
REMARK SMILES IDX 85 25 86 26 90 27 88 28 89 29 12 30 13 31 14 32 15 33 16 34
REMARK SMILES IDX 17 35 18 36 19 37 20 38 21 39 22 40 74 41 23 42 73 43 24 44
REMARK SMILES IDX 25 45 26 46 67 47 27 48 72 49 66 50 68 51 28 52 71 53 65 54
REMARK SMILES IDX 64 55 29 57 55 58 38 59 54 60 39 61 42 62 53 63 69 64 40 65
REMARK SMILES IDX 41 66 52 68 70 69 43 70 30 71 31 72 36 73 32 74 33 75 35 76
REMARK SMILES IDX 37 77 34 78 56 79 57 80 62 81 58 82 59 83 61 84 63 85 60 86
REMARK SMILES IDX 44 87 45 88 50 89 46 90 47 91 49 92 51 93 48 94
REMARK H PARENT 81 20 68 56 42 67
REMARK Flexibility Score: inf
ROOT
ATOM      1  C   UNL A   1      33.434  30.452  27.295  1.00  0.00     0.188 C 
ENDROOT
BRANCH   1   2
ATOM      2  C   UNL A   1      33.994  29.021  27.145  1.00  0.00     0.188 C 
BRANCH   2   3
ATOM      3  O   UNL A   1      33.594  28.365  25.954  1.00  0.00    -0.376 OA
BRANCH   3   4
ATOM      4  C   UNL A   1      33.512  29.110  24.761  1.00  0.00     0.202 C 
BRANCH   4   5
ATOM      5  C   UNL A   1      32.114  29.339  24.172  1.00  0.00     0.261 C 
BRANCH   5   6
ATOM      6  O   UNL A   1      31.058  28.618  24.821  1.00  0.00    -0.459 OA
BRANCH   6   7
ATOM      7  C   UNL A   1      30.303  27.794  24.044  1.00  0.00     0.348 C 
ATOM      8  O   UNL A   1      29.205  28.084  23.596  1.00  0.00    -0.245 OA
BRANCH   7   9
ATOM      9  C   UNL A   1      31.091  26.624  23.683  1.00  0.00     0.118 A 
ATOM     10  C   UNL A   1      31.147  25.591  25.966  1.00  0.00     0.047 C 
ATOM     11  C   UNL A   1      31.506  25.580  24.512  1.00  0.00    -0.012 A 
ATOM     12  C   UNL A   1      32.248  24.540  23.768  1.00  0.00     0.058 A 
ATOM     13  S   UNL A   1      31.581  26.418  22.076  1.00  0.00    -0.108 S 
ATOM     14  C   UNL A   1      32.362  24.954  22.437  1.00  0.00     0.129 A 
ATOM     15  C   UNL A   1      32.864  23.274  24.036  1.00  0.00     0.138 A 
ATOM     16  N   UNL A   1      33.002  24.342  21.430  1.00  0.00    -0.225 NA
ATOM     17  N   UNL A   1      33.526  22.657  23.017  1.00  0.00    -0.219 NA
ATOM     18  C   UNL A   1      33.573  23.209  21.803  1.00  0.00     0.225 A 
BRANCH  15  19
ATOM     19  N   UNL A   1      32.957  22.502  25.162  1.00  0.00    -0.364 N 
ATOM     20  H   UNL A   1      32.172  21.925  25.307  1.00  0.00     0.162 HD
BRANCH  19  21
ATOM     21  C   UNL A   1      33.964  22.362  26.176  1.00  0.00     0.172 C 
BRANCH  21  22
ATOM     22  C   UNL A   1      35.315  21.889  25.748  1.00  0.00     0.079 A 
ATOM     23  C   UNL A   1      35.676  20.706  25.113  1.00  0.00     0.113 A 
ATOM     24  N   UNL A   1      36.436  22.664  26.034  1.00  0.00    -0.226 NA
ATOM     25  N   UNL A   1      37.028  20.763  25.069  1.00  0.00    -0.325 N 
ATOM     26  C   UNL A   1      37.432  21.935  25.625  1.00  0.00     0.168 A 
ATOM     27  C   UNL A   1      38.055  19.767  24.849  1.00  0.00     0.135 C 
ATOM     28  S   UNL A   1      39.115  21.954  25.988  1.00  0.00    -0.086 SA
ATOM     29  C   UNL A   1      39.158  20.118  25.851  1.00  0.00     0.100 C 
ENDBRANCH  21  22
ENDBRANCH  19  21
ENDBRANCH  15  19
ENDBRANCH   7   9
ENDBRANCH   6   7
ENDBRANCH   5   6
ENDBRANCH   4   5
ENDBRANCH   3   4
ENDBRANCH   2   3
ENDBRANCH   1   2
BRANCH   1  30
ATOM     30  O   UNL A   1      34.004  31.363  28.226  1.00  0.00    -0.377 OA
BRANCH  30  31
ATOM     31  C   UNL A   1      33.884  32.768  28.030  1.00  0.00     0.188 C 
BRANCH  31  32
ATOM     32  C   UNL A   1      32.561  33.427  27.556  1.00  0.00     0.188 C 
BRANCH  32  33
ATOM     33  O   UNL A   1      32.329  34.745  28.021  1.00  0.00    -0.376 OA
BRANCH  33  34
ATOM     34  C   UNL A   1      33.234  35.439  28.853  1.00  0.00     0.202 C 
BRANCH  34  35
ATOM     35  C   UNL A   1      32.967  35.521  30.351  1.00  0.00     0.261 C 
BRANCH  35  36
ATOM     36  O   UNL A   1      34.076  35.175  31.153  1.00  0.00    -0.460 OA
BRANCH  36  37
ATOM     37  C   UNL A   1      33.842  35.252  32.474  1.00  0.00     0.338 C 
ATOM     38  O   UNL A   1      33.046  35.968  33.051  1.00  0.00    -0.246 OA
BRANCH  37  39
ATOM     39  C   UNL A   1      34.820  34.395  33.144  1.00  0.00     0.060 A 
ATOM     40  C   UNL A   1      36.026  35.005  33.477  1.00  0.00     0.016 A 
ATOM     41  C   UNL A   1      34.677  33.007  32.992  1.00  0.00     0.016 A 
ATOM     42  C   UNL A   1      37.161  34.253  33.337  1.00  0.00     0.010 A 
ATOM     43  C   UNL A   1      35.812  32.265  32.825  1.00  0.00     0.010 A 
ATOM     44  C   UNL A   1      37.029  32.932  32.892  1.00  0.00    -0.014 A 
BRANCH  44  45
ATOM     45  C   UNL A   1      38.237  32.228  32.551  1.00  0.00     0.031 A 
ATOM     46  C   UNL A   1      39.116  32.055  33.717  1.00  0.00     0.074 A 
ATOM     47  C   UNL A   1      38.473  31.760  31.315  1.00  0.00     0.049 A 
ATOM     48  N   UNL A   1      40.236  32.651  33.939  1.00  0.00    -0.248 NA
ATOM     49  C   UNL A   1      38.585  31.303  34.864  1.00  0.00     0.031 C 
ATOM     50  C   UNL A   1      37.561  31.666  30.173  1.00  0.00     0.029 A 
ATOM     51  N   UNL A   1      39.608  31.182  30.849  1.00  0.00    -0.354 N 
ATOM     52  C   UNL A   1      40.661  32.179  35.174  1.00  0.00     0.074 A 
ATOM     53  C   UNL A   1      39.524  31.538  35.777  1.00  0.00     0.031 C 
ATOM     54  C   UNL A   1      38.114  30.868  29.229  1.00  0.00     0.029 A 
ATOM     55  C   UNL A   1      39.460  30.510  29.646  1.00  0.00     0.049 A 
ATOM     56  H   UNL A   1      40.467  31.236  31.328  1.00  0.00     0.167 HD
ATOM     57  C   UNL A   1      41.986  32.107  35.460  1.00  0.00     0.037 A 
ATOM     58  C   UNL A   1      40.372  29.666  29.103  1.00  0.00     0.037 A 
ATOM     59  C   UNL A   1      42.744  32.993  34.607  1.00  0.00     0.049 A 
ATOM     60  C   UNL A   1      41.684  29.963  29.741  1.00  0.00     0.074 A 
ATOM     61  C   UNL A   1      42.724  34.356  34.373  1.00  0.00     0.029 A 
ATOM     62  N   UNL A   1      43.422  32.442  33.545  1.00  0.00    -0.354 N 
ATOM     63  N   UNL A   1      42.357  31.060  29.529  1.00  0.00    -0.248 NA
ATOM     64  C   UNL A   1      42.012  29.260  30.976  1.00  0.00     0.031 C 
ATOM     65  C   UNL A   1      42.966  34.497  32.976  1.00  0.00     0.029 A 
ATOM     66  C   UNL A   1      43.180  33.225  32.447  1.00  0.00     0.049 A 
ATOM     67  H   UNL A   1      43.981  31.631  33.571  1.00  0.00     0.167 HD
ATOM     68  C   UNL A   1      42.864  31.411  30.773  1.00  0.00     0.074 A 
ATOM     69  C   UNL A   1      42.691  30.223  31.606  1.00  0.00     0.031 C 
ATOM     70  C   UNL A   1      43.102  32.716  31.096  1.00  0.00     0.037 A 
BRANCH  57  71
ATOM     71  C   UNL A   1      42.607  30.946  36.197  1.00  0.00     0.057 A 
ATOM     72  C   UNL A   1      43.526  31.217  37.224  1.00  0.00     0.134 A 
ATOM     73  C   UNL A   1      42.579  29.602  35.764  1.00  0.00     0.134 A 
ATOM     74  F   UNL A   1      43.652  32.454  37.728  1.00  0.00    -0.206 F 
ATOM     75  C   UNL A   1      44.415  30.252  37.710  1.00  0.00     0.040 A 
ATOM     76  C   UNL A   1      43.427  28.620  36.278  1.00  0.00     0.040 A 
ATOM     77  F   UNL A   1      41.810  29.171  34.759  1.00  0.00    -0.206 F 
ATOM     78  C   UNL A   1      44.376  28.951  37.227  1.00  0.00     0.006 A 
ENDBRANCH  57  71
BRANCH  58  79
ATOM     79  C   UNL A   1      40.139  28.439  28.306  1.00  0.00     0.057 A 
ATOM     80  C   UNL A   1      40.725  28.273  27.044  1.00  0.00     0.134 A 
ATOM     81  C   UNL A   1      39.563  27.288  28.873  1.00  0.00     0.134 A 
ATOM     82  F   UNL A   1      41.338  29.300  26.437  1.00  0.00    -0.206 F 
ATOM     83  C   UNL A   1      40.759  27.032  26.394  1.00  0.00     0.040 A 
ATOM     84  C   UNL A   1      39.583  26.046  28.233  1.00  0.00     0.040 A 
ATOM     85  F   UNL A   1      39.039  27.309  30.107  1.00  0.00    -0.206 F 
ATOM     86  C   UNL A   1      40.196  25.910  26.993  1.00  0.00     0.006 A 
ENDBRANCH  58  79
BRANCH  70  87
ATOM     87  C   UNL A   1      43.020  33.743  30.000  1.00  0.00     0.057 A 
ATOM     88  C   UNL A   1      44.053  33.989  29.081  1.00  0.00     0.134 A 
ATOM     89  C   UNL A   1      41.793  34.366  29.752  1.00  0.00     0.134 A 
ATOM     90  F   UNL A   1      45.233  33.364  29.180  1.00  0.00    -0.206 F 
ATOM     91  C   UNL A   1      43.877  34.839  27.985  1.00  0.00     0.040 A 
ATOM     92  C   UNL A   1      41.594  35.190  28.642  1.00  0.00     0.040 A 
ATOM     93  F   UNL A   1      40.743  34.135  30.557  1.00  0.00    -0.206 F 
ATOM     94  C   UNL A   1      42.641  35.434  27.757  1.00  0.00     0.006 A 
ENDBRANCH  70  87
ENDBRANCH  44  45
ENDBRANCH  37  39
ENDBRANCH  36  37
ENDBRANCH  35  36
ENDBRANCH  34  35
ENDBRANCH  33  34
ENDBRANCH  32  33
ENDBRANCH  31  32
ENDBRANCH  30  31
ENDBRANCH   1  30
TORSDOF 23
ENDMDL
MODEL 2
REMARK VINA RESULT:      -9.0      2.930      5.205
REMARK SMILES Cc1c(C(=O)OCCOCCOCCOCCOC(=O)c2ccc(-c3c4nc(c(-c5c(F)cccc5F)c5ccc([nH]5)c(-c5c(F)cccc5F)c5nc(c(-c6c(F)cccc6F)c6ccc3[nH]6)C=C5)C=C4)cc2)sc2ncnc(NCc3cn4c(n3)SCC4)c12
REMARK SMILES IDX 11 1 10 2 9 3 8 4 7 5 6 6 4 7 5 8 3 9 1 10 2 11 91 12 75 13
REMARK SMILES IDX 76 14 80 15 77 16 79 17 78 18 81 19 82 21 83 22 84 23 87 24
REMARK SMILES IDX 85 25 86 26 90 27 88 28 89 29 12 30 13 31 14 32 15 33 16 34
REMARK SMILES IDX 17 35 18 36 19 37 20 38 21 39 22 40 74 41 23 42 73 43 24 44
REMARK SMILES IDX 25 45 26 46 67 47 27 48 72 49 66 50 68 51 28 52 71 53 65 54
REMARK SMILES IDX 64 55 29 57 55 58 38 59 54 60 39 61 42 62 53 63 69 64 40 65
REMARK SMILES IDX 41 66 52 68 70 69 43 70 30 71 31 72 36 73 32 74 33 75 35 76
REMARK SMILES IDX 37 77 34 78 56 79 57 80 62 81 58 82 59 83 61 84 63 85 60 86
REMARK SMILES IDX 44 87 45 88 50 89 46 90 47 91 49 92 51 93 48 94
REMARK H PARENT 81 20 68 56 42 67
REMARK Flexibility Score: inf
ROOT
ATOM      1  C   UNL A   1      32.149  28.321  23.105  1.00  0.00     0.188 C 
ENDROOT
BRANCH   1   2
ATOM      2  C   UNL A   1      31.038  27.523  22.387  1.00  0.00     0.188 C 
BRANCH   2   3
ATOM      3  O   UNL A   1      31.462  26.271  21.879  1.00  0.00    -0.376 OA
BRANCH   3   4
ATOM      4  C   UNL A   1      32.205  25.412  22.715  1.00  0.00     0.202 C 
BRANCH   4   5
ATOM      5  C   UNL A   1      31.450  24.725  23.860  1.00  0.00     0.261 C 
BRANCH   5   6
ATOM      6  O   UNL A   1      31.787  23.345  24.065  1.00  0.00    -0.459 OA
BRANCH   6   7
ATOM      7  C   UNL A   1      32.201  22.989  25.311  1.00  0.00     0.348 C 
ATOM      8  O   UNL A   1      31.520  23.096  26.320  1.00  0.00    -0.245 OA
BRANCH   7   9
ATOM      9  C   UNL A   1      33.476  22.294  25.210  1.00  0.00     0.118 A 
ATOM     10  C   UNL A   1      34.935  24.315  25.472  1.00  0.00     0.047 C 
ATOM     11  C   UNL A   1      34.758  22.840  25.280  1.00  0.00    -0.012 A 
ATOM     12  C   UNL A   1      35.810  21.805  25.187  1.00  0.00     0.058 A 
ATOM     13  S   UNL A   1      33.490  20.613  25.009  1.00  0.00    -0.108 S 
ATOM     14  C   UNL A   1      35.187  20.568  24.997  1.00  0.00     0.129 A 
ATOM     15  C   UNL A   1      37.241  21.733  25.232  1.00  0.00     0.138 A 
ATOM     16  N   UNL A   1      35.762  19.370  24.810  1.00  0.00    -0.225 NA
ATOM     17  N   UNL A   1      37.826  20.520  25.029  1.00  0.00    -0.219 NA
ATOM     18  C   UNL A   1      37.083  19.431  24.823  1.00  0.00     0.225 A 
BRANCH  15  19
ATOM     19  N   UNL A   1      38.215  22.674  25.429  1.00  0.00    -0.364 N 
ATOM     20  H   UNL A   1      38.298  23.313  24.685  1.00  0.00     0.162 HD
BRANCH  19  21
ATOM     21  C   UNL A   1      39.141  22.919  26.499  1.00  0.00     0.172 C 
BRANCH  21  22
ATOM     22  C   UNL A   1      40.412  22.133  26.508  1.00  0.00     0.079 A 
ATOM     23  C   UNL A   1      41.665  22.478  26.017  1.00  0.00     0.113 A 
ATOM     24  N   UNL A   1      40.416  20.838  27.021  1.00  0.00    -0.226 NA
ATOM     25  N   UNL A   1      42.402  21.356  26.197  1.00  0.00    -0.325 N 
ATOM     26  C   UNL A   1      41.623  20.415  26.790  1.00  0.00     0.168 A 
ATOM     27  C   UNL A   1      43.658  20.896  25.644  1.00  0.00     0.135 C 
ATOM     28  S   UNL A   1      42.308  18.837  26.713  1.00  0.00    -0.086 SA
ATOM     29  C   UNL A   1      43.443  19.404  25.378  1.00  0.00     0.100 C 
ENDBRANCH  21  22
ENDBRANCH  19  21
ENDBRANCH  15  19
ENDBRANCH   7   9
ENDBRANCH   6   7
ENDBRANCH   5   6
ENDBRANCH   4   5
ENDBRANCH   3   4
ENDBRANCH   2   3
ENDBRANCH   1   2
BRANCH   1  30
ATOM     30  O   UNL A   1      31.934  28.863  24.402  1.00  0.00    -0.377 OA
BRANCH  30  31
ATOM     31  C   UNL A   1      31.821  28.008  25.535  1.00  0.00     0.188 C 
BRANCH  31  32
ATOM     32  C   UNL A   1      32.024  28.526  26.985  1.00  0.00     0.188 C 
BRANCH  32  33
ATOM     33  O   UNL A   1      32.277  29.914  27.112  1.00  0.00    -0.376 OA
BRANCH  33  34
ATOM     34  C   UNL A   1      33.575  30.452  27.248  1.00  0.00     0.202 C 
BRANCH  34  35
ATOM     35  C   UNL A   1      33.744  31.919  27.627  1.00  0.00     0.261 C 
BRANCH  35  36
ATOM     36  O   UNL A   1      34.192  32.124  28.948  1.00  0.00    -0.460 OA
BRANCH  36  37
ATOM     37  C   UNL A   1      35.530  32.138  29.078  1.00  0.00     0.338 C 
ATOM     38  O   UNL A   1      36.365  31.880  28.232  1.00  0.00    -0.246 OA
BRANCH  37  39
ATOM     39  C   UNL A   1      35.833  32.407  30.483  1.00  0.00     0.060 A 
ATOM     40  C   UNL A   1      36.689  33.480  30.718  1.00  0.00     0.016 A 
ATOM     41  C   UNL A   1      35.642  31.361  31.399  1.00  0.00     0.016 A 
ATOM     42  C   UNL A   1      37.598  33.337  31.731  1.00  0.00     0.010 A 
ATOM     43  C   UNL A   1      36.568  31.207  32.392  1.00  0.00     0.010 A 
ATOM     44  C   UNL A   1      37.592  32.142  32.463  1.00  0.00    -0.014 A 
BRANCH  44  45
ATOM     45  C   UNL A   1      38.682  31.924  33.376  1.00  0.00     0.031 A 
ATOM     46  C   UNL A   1      38.619  32.834  34.530  1.00  0.00     0.074 A 
ATOM     47  C   UNL A   1      39.600  30.963  33.185  1.00  0.00     0.049 A 
ATOM     48  N   UNL A   1      39.398  33.829  34.778  1.00  0.00    -0.248 NA
ATOM     49  C   UNL A   1      37.425  32.762  35.387  1.00  0.00     0.031 C 
ATOM     50  C   UNL A   1      39.602  29.867  32.215  1.00  0.00     0.029 A 
ATOM     51  N   UNL A   1      40.723  30.732  33.910  1.00  0.00    -0.354 N 
ATOM     52  C   UNL A   1      38.914  34.386  35.954  1.00  0.00     0.074 A 
ATOM     53  C   UNL A   1      37.601  33.836  36.154  1.00  0.00     0.031 C 
ATOM     54  C   UNL A   1      40.555  28.969  32.562  1.00  0.00     0.029 A 
ATOM     55  C   UNL A   1      41.305  29.493  33.691  1.00  0.00     0.049 A 
ATOM     56  H   UNL A   1      41.094  31.391  34.541  1.00  0.00     0.167 HD
ATOM     57  C   UNL A   1      39.755  35.029  36.803  1.00  0.00     0.037 A 
ATOM     58  C   UNL A   1      42.282  28.940  34.452  1.00  0.00     0.037 A 
ATOM     59  C   UNL A   1      40.952  35.456  36.115  1.00  0.00     0.049 A 
ATOM     60  C   UNL A   1      42.923  30.044  35.218  1.00  0.00     0.074 A 
ATOM     61  C   UNL A   1      41.198  36.275  35.028  1.00  0.00     0.029 A 
ATOM     62  N   UNL A   1      42.096  34.714  36.290  1.00  0.00    -0.354 N 
ATOM     63  N   UNL A   1      43.670  30.963  34.669  1.00  0.00    -0.248 NA
ATOM     64  C   UNL A   1      42.345  30.401  36.508  1.00  0.00     0.031 C 
ATOM     65  C   UNL A   1      42.272  35.653  34.329  1.00  0.00     0.029 A 
ATOM     66  C   UNL A   1      42.663  34.528  35.056  1.00  0.00     0.049 A 
ATOM     67  H   UNL A   1      42.445  34.377  37.147  1.00  0.00     0.167 HD
ATOM     68  C   UNL A   1      43.314  32.140  35.313  1.00  0.00     0.074 A 
ATOM     69  C   UNL A   1      42.557  31.720  36.490  1.00  0.00     0.031 C 
ATOM     70  C   UNL A   1      43.405  33.347  34.680  1.00  0.00     0.037 A 
BRANCH  57  71
ATOM     71  C   UNL A   1      39.677  34.885  38.304  1.00  0.00     0.057 A 
ATOM     72  C   UNL A   1      39.707  33.595  38.857  1.00  0.00     0.134 A 
ATOM     73  C   UNL A   1      39.284  35.906  39.197  1.00  0.00     0.134 A 
ATOM     74  F   UNL A   1      40.065  32.535  38.116  1.00  0.00    -0.206 F 
ATOM     75  C   UNL A   1      39.281  33.328  40.163  1.00  0.00     0.040 A 
ATOM     76  C   UNL A   1      38.907  35.657  40.517  1.00  0.00     0.040 A 
ATOM     77  F   UNL A   1      39.145  37.185  38.833  1.00  0.00    -0.206 F 
ATOM     78  C   UNL A   1      38.868  34.360  40.994  1.00  0.00     0.006 A 
ENDBRANCH  57  71
BRANCH  58  79
ATOM     79  C   UNL A   1      42.497  27.514  34.789  1.00  0.00     0.057 A 
ATOM     80  C   UNL A   1      43.513  26.770  34.174  1.00  0.00     0.134 A 
ATOM     81  C   UNL A   1      41.895  26.922  35.913  1.00  0.00     0.134 A 
ATOM     82  F   UNL A   1      44.178  27.266  33.120  1.00  0.00    -0.206 F 
ATOM     83  C   UNL A   1      43.924  25.522  34.662  1.00  0.00     0.040 A 
ATOM     84  C   UNL A   1      42.291  25.674  36.406  1.00  0.00     0.040 A 
ATOM     85  F   UNL A   1      40.964  27.570  36.626  1.00  0.00    -0.206 F 
ATOM     86  C   UNL A   1      43.320  24.975  35.789  1.00  0.00     0.006 A 
ENDBRANCH  58  79
BRANCH  70  87
ATOM     87  C   UNL A   1      44.115  33.398  33.355  1.00  0.00     0.057 A 
ATOM     88  C   UNL A   1      45.507  33.520  33.218  1.00  0.00     0.134 A 
ATOM     89  C   UNL A   1      43.387  33.128  32.191  1.00  0.00     0.134 A 
ATOM     90  F   UNL A   1      46.298  33.684  34.286  1.00  0.00    -0.206 F 
ATOM     91  C   UNL A   1      46.139  33.407  31.976  1.00  0.00     0.040 A 
ATOM     92  C   UNL A   1      44.010  32.979  30.950  1.00  0.00     0.040 A 
ATOM     93  F   UNL A   1      42.059  32.944  32.252  1.00  0.00    -0.206 F 
ATOM     94  C   UNL A   1      45.390  33.125  30.838  1.00  0.00     0.006 A 
ENDBRANCH  70  87
ENDBRANCH  44  45
ENDBRANCH  37  39
ENDBRANCH  36  37
ENDBRANCH  35  36
ENDBRANCH  34  35
ENDBRANCH  33  34
ENDBRANCH  32  33
ENDBRANCH  31  32
ENDBRANCH  30  31
ENDBRANCH   1  30
TORSDOF 23
ENDMDL
MODEL 3
REMARK VINA RESULT:      -8.9      4.753      8.719
REMARK SMILES Cc1c(C(=O)OCCOCCOCCOCCOC(=O)c2ccc(-c3c4nc(c(-c5c(F)cccc5F)c5ccc([nH]5)c(-c5c(F)cccc5F)c5nc(c(-c6c(F)cccc6F)c6ccc3[nH]6)C=C5)C=C4)cc2)sc2ncnc(NCc3cn4c(n3)SCC4)c12
REMARK SMILES IDX 11 1 10 2 9 3 8 4 7 5 6 6 4 7 5 8 3 9 1 10 2 11 91 12 75 13
REMARK SMILES IDX 76 14 80 15 77 16 79 17 78 18 81 19 82 21 83 22 84 23 87 24
REMARK SMILES IDX 85 25 86 26 90 27 88 28 89 29 12 30 13 31 14 32 15 33 16 34
REMARK SMILES IDX 17 35 18 36 19 37 20 38 21 39 22 40 74 41 23 42 73 43 24 44
REMARK SMILES IDX 25 45 26 46 67 47 27 48 72 49 66 50 68 51 28 52 71 53 65 54
REMARK SMILES IDX 64 55 29 57 55 58 38 59 54 60 39 61 42 62 53 63 69 64 40 65
REMARK SMILES IDX 41 66 52 68 70 69 43 70 30 71 31 72 36 73 32 74 33 75 35 76
REMARK SMILES IDX 37 77 34 78 56 79 57 80 62 81 58 82 59 83 61 84 63 85 60 86
REMARK SMILES IDX 44 87 45 88 50 89 46 90 47 91 49 92 51 93 48 94
REMARK H PARENT 81 20 68 56 42 67
REMARK Flexibility Score: inf
ROOT
ATOM      1  C   UNL A   1      46.303  30.175  26.535  1.00  0.00     0.188 C 
ENDROOT
BRANCH   1   2
ATOM      2  C   UNL A   1      46.668  28.810  25.913  1.00  0.00     0.188 C 
BRANCH   2   3
ATOM      3  O   UNL A   1      45.930  27.720  26.436  1.00  0.00    -0.376 OA
BRANCH   3   4
ATOM      4  C   UNL A   1      44.771  27.293  25.758  1.00  0.00     0.202 C 
BRANCH   4   5
ATOM      5  C   UNL A   1      44.785  25.875  25.171  1.00  0.00     0.261 C 
BRANCH   5   6
ATOM      6  O   UNL A   1      45.944  25.096  25.497  1.00  0.00    -0.459 OA
BRANCH   6   7
ATOM      7  C   UNL A   1      45.856  24.283  26.586  1.00  0.00     0.348 C 
ATOM      8  O   UNL A   1      46.099  24.636  27.730  1.00  0.00    -0.245 OA
BRANCH   7   9
ATOM      9  C   UNL A   1      45.249  23.021  26.191  1.00  0.00     0.118 A 
ATOM     10  C   UNL A   1      43.074  23.350  27.391  1.00  0.00     0.047 C 
ATOM     11  C   UNL A   1      43.982  22.537  26.521  1.00  0.00    -0.012 A 
ATOM     12  C   UNL A   1      43.701  21.232  25.885  1.00  0.00     0.058 A 
ATOM     13  S   UNL A   1      46.111  21.964  25.187  1.00  0.00    -0.108 S 
ATOM     14  C   UNL A   1      44.839  20.840  25.174  1.00  0.00     0.129 A 
ATOM     15  C   UNL A   1      42.619  20.294  25.812  1.00  0.00     0.138 A 
ATOM     16  N   UNL A   1      45.041  19.702  24.493  1.00  0.00    -0.225 NA
ATOM     17  N   UNL A   1      42.828  19.132  25.132  1.00  0.00    -0.219 NA
ATOM     18  C   UNL A   1      43.996  18.892  24.533  1.00  0.00     0.225 A 
BRANCH  15  19
ATOM     19  N   UNL A   1      41.348  20.297  26.317  1.00  0.00    -0.364 N 
ATOM     20  H   UNL A   1      40.846  19.473  26.117  1.00  0.00     0.162 HD
BRANCH  19  21
ATOM     21  C   UNL A   1      40.596  21.254  27.079  1.00  0.00     0.172 C 
BRANCH  21  22
ATOM     22  C   UNL A   1      39.420  21.895  26.417  1.00  0.00     0.079 A 
ATOM     23  C   UNL A   1      38.954  23.200  26.519  1.00  0.00     0.113 A 
ATOM     24  N   UNL A   1      38.588  21.130  25.603  1.00  0.00    -0.226 NA
ATOM     25  N   UNL A   1      37.808  23.191  25.797  1.00  0.00    -0.325 N 
ATOM     26  C   UNL A   1      37.632  21.949  25.277  1.00  0.00     0.168 A 
ATOM     27  C   UNL A   1      36.670  24.083  25.733  1.00  0.00     0.135 C 
ATOM     28  S   UNL A   1      36.037  21.696  24.680  1.00  0.00    -0.086 SA
ATOM     29  C   UNL A   1      35.455  23.156  25.641  1.00  0.00     0.100 C 
ENDBRANCH  21  22
ENDBRANCH  19  21
ENDBRANCH  15  19
ENDBRANCH   7   9
ENDBRANCH   6   7
ENDBRANCH   5   6
ENDBRANCH   4   5
ENDBRANCH   3   4
ENDBRANCH   2   3
ENDBRANCH   1   2
BRANCH   1  30
ATOM     30  O   UNL A   1      46.673  31.390  25.896  1.00  0.00    -0.377 OA
BRANCH  30  31
ATOM     31  C   UNL A   1      46.666  32.618  26.615  1.00  0.00     0.188 C 
BRANCH  31  32
ATOM     32  C   UNL A   1      45.483  33.621  26.526  1.00  0.00     0.188 C 
BRANCH  32  33
ATOM     33  O   UNL A   1      45.827  34.989  26.651  1.00  0.00    -0.376 OA
BRANCH  33  34
ATOM     34  C   UNL A   1      44.915  36.039  26.406  1.00  0.00     0.202 C 
BRANCH  34  35
ATOM     35  C   UNL A   1      44.728  37.131  27.452  1.00  0.00     0.261 C 
BRANCH  35  36
ATOM     36  O   UNL A   1      44.348  36.652  28.723  1.00  0.00    -0.460 OA
BRANCH  36  37
ATOM     37  C   UNL A   1      45.274  36.839  29.679  1.00  0.00     0.338 C 
ATOM     38  O   UNL A   1      46.126  37.704  29.734  1.00  0.00    -0.246 OA
BRANCH  37  39
ATOM     39  C   UNL A   1      45.168  35.723  30.618  1.00  0.00     0.060 A 
ATOM     40  C   UNL A   1      45.514  34.474  30.109  1.00  0.00     0.016 A 
ATOM     41  C   UNL A   1      44.337  35.893  31.736  1.00  0.00     0.016 A 
ATOM     42  C   UNL A   1      44.765  33.406  30.523  1.00  0.00     0.010 A 
ATOM     43  C   UNL A   1      43.571  34.831  32.128  1.00  0.00     0.010 A 
ATOM     44  C   UNL A   1      43.726  33.638  31.433  1.00  0.00    -0.014 A 
BRANCH  44  45
ATOM     45  C   UNL A   1      42.822  32.550  31.693  1.00  0.00     0.031 A 
ATOM     46  C   UNL A   1      43.420  31.544  32.585  1.00  0.00     0.074 A 
ATOM     47  C   UNL A   1      41.574  32.516  31.200  1.00  0.00     0.049 A 
ATOM     48  N   UNL A   1      43.809  30.358  32.267  1.00  0.00    -0.248 NA
ATOM     49  C   UNL A   1      43.832  31.985  33.926  1.00  0.00     0.031 C 
ATOM     50  C   UNL A   1      40.821  33.573  30.521  1.00  0.00     0.029 A 
ATOM     51  N   UNL A   1      40.675  31.505  31.284  1.00  0.00    -0.354 N 
ATOM     52  C   UNL A   1      44.325  29.819  33.438  1.00  0.00     0.074 A 
ATOM     53  C   UNL A   1      44.509  30.918  34.346  1.00  0.00     0.031 C 
ATOM     54  C   UNL A   1      39.516  33.217  30.460  1.00  0.00     0.029 A 
ATOM     55  C   UNL A   1      39.373  31.864  30.973  1.00  0.00     0.049 A 
ATOM     56  H   UNL A   1      40.927  30.590  31.546  1.00  0.00     0.167 HD
ATOM     57  C   UNL A   1      44.282  28.479  33.651  1.00  0.00     0.037 A 
ATOM     58  C   UNL A   1      38.273  31.106  31.207  1.00  0.00     0.037 A 
ATOM     59  C   UNL A   1      44.138  27.766  32.403  1.00  0.00     0.049 A 
ATOM     60  C   UNL A   1      38.735  29.702  31.386  1.00  0.00     0.074 A 
ATOM     61  C   UNL A   1      44.884  27.699  31.240  1.00  0.00     0.029 A 
ATOM     62  N   UNL A   1      42.894  27.280  32.078  1.00  0.00    -0.354 N 
ATOM     63  N   UNL A   1      39.212  28.970  30.416  1.00  0.00    -0.248 NA
ATOM     64  C   UNL A   1      39.112  29.277  32.728  1.00  0.00     0.031 C 
ATOM     65  C   UNL A   1      43.925  27.629  30.188  1.00  0.00     0.029 A 
ATOM     66  C   UNL A   1      42.656  27.594  30.765  1.00  0.00     0.049 A 
ATOM     67  H   UNL A   1      42.284  26.794  32.680  1.00  0.00     0.167 HD
ATOM     68  C   UNL A   1      40.273  28.278  30.983  1.00  0.00     0.074 A 
ATOM     69  C   UNL A   1      40.111  28.443  32.426  1.00  0.00     0.031 C 
ATOM     70  C   UNL A   1      41.346  27.890  30.232  1.00  0.00     0.037 A 
BRANCH  57  71
ATOM     71  C   UNL A   1      43.945  27.869  34.990  1.00  0.00     0.057 A 
ATOM     72  C   UNL A   1      44.806  26.893  35.518  1.00  0.00     0.134 A 
ATOM     73  C   UNL A   1      42.693  27.970  35.636  1.00  0.00     0.134 A 
ATOM     74  F   UNL A   1      46.026  26.695  34.998  1.00  0.00    -0.206 F 
ATOM     75  C   UNL A   1      44.414  26.019  36.539  1.00  0.00     0.040 A 
ATOM     76  C   UNL A   1      42.312  27.138  36.689  1.00  0.00     0.040 A 
ATOM     77  F   UNL A   1      41.727  28.802  35.235  1.00  0.00    -0.206 F 
ATOM     78  C   UNL A   1      43.158  26.133  37.119  1.00  0.00     0.006 A 
ENDBRANCH  57  71
BRANCH  58  79
ATOM     79  C   UNL A   1      36.909  31.544  31.581  1.00  0.00     0.057 A 
ATOM     80  C   UNL A   1      36.613  31.954  32.888  1.00  0.00     0.134 A 
ATOM     81  C   UNL A   1      35.933  31.830  30.610  1.00  0.00     0.134 A 
ATOM     82  F   UNL A   1      37.498  31.765  33.878  1.00  0.00    -0.206 F 
ATOM     83  C   UNL A   1      35.429  32.632  33.208  1.00  0.00     0.040 A 
ATOM     84  C   UNL A   1      34.744  32.499  30.916  1.00  0.00     0.040 A 
ATOM     85  F   UNL A   1      36.137  31.551  29.315  1.00  0.00    -0.206 F 
ATOM     86  C   UNL A   1      34.493  32.917  32.218  1.00  0.00     0.006 A 
ENDBRANCH  58  79
BRANCH  70  87
ATOM     87  C   UNL A   1      41.248  28.025  28.737  1.00  0.00     0.057 A 
ATOM     88  C   UNL A   1      41.626  29.177  28.029  1.00  0.00     0.134 A 
ATOM     89  C   UNL A   1      40.939  26.890  27.979  1.00  0.00     0.134 A 
ATOM     90  F   UNL A   1      42.031  30.282  28.668  1.00  0.00    -0.206 F 
ATOM     91  C   UNL A   1      41.666  29.204  26.632  1.00  0.00     0.040 A 
ATOM     92  C   UNL A   1      41.009  26.895  26.584  1.00  0.00     0.040 A 
ATOM     93  F   UNL A   1      40.623  25.736  28.588  1.00  0.00    -0.206 F 
ATOM     94  C   UNL A   1      41.367  28.056  25.905  1.00  0.00     0.006 A 
ENDBRANCH  70  87
ENDBRANCH  44  45
ENDBRANCH  37  39
ENDBRANCH  36  37
ENDBRANCH  35  36
ENDBRANCH  34  35
ENDBRANCH  33  34
ENDBRANCH  32  33
ENDBRANCH  31  32
ENDBRANCH  30  31
ENDBRANCH   1  30
TORSDOF 23
ENDMDL
