MODEL 1
REMARK VINA RESULT:     -10.2      0.000      0.000
REMARK SMILES CC(C)Cc1cc2c(cc1Cl)C=C(C(=O)OCCOCCOCCOCCOC(=O)c1ccc(-c3c4nc(c(-c5c(F)cccc5F)c5ccc([nH]5)c(-c5c(F)cccc5F)c5nc(c(-c6c(F)cccc6F)c6ccc3[nH]6)C=C5)C=C4)cc1)[C@H](C(F)(F)F)O2
REMARK SMILES IDX 22 1 21 2 20 3 19 4 18 5 17 6 16 7 14 8 15 9 13 10 5 11 6 12
REMARK SMILES IDX 10 13 7 14 9 15 11 16 8 17 90 18 12 19 85 20 4 21 2 22 1 23
REMARK SMILES IDX 3 24 86 25 87 26 88 27 89 28 23 29 24 30 25 31 26 32 27 33
REMARK SMILES IDX 28 34 29 35 30 36 31 37 32 38 84 39 33 40 83 41 34 42 35 43
REMARK SMILES IDX 36 44 77 45 37 46 82 47 76 48 78 49 38 50 81 51 75 52 74 53
REMARK SMILES IDX 39 55 65 56 48 57 64 58 49 59 52 60 63 61 79 62 50 63 51 64
REMARK SMILES IDX 62 66 80 67 53 68 40 69 41 70 46 71 42 72 43 73 45 74 47 75
REMARK SMILES IDX 44 76 66 77 67 78 72 79 68 80 69 81 71 82 73 83 70 84 54 85
REMARK SMILES IDX 55 86 60 87 56 88 57 89 59 90 61 91 58 92
REMARK H PARENT 78 54 52 65
REMARK Flexibility Score: inf
ROOT
ATOM      1  O   UNL A   1      35.075  21.095  25.078  1.00  0.00    -0.377 OA
ENDROOT
BRANCH   1   2
ATOM      2  C   UNL A   1      33.875  20.500  25.554  1.00  0.00     0.188 C 
BRANCH   2   3
ATOM      3  C   UNL A   1      32.515  20.641  24.837  1.00  0.00     0.188 C 
BRANCH   3   4
ATOM      4  O   UNL A   1      31.643  21.637  25.356  1.00  0.00    -0.376 OA
BRANCH   4   5
ATOM      5  C   UNL A   1      32.068  22.310  26.530  1.00  0.00     0.202 C 
BRANCH   5   6
ATOM      6  C   UNL A   1      32.145  23.831  26.367  1.00  0.00     0.261 C 
BRANCH   6   7
ATOM      7  O   UNL A   1      33.441  24.297  25.956  1.00  0.00    -0.460 OA
BRANCH   7   8
ATOM      8  C   UNL A   1      33.596  24.542  24.645  1.00  0.00     0.338 C 
ATOM      9  O   UNL A   1      34.132  23.802  23.836  1.00  0.00    -0.246 OA
BRANCH   8  10
ATOM     10  C   UNL A   1      32.883  25.782  24.281  1.00  0.00     0.087 C 
ATOM     11  C   UNL A   1      30.686  30.299  24.646  1.00  0.00    -0.025 A 
ATOM     12  C   UNL A   1      30.481  29.158  23.844  1.00  0.00     0.052 A 
ATOM     13  C   UNL A   1      31.726  30.266  25.589  1.00  0.00     0.045 A 
ATOM     14  C   UNL A   1      31.284  28.022  23.982  1.00  0.00     0.128 A 
ATOM     15  C   UNL A   1      32.558  29.147  25.694  1.00  0.00     0.032 A 
ATOM     16  Cl  UNL A   1      31.989  31.538  26.730  1.00  0.00    -0.084 Cl
ATOM     17  C   UNL A   1      32.331  28.023  24.899  1.00  0.00     0.019 A 
ATOM     18  O   UNL A   1      30.927  26.920  23.253  1.00  0.00    -0.475 OA
ATOM     19  C   UNL A   1      33.107  26.814  25.104  1.00  0.00     0.027 C 
ATOM     20  C   UNL A   1      31.885  25.818  23.149  1.00  0.00     0.316 C 
BRANCH  11  21
ATOM     21  C   UNL A   1      29.734  31.470  24.501  1.00  0.00     0.040 C 
BRANCH  21  22
ATOM     22  C   UNL A   1      28.828  31.456  23.251  1.00  0.00    -0.013 C 
ATOM     23  C   UNL A   1      27.414  30.965  23.560  1.00  0.00     0.008 C 
ATOM     24  C   UNL A   1      28.776  32.859  22.638  1.00  0.00     0.008 C 
ENDBRANCH  21  22
ENDBRANCH  11  21
BRANCH  20  25
ATOM     25  C   UNL A   1      32.444  25.830  21.711  1.00  0.00     0.430 C 
ATOM     26  F   UNL A   1      31.558  26.290  20.804  1.00  0.00    -0.167 F 
ATOM     27  F   UNL A   1      33.517  26.662  21.635  1.00  0.00    -0.167 F 
ATOM     28  F   UNL A   1      32.867  24.608  21.318  1.00  0.00    -0.167 F 
ENDBRANCH  20  25
ENDBRANCH   8  10
ENDBRANCH   7   8
ENDBRANCH   6   7
ENDBRANCH   5   6
ENDBRANCH   4   5
ENDBRANCH   3   4
ENDBRANCH   2   3
ENDBRANCH   1   2
BRANCH   1  29
ATOM     29  C   UNL A   1      35.926  21.786  25.976  1.00  0.00     0.188 C 
BRANCH  29  30
ATOM     30  C   UNL A   1      37.309  22.203  25.447  1.00  0.00     0.188 C 
BRANCH  30  31
ATOM     31  O   UNL A   1      38.093  21.103  25.004  1.00  0.00    -0.376 OA
BRANCH  31  32
ATOM     32  C   UNL A   1      39.133  20.674  25.872  1.00  0.00     0.202 C 
BRANCH  32  33
ATOM     33  C   UNL A   1      39.881  19.384  25.502  1.00  0.00     0.261 C 
BRANCH  33  34
ATOM     34  O   UNL A   1      41.089  19.106  26.230  1.00  0.00    -0.460 OA
BRANCH  34  35
ATOM     35  C   UNL A   1      42.254  19.624  25.790  1.00  0.00     0.338 C 
ATOM     36  O   UNL A   1      43.001  19.161  24.947  1.00  0.00    -0.246 OA
BRANCH  35  37
ATOM     37  C   UNL A   1      42.369  20.978  26.381  1.00  0.00     0.060 A 
ATOM     38  C   UNL A   1      42.146  21.165  27.748  1.00  0.00     0.016 A 
ATOM     39  C   UNL A   1      42.642  22.076  25.554  1.00  0.00     0.016 A 
ATOM     40  C   UNL A   1      42.225  22.448  28.291  1.00  0.00     0.010 A 
ATOM     41  C   UNL A   1      42.713  23.362  26.099  1.00  0.00     0.010 A 
ATOM     42  C   UNL A   1      42.528  23.554  27.476  1.00  0.00    -0.014 A 
BRANCH  42  43
ATOM     43  C   UNL A   1      42.832  24.861  28.108  1.00  0.00     0.031 A 
ATOM     44  C   UNL A   1      44.217  25.252  28.526  1.00  0.00     0.074 A 
ATOM     45  C   UNL A   1      41.807  25.714  28.297  1.00  0.00     0.049 A 
ATOM     46  N   UNL A   1      44.641  26.404  28.985  1.00  0.00    -0.248 NA
ATOM     47  C   UNL A   1      45.256  24.221  28.428  1.00  0.00     0.031 C 
ATOM     48  C   UNL A   1      40.409  25.428  27.967  1.00  0.00     0.029 A 
ATOM     49  N   UNL A   1      41.779  26.989  28.798  1.00  0.00    -0.354 N 
ATOM     50  C   UNL A   1      46.003  26.249  29.207  1.00  0.00     0.074 A 
ATOM     51  C   UNL A   1      46.321  24.871  28.883  1.00  0.00     0.031 C 
ATOM     52  C   UNL A   1      39.664  26.507  28.249  1.00  0.00     0.029 A 
ATOM     53  C   UNL A   1      40.527  27.550  28.794  1.00  0.00     0.049 A 
ATOM     54  H   UNL A   1      42.580  27.456  29.129  1.00  0.00     0.167 HD
ATOM     55  C   UNL A   1      46.902  27.176  29.627  1.00  0.00     0.037 A 
ATOM     56  C   UNL A   1      40.118  28.772  29.178  1.00  0.00     0.037 A 
ATOM     57  C   UNL A   1      46.571  28.536  29.980  1.00  0.00     0.049 A 
ATOM     58  C   UNL A   1      41.129  29.763  29.677  1.00  0.00     0.074 A 
ATOM     59  C   UNL A   1      47.418  29.556  30.381  1.00  0.00     0.029 A 
ATOM     60  N   UNL A   1      45.286  29.062  29.994  1.00  0.00    -0.354 N 
ATOM     61  N   UNL A   1      42.429  29.634  29.792  1.00  0.00    -0.248 NA
ATOM     62  C   UNL A   1      40.615  31.075  30.087  1.00  0.00     0.031 C 
ATOM     63  C   UNL A   1      46.643  30.682  30.686  1.00  0.00     0.029 A 
ATOM     64  C   UNL A   1      45.316  30.382  30.424  1.00  0.00     0.049 A 
ATOM     65  H   UNL A   1      44.474  28.571  29.737  1.00  0.00     0.167 HD
ATOM     66  C   UNL A   1      42.890  30.857  30.258  1.00  0.00     0.074 A 
ATOM     67  C   UNL A   1      41.733  31.720  30.384  1.00  0.00     0.031 C 
ATOM     68  C   UNL A   1      44.160  31.232  30.553  1.00  0.00     0.037 A 
BRANCH  55  69
ATOM     69  C   UNL A   1      48.339  26.747  29.728  1.00  0.00     0.057 A 
ATOM     70  C   UNL A   1      48.879  26.311  30.945  1.00  0.00     0.134 A 
ATOM     71  C   UNL A   1      49.204  26.813  28.628  1.00  0.00     0.134 A 
ATOM     72  F   UNL A   1      48.113  26.237  32.044  1.00  0.00    -0.206 F 
ATOM     73  C   UNL A   1      50.224  25.954  31.063  1.00  0.00     0.040 A 
ATOM     74  C   UNL A   1      50.546  26.434  28.727  1.00  0.00     0.040 A 
ATOM     75  F   UNL A   1      48.754  27.221  27.433  1.00  0.00    -0.206 F 
ATOM     76  C   UNL A   1      51.060  26.008  29.950  1.00  0.00     0.006 A 
ENDBRANCH  55  69
BRANCH  56  77
ATOM     77  C   UNL A   1      38.685  29.142  29.072  1.00  0.00     0.057 A 
ATOM     78  C   UNL A   1      37.827  29.056  30.173  1.00  0.00     0.134 A 
ATOM     79  C   UNL A   1      38.148  29.612  27.868  1.00  0.00     0.134 A 
ATOM     80  F   UNL A   1      38.280  28.603  31.352  1.00  0.00    -0.206 F 
ATOM     81  C   UNL A   1      36.485  29.425  30.082  1.00  0.00     0.040 A 
ATOM     82  C   UNL A   1      36.816  30.011  27.770  1.00  0.00     0.040 A 
ATOM     83  F   UNL A   1      38.927  29.731  26.782  1.00  0.00    -0.206 F 
ATOM     84  C   UNL A   1      35.979  29.915  28.880  1.00  0.00     0.006 A 
ENDBRANCH  56  77
BRANCH  68  85
ATOM     85  C   UNL A   1      44.356  32.650  31.011  1.00  0.00     0.057 A 
ATOM     86  C   UNL A   1      44.262  32.982  32.368  1.00  0.00     0.134 A 
ATOM     87  C   UNL A   1      44.648  33.687  30.113  1.00  0.00     0.134 A 
ATOM     88  F   UNL A   1      43.979  32.040  33.282  1.00  0.00    -0.206 F 
ATOM     89  C   UNL A   1      44.463  34.288  32.818  1.00  0.00     0.040 A 
ATOM     90  C   UNL A   1      44.881  34.992  30.555  1.00  0.00     0.040 A 
ATOM     91  F   UNL A   1      44.769  33.437  28.801  1.00  0.00    -0.206 F 
ATOM     92  C   UNL A   1      44.784  35.295  31.911  1.00  0.00     0.006 A 
ENDBRANCH  68  85
ENDBRANCH  42  43
ENDBRANCH  35  37
ENDBRANCH  34  35
ENDBRANCH  33  34
ENDBRANCH  32  33
ENDBRANCH  31  32
ENDBRANCH  30  31
ENDBRANCH  29  30
ENDBRANCH   1  29
TORSDOF 23
ENDMDL
MODEL 2
REMARK VINA RESULT:      -9.9      0.630      5.949
REMARK SMILES CC(C)Cc1cc2c(cc1Cl)C=C(C(=O)OCCOCCOCCOCCOC(=O)c1ccc(-c3c4nc(c(-c5c(F)cccc5F)c5ccc([nH]5)c(-c5c(F)cccc5F)c5nc(c(-c6c(F)cccc6F)c6ccc3[nH]6)C=C5)C=C4)cc1)[C@H](C(F)(F)F)O2
REMARK SMILES IDX 22 1 21 2 20 3 19 4 18 5 17 6 16 7 14 8 15 9 13 10 5 11 6 12
REMARK SMILES IDX 10 13 7 14 9 15 11 16 8 17 90 18 12 19 85 20 4 21 2 22 1 23
REMARK SMILES IDX 3 24 86 25 87 26 88 27 89 28 23 29 24 30 25 31 26 32 27 33
REMARK SMILES IDX 28 34 29 35 30 36 31 37 32 38 84 39 33 40 83 41 34 42 35 43
REMARK SMILES IDX 36 44 77 45 37 46 82 47 76 48 78 49 38 50 81 51 75 52 74 53
REMARK SMILES IDX 39 55 65 56 48 57 64 58 49 59 52 60 63 61 79 62 50 63 51 64
REMARK SMILES IDX 62 66 80 67 53 68 40 69 41 70 46 71 42 72 43 73 45 74 47 75
REMARK SMILES IDX 44 76 66 77 67 78 72 79 68 80 69 81 71 82 73 83 70 84 54 85
REMARK SMILES IDX 55 86 60 87 56 88 57 89 59 90 61 91 58 92
REMARK H PARENT 78 54 52 65
REMARK Flexibility Score: inf
ROOT
ATOM      1  O   UNL A   1      34.620  21.650  25.246  1.00  0.00    -0.377 OA
ENDROOT
BRANCH   1   2
ATOM      2  C   UNL A   1      33.563  20.802  25.674  1.00  0.00     0.188 C 
BRANCH   2   3
ATOM      3  C   UNL A   1      32.115  20.920  25.150  1.00  0.00     0.188 C 
BRANCH   3   4
ATOM      4  O   UNL A   1      31.340  21.973  25.707  1.00  0.00    -0.376 OA
BRANCH   4   5
ATOM      5  C   UNL A   1      31.959  22.761  26.711  1.00  0.00     0.202 C 
BRANCH   5   6
ATOM      6  C   UNL A   1      31.839  24.268  26.465  1.00  0.00     0.261 C 
BRANCH   6   7
ATOM      7  O   UNL A   1      33.105  24.918  26.272  1.00  0.00    -0.460 OA
BRANCH   7   8
ATOM      8  C   UNL A   1      33.487  25.111  24.998  1.00  0.00     0.338 C 
ATOM      9  O   UNL A   1      34.332  24.468  24.399  1.00  0.00    -0.246 OA
BRANCH   8  10
ATOM     10  C   UNL A   1      32.620  26.124  24.365  1.00  0.00     0.087 C 
ATOM     11  C   UNL A   1      29.702  30.181  23.740  1.00  0.00    -0.025 A 
ATOM     12  C   UNL A   1      29.758  28.899  23.156  1.00  0.00     0.052 A 
ATOM     13  C   UNL A   1      30.642  30.495  24.736  1.00  0.00     0.045 A 
ATOM     14  C   UNL A   1      30.717  27.963  23.553  1.00  0.00     0.128 A 
ATOM     15  C   UNL A   1      31.630  29.575  25.099  1.00  0.00     0.032 A 
ATOM     16  Cl  UNL A   1      30.591  31.973  25.631  1.00  0.00    -0.084 Cl
ATOM     17  C   UNL A   1      31.661  28.307  24.517  1.00  0.00     0.019 A 
ATOM     18  O   UNL A   1      30.611  26.705  23.024  1.00  0.00    -0.475 OA
ATOM     19  C   UNL A   1      32.599  27.306  24.993  1.00  0.00     0.027 C 
ATOM     20  C   UNL A   1      31.738  25.787  23.187  1.00  0.00     0.316 C 
BRANCH  11  21
ATOM     21  C   UNL A   1      28.592  31.123  23.320  1.00  0.00     0.040 C 
BRANCH  21  22
ATOM     22  C   UNL A   1      28.999  32.268  22.368  1.00  0.00    -0.013 C 
ATOM     23  C   UNL A   1      28.079  32.372  21.152  1.00  0.00     0.008 C 
ATOM     24  C   UNL A   1      29.010  33.595  23.133  1.00  0.00     0.008 C 
ENDBRANCH  21  22
ENDBRANCH  11  21
BRANCH  20  25
ATOM     25  C   UNL A   1      32.419  25.645  21.810  1.00  0.00     0.430 C 
ATOM     26  F   UNL A   1      31.649  26.083  20.792  1.00  0.00    -0.167 F 
ATOM     27  F   UNL A   1      33.550  26.401  21.769  1.00  0.00    -0.167 F 
ATOM     28  F   UNL A   1      32.789  24.372  21.552  1.00  0.00    -0.167 F 
ENDBRANCH  20  25
ENDBRANCH   8  10
ENDBRANCH   7   8
ENDBRANCH   6   7
ENDBRANCH   5   6
ENDBRANCH   4   5
ENDBRANCH   3   4
ENDBRANCH   2   3
ENDBRANCH   1   2
BRANCH   1  29
ATOM     29  C   UNL A   1      35.777  21.798  26.051  1.00  0.00     0.188 C 
BRANCH  29  30
ATOM     30  C   UNL A   1      37.095  22.124  25.327  1.00  0.00     0.188 C 
BRANCH  30  31
ATOM     31  O   UNL A   1      37.829  20.965  24.953  1.00  0.00    -0.376 OA
BRANCH  31  32
ATOM     32  C   UNL A   1      38.937  20.623  25.774  1.00  0.00     0.202 C 
BRANCH  32  33
ATOM     33  C   UNL A   1      39.850  19.484  25.296  1.00  0.00     0.261 C 
BRANCH  33  34
ATOM     34  O   UNL A   1      40.920  19.102  26.176  1.00  0.00    -0.460 OA
BRANCH  34  35
ATOM     35  C   UNL A   1      42.175  19.510  25.898  1.00  0.00     0.338 C 
ATOM     36  O   UNL A   1      43.008  18.939  25.216  1.00  0.00    -0.246 OA
BRANCH  35  37
ATOM     37  C   UNL A   1      42.299  20.892  26.417  1.00  0.00     0.060 A 
ATOM     38  C   UNL A   1      42.032  21.162  27.761  1.00  0.00     0.016 A 
ATOM     39  C   UNL A   1      42.625  21.936  25.539  1.00  0.00     0.016 A 
ATOM     40  C   UNL A   1      42.120  22.472  28.234  1.00  0.00     0.010 A 
ATOM     41  C   UNL A   1      42.705  23.249  26.013  1.00  0.00     0.010 A 
ATOM     42  C   UNL A   1      42.475  23.523  27.370  1.00  0.00    -0.014 A 
BRANCH  42  43
ATOM     43  C   UNL A   1      42.786  24.858  27.938  1.00  0.00     0.031 A 
ATOM     44  C   UNL A   1      41.739  25.908  28.148  1.00  0.00     0.074 A 
ATOM     45  C   UNL A   1      44.066  25.107  28.276  1.00  0.00     0.049 A 
ATOM     46  N   UNL A   1      41.852  27.073  28.738  1.00  0.00    -0.248 NA
ATOM     47  C   UNL A   1      40.399  25.625  27.622  1.00  0.00     0.031 C 
ATOM     48  C   UNL A   1      45.179  24.175  28.081  1.00  0.00     0.029 A 
ATOM     49  N   UNL A   1      44.644  26.204  28.859  1.00  0.00    -0.354 N 
ATOM     50  C   UNL A   1      40.593  27.655  28.680  1.00  0.00     0.074 A 
ATOM     51  C   UNL A   1      39.745  26.734  27.947  1.00  0.00     0.031 C 
ATOM     52  C   UNL A   1      46.302  24.730  28.562  1.00  0.00     0.029 A 
ATOM     53  C   UNL A   1      45.991  26.057  29.081  1.00  0.00     0.049 A 
ATOM     54  H   UNL A   1      44.142  27.017  29.095  1.00  0.00     0.167 HD
ATOM     55  C   UNL A   1      40.183  28.839  29.204  1.00  0.00     0.037 A 
ATOM     56  C   UNL A   1      46.876  26.895  29.648  1.00  0.00     0.037 A 
ATOM     57  C   UNL A   1      41.042  29.765  29.903  1.00  0.00     0.049 A 
ATOM     58  C   UNL A   1      46.402  28.216  30.181  1.00  0.00     0.074 A 
ATOM     59  C   UNL A   1      40.710  30.971  30.500  1.00  0.00     0.029 A 
ATOM     60  N   UNL A   1      42.409  29.600  30.083  1.00  0.00    -0.354 N 
ATOM     61  N   UNL A   1      45.189  28.713  30.205  1.00  0.00    -0.248 NA
ATOM     62  C   UNL A   1      47.422  29.086  30.781  1.00  0.00     0.031 C 
ATOM     63  C   UNL A   1      41.882  31.558  30.994  1.00  0.00     0.029 A 
ATOM     64  C   UNL A   1      42.937  30.693  30.754  1.00  0.00     0.049 A 
ATOM     65  H   UNL A   1      42.926  28.821  29.778  1.00  0.00     0.167 HD
ATOM     66  C   UNL A   1      45.295  29.938  30.848  1.00  0.00     0.074 A 
ATOM     67  C   UNL A   1      46.687  30.099  31.215  1.00  0.00     0.031 C 
ATOM     68  C   UNL A   1      44.325  30.849  31.111  1.00  0.00     0.037 A 
BRANCH  55  69
ATOM     69  C   UNL A   1      38.734  29.201  29.040  1.00  0.00     0.057 A 
ATOM     70  C   UNL A   1      37.835  29.087  30.108  1.00  0.00     0.134 A 
ATOM     71  C   UNL A   1      38.216  29.617  27.805  1.00  0.00     0.134 A 
ATOM     72  F   UNL A   1      38.258  28.680  31.314  1.00  0.00    -0.206 F 
ATOM     73  C   UNL A   1      36.477  29.376  29.957  1.00  0.00     0.040 A 
ATOM     74  C   UNL A   1      36.864  29.933  27.648  1.00  0.00     0.040 A 
ATOM     75  F   UNL A   1      39.020  29.748  26.740  1.00  0.00    -0.206 F 
ATOM     76  C   UNL A   1      35.989  29.808  28.725  1.00  0.00     0.006 A 
ENDBRANCH  55  69
BRANCH  56  77
ATOM     77  C   UNL A   1      48.300  26.497  29.773  1.00  0.00     0.057 A 
ATOM     78  C   UNL A   1      49.236  26.816  28.784  1.00  0.00     0.134 A 
ATOM     79  C   UNL A   1      48.759  25.804  30.899  1.00  0.00     0.134 A 
ATOM     80  F   UNL A   1      48.855  27.469  27.676  1.00  0.00    -0.206 F 
ATOM     81  C   UNL A   1      50.579  26.462  28.910  1.00  0.00     0.040 A 
ATOM     82  C   UNL A   1      50.104  25.469  31.052  1.00  0.00     0.040 A 
ATOM     83  F   UNL A   1      47.910  25.484  31.888  1.00  0.00    -0.206 F 
ATOM     84  C   UNL A   1      51.018  25.796  30.052  1.00  0.00     0.006 A 
ENDBRANCH  56  77
BRANCH  68  85
ATOM     85  C   UNL A   1      44.742  32.083  31.861  1.00  0.00     0.057 A 
ATOM     86  C   UNL A   1      45.082  33.255  31.173  1.00  0.00     0.134 A 
ATOM     87  C   UNL A   1      44.798  32.118  33.261  1.00  0.00     0.134 A 
ATOM     88  F   UNL A   1      45.056  33.290  29.832  1.00  0.00    -0.206 F 
ATOM     89  C   UNL A   1      45.451  34.419  31.849  1.00  0.00     0.040 A 
ATOM     90  C   UNL A   1      45.136  33.286  33.950  1.00  0.00     0.040 A 
ATOM     91  F   UNL A   1      44.469  31.037  33.983  1.00  0.00    -0.206 F 
ATOM     92  C   UNL A   1      45.467  34.439  33.242  1.00  0.00     0.006 A 
ENDBRANCH  68  85
ENDBRANCH  42  43
ENDBRANCH  35  37
ENDBRANCH  34  35
ENDBRANCH  33  34
ENDBRANCH  32  33
ENDBRANCH  31  32
ENDBRANCH  30  31
ENDBRANCH  29  30
ENDBRANCH   1  29
TORSDOF 23
ENDMDL
MODEL 3
REMARK VINA RESULT:      -9.7      4.328      8.621
REMARK SMILES CC(C)Cc1cc2c(cc1Cl)C=C(C(=O)OCCOCCOCCOCCOC(=O)c1ccc(-c3c4nc(c(-c5c(F)cccc5F)c5ccc([nH]5)c(-c5c(F)cccc5F)c5nc(c(-c6c(F)cccc6F)c6ccc3[nH]6)C=C5)C=C4)cc1)[C@H](C(F)(F)F)O2
REMARK SMILES IDX 22 1 21 2 20 3 19 4 18 5 17 6 16 7 14 8 15 9 13 10 5 11 6 12
REMARK SMILES IDX 10 13 7 14 9 15 11 16 8 17 90 18 12 19 85 20 4 21 2 22 1 23
REMARK SMILES IDX 3 24 86 25 87 26 88 27 89 28 23 29 24 30 25 31 26 32 27 33
REMARK SMILES IDX 28 34 29 35 30 36 31 37 32 38 84 39 33 40 83 41 34 42 35 43
REMARK SMILES IDX 36 44 77 45 37 46 82 47 76 48 78 49 38 50 81 51 75 52 74 53
REMARK SMILES IDX 39 55 65 56 48 57 64 58 49 59 52 60 63 61 79 62 50 63 51 64
REMARK SMILES IDX 62 66 80 67 53 68 40 69 41 70 46 71 42 72 43 73 45 74 47 75
REMARK SMILES IDX 44 76 66 77 67 78 72 79 68 80 69 81 71 82 73 83 70 84 54 85
REMARK SMILES IDX 55 86 60 87 56 88 57 89 59 90 61 91 58 92
REMARK H PARENT 78 54 52 65
REMARK Flexibility Score: inf
ROOT
ATOM      1  O   UNL A   1      34.252  23.975  22.169  1.00  0.00    -0.377 OA
ENDROOT
BRANCH   1   2
ATOM      2  C   UNL A   1      33.031  24.555  21.730  1.00  0.00     0.188 C 
BRANCH   2   3
ATOM      3  C   UNL A   1      32.941  25.949  21.072  1.00  0.00     0.188 C 
BRANCH   3   4
ATOM      4  O   UNL A   1      32.633  27.026  21.947  1.00  0.00    -0.376 OA
BRANCH   4   5
ATOM      5  C   UNL A   1      33.712  27.858  22.341  1.00  0.00     0.202 C 
BRANCH   5   6
ATOM      6  C   UNL A   1      33.357  28.820  23.478  1.00  0.00     0.261 C 
BRANCH   6   7
ATOM      7  O   UNL A   1      31.959  28.817  23.813  1.00  0.00    -0.460 OA
BRANCH   7   8
ATOM      8  C   UNL A   1      31.643  28.377  25.043  1.00  0.00     0.338 C 
ATOM      9  O   UNL A   1      31.455  29.074  26.026  1.00  0.00    -0.246 OA
BRANCH   8  10
ATOM     10  C   UNL A   1      31.400  26.922  25.006  1.00  0.00     0.087 C 
ATOM     11  C   UNL A   1      32.084  21.960  25.539  1.00  0.00    -0.025 A 
ATOM     12  C   UNL A   1      31.375  22.773  24.630  1.00  0.00     0.052 A 
ATOM     13  C   UNL A   1      32.792  22.591  26.576  1.00  0.00     0.045 A 
ATOM     14  C   UNL A   1      31.376  24.166  24.751  1.00  0.00     0.128 A 
ATOM     15  C   UNL A   1      32.754  23.981  26.723  1.00  0.00     0.032 A 
ATOM     16  Cl  UNL A   1      33.817  21.723  27.665  1.00  0.00    -0.084 Cl
ATOM     17  C   UNL A   1      32.056  24.768  25.806  1.00  0.00     0.019 A 
ATOM     18  O   UNL A   1      30.769  24.874  23.749  1.00  0.00    -0.475 OA
ATOM     19  C   UNL A   1      32.130  26.215  25.879  1.00  0.00     0.027 C 
ATOM     20  C   UNL A   1      30.500  26.295  23.970  1.00  0.00     0.316 C 
BRANCH  11  21
ATOM     21  C   UNL A   1      32.107  20.463  25.310  1.00  0.00     0.040 C 
BRANCH  21  22
ATOM     22  C   UNL A   1      33.060  19.961  24.204  1.00  0.00    -0.013 C 
ATOM     23  C   UNL A   1      34.421  19.534  24.755  1.00  0.00     0.008 C 
ATOM     24  C   UNL A   1      32.409  18.796  23.453  1.00  0.00     0.008 C 
ENDBRANCH  21  22
ENDBRANCH  11  21
BRANCH  20  25
ATOM     25  C   UNL A   1      28.978  26.449  24.168  1.00  0.00     0.430 C 
ATOM     26  F   UNL A   1      28.542  27.708  23.952  1.00  0.00    -0.167 F 
ATOM     27  F   UNL A   1      28.310  25.670  23.274  1.00  0.00    -0.167 F 
ATOM     28  F   UNL A   1      28.580  26.062  25.399  1.00  0.00    -0.167 F 
ENDBRANCH  20  25
ENDBRANCH   8  10
ENDBRANCH   7   8
ENDBRANCH   6   7
ENDBRANCH   5   6
ENDBRANCH   4   5
ENDBRANCH   3   4
ENDBRANCH   2   3
ENDBRANCH   1   2
BRANCH   1  29
ATOM     29  C   UNL A   1      34.728  24.236  23.479  1.00  0.00     0.188 C 
BRANCH  29  30
ATOM     30  C   UNL A   1      35.504  23.107  24.177  1.00  0.00     0.188 C 
BRANCH  30  31
ATOM     31  O   UNL A   1      35.969  23.465  25.472  1.00  0.00    -0.376 OA
BRANCH  31  32
ATOM     32  C   UNL A   1      37.003  22.659  26.021  1.00  0.00     0.202 C 
BRANCH  32  33
ATOM     33  C   UNL A   1      38.453  23.112  25.793  1.00  0.00     0.261 C 
BRANCH  33  34
ATOM     34  O   UNL A   1      38.816  24.403  26.311  1.00  0.00    -0.460 OA
BRANCH  34  35
ATOM     35  C   UNL A   1      40.118  24.678  26.532  1.00  0.00     0.338 C 
ATOM     36  O   UNL A   1      41.076  24.312  25.877  1.00  0.00    -0.246 OA
BRANCH  35  37
ATOM     37  C   UNL A   1      40.161  25.685  27.619  1.00  0.00     0.060 A 
ATOM     38  C   UNL A   1      41.151  26.671  27.619  1.00  0.00     0.016 A 
ATOM     39  C   UNL A   1      39.243  25.607  28.675  1.00  0.00     0.016 A 
ATOM     40  C   UNL A   1      41.205  27.596  28.663  1.00  0.00     0.010 A 
ATOM     41  C   UNL A   1      39.303  26.530  29.724  1.00  0.00     0.010 A 
ATOM     42  C   UNL A   1      40.271  27.546  29.713  1.00  0.00    -0.014 A 
BRANCH  42  43
ATOM     43  C   UNL A   1      40.204  28.668  30.681  1.00  0.00     0.031 A 
ATOM     44  C   UNL A   1      39.228  29.796  30.541  1.00  0.00     0.074 A 
ATOM     45  C   UNL A   1      41.060  28.645  31.720  1.00  0.00     0.049 A 
ATOM     46  N   UNL A   1      38.987  30.780  31.373  1.00  0.00    -0.248 NA
ATOM     47  C   UNL A   1      38.430  29.836  29.310  1.00  0.00     0.031 C 
ATOM     48  C   UNL A   1      42.082  27.618  31.940  1.00  0.00     0.029 A 
ATOM     49  N   UNL A   1      41.203  29.494  32.786  1.00  0.00    -0.354 N 
ATOM     50  C   UNL A   1      37.989  31.544  30.782  1.00  0.00     0.074 A 
ATOM     51  C   UNL A   1      37.711  30.937  29.494  1.00  0.00     0.031 C 
ATOM     52  C   UNL A   1      42.728  27.883  33.085  1.00  0.00     0.029 A 
ATOM     53  C   UNL A   1      42.180  29.103  33.668  1.00  0.00     0.049 A 
ATOM     54  H   UNL A   1      40.659  30.305  32.907  1.00  0.00     0.167 HD
ATOM     55  C   UNL A   1      37.357  32.638  31.277  1.00  0.00     0.037 A 
ATOM     56  C   UNL A   1      42.583  29.659  34.823  1.00  0.00     0.037 A 
ATOM     57  C   UNL A   1      37.663  33.256  32.546  1.00  0.00     0.049 A 
ATOM     58  C   UNL A   1      41.893  30.893  35.327  1.00  0.00     0.074 A 
ATOM     59  C   UNL A   1      37.052  34.344  33.148  1.00  0.00     0.029 A 
ATOM     60  N   UNL A   1      38.680  32.853  33.401  1.00  0.00    -0.354 N 
ATOM     61  N   UNL A   1      40.886  31.551  34.804  1.00  0.00    -0.248 NA
ATOM     62  C   UNL A   1      42.388  31.453  36.590  1.00  0.00     0.031 C 
ATOM     63  C   UNL A   1      37.731  34.630  34.339  1.00  0.00     0.029 A 
ATOM     64  C   UNL A   1      38.731  33.687  34.508  1.00  0.00     0.049 A 
ATOM     65  H   UNL A   1      39.276  32.086  33.244  1.00  0.00     0.167 HD
ATOM     66  C   UNL A   1      40.609  32.583  35.689  1.00  0.00     0.074 A 
ATOM     67  C   UNL A   1      41.540  32.450  36.791  1.00  0.00     0.031 C 
ATOM     68  C   UNL A   1      39.665  33.553  35.598  1.00  0.00     0.037 A 
BRANCH  55  69
ATOM     69  C   UNL A   1      36.264  33.242  30.441  1.00  0.00     0.057 A 
ATOM     70  C   UNL A   1      36.562  34.057  29.340  1.00  0.00     0.134 A 
ATOM     71  C   UNL A   1      34.911  33.056  30.755  1.00  0.00     0.134 A 
ATOM     72  F   UNL A   1      37.835  34.290  28.990  1.00  0.00    -0.206 F 
ATOM     73  C   UNL A   1      35.556  34.661  28.583  1.00  0.00     0.040 A 
ATOM     74  C   UNL A   1      33.895  33.635  29.990  1.00  0.00     0.040 A 
ATOM     75  F   UNL A   1      34.554  32.288  31.795  1.00  0.00    -0.206 F 
ATOM     76  C   UNL A   1      34.217  34.445  28.903  1.00  0.00     0.006 A 
ENDBRANCH  55  69
BRANCH  56  77
ATOM     77  C   UNL A   1      43.677  29.033  35.606  1.00  0.00     0.057 A 
ATOM     78  C   UNL A   1      45.002  29.463  35.479  1.00  0.00     0.134 A 
ATOM     79  C   UNL A   1      43.416  28.002  36.515  1.00  0.00     0.134 A 
ATOM     80  F   UNL A   1      45.319  30.440  34.616  1.00  0.00    -0.206 F 
ATOM     81  C   UNL A   1      46.029  28.891  36.230  1.00  0.00     0.040 A 
ATOM     82  C   UNL A   1      44.427  27.441  37.293  1.00  0.00     0.040 A 
ATOM     83  F   UNL A   1      42.162  27.558  36.691  1.00  0.00    -0.206 F 
ATOM     84  C   UNL A   1      45.741  27.884  37.149  1.00  0.00     0.006 A 
ENDBRANCH  56  77
BRANCH  68  85
ATOM     85  C   UNL A   1      39.581  34.524  36.742  1.00  0.00     0.057 A 
ATOM     86  C   UNL A   1      38.864  34.201  37.901  1.00  0.00     0.134 A 
ATOM     87  C   UNL A   1      40.218  35.772  36.706  1.00  0.00     0.134 A 
ATOM     88  F   UNL A   1      38.224  33.025  38.002  1.00  0.00    -0.206 F 
ATOM     89  C   UNL A   1      38.791  35.078  38.985  1.00  0.00     0.040 A 
ATOM     90  C   UNL A   1      40.179  36.645  37.796  1.00  0.00     0.040 A 
ATOM     91  F   UNL A   1      40.937  36.138  35.634  1.00  0.00    -0.206 F 
ATOM     92  C   UNL A   1      39.460  36.299  38.937  1.00  0.00     0.006 A 
ENDBRANCH  68  85
ENDBRANCH  42  43
ENDBRANCH  35  37
ENDBRANCH  34  35
ENDBRANCH  33  34
ENDBRANCH  32  33
ENDBRANCH  31  32
ENDBRANCH  30  31
ENDBRANCH  29  30
ENDBRANCH   1  29
TORSDOF 23
ENDMDL
