MODEL 1
REMARK VINA RESULT:      -9.6      0.000      0.000
REMARK SMILES CC1(C)CSC[C@@H]([N@H+]2CCC[C@H](CCC(=O)OCCOCCOCCOCCOC(=O)c3ccc(-c4c5nc(c(-c6c(F)cccc6F)c6ccc([nH]6)c(-c6c(F)cccc6F)c6nc(c(-c7c(F)cccc7F)c7ccc4[nH]7)C=C6)C=C5)cc3)C2)C1
REMARK SMILES IDX 22 1 21 2 20 3 19 4 18 5 17 6 15 7 16 8 14 9 13 10 12 11
REMARK SMILES IDX 8 12 9 13 86 14 10 16 11 17 7 18 1 19 2 20 3 21 4 22 87 23
REMARK SMILES IDX 5 24 6 25 23 26 24 27 25 28 26 29 27 30 28 31 29 32 30 33
REMARK SMILES IDX 31 34 32 35 33 36 85 37 34 38 84 39 35 40 36 41 37 42 78 43
REMARK SMILES IDX 38 44 83 45 77 46 79 47 39 48 82 49 76 50 75 51 40 53 66 54
REMARK SMILES IDX 49 55 65 56 50 57 53 58 64 59 80 60 51 61 52 62 63 64 81 65
REMARK SMILES IDX 54 66 41 67 42 68 47 69 43 70 44 71 46 72 48 73 45 74 67 75
REMARK SMILES IDX 68 76 73 77 69 78 70 79 72 80 74 81 71 82 55 83 56 84 61 85
REMARK SMILES IDX 57 86 58 87 60 88 62 89 59 90
REMARK H PARENT 8 15 79 52 53 63
REMARK Flexibility Score: inf
ROOT
ATOM      1  C   UNL A   1      38.841  22.040  26.106  1.00  0.00     0.188 C 
ENDROOT
BRANCH   1   2
ATOM      2  C   UNL A   1      38.232  23.377  25.710  1.00  0.00     0.188 C 
BRANCH   2   3
ATOM      3  O   UNL A   1      37.137  23.899  26.443  1.00  0.00    -0.376 OA
BRANCH   3   4
ATOM      4  C   UNL A   1      35.811  23.758  25.952  1.00  0.00     0.202 C 
BRANCH   4   5
ATOM      5  C   UNL A   1      34.810  22.936  26.762  1.00  0.00     0.261 C 
BRANCH   5   6
ATOM      6  O   UNL A   1      35.010  21.509  26.669  1.00  0.00    -0.463 OA
BRANCH   6   7
ATOM      7  C   UNL A   1      34.822  20.977  25.442  1.00  0.00     0.305 C 
ATOM      8  O   UNL A   1      35.732  20.649  24.685  1.00  0.00    -0.252 OA
BRANCH   7   9
ATOM      9  C   UNL A   1      33.382  20.900  24.985  1.00  0.00     0.123 C 
BRANCH   9  10
ATOM     10  C   UNL A   1      32.815  21.666  23.795  1.00  0.00     0.021 C 
BRANCH  10  11
ATOM     11  C   UNL A   1      32.473  23.167  23.866  1.00  0.00     0.045 C 
ATOM     12  N   UNL A   1      31.111  25.104  23.091  1.00  0.00    -0.332 N 
ATOM     13  C   UNL A   1      31.972  25.356  21.952  1.00  0.00     0.262 C 
ATOM     14  C   UNL A   1      31.123  23.655  23.359  1.00  0.00     0.265 C 
ATOM     15  H   UNL A   1      30.158  25.366  22.839  1.00  0.00     0.348 HD
ATOM     16  C   UNL A   1      33.412  25.033  22.260  1.00  0.00     0.062 C 
ATOM     17  C   UNL A   1      33.640  24.023  23.385  1.00  0.00     0.015 C 
BRANCH  12  18
ATOM     18  C   UNL A   1      31.144  26.055  24.239  1.00  0.00     0.194 C 
ATOM     19  C   UNL A   1      33.608  28.679  23.174  1.00  0.00     0.012 C 
ATOM     20  C   UNL A   1      32.657  28.416  24.368  1.00  0.00    -0.021 C 
ATOM     21  C   UNL A   1      33.444  29.037  25.563  1.00  0.00     0.012 C 
ATOM     22  C   UNL A   1      31.377  29.256  24.190  1.00  0.00     0.076 C 
ATOM     23  C   UNL A   1      32.364  26.914  24.758  1.00  0.00     0.073 C 
ATOM     24  S   UNL A   1      30.027  28.449  23.298  1.00  0.00    -0.155 SA
ATOM     25  C   UNL A   1      29.874  26.931  24.264  1.00  0.00     0.134 C 
ENDBRANCH  12  18
ENDBRANCH  10  11
ENDBRANCH   9  10
ENDBRANCH   7   9
ENDBRANCH   6   7
ENDBRANCH   5   6
ENDBRANCH   4   5
ENDBRANCH   3   4
ENDBRANCH   2   3
ENDBRANCH   1   2
BRANCH   1  26
ATOM     26  O   UNL A   1      40.247  21.887  26.181  1.00  0.00    -0.377 OA
BRANCH  26  27
ATOM     27  C   UNL A   1      40.837  21.030  27.139  1.00  0.00     0.188 C 
BRANCH  27  28
ATOM     28  C   UNL A   1      41.478  19.734  26.652  1.00  0.00     0.188 C 
BRANCH  28  29
ATOM     29  O   UNL A   1      42.174  19.897  25.431  1.00  0.00    -0.376 OA
BRANCH  29  30
ATOM     30  C   UNL A   1      43.576  20.092  25.529  1.00  0.00     0.202 C 
BRANCH  30  31
ATOM     31  C   UNL A   1      44.144  21.506  25.313  1.00  0.00     0.261 C 
BRANCH  31  32
ATOM     32  O   UNL A   1      43.685  22.541  26.198  1.00  0.00    -0.460 OA
BRANCH  32  33
ATOM     33  C   UNL A   1      43.648  23.806  25.718  1.00  0.00     0.338 C 
ATOM     34  O   UNL A   1      43.922  24.177  24.598  1.00  0.00    -0.246 OA
BRANCH  33  35
ATOM     35  C   UNL A   1      43.262  24.701  26.833  1.00  0.00     0.060 A 
ATOM     36  C   UNL A   1      42.157  24.420  27.644  1.00  0.00     0.016 A 
ATOM     37  C   UNL A   1      44.018  25.849  27.063  1.00  0.00     0.016 A 
ATOM     38  C   UNL A   1      41.817  25.282  28.699  1.00  0.00     0.010 A 
ATOM     39  C   UNL A   1      43.698  26.689  28.137  1.00  0.00     0.010 A 
ATOM     40  C   UNL A   1      42.576  26.434  28.950  1.00  0.00    -0.014 A 
BRANCH  40  41
ATOM     41  C   UNL A   1      42.116  27.482  29.909  1.00  0.00     0.031 A 
ATOM     42  C   UNL A   1      42.767  27.528  31.269  1.00  0.00     0.074 A 
ATOM     43  C   UNL A   1      41.154  28.382  29.621  1.00  0.00     0.049 A 
ATOM     44  N   UNL A   1      42.459  28.243  32.320  1.00  0.00    -0.248 NA
ATOM     45  C   UNL A   1      43.926  26.640  31.466  1.00  0.00     0.031 C 
ATOM     46  C   UNL A   1      40.479  28.527  28.337  1.00  0.00     0.029 A 
ATOM     47  N   UNL A   1      40.550  29.332  30.419  1.00  0.00    -0.354 N 
ATOM     48  C   UNL A   1      43.388  27.898  33.292  1.00  0.00     0.074 A 
ATOM     49  C   UNL A   1      44.218  26.853  32.738  1.00  0.00     0.031 C 
ATOM     50  C   UNL A   1      39.518  29.462  28.446  1.00  0.00     0.029 A 
ATOM     51  C   UNL A   1      39.492  29.971  29.812  1.00  0.00     0.049 A 
ATOM     52  H   UNL A   1      40.849  29.534  31.335  1.00  0.00     0.167 HD
ATOM     53  C   UNL A   1      43.570  28.430  34.523  1.00  0.00     0.037 A 
ATOM     54  C   UNL A   1      38.586  30.840  30.308  1.00  0.00     0.037 A 
ATOM     55  C   UNL A   1      42.766  29.482  35.082  1.00  0.00     0.049 A 
ATOM     56  C   UNL A   1      38.716  31.316  31.732  1.00  0.00     0.074 A 
ATOM     57  C   UNL A   1      42.890  30.094  36.316  1.00  0.00     0.029 A 
ATOM     58  N   UNL A   1      41.688  30.077  34.446  1.00  0.00    -0.354 N 
ATOM     59  N   UNL A   1      39.619  31.005  32.630  1.00  0.00    -0.248 NA
ATOM     60  C   UNL A   1      37.719  32.291  32.203  1.00  0.00     0.031 C 
ATOM     61  C   UNL A   1      41.856  31.025  36.448  1.00  0.00     0.029 A 
ATOM     62  C   UNL A   1      41.124  31.033  35.273  1.00  0.00     0.049 A 
ATOM     63  H   UNL A   1      41.371  29.852  33.541  1.00  0.00     0.167 HD
ATOM     64  C   UNL A   1      39.335  31.789  33.743  1.00  0.00     0.074 A 
ATOM     65  C   UNL A   1      38.177  32.587  33.411  1.00  0.00     0.031 C 
ATOM     66  C   UNL A   1      39.989  31.848  34.929  1.00  0.00     0.037 A 
BRANCH  53  67
ATOM     67  C   UNL A   1      44.698  27.884  35.346  1.00  0.00     0.057 A 
ATOM     68  C   UNL A   1      44.520  26.794  36.209  1.00  0.00     0.134 A 
ATOM     69  C   UNL A   1      45.982  28.433  35.252  1.00  0.00     0.134 A 
ATOM     70  F   UNL A   1      43.309  26.236  36.359  1.00  0.00    -0.206 F 
ATOM     71  C   UNL A   1      45.574  26.284  36.965  1.00  0.00     0.040 A 
ATOM     72  C   UNL A   1      47.052  27.912  35.980  1.00  0.00     0.040 A 
ATOM     73  F   UNL A   1      46.220  29.477  34.444  1.00  0.00    -0.206 F 
ATOM     74  C   UNL A   1      46.847  26.837  36.844  1.00  0.00     0.006 A 
ENDBRANCH  53  67
BRANCH  54  75
ATOM     75  C   UNL A   1      37.460  31.335  29.470  1.00  0.00     0.057 A 
ATOM     76  C   UNL A   1      37.487  32.612  28.894  1.00  0.00     0.134 A 
ATOM     77  C   UNL A   1      36.289  30.584  29.305  1.00  0.00     0.134 A 
ATOM     78  F   UNL A   1      38.563  33.398  29.050  1.00  0.00    -0.206 F 
ATOM     79  C   UNL A   1      36.384  33.136  28.216  1.00  0.00     0.040 A 
ATOM     80  C   UNL A   1      35.189  31.085  28.602  1.00  0.00     0.040 A 
ATOM     81  F   UNL A   1      36.182  29.365  29.855  1.00  0.00    -0.206 F 
ATOM     82  C   UNL A   1      35.231  32.370  28.066  1.00  0.00     0.006 A 
ENDBRANCH  54  75
BRANCH  66  83
ATOM     83  C   UNL A   1      39.519  32.859  35.935  1.00  0.00     0.057 A 
ATOM     84  C   UNL A   1      38.570  32.551  36.917  1.00  0.00     0.134 A 
ATOM     85  C   UNL A   1      40.064  34.151  35.947  1.00  0.00     0.134 A 
ATOM     86  F   UNL A   1      38.000  31.337  36.956  1.00  0.00    -0.206 F 
ATOM     87  C   UNL A   1      38.161  33.498  37.858  1.00  0.00     0.040 A 
ATOM     88  C   UNL A   1      39.687  35.095  36.902  1.00  0.00     0.040 A 
ATOM     89  F   UNL A   1      40.986  34.510  35.041  1.00  0.00    -0.206 F 
ATOM     90  C   UNL A   1      38.727  34.772  37.857  1.00  0.00     0.006 A 
ENDBRANCH  66  83
ENDBRANCH  40  41
ENDBRANCH  33  35
ENDBRANCH  32  33
ENDBRANCH  31  32
ENDBRANCH  30  31
ENDBRANCH  29  30
ENDBRANCH  28  29
ENDBRANCH  27  28
ENDBRANCH  26  27
ENDBRANCH   1  26
TORSDOF 23
ENDMDL
MODEL 2
REMARK VINA RESULT:      -9.5      0.445      5.965
REMARK SMILES CC1(C)CSC[C@@H]([N@H+]2CCC[C@H](CCC(=O)OCCOCCOCCOCCOC(=O)c3ccc(-c4c5nc(c(-c6c(F)cccc6F)c6ccc([nH]6)c(-c6c(F)cccc6F)c6nc(c(-c7c(F)cccc7F)c7ccc4[nH]7)C=C6)C=C5)cc3)C2)C1
REMARK SMILES IDX 22 1 21 2 20 3 19 4 18 5 17 6 15 7 16 8 14 9 13 10 12 11
REMARK SMILES IDX 8 12 9 13 86 14 10 16 11 17 7 18 1 19 2 20 3 21 4 22 87 23
REMARK SMILES IDX 5 24 6 25 23 26 24 27 25 28 26 29 27 30 28 31 29 32 30 33
REMARK SMILES IDX 31 34 32 35 33 36 85 37 34 38 84 39 35 40 36 41 37 42 78 43
REMARK SMILES IDX 38 44 83 45 77 46 79 47 39 48 82 49 76 50 75 51 40 53 66 54
REMARK SMILES IDX 49 55 65 56 50 57 53 58 64 59 80 60 51 61 52 62 63 64 81 65
REMARK SMILES IDX 54 66 41 67 42 68 47 69 43 70 44 71 46 72 48 73 45 74 67 75
REMARK SMILES IDX 68 76 73 77 69 78 70 79 72 80 74 81 71 82 55 83 56 84 61 85
REMARK SMILES IDX 57 86 58 87 60 88 62 89 59 90
REMARK H PARENT 8 15 79 52 53 63
REMARK Flexibility Score: inf
ROOT
ATOM      1  C   UNL A   1      39.026  22.299  26.253  1.00  0.00     0.188 C 
ENDROOT
BRANCH   1   2
ATOM      2  C   UNL A   1      38.499  23.704  25.997  1.00  0.00     0.188 C 
BRANCH   2   3
ATOM      3  O   UNL A   1      37.228  24.082  26.496  1.00  0.00    -0.376 OA
BRANCH   3   4
ATOM      4  C   UNL A   1      36.043  23.670  25.828  1.00  0.00     0.202 C 
BRANCH   4   5
ATOM      5  C   UNL A   1      34.967  22.937  26.625  1.00  0.00     0.261 C 
BRANCH   5   6
ATOM      6  O   UNL A   1      35.061  21.497  26.552  1.00  0.00    -0.463 OA
BRANCH   6   7
ATOM      7  C   UNL A   1      34.924  20.970  25.316  1.00  0.00     0.305 C 
ATOM      8  O   UNL A   1      35.854  20.521  24.652  1.00  0.00    -0.252 OA
BRANCH   7   9
ATOM      9  C   UNL A   1      33.535  21.062  24.724  1.00  0.00     0.123 C 
BRANCH   9  10
ATOM     10  C   UNL A   1      33.166  21.925  23.524  1.00  0.00     0.021 C 
BRANCH  10  11
ATOM     11  C   UNL A   1      32.714  23.391  23.669  1.00  0.00     0.045 C 
ATOM     12  N   UNL A   1      31.134  25.226  23.079  1.00  0.00    -0.332 N 
ATOM     13  C   UNL A   1      31.861  25.572  21.872  1.00  0.00     0.262 C 
ATOM     14  C   UNL A   1      31.287  23.777  23.303  1.00  0.00     0.265 C 
ATOM     15  H   UNL A   1      30.144  25.414  22.924  1.00  0.00     0.348 HD
ATOM     16  C   UNL A   1      33.344  25.362  22.036  1.00  0.00     0.062 C 
ATOM     17  C   UNL A   1      33.758  24.350  23.106  1.00  0.00     0.015 C 
BRANCH  12  18
ATOM     18  C   UNL A   1      31.200  26.153  24.245  1.00  0.00     0.194 C 
ATOM     19  C   UNL A   1      33.958  28.538  23.356  1.00  0.00     0.012 C 
ATOM     20  C   UNL A   1      32.925  28.352  24.496  1.00  0.00    -0.021 C 
ATOM     21  C   UNL A   1      33.707  28.876  25.741  1.00  0.00     0.012 C 
ATOM     22  C   UNL A   1      31.744  29.316  24.271  1.00  0.00     0.076 C 
ATOM     23  C   UNL A   1      32.469  26.880  24.841  1.00  0.00     0.073 C 
ATOM     24  S   UNL A   1      30.369  28.657  23.297  1.00  0.00    -0.155 SA
ATOM     25  C   UNL A   1      30.022  27.148  24.224  1.00  0.00     0.134 C 
ENDBRANCH  12  18
ENDBRANCH  10  11
ENDBRANCH   9  10
ENDBRANCH   7   9
ENDBRANCH   6   7
ENDBRANCH   5   6
ENDBRANCH   4   5
ENDBRANCH   3   4
ENDBRANCH   2   3
ENDBRANCH   1   2
BRANCH   1  26
ATOM     26  O   UNL A   1      40.412  22.077  26.443  1.00  0.00    -0.377 OA
BRANCH  26  27
ATOM     27  C   UNL A   1      40.874  21.024  27.267  1.00  0.00     0.188 C 
BRANCH  27  28
ATOM     28  C   UNL A   1      41.885  20.041  26.684  1.00  0.00     0.188 C 
BRANCH  28  29
ATOM     29  O   UNL A   1      42.403  20.468  25.439  1.00  0.00    -0.376 OA
BRANCH  29  30
ATOM     30  C   UNL A   1      43.803  20.696  25.388  1.00  0.00     0.202 C 
BRANCH  30  31
ATOM     31  C   UNL A   1      44.311  22.121  25.110  1.00  0.00     0.261 C 
BRANCH  31  32
ATOM     32  O   UNL A   1      43.850  23.166  25.983  1.00  0.00    -0.460 OA
BRANCH  32  33
ATOM     33  C   UNL A   1      44.075  24.446  25.603  1.00  0.00     0.338 C 
ATOM     34  O   UNL A   1      44.658  24.829  24.613  1.00  0.00    -0.246 OA
BRANCH  33  35
ATOM     35  C   UNL A   1      43.528  25.332  26.657  1.00  0.00     0.060 A 
ATOM     36  C   UNL A   1      44.110  26.571  26.943  1.00  0.00     0.016 A 
ATOM     37  C   UNL A   1      42.412  24.906  27.376  1.00  0.00     0.016 A 
ATOM     38  C   UNL A   1      43.567  27.394  27.941  1.00  0.00     0.010 A 
ATOM     39  C   UNL A   1      41.850  25.743  28.348  1.00  0.00     0.010 A 
ATOM     40  C   UNL A   1      42.438  26.984  28.665  1.00  0.00    -0.014 A 
BRANCH  40  41
ATOM     41  C   UNL A   1      41.972  27.724  29.877  1.00  0.00     0.031 A 
ATOM     42  C   UNL A   1      40.796  28.654  29.726  1.00  0.00     0.074 A 
ATOM     43  C   UNL A   1      42.549  27.600  31.089  1.00  0.00     0.049 A 
ATOM     44  N   UNL A   1      40.288  29.506  30.579  1.00  0.00    -0.248 NA
ATOM     45  C   UNL A   1      40.099  28.618  28.428  1.00  0.00     0.031 C 
ATOM     46  C   UNL A   1      43.639  26.694  31.426  1.00  0.00     0.029 A 
ATOM     47  N   UNL A   1      42.311  28.280  32.266  1.00  0.00    -0.354 N 
ATOM     48  C   UNL A   1      39.213  30.094  29.926  1.00  0.00     0.074 A 
ATOM     49  C   UNL A   1      39.191  29.566  28.580  1.00  0.00     0.031 C 
ATOM     50  C   UNL A   1      44.017  26.910  32.700  1.00  0.00     0.029 A 
ATOM     51  C   UNL A   1      43.210  27.985  33.266  1.00  0.00     0.049 A 
ATOM     52  H   UNL A   1      41.568  28.916  32.380  1.00  0.00     0.167 HD
ATOM     53  C   UNL A   1      38.295  30.962  30.409  1.00  0.00     0.037 A 
ATOM     54  C   UNL A   1      43.386  28.538  34.485  1.00  0.00     0.037 A 
ATOM     55  C   UNL A   1      38.292  31.482  31.748  1.00  0.00     0.049 A 
ATOM     56  C   UNL A   1      42.440  29.612  34.955  1.00  0.00     0.074 A 
ATOM     57  C   UNL A   1      37.389  32.354  32.329  1.00  0.00     0.029 A 
ATOM     58  N   UNL A   1      39.236  31.180  32.716  1.00  0.00    -0.354 N 
ATOM     59  N   UNL A   1      41.408  30.136  34.339  1.00  0.00    -0.248 NA
ATOM     60  C   UNL A   1      42.661  30.151  36.308  1.00  0.00     0.031 C 
ATOM     61  C   UNL A   1      37.814  32.620  33.633  1.00  0.00     0.029 A 
ATOM     62  C   UNL A   1      38.950  31.869  33.883  1.00  0.00     0.049 A 
ATOM     63  H   UNL A   1      39.998  30.568  32.591  1.00  0.00     0.167 HD
ATOM     64  C   UNL A   1      40.826  31.013  35.247  1.00  0.00     0.074 A 
ATOM     65  C   UNL A   1      41.619  30.956  36.455  1.00  0.00     0.031 C 
ATOM     66  C   UNL A   1      39.724  31.787  35.094  1.00  0.00     0.037 A 
BRANCH  53  67
ATOM     67  C   UNL A   1      37.203  31.395  29.476  1.00  0.00     0.057 A 
ATOM     68  C   UNL A   1      37.221  32.651  28.855  1.00  0.00     0.134 A 
ATOM     69  C   UNL A   1      36.140  30.537  29.172  1.00  0.00     0.134 A 
ATOM     70  F   UNL A   1      38.203  33.528  29.120  1.00  0.00    -0.206 F 
ATOM     71  C   UNL A   1      36.210  33.046  27.981  1.00  0.00     0.040 A 
ATOM     72  C   UNL A   1      35.138  30.909  28.275  1.00  0.00     0.040 A 
ATOM     73  F   UNL A   1      36.064  29.321  29.732  1.00  0.00    -0.206 F 
ATOM     74  C   UNL A   1      35.169  32.169  27.681  1.00  0.00     0.006 A 
ENDBRANCH  53  67
BRANCH  54  75
ATOM     75  C   UNL A   1      44.502  28.105  35.370  1.00  0.00     0.057 A 
ATOM     76  C   UNL A   1      45.776  28.677  35.267  1.00  0.00     0.134 A 
ATOM     77  C   UNL A   1      44.348  27.043  36.270  1.00  0.00     0.134 A 
ATOM     78  F   UNL A   1      46.000  29.670  34.394  1.00  0.00    -0.206 F 
ATOM     79  C   UNL A   1      46.862  28.190  36.000  1.00  0.00     0.040 A 
ATOM     80  C   UNL A   1      45.419  26.567  37.033  1.00  0.00     0.040 A 
ATOM     81  F   UNL A   1      43.163  26.428  36.398  1.00  0.00    -0.206 F 
ATOM     82  C   UNL A   1      46.684  27.133  36.888  1.00  0.00     0.006 A 
ENDBRANCH  54  75
BRANCH  66  83
ATOM     83  C   UNL A   1      39.258  32.581  36.280  1.00  0.00     0.057 A 
ATOM     84  C   UNL A   1      38.334  32.076  37.202  1.00  0.00     0.134 A 
ATOM     85  C   UNL A   1      39.783  33.858  36.527  1.00  0.00     0.134 A 
ATOM     86  F   UNL A   1      37.784  30.865  37.021  1.00  0.00    -0.206 F 
ATOM     87  C   UNL A   1      37.928  32.821  38.311  1.00  0.00     0.040 A 
ATOM     88  C   UNL A   1      39.411  34.598  37.649  1.00  0.00     0.040 A 
ATOM     89  F   UNL A   1      40.682  34.399  35.689  1.00  0.00    -0.206 F 
ATOM     90  C   UNL A   1      38.475  34.082  38.541  1.00  0.00     0.006 A 
ENDBRANCH  66  83
ENDBRANCH  40  41
ENDBRANCH  33  35
ENDBRANCH  32  33
ENDBRANCH  31  32
ENDBRANCH  30  31
ENDBRANCH  29  30
ENDBRANCH  28  29
ENDBRANCH  27  28
ENDBRANCH  26  27
ENDBRANCH   1  26
TORSDOF 23
ENDMDL
MODEL 3
REMARK VINA RESULT:      -9.2      1.625      6.298
REMARK SMILES CC1(C)CSC[C@@H]([N@H+]2CCC[C@H](CCC(=O)OCCOCCOCCOCCOC(=O)c3ccc(-c4c5nc(c(-c6c(F)cccc6F)c6ccc([nH]6)c(-c6c(F)cccc6F)c6nc(c(-c7c(F)cccc7F)c7ccc4[nH]7)C=C6)C=C5)cc3)C2)C1
REMARK SMILES IDX 22 1 21 2 20 3 19 4 18 5 17 6 15 7 16 8 14 9 13 10 12 11
REMARK SMILES IDX 8 12 9 13 86 14 10 16 11 17 7 18 1 19 2 20 3 21 4 22 87 23
REMARK SMILES IDX 5 24 6 25 23 26 24 27 25 28 26 29 27 30 28 31 29 32 30 33
REMARK SMILES IDX 31 34 32 35 33 36 85 37 34 38 84 39 35 40 36 41 37 42 78 43
REMARK SMILES IDX 38 44 83 45 77 46 79 47 39 48 82 49 76 50 75 51 40 53 66 54
REMARK SMILES IDX 49 55 65 56 50 57 53 58 64 59 80 60 51 61 52 62 63 64 81 65
REMARK SMILES IDX 54 66 41 67 42 68 47 69 43 70 44 71 46 72 48 73 45 74 67 75
REMARK SMILES IDX 68 76 73 77 69 78 70 79 72 80 74 81 71 82 55 83 56 84 61 85
REMARK SMILES IDX 57 86 58 87 60 88 62 89 59 90
REMARK H PARENT 8 15 79 52 53 63
REMARK Flexibility Score: inf
ROOT
ATOM      1  C   UNL A   1      38.939  21.331  25.756  1.00  0.00     0.188 C 
ENDROOT
BRANCH   1   2
ATOM      2  C   UNL A   1      37.758  22.131  25.226  1.00  0.00     0.188 C 
BRANCH   2   3
ATOM      3  O   UNL A   1      36.759  22.591  26.121  1.00  0.00    -0.376 OA
BRANCH   3   4
ATOM      4  C   UNL A   1      35.420  22.757  25.677  1.00  0.00     0.202 C 
BRANCH   4   5
ATOM      5  C   UNL A   1      34.571  21.515  25.418  1.00  0.00     0.261 C 
BRANCH   5   6
ATOM      6  O   UNL A   1      34.139  21.374  24.047  1.00  0.00    -0.463 OA
BRANCH   6   7
ATOM      7  C   UNL A   1      32.811  21.198  23.873  1.00  0.00     0.305 C 
ATOM      8  O   UNL A   1      32.251  21.217  22.780  1.00  0.00    -0.252 OA
BRANCH   7   9
ATOM      9  C   UNL A   1      32.003  21.077  25.146  1.00  0.00     0.123 C 
BRANCH   9  10
ATOM     10  C   UNL A   1      31.117  22.182  25.710  1.00  0.00     0.021 C 
BRANCH  10  11
ATOM     11  C   UNL A   1      31.487  23.674  25.602  1.00  0.00     0.045 C 
ATOM     12  N   UNL A   1      31.300  26.007  26.458  1.00  0.00    -0.332 N 
ATOM     13  C   UNL A   1      30.071  26.260  25.731  1.00  0.00     0.262 C 
ATOM     14  C   UNL A   1      31.330  24.577  26.817  1.00  0.00     0.265 C 
ATOM     15  H   UNL A   1      31.278  26.544  27.324  1.00  0.00     0.348 HD
ATOM     16  C   UNL A   1      30.045  25.531  24.412  1.00  0.00     0.062 C 
ATOM     17  C   UNL A   1      30.933  24.289  24.321  1.00  0.00     0.015 C 
BRANCH  12  18
ATOM     18  C   UNL A   1      32.556  26.666  25.996  1.00  0.00     0.194 C 
ATOM     19  C   UNL A   1      31.488  28.655  22.998  1.00  0.00     0.012 C 
ATOM     20  C   UNL A   1      32.775  28.438  23.832  1.00  0.00    -0.021 C 
ATOM     21  C   UNL A   1      33.895  28.567  22.752  1.00  0.00     0.012 C 
ATOM     22  C   UNL A   1      32.953  29.619  24.805  1.00  0.00     0.076 C 
ATOM     23  C   UNL A   1      32.978  27.031  24.519  1.00  0.00     0.073 C 
ATOM     24  S   UNL A   1      32.199  29.412  26.436  1.00  0.00    -0.155 SA
ATOM     25  C   UNL A   1      32.935  27.837  26.925  1.00  0.00     0.134 C 
ENDBRANCH  12  18
ENDBRANCH  10  11
ENDBRANCH   9  10
ENDBRANCH   7   9
ENDBRANCH   6   7
ENDBRANCH   5   6
ENDBRANCH   4   5
ENDBRANCH   3   4
ENDBRANCH   2   3
ENDBRANCH   1   2
BRANCH   1  26
ATOM     26  O   UNL A   1      40.074  21.993  26.286  1.00  0.00    -0.377 OA
BRANCH  26  27
ATOM     27  C   UNL A   1      40.918  21.354  27.223  1.00  0.00     0.188 C 
BRANCH  27  28
ATOM     28  C   UNL A   1      42.319  20.948  26.775  1.00  0.00     0.188 C 
BRANCH  28  29
ATOM     29  O   UNL A   1      42.620  21.389  25.465  1.00  0.00    -0.376 OA
BRANCH  29  30
ATOM     30  C   UNL A   1      43.549  22.456  25.360  1.00  0.00     0.202 C 
BRANCH  30  31
ATOM     31  C   UNL A   1      43.017  23.876  25.094  1.00  0.00     0.261 C 
BRANCH  31  32
ATOM     32  O   UNL A   1      42.358  24.546  26.181  1.00  0.00    -0.460 OA
BRANCH  32  33
ATOM     33  C   UNL A   1      41.833  25.769  25.938  1.00  0.00     0.338 C 
ATOM     34  O   UNL A   1      41.591  26.266  24.859  1.00  0.00    -0.246 OA
BRANCH  33  35
ATOM     35  C   UNL A   1      41.649  26.449  27.241  1.00  0.00     0.060 A 
ATOM     36  C   UNL A   1      40.654  26.047  28.139  1.00  0.00     0.016 A 
ATOM     37  C   UNL A   1      42.486  27.515  27.564  1.00  0.00     0.016 A 
ATOM     38  C   UNL A   1      40.506  26.704  29.371  1.00  0.00     0.010 A 
ATOM     39  C   UNL A   1      42.359  28.147  28.808  1.00  0.00     0.010 A 
ATOM     40  C   UNL A   1      41.348  27.770  29.714  1.00  0.00    -0.014 A 
BRANCH  40  41
ATOM     41  C   UNL A   1      41.078  28.632  30.905  1.00  0.00     0.031 A 
ATOM     42  C   UNL A   1      40.012  29.691  30.780  1.00  0.00     0.074 A 
ATOM     43  C   UNL A   1      41.735  28.508  32.075  1.00  0.00     0.049 A 
ATOM     44  N   UNL A   1      39.683  30.648  31.610  1.00  0.00    -0.248 NA
ATOM     45  C   UNL A   1      39.210  29.666  29.545  1.00  0.00     0.031 C 
ATOM     46  C   UNL A   1      42.734  27.494  32.389  1.00  0.00     0.029 A 
ATOM     47  N   UNL A   1      41.680  29.280  33.217  1.00  0.00    -0.354 N 
ATOM     48  C   UNL A   1      38.636  31.326  31.002  1.00  0.00     0.074 A 
ATOM     49  C   UNL A   1      38.438  30.728  29.701  1.00  0.00     0.031 C 
ATOM     50  C   UNL A   1      43.240  27.735  33.613  1.00  0.00     0.029 A 
ATOM     51  C   UNL A   1      42.618  28.934  34.164  1.00  0.00     0.049 A 
ATOM     52  H   UNL A   1      41.030  30.009  33.343  1.00  0.00     0.167 HD
ATOM     53  C   UNL A   1      37.872  32.329  31.492  1.00  0.00     0.037 A 
ATOM     54  C   UNL A   1      42.961  29.531  35.325  1.00  0.00     0.037 A 
ATOM     55  C   UNL A   1      38.044  32.922  32.790  1.00  0.00     0.049 A 
ATOM     56  C   UNL A   1      42.192  30.741  35.792  1.00  0.00     0.074 A 
ATOM     57  C   UNL A   1      37.303  33.933  33.377  1.00  0.00     0.029 A 
ATOM     58  N   UNL A   1      39.023  32.562  33.701  1.00  0.00    -0.354 N 
ATOM     59  N   UNL A   1      41.183  31.352  35.221  1.00  0.00    -0.248 NA
ATOM     60  C   UNL A   1      42.590  31.326  37.083  1.00  0.00     0.031 C 
ATOM     61  C   UNL A   1      37.866  34.220  34.623  1.00  0.00     0.029 A 
ATOM     62  C   UNL A   1      38.920  33.348  34.836  1.00  0.00     0.049 A 
ATOM     63  H   UNL A   1      39.693  31.854  33.561  1.00  0.00     0.167 HD
ATOM     64  C   UNL A   1      40.788  32.347  36.109  1.00  0.00     0.074 A 
ATOM     65  C   UNL A   1      41.667  32.261  37.254  1.00  0.00     0.031 C 
ATOM     66  C   UNL A   1      39.778  33.241  35.988  1.00  0.00     0.037 A 
BRANCH  53  67
ATOM     67  C   UNL A   1      36.765  32.839  30.618  1.00  0.00     0.057 A 
ATOM     68  C   UNL A   1      37.011  33.734  29.568  1.00  0.00     0.134 A 
ATOM     69  C   UNL A   1      35.448  32.409  30.808  1.00  0.00     0.134 A 
ATOM     70  F   UNL A   1      38.250  34.200  29.346  1.00  0.00    -0.206 F 
ATOM     71  C   UNL A   1      35.982  34.199  28.751  1.00  0.00     0.040 A 
ATOM     72  C   UNL A   1      34.413  32.843  29.978  1.00  0.00     0.040 A 
ATOM     73  F   UNL A   1      35.145  31.553  31.795  1.00  0.00    -0.206 F 
ATOM     74  C   UNL A   1      34.679  33.745  28.949  1.00  0.00     0.006 A 
ENDBRANCH  53  67
BRANCH  54  75
ATOM     75  C   UNL A   1      44.087  29.014  36.150  1.00  0.00     0.057 A 
ATOM     76  C   UNL A   1      45.382  29.533  36.020  1.00  0.00     0.134 A 
ATOM     77  C   UNL A   1      43.917  27.926  37.015  1.00  0.00     0.134 A 
ATOM     78  F   UNL A   1      45.618  30.548  35.177  1.00  0.00    -0.206 F 
ATOM     79  C   UNL A   1      46.470  28.970  36.692  1.00  0.00     0.040 A 
ATOM     80  C   UNL A   1      44.992  27.374  37.718  1.00  0.00     0.040 A 
ATOM     81  F   UNL A   1      42.711  27.360  37.165  1.00  0.00    -0.206 F 
ATOM     82  C   UNL A   1      46.276  27.888  37.547  1.00  0.00     0.006 A 
ENDBRANCH  54  75
BRANCH  66  83
ATOM     83  C   UNL A   1      39.512  34.156  37.149  1.00  0.00     0.057 A 
ATOM     84  C   UNL A   1      38.767  33.752  38.263  1.00  0.00     0.134 A 
ATOM     85  C   UNL A   1      40.053  35.449  37.170  1.00  0.00     0.134 A 
ATOM     86  F   UNL A   1      38.211  32.531  38.304  1.00  0.00    -0.206 F 
ATOM     87  C   UNL A   1      38.548  34.609  39.344  1.00  0.00     0.040 A 
ATOM     88  C   UNL A   1      39.869  36.302  38.257  1.00  0.00     0.040 A 
ATOM     89  F   UNL A   1      40.787  35.897  36.139  1.00  0.00    -0.206 F 
ATOM     90  C   UNL A   1      39.108  35.885  39.346  1.00  0.00     0.006 A 
ENDBRANCH  66  83
ENDBRANCH  40  41
ENDBRANCH  33  35
ENDBRANCH  32  33
ENDBRANCH  31  32
ENDBRANCH  30  31
ENDBRANCH  29  30
ENDBRANCH  28  29
ENDBRANCH  27  28
ENDBRANCH  26  27
ENDBRANCH   1  26
TORSDOF 23
ENDMDL
