MODEL 1
REMARK VINA RESULT:     -10.7      0.000      0.000
REMARK SMILES C[C@@H](NC(=O)/C(=C/c1ccc(Cl)cc1)NC(=O)c1ccc(C(C)(C)C)cc1)C(=O)OCCOCCOCCOCCOC(=O)c1ccc(-c2c3nc(c(-c4c(F)cccc4F)c4ccc([nH]4)c(-c4c(F)cccc4F)c4nc(c(-c5c(F)cccc5F)c5ccc2[nH]5)C=C4)C=C3)cc1
REMARK SMILES IDX 34 1 33 2 32 3 31 4 30 5 28 6 29 7 2 8 1 9 3 10 4 11 5 13
REMARK SMILES IDX 6 14 7 15 15 16 16 17 17 19 18 20 19 21 27 22 20 23 26 24
REMARK SMILES IDX 21 25 22 26 23 27 24 28 25 29 8 30 9 31 14 32 10 33 13 34
REMARK SMILES IDX 11 35 12 36 35 37 36 38 37 39 38 40 39 41 40 42 41 43 42 44
REMARK SMILES IDX 43 45 44 46 45 47 46 48 98 49 47 50 97 51 48 52 49 53 50 54
REMARK SMILES IDX 91 55 51 56 96 57 90 58 92 59 52 60 95 61 89 62 88 63 53 65
REMARK SMILES IDX 79 66 62 67 78 68 63 69 66 70 77 71 93 72 64 73 65 74 76 76
REMARK SMILES IDX 94 77 67 78 54 79 55 80 60 81 56 82 57 83 59 84 61 85 58 86
REMARK SMILES IDX 80 87 81 88 86 89 82 90 83 91 85 92 87 93 84 94 68 95 69 96
REMARK SMILES IDX 74 97 70 98 71 99 73 100 75 101 72 102
REMARK H PARENT 3 12 15 18 92 64 66 75
REMARK Flexibility Score: inf
ROOT
ATOM      1  C   UNL A   1      33.049  30.404  27.009  1.00  0.00     0.188 C 
ENDROOT
BRANCH   1   2
ATOM      2  O   UNL A   1      33.282  29.030  26.820  1.00  0.00    -0.376 OA
BRANCH   2   3
ATOM      3  C   UNL A   1      32.374  27.981  27.032  1.00  0.00     0.202 C 
BRANCH   3   4
ATOM      4  C   UNL A   1      32.347  26.544  26.500  1.00  0.00     0.261 C 
BRANCH   4   5
ATOM      5  O   UNL A   1      31.317  25.618  26.795  1.00  0.00    -0.462 OA
BRANCH   5   6
ATOM      6  C   UNL A   1      31.620  24.313  26.909  1.00  0.00     0.328 C 
ATOM      7  O   UNL A   1      32.002  23.746  27.920  1.00  0.00    -0.250 OA
BRANCH   6   8
ATOM      8  C   UNL A   1      31.688  23.652  25.562  1.00  0.00     0.189 C 
ATOM      9  C   UNL A   1      31.973  22.150  25.700  1.00  0.00     0.043 C 
BRANCH   8  10
ATOM     10  N   UNL A   1      30.431  23.984  24.861  1.00  0.00    -0.338 N 
ATOM     11  C   UNL A   1      30.355  24.158  23.484  1.00  0.00     0.268 C 
ATOM     12  H   UNL A   1      29.611  24.087  25.394  1.00  0.00     0.164 HD
ATOM     13  O   UNL A   1      30.005  23.226  22.766  1.00  0.00    -0.268 OA
BRANCH  11  14
ATOM     14  C   UNL A   1      30.557  25.565  22.915  1.00  0.00     0.107 C 
ATOM     15  C   UNL A   1      29.907  26.585  23.525  1.00  0.00     0.040 C 
BRANCH  14  16
ATOM     16  N   UNL A   1      31.438  25.829  21.892  1.00  0.00    -0.317 N 
ATOM     17  C   UNL A   1      32.752  25.562  21.637  1.00  0.00     0.255 C 
ATOM     18  H   UNL A   1      31.016  26.335  21.161  1.00  0.00     0.170 HD
ATOM     19  O   UNL A   1      33.273  25.978  20.606  1.00  0.00    -0.269 OA
BRANCH  17  20
ATOM     20  C   UNL A   1      33.569  24.844  22.601  1.00  0.00     0.040 A 
ATOM     21  C   UNL A   1      33.732  23.474  22.428  1.00  0.00     0.014 A 
ATOM     22  C   UNL A   1      34.166  25.524  23.656  1.00  0.00     0.014 A 
ATOM     23  C   UNL A   1      34.583  22.789  23.284  1.00  0.00     0.005 A 
ATOM     24  C   UNL A   1      35.035  24.830  24.498  1.00  0.00     0.005 A 
ATOM     25  C   UNL A   1      35.288  23.458  24.307  1.00  0.00    -0.043 A 
BRANCH  25  26
ATOM     26  C   UNL A   1      36.272  22.673  25.185  1.00  0.00    -0.013 C 
ATOM     27  C   UNL A   1      35.463  21.688  26.048  1.00  0.00     0.016 C 
ATOM     28  C   UNL A   1      37.278  21.891  24.307  1.00  0.00     0.016 C 
ATOM     29  C   UNL A   1      37.110  23.570  26.122  1.00  0.00     0.016 C 
ENDBRANCH  25  26
ENDBRANCH  17  20
ENDBRANCH  14  16
BRANCH  15  30
ATOM     30  C   UNL A   1      29.645  28.013  23.133  1.00  0.00    -0.023 A 
ATOM     31  C   UNL A   1      30.575  28.889  22.534  1.00  0.00     0.010 A 
ATOM     32  C   UNL A   1      28.293  28.428  23.113  1.00  0.00     0.010 A 
ATOM     33  C   UNL A   1      30.181  30.103  21.944  1.00  0.00     0.021 A 
ATOM     34  C   UNL A   1      27.892  29.627  22.495  1.00  0.00     0.021 A 
ATOM     35  C   UNL A   1      28.839  30.457  21.907  1.00  0.00     0.041 A 
ATOM     36  Cl  UNL A   1      28.350  31.866  21.050  1.00  0.00    -0.084 Cl
ENDBRANCH  15  30
ENDBRANCH  11  14
ENDBRANCH   8  10
ENDBRANCH   6   8
ENDBRANCH   5   6
ENDBRANCH   4   5
ENDBRANCH   3   4
ENDBRANCH   2   3
ENDBRANCH   1   2
BRANCH   1  37
ATOM     37  C   UNL A   1      33.960  31.155  27.982  1.00  0.00     0.188 C 
BRANCH  37  38
ATOM     38  O   UNL A   1      34.224  32.517  27.689  1.00  0.00    -0.377 OA
BRANCH  38  39
ATOM     39  C   UNL A   1      33.265  33.521  28.002  1.00  0.00     0.188 C 
BRANCH  39  40
ATOM     40  C   UNL A   1      33.681  34.843  28.677  1.00  0.00     0.188 C 
BRANCH  40  41
ATOM     41  O   UNL A   1      33.120  35.035  29.959  1.00  0.00    -0.376 OA
BRANCH  41  42
ATOM     42  C   UNL A   1      33.970  35.018  31.089  1.00  0.00     0.202 C 
BRANCH  42  43
ATOM     43  C   UNL A   1      34.298  33.664  31.740  1.00  0.00     0.261 C 
BRANCH  43  44
ATOM     44  O   UNL A   1      35.349  32.869  31.153  1.00  0.00    -0.460 OA
BRANCH  44  45
ATOM     45  C   UNL A   1      36.638  33.172  31.404  1.00  0.00     0.338 C 
ATOM     46  O   UNL A   1      37.050  34.082  32.108  1.00  0.00    -0.246 OA
BRANCH  45  47
ATOM     47  C   UNL A   1      37.490  32.066  30.888  1.00  0.00     0.060 A 
ATOM     48  C   UNL A   1      38.243  31.309  31.800  1.00  0.00     0.016 A 
ATOM     49  C   UNL A   1      37.545  31.763  29.524  1.00  0.00     0.016 A 
ATOM     50  C   UNL A   1      39.117  30.318  31.348  1.00  0.00     0.010 A 
ATOM     51  C   UNL A   1      38.445  30.791  29.067  1.00  0.00     0.010 A 
ATOM     52  C   UNL A   1      39.285  30.118  29.974  1.00  0.00    -0.014 A 
BRANCH  52  53
ATOM     53  C   UNL A   1      40.551  29.496  29.501  1.00  0.00     0.031 A 
ATOM     54  C   UNL A   1      41.783  30.368  29.488  1.00  0.00     0.074 A 
ATOM     55  C   UNL A   1      40.647  28.197  29.168  1.00  0.00     0.049 A 
ATOM     56  N   UNL A   1      43.009  30.083  29.129  1.00  0.00    -0.248 NA
ATOM     57  C   UNL A   1      41.601  31.757  29.943  1.00  0.00     0.031 C 
ATOM     58  C   UNL A   1      39.555  27.227  29.199  1.00  0.00     0.029 A 
ATOM     59  N   UNL A   1      41.732  27.471  28.739  1.00  0.00    -0.354 N 
ATOM     60  C   UNL A   1      43.734  31.258  29.301  1.00  0.00     0.074 A 
ATOM     61  C   UNL A   1      42.808  32.267  29.760  1.00  0.00     0.031 C 
ATOM     62  C   UNL A   1      40.028  26.030  28.803  1.00  0.00     0.029 A 
ATOM     63  C   UNL A   1      41.445  26.156  28.464  1.00  0.00     0.049 A 
ATOM     64  H   UNL A   1      42.632  27.857  28.639  1.00  0.00     0.167 HD
ATOM     65  C   UNL A   1      45.054  31.480  29.106  1.00  0.00     0.037 A 
ATOM     66  C   UNL A   1      42.235  25.176  27.983  1.00  0.00     0.037 A 
ATOM     67  C   UNL A   1      45.980  30.477  28.659  1.00  0.00     0.049 A 
ATOM     68  C   UNL A   1      43.689  25.467  27.697  1.00  0.00     0.074 A 
ATOM     69  C   UNL A   1      47.344  30.595  28.449  1.00  0.00     0.029 A 
ATOM     70  N   UNL A   1      45.638  29.171  28.342  1.00  0.00    -0.354 N 
ATOM     71  N   UNL A   1      44.369  26.574  27.881  1.00  0.00    -0.248 NA
ATOM     72  C   UNL A   1      44.487  24.364  27.139  1.00  0.00     0.031 C 
ATOM     73  C   UNL A   1      47.813  29.379  27.943  1.00  0.00     0.029 A 
ATOM     74  C   UNL A   1      46.757  28.482  27.908  1.00  0.00     0.049 A 
ATOM     75  H   UNL A   1      44.733  28.791  28.416  1.00  0.00     0.167 HD
ATOM     76  C   UNL A   1      45.677  26.288  27.506  1.00  0.00     0.074 A 
ATOM     77  C   UNL A   1      45.697  24.901  27.091  1.00  0.00     0.031 C 
ATOM     78  C   UNL A   1      46.767  27.097  27.509  1.00  0.00     0.037 A 
BRANCH  65  79
ATOM     79  C   UNL A   1      45.560  32.876  29.334  1.00  0.00     0.057 A 
ATOM     80  C   UNL A   1      46.024  33.311  30.583  1.00  0.00     0.134 A 
ATOM     81  C   UNL A   1      45.587  33.798  28.280  1.00  0.00     0.134 A 
ATOM     82  F   UNL A   1      46.006  32.487  31.641  1.00  0.00    -0.206 F 
ATOM     83  C   UNL A   1      46.468  34.621  30.781  1.00  0.00     0.040 A 
ATOM     84  C   UNL A   1      46.059  35.099  28.457  1.00  0.00     0.040 A 
ATOM     85  F   UNL A   1      45.157  33.449  27.058  1.00  0.00    -0.206 F 
ATOM     86  C   UNL A   1      46.492  35.516  29.714  1.00  0.00     0.006 A 
ENDBRANCH  65  79
BRANCH  66  87
ATOM     87  C   UNL A   1      41.684  23.817  27.735  1.00  0.00     0.057 A 
ATOM     88  C   UNL A   1      41.980  22.745  28.585  1.00  0.00     0.134 A 
ATOM     89  C   UNL A   1      40.882  23.547  26.619  1.00  0.00     0.134 A 
ATOM     90  F   UNL A   1      42.767  22.931  29.655  1.00  0.00    -0.206 F 
ATOM     91  C   UNL A   1      41.521  21.452  28.324  1.00  0.00     0.040 A 
ATOM     92  C   UNL A   1      40.391  22.266  26.362  1.00  0.00     0.040 A 
ATOM     93  F   UNL A   1      40.564  24.528  25.761  1.00  0.00    -0.206 F 
ATOM     94  C   UNL A   1      40.718  21.212  27.211  1.00  0.00     0.006 A 
ENDBRANCH  66  87
BRANCH  78  95
ATOM     95  C   UNL A   1      48.084  26.491  27.111  1.00  0.00     0.057 A 
ATOM     96  C   UNL A   1      48.872  25.755  28.006  1.00  0.00     0.134 A 
ATOM     97  C   UNL A   1      48.555  26.621  25.797  1.00  0.00     0.134 A 
ATOM     98  F   UNL A   1      48.484  25.595  29.281  1.00  0.00    -0.206 F 
ATOM     99  C   UNL A   1      50.096  25.205  27.619  1.00  0.00     0.040 A 
ATOM    100  C   UNL A   1      49.760  26.047  25.390  1.00  0.00     0.040 A 
ATOM    101  F   UNL A   1      47.846  27.300  24.882  1.00  0.00    -0.206 F 
ATOM    102  C   UNL A   1      50.540  25.346  26.306  1.00  0.00     0.006 A 
ENDBRANCH  78  95
ENDBRANCH  52  53
ENDBRANCH  45  47
ENDBRANCH  44  45
ENDBRANCH  43  44
ENDBRANCH  42  43
ENDBRANCH  41  42
ENDBRANCH  40  41
ENDBRANCH  39  40
ENDBRANCH  38  39
ENDBRANCH  37  38
ENDBRANCH   1  37
TORSDOF 26
ENDMDL
MODEL 2
REMARK VINA RESULT:     -10.5      0.851      5.763
REMARK SMILES C[C@@H](NC(=O)/C(=C/c1ccc(Cl)cc1)NC(=O)c1ccc(C(C)(C)C)cc1)C(=O)OCCOCCOCCOCCOC(=O)c1ccc(-c2c3nc(c(-c4c(F)cccc4F)c4ccc([nH]4)c(-c4c(F)cccc4F)c4nc(c(-c5c(F)cccc5F)c5ccc2[nH]5)C=C4)C=C3)cc1
REMARK SMILES IDX 34 1 33 2 32 3 31 4 30 5 28 6 29 7 2 8 1 9 3 10 4 11 5 13
REMARK SMILES IDX 6 14 7 15 15 16 16 17 17 19 18 20 19 21 27 22 20 23 26 24
REMARK SMILES IDX 21 25 22 26 23 27 24 28 25 29 8 30 9 31 14 32 10 33 13 34
REMARK SMILES IDX 11 35 12 36 35 37 36 38 37 39 38 40 39 41 40 42 41 43 42 44
REMARK SMILES IDX 43 45 44 46 45 47 46 48 98 49 47 50 97 51 48 52 49 53 50 54
REMARK SMILES IDX 91 55 51 56 96 57 90 58 92 59 52 60 95 61 89 62 88 63 53 65
REMARK SMILES IDX 79 66 62 67 78 68 63 69 66 70 77 71 93 72 64 73 65 74 76 76
REMARK SMILES IDX 94 77 67 78 54 79 55 80 60 81 56 82 57 83 59 84 61 85 58 86
REMARK SMILES IDX 80 87 81 88 86 89 82 90 83 91 85 92 87 93 84 94 68 95 69 96
REMARK SMILES IDX 74 97 70 98 71 99 73 100 75 101 72 102
REMARK H PARENT 3 12 15 18 92 64 66 75
REMARK Flexibility Score: inf
ROOT
ATOM      1  C   UNL A   1      32.752  30.388  26.875  1.00  0.00     0.188 C 
ENDROOT
BRANCH   1   2
ATOM      2  O   UNL A   1      32.084  29.191  27.190  1.00  0.00    -0.376 OA
BRANCH   2   3
ATOM      3  C   UNL A   1      32.641  27.903  27.254  1.00  0.00     0.202 C 
BRANCH   3   4
ATOM      4  C   UNL A   1      32.367  26.642  26.429  1.00  0.00     0.261 C 
BRANCH   4   5
ATOM      5  O   UNL A   1      31.323  25.728  26.716  1.00  0.00    -0.462 OA
BRANCH   5   6
ATOM      6  C   UNL A   1      31.621  24.434  26.925  1.00  0.00     0.328 C 
ATOM      7  O   UNL A   1      31.963  23.933  27.983  1.00  0.00    -0.250 OA
BRANCH   6   8
ATOM      8  C   UNL A   1      31.744  23.689  25.626  1.00  0.00     0.189 C 
ATOM      9  C   UNL A   1      32.068  22.209  25.869  1.00  0.00     0.043 C 
BRANCH   8  10
ATOM     10  N   UNL A   1      30.497  23.936  24.875  1.00  0.00    -0.338 N 
ATOM     11  C   UNL A   1      30.472  24.176  23.506  1.00  0.00     0.268 C 
ATOM     12  H   UNL A   1      29.644  23.931  25.366  1.00  0.00     0.164 HD
ATOM     13  O   UNL A   1      30.251  23.255  22.725  1.00  0.00    -0.268 OA
BRANCH  11  14
ATOM     14  C   UNL A   1      30.562  25.625  23.017  1.00  0.00     0.107 C 
ATOM     15  C   UNL A   1      29.784  26.542  23.639  1.00  0.00     0.040 C 
BRANCH  14  16
ATOM     16  N   UNL A   1      31.464  26.027  22.060  1.00  0.00    -0.317 N 
ATOM     17  C   UNL A   1      32.796  25.840  21.829  1.00  0.00     0.255 C 
ATOM     18  H   UNL A   1      31.044  26.588  21.368  1.00  0.00     0.170 HD
ATOM     19  O   UNL A   1      33.332  26.380  20.864  1.00  0.00    -0.269 OA
BRANCH  17  20
ATOM     20  C   UNL A   1      33.611  25.060  22.744  1.00  0.00     0.040 A 
ATOM     21  C   UNL A   1      33.905  23.745  22.401  1.00  0.00     0.014 A 
ATOM     22  C   UNL A   1      34.079  25.630  23.923  1.00  0.00     0.014 A 
ATOM     23  C   UNL A   1      34.757  23.015  23.218  1.00  0.00     0.005 A 
ATOM     24  C   UNL A   1      34.951  24.895  24.726  1.00  0.00     0.005 A 
ATOM     25  C   UNL A   1      35.335  23.587  24.371  1.00  0.00    -0.043 A 
BRANCH  25  26
ATOM     26  C   UNL A   1      36.328  22.766  25.205  1.00  0.00    -0.013 C 
ATOM     27  C   UNL A   1      37.173  21.914  24.242  1.00  0.00     0.016 C 
ATOM     28  C   UNL A   1      37.252  23.699  26.023  1.00  0.00     0.016 C 
ATOM     29  C   UNL A   1      35.644  21.824  26.221  1.00  0.00     0.016 C 
ENDBRANCH  25  26
ENDBRANCH  17  20
ENDBRANCH  14  16
BRANCH  15  30
ATOM     30  C   UNL A   1      29.401  27.957  23.302  1.00  0.00    -0.023 A 
ATOM     31  C   UNL A   1      28.108  28.400  22.946  1.00  0.00     0.010 A 
ATOM     32  C   UNL A   1      30.339  28.964  23.626  1.00  0.00     0.010 A 
ATOM     33  C   UNL A   1      27.770  29.765  22.922  1.00  0.00     0.021 A 
ATOM     34  C   UNL A   1      29.993  30.328  23.634  1.00  0.00     0.021 A 
ATOM     35  C   UNL A   1      28.707  30.723  23.287  1.00  0.00     0.041 A 
ATOM     36  Cl  UNL A   1      28.240  32.374  23.402  1.00  0.00    -0.084 Cl
ENDBRANCH  15  30
ENDBRANCH  11  14
ENDBRANCH   8  10
ENDBRANCH   6   8
ENDBRANCH   5   6
ENDBRANCH   4   5
ENDBRANCH   3   4
ENDBRANCH   2   3
ENDBRANCH   1   2
BRANCH   1  37
ATOM     37  C   UNL A   1      33.935  30.797  27.755  1.00  0.00     0.188 C 
BRANCH  37  38
ATOM     38  O   UNL A   1      34.394  32.133  27.628  1.00  0.00    -0.377 OA
BRANCH  38  39
ATOM     39  C   UNL A   1      33.539  33.223  27.953  1.00  0.00     0.188 C 
BRANCH  39  40
ATOM     40  C   UNL A   1      34.022  34.379  28.852  1.00  0.00     0.188 C 
BRANCH  40  41
ATOM     41  O   UNL A   1      33.548  34.309  30.182  1.00  0.00    -0.376 OA
BRANCH  41  42
ATOM     42  C   UNL A   1      34.433  33.897  31.204  1.00  0.00     0.202 C 
BRANCH  42  43
ATOM     43  C   UNL A   1      34.893  32.430  31.229  1.00  0.00     0.261 C 
BRANCH  43  44
ATOM     44  O   UNL A   1      35.684  31.989  32.353  1.00  0.00    -0.460 OA
BRANCH  44  45
ATOM     45  C   UNL A   1      36.931  32.471  32.524  1.00  0.00     0.338 C 
ATOM     46  O   UNL A   1      37.278  33.336  33.315  1.00  0.00    -0.246 OA
BRANCH  45  47
ATOM     47  C   UNL A   1      37.878  31.605  31.769  1.00  0.00     0.060 A 
ATOM     48  C   UNL A   1      38.797  30.821  32.484  1.00  0.00     0.016 A 
ATOM     49  C   UNL A   1      37.860  31.549  30.372  1.00  0.00     0.016 A 
ATOM     50  C   UNL A   1      39.755  30.059  31.813  1.00  0.00     0.010 A 
ATOM     51  C   UNL A   1      38.841  30.811  29.696  1.00  0.00     0.010 A 
ATOM     52  C   UNL A   1      39.835  30.122  30.417  1.00  0.00    -0.014 A 
BRANCH  52  53
ATOM     53  C   UNL A   1      41.129  29.780  29.768  1.00  0.00     0.031 A 
ATOM     54  C   UNL A   1      41.282  28.375  29.237  1.00  0.00     0.074 A 
ATOM     55  C   UNL A   1      42.110  30.679  29.577  1.00  0.00     0.049 A 
ATOM     56  N   UNL A   1      42.296  27.815  28.628  1.00  0.00    -0.248 NA
ATOM     57  C   UNL A   1      40.127  27.481  29.422  1.00  0.00     0.031 C 
ATOM     58  C   UNL A   1      42.069  32.083  29.978  1.00  0.00     0.029 A 
ATOM     59  N   UNL A   1      43.340  30.533  28.983  1.00  0.00    -0.354 N 
ATOM     60  C   UNL A   1      41.905  26.504  28.375  1.00  0.00     0.074 A 
ATOM     61  C   UNL A   1      40.579  26.341  28.925  1.00  0.00     0.031 C 
ATOM     62  C   UNL A   1      43.226  32.671  29.619  1.00  0.00     0.029 A 
ATOM     63  C   UNL A   1      44.098  31.679  28.990  1.00  0.00     0.049 A 
ATOM     64  H   UNL A   1      43.650  29.686  28.588  1.00  0.00     0.167 HD
ATOM     65  C   UNL A   1      42.580  25.523  27.732  1.00  0.00     0.037 A 
ATOM     66  C   UNL A   1      45.353  31.894  28.550  1.00  0.00     0.037 A 
ATOM     67  C   UNL A   1      43.894  25.684  27.174  1.00  0.00     0.049 A 
ATOM     68  C   UNL A   1      46.119  30.762  27.907  1.00  0.00     0.074 A 
ATOM     69  C   UNL A   1      44.657  24.757  26.486  1.00  0.00     0.029 A 
ATOM     70  N   UNL A   1      44.646  26.846  27.249  1.00  0.00    -0.354 N 
ATOM     71  N   UNL A   1      45.734  29.534  27.655  1.00  0.00    -0.248 NA
ATOM     72  C   UNL A   1      47.498  31.053  27.482  1.00  0.00     0.031 C 
ATOM     73  C   UNL A   1      45.896  25.339  26.202  1.00  0.00     0.029 A 
ATOM     74  C   UNL A   1      45.877  26.651  26.648  1.00  0.00     0.049 A 
ATOM     75  H   UNL A   1      44.348  27.686  27.668  1.00  0.00     0.167 HD
ATOM     76  C   UNL A   1      46.801  28.923  27.004  1.00  0.00     0.074 A 
ATOM     77  C   UNL A   1      47.846  29.918  26.895  1.00  0.00     0.031 C 
ATOM     78  C   UNL A   1      46.906  27.654  26.534  1.00  0.00     0.037 A 
BRANCH  65  79
ATOM     79  C   UNL A   1      41.919  24.177  27.641  1.00  0.00     0.057 A 
ATOM     80  C   UNL A   1      40.944  23.883  26.679  1.00  0.00     0.134 A 
ATOM     81  C   UNL A   1      42.273  23.156  28.533  1.00  0.00     0.134 A 
ATOM     82  F   UNL A   1      40.543  24.821  25.807  1.00  0.00    -0.206 F 
ATOM     83  C   UNL A   1      40.323  22.632  26.626  1.00  0.00     0.040 A 
ATOM     84  C   UNL A   1      41.684  21.892  28.469  1.00  0.00     0.040 A 
ATOM     85  F   UNL A   1      43.199  23.369  29.480  1.00  0.00    -0.206 F 
ATOM     86  C   UNL A   1      40.699  21.631  27.518  1.00  0.00     0.006 A 
ENDBRANCH  65  79
BRANCH  66  87
ATOM     87  C   UNL A   1      45.984  33.233  28.695  1.00  0.00     0.057 A 
ATOM     88  C   UNL A   1      46.694  33.583  29.850  1.00  0.00     0.134 A 
ATOM     89  C   UNL A   1      45.854  34.212  27.702  1.00  0.00     0.134 A 
ATOM     90  F   UNL A   1      46.829  32.700  30.851  1.00  0.00    -0.206 F 
ATOM     91  C   UNL A   1      47.233  34.859  30.023  1.00  0.00     0.040 A 
ATOM     92  C   UNL A   1      46.414  35.483  27.848  1.00  0.00     0.040 A 
ATOM     93  F   UNL A   1      45.182  33.946  26.572  1.00  0.00    -0.206 F 
ATOM     94  C   UNL A   1      47.098  35.812  29.016  1.00  0.00     0.006 A 
ENDBRANCH  66  87
BRANCH  78  95
ATOM     95  C   UNL A   1      48.168  27.286  25.803  1.00  0.00     0.057 A 
ATOM     96  C   UNL A   1      48.297  27.420  24.415  1.00  0.00     0.134 A 
ATOM     97  C   UNL A   1      49.284  26.817  26.511  1.00  0.00     0.134 A 
ATOM     98  F   UNL A   1      47.266  27.857  23.675  1.00  0.00    -0.206 F 
ATOM     99  C   UNL A   1      49.475  27.067  23.753  1.00  0.00     0.040 A 
ATOM    100  C   UNL A   1      50.477  26.493  25.865  1.00  0.00     0.040 A 
ATOM    101  F   UNL A   1      49.238  26.678  27.845  1.00  0.00    -0.206 F 
ATOM    102  C   UNL A   1      50.572  26.607  24.480  1.00  0.00     0.006 A 
ENDBRANCH  78  95
ENDBRANCH  52  53
ENDBRANCH  45  47
ENDBRANCH  44  45
ENDBRANCH  43  44
ENDBRANCH  42  43
ENDBRANCH  41  42
ENDBRANCH  40  41
ENDBRANCH  39  40
ENDBRANCH  38  39
ENDBRANCH  37  38
ENDBRANCH   1  37
TORSDOF 26
ENDMDL
MODEL 3
REMARK VINA RESULT:      -9.0      5.349     11.934
REMARK SMILES C[C@@H](NC(=O)/C(=C/c1ccc(Cl)cc1)NC(=O)c1ccc(C(C)(C)C)cc1)C(=O)OCCOCCOCCOCCOC(=O)c1ccc(-c2c3nc(c(-c4c(F)cccc4F)c4ccc([nH]4)c(-c4c(F)cccc4F)c4nc(c(-c5c(F)cccc5F)c5ccc2[nH]5)C=C4)C=C3)cc1
REMARK SMILES IDX 34 1 33 2 32 3 31 4 30 5 28 6 29 7 2 8 1 9 3 10 4 11 5 13
REMARK SMILES IDX 6 14 7 15 15 16 16 17 17 19 18 20 19 21 27 22 20 23 26 24
REMARK SMILES IDX 21 25 22 26 23 27 24 28 25 29 8 30 9 31 14 32 10 33 13 34
REMARK SMILES IDX 11 35 12 36 35 37 36 38 37 39 38 40 39 41 40 42 41 43 42 44
REMARK SMILES IDX 43 45 44 46 45 47 46 48 98 49 47 50 97 51 48 52 49 53 50 54
REMARK SMILES IDX 91 55 51 56 96 57 90 58 92 59 52 60 95 61 89 62 88 63 53 65
REMARK SMILES IDX 79 66 62 67 78 68 63 69 66 70 77 71 93 72 64 73 65 74 76 76
REMARK SMILES IDX 94 77 67 78 54 79 55 80 60 81 56 82 57 83 59 84 61 85 58 86
REMARK SMILES IDX 80 87 81 88 86 89 82 90 83 91 85 92 87 93 84 94 68 95 69 96
REMARK SMILES IDX 74 97 70 98 71 99 73 100 75 101 72 102
REMARK H PARENT 3 12 15 18 92 64 66 75
REMARK Flexibility Score: inf
ROOT
ATOM      1  C   UNL A   1      37.099  32.991  35.427  1.00  0.00     0.188 C 
ENDROOT
BRANCH   1   2
ATOM      2  O   UNL A   1      37.083  31.814  34.659  1.00  0.00    -0.376 OA
BRANCH   2   3
ATOM      3  C   UNL A   1      38.018  31.425  33.686  1.00  0.00     0.202 C 
BRANCH   3   4
ATOM      4  C   UNL A   1      39.536  31.616  33.609  1.00  0.00     0.261 C 
BRANCH   4   5
ATOM      5  O   UNL A   1      40.467  30.773  34.264  1.00  0.00    -0.462 OA
BRANCH   5   6
ATOM      6  C   UNL A   1      40.379  30.605  35.595  1.00  0.00     0.328 C 
ATOM      7  O   UNL A   1      39.482  30.033  36.193  1.00  0.00    -0.250 OA
BRANCH   6   8
ATOM      8  C   UNL A   1      41.397  31.442  36.317  1.00  0.00     0.189 C 
ATOM      9  C   UNL A   1      40.716  32.464  37.238  1.00  0.00     0.043 C 
BRANCH   8  10
ATOM     10  N   UNL A   1      42.311  30.504  36.998  1.00  0.00    -0.338 N 
ATOM     11  C   UNL A   1      43.666  30.417  36.699  1.00  0.00     0.268 C 
ATOM     12  H   UNL A   1      41.945  29.914  37.694  1.00  0.00     0.164 HD
ATOM     13  O   UNL A   1      44.485  31.031  37.377  1.00  0.00    -0.268 OA
BRANCH  11  14
ATOM     14  C   UNL A   1      44.115  29.422  35.625  1.00  0.00     0.107 C 
ATOM     15  C   UNL A   1      43.222  28.480  35.236  1.00  0.00     0.040 C 
BRANCH  14  16
ATOM     16  N   UNL A   1      45.330  29.519  34.988  1.00  0.00    -0.317 N 
ATOM     17  C   UNL A   1      46.513  28.840  35.026  1.00  0.00     0.255 C 
ATOM     18  H   UNL A   1      45.351  30.263  34.344  1.00  0.00     0.170 HD
ATOM     19  O   UNL A   1      47.454  29.210  34.329  1.00  0.00    -0.269 OA
BRANCH  17  20
ATOM     20  C   UNL A   1      46.702  27.718  35.930  1.00  0.00     0.040 A 
ATOM     21  C   UNL A   1      46.850  27.988  37.286  1.00  0.00     0.014 A 
ATOM     22  C   UNL A   1      46.727  26.419  35.436  1.00  0.00     0.014 A 
ATOM     23  C   UNL A   1      46.940  26.924  38.173  1.00  0.00     0.005 A 
ATOM     24  C   UNL A   1      46.797  25.357  36.337  1.00  0.00     0.005 A 
ATOM     25  C   UNL A   1      46.869  25.588  37.725  1.00  0.00    -0.043 A 
BRANCH  25  26
ATOM     26  C   UNL A   1      46.901  24.445  38.749  1.00  0.00    -0.013 C 
ATOM     27  C   UNL A   1      47.482  23.199  38.057  1.00  0.00     0.016 C 
ATOM     28  C   UNL A   1      47.783  24.826  39.961  1.00  0.00     0.016 C 
ATOM     29  C   UNL A   1      45.508  24.087  39.313  1.00  0.00     0.016 C 
ENDBRANCH  25  26
ENDBRANCH  17  20
ENDBRANCH  14  16
BRANCH  15  30
ATOM     30  C   UNL A   1      43.353  27.214  34.434  1.00  0.00    -0.023 A 
ATOM     31  C   UNL A   1      43.936  27.105  33.153  1.00  0.00     0.010 A 
ATOM     32  C   UNL A   1      43.122  26.000  35.121  1.00  0.00     0.010 A 
ATOM     33  C   UNL A   1      44.275  25.860  32.594  1.00  0.00     0.021 A 
ATOM     34  C   UNL A   1      43.490  24.756  34.577  1.00  0.00     0.021 A 
ATOM     35  C   UNL A   1      44.071  24.692  33.316  1.00  0.00     0.041 A 
ATOM     36  Cl  UNL A   1      44.628  23.190  32.688  1.00  0.00    -0.084 Cl
ENDBRANCH  15  30
ENDBRANCH  11  14
ENDBRANCH   8  10
ENDBRANCH   6   8
ENDBRANCH   5   6
ENDBRANCH   4   5
ENDBRANCH   3   4
ENDBRANCH   2   3
ENDBRANCH   1   2
BRANCH   1  37
ATOM     37  C   UNL A   1      36.383  34.220  34.862  1.00  0.00     0.188 C 
BRANCH  37  38
ATOM     38  O   UNL A   1      35.097  34.010  34.302  1.00  0.00    -0.377 OA
BRANCH  38  39
ATOM     39  C   UNL A   1      34.937  33.879  32.894  1.00  0.00     0.188 C 
BRANCH  39  40
ATOM     40  C   UNL A   1      34.141  34.918  32.079  1.00  0.00     0.188 C 
BRANCH  40  41
ATOM     41  O   UNL A   1      33.466  34.377  30.962  1.00  0.00    -0.376 OA
BRANCH  41  42
ATOM     42  C   UNL A   1      34.017  34.559  29.673  1.00  0.00     0.202 C 
BRANCH  42  43
ATOM     43  C   UNL A   1      34.997  33.502  29.138  1.00  0.00     0.261 C 
BRANCH  43  44
ATOM     44  O   UNL A   1      34.809  32.134  29.554  1.00  0.00    -0.460 OA
BRANCH  44  45
ATOM     45  C   UNL A   1      34.741  31.156  28.630  1.00  0.00     0.338 C 
ATOM     46  O   UNL A   1      33.885  31.024  27.767  1.00  0.00    -0.246 OA
BRANCH  45  47
ATOM     47  C   UNL A   1      36.016  30.389  28.661  1.00  0.00     0.060 A 
ATOM     48  C   UNL A   1      36.397  29.756  29.855  1.00  0.00     0.016 A 
ATOM     49  C   UNL A   1      36.830  30.279  27.529  1.00  0.00     0.016 A 
ATOM     50  C   UNL A   1      37.624  29.097  29.950  1.00  0.00     0.010 A 
ATOM     51  C   UNL A   1      38.075  29.645  27.631  1.00  0.00     0.010 A 
ATOM     52  C   UNL A   1      38.505  29.116  28.862  1.00  0.00    -0.014 A 
BRANCH  52  53
ATOM     53  C   UNL A   1      39.956  28.917  29.126  1.00  0.00     0.031 A 
ATOM     54  C   UNL A   1      40.558  27.600  28.701  1.00  0.00     0.074 A 
ATOM     55  C   UNL A   1      40.742  29.876  29.646  1.00  0.00     0.049 A 
ATOM     56  N   UNL A   1      41.788  27.167  28.807  1.00  0.00    -0.248 NA
ATOM     57  C   UNL A   1      39.638  26.638  28.069  1.00  0.00     0.031 C 
ATOM     58  C   UNL A   1      40.307  31.214  30.038  1.00  0.00     0.029 A 
ATOM     59  N   UNL A   1      42.086  29.861  29.928  1.00  0.00    -0.354 N 
ATOM     60  C   UNL A   1      41.782  25.883  28.272  1.00  0.00     0.074 A 
ATOM     61  C   UNL A   1      40.424  25.592  27.875  1.00  0.00     0.031 C 
ATOM     62  C   UNL A   1      41.368  31.893  30.513  1.00  0.00     0.029 A 
ATOM     63  C   UNL A   1      42.549  31.029  30.484  1.00  0.00     0.049 A 
ATOM     64  H   UNL A   1      42.666  29.086  29.747  1.00  0.00     0.167 HD
ATOM     65  C   UNL A   1      42.814  25.022  28.113  1.00  0.00     0.037 A 
ATOM     66  C   UNL A   1      43.779  31.353  30.929  1.00  0.00     0.037 A 
ATOM     67  C   UNL A   1      44.168  25.310  28.497  1.00  0.00     0.049 A 
ATOM     68  C   UNL A   1      44.899  30.348  30.813  1.00  0.00     0.074 A 
ATOM     69  C   UNL A   1      45.291  24.513  28.359  1.00  0.00     0.029 A 
ATOM     70  N   UNL A   1      44.583  26.486  29.104  1.00  0.00    -0.354 N 
ATOM     71  N   UNL A   1      44.888  29.145  30.289  1.00  0.00    -0.248 NA
ATOM     72  C   UNL A   1      46.208  30.750  31.351  1.00  0.00     0.031 C 
ATOM     73  C   UNL A   1      46.372  25.180  28.943  1.00  0.00     0.029 A 
ATOM     74  C   UNL A   1      45.938  26.423  29.377  1.00  0.00     0.049 A 
ATOM     75  H   UNL A   1      43.999  27.251  29.310  1.00  0.00     0.167 HD
ATOM     76  C   UNL A   1      46.191  28.669  30.392  1.00  0.00     0.074 A 
ATOM     77  C   UNL A   1      46.968  29.716  31.022  1.00  0.00     0.031 C 
ATOM     78  C   UNL A   1      46.703  27.477  29.995  1.00  0.00     0.037 A 
BRANCH  65  79
ATOM     79  C   UNL A   1      42.502  23.670  27.536  1.00  0.00     0.057 A 
ATOM     80  C   UNL A   1      42.410  23.446  26.156  1.00  0.00     0.134 A 
ATOM     81  C   UNL A   1      42.295  22.573  28.382  1.00  0.00     0.134 A 
ATOM     82  F   UNL A   1      42.576  24.457  25.289  1.00  0.00    -0.206 F 
ATOM     83  C   UNL A   1      42.095  22.187  25.639  1.00  0.00     0.040 A 
ATOM     84  C   UNL A   1      42.012  21.303  27.877  1.00  0.00     0.040 A 
ATOM     85  F   UNL A   1      42.367  22.716  29.713  1.00  0.00    -0.206 F 
ATOM     86  C   UNL A   1      41.902  21.110  26.501  1.00  0.00     0.006 A 
ENDBRANCH  65  79
BRANCH  66  87
ATOM     87  C   UNL A   1      44.035  32.690  31.529  1.00  0.00     0.057 A 
ATOM     88  C   UNL A   1      44.566  33.739  30.769  1.00  0.00     0.134 A 
ATOM     89  C   UNL A   1      43.797  32.938  32.887  1.00  0.00     0.134 A 
ATOM     90  F   UNL A   1      44.844  33.557  29.469  1.00  0.00    -0.206 F 
ATOM     91  C   UNL A   1      44.871  34.977  31.338  1.00  0.00     0.040 A 
ATOM     92  C   UNL A   1      44.069  34.181  33.463  1.00  0.00     0.040 A 
ATOM     93  F   UNL A   1      43.294  31.976  33.673  1.00  0.00    -0.206 F 
ATOM     94  C   UNL A   1      44.616  35.201  32.689  1.00  0.00     0.006 A 
ENDBRANCH  66  87
BRANCH  78  95
ATOM     95  C   UNL A   1      48.180  27.260  30.173  1.00  0.00     0.057 A 
ATOM     96  C   UNL A   1      49.121  27.693  29.229  1.00  0.00     0.134 A 
ATOM     97  C   UNL A   1      48.670  26.633  31.328  1.00  0.00     0.134 A 
ATOM     98  F   UNL A   1      48.721  28.296  28.098  1.00  0.00    -0.206 F 
ATOM     99  C   UNL A   1      50.489  27.477  29.409  1.00  0.00     0.040 A 
ATOM    100  C   UNL A   1      50.036  26.442  31.534  1.00  0.00     0.040 A 
ATOM    101  F   UNL A   1      47.828  26.206  32.281  1.00  0.00    -0.206 F 
ATOM    102  C   UNL A   1      50.950  26.855  30.567  1.00  0.00     0.006 A 
ENDBRANCH  78  95
ENDBRANCH  52  53
ENDBRANCH  45  47
ENDBRANCH  44  45
ENDBRANCH  43  44
ENDBRANCH  42  43
ENDBRANCH  41  42
ENDBRANCH  40  41
ENDBRANCH  39  40
ENDBRANCH  38  39
ENDBRANCH  37  38
ENDBRANCH   1  37
TORSDOF 26
ENDMDL
