MODEL 1
REMARK VINA RESULT:     -10.8      0.000      0.000
REMARK SMILES CS(=O)(=O)c1ccc(C(=O)N[C@@H](CC(=O)OCCOCCOCCOCCOC(=O)c2ccc(-c3c4nc(c(-c5c(F)cccc5F)c5ccc([nH]5)c(-c5c(F)cccc5F)c5nc(c(-c6c(F)cccc6F)c6ccc3[nH]6)C=C5)C=C4)cc2)c2ccccc2)cc1
REMARK SMILES IDX 21 1 20 2 19 3 18 4 17 5 16 6 14 7 15 8 13 9 12 10 11 11
REMARK SMILES IDX 9 12 10 13 8 15 5 16 6 17 92 18 7 19 91 20 2 21 1 22 3 23
REMARK SMILES IDX 4 24 85 25 86 26 90 27 87 28 89 29 88 30 22 31 23 32 24 33
REMARK SMILES IDX 25 34 26 35 27 36 28 37 29 38 30 39 31 40 32 41 84 42 33 43
REMARK SMILES IDX 83 44 34 45 35 46 36 47 77 48 37 49 82 50 76 51 78 52 38 53
REMARK SMILES IDX 81 54 75 55 74 56 39 58 65 59 48 60 64 61 49 62 52 63 63 64
REMARK SMILES IDX 79 65 50 66 51 67 62 69 80 70 53 71 40 72 41 73 46 74 42 75
REMARK SMILES IDX 43 76 45 77 47 78 44 79 66 80 67 81 72 82 68 83 69 84 71 85
REMARK SMILES IDX 73 86 70 87 54 88 55 89 60 90 56 91 57 92 59 93 61 94 58 95
REMARK H PARENT 11 14 78 57 52 68
REMARK Flexibility Score: inf
ROOT
ATOM      1  C   UNL A   1      33.652  27.908  24.520  1.00  0.00     0.188 C 
ENDROOT
BRANCH   1   2
ATOM      2  C   UNL A   1      33.595  26.483  25.080  1.00  0.00     0.188 C 
BRANCH   2   3
ATOM      3  O   UNL A   1      32.771  26.313  26.227  1.00  0.00    -0.376 OA
BRANCH   3   4
ATOM      4  C   UNL A   1      31.516  25.656  26.038  1.00  0.00     0.202 C 
BRANCH   4   5
ATOM      5  C   UNL A   1      31.388  24.191  26.516  1.00  0.00     0.261 C 
BRANCH   5   6
ATOM      6  O   UNL A   1      32.484  23.297  26.144  1.00  0.00    -0.463 OA
BRANCH   6   7
ATOM      7  C   UNL A   1      32.859  22.406  27.088  1.00  0.00     0.308 C 
ATOM      8  O   UNL A   1      32.537  22.514  28.274  1.00  0.00    -0.252 OA
BRANCH   7   9
ATOM      9  C   UNL A   1      33.579  21.141  26.650  1.00  0.00     0.152 C 
BRANCH   9  10
ATOM     10  C   UNL A   1      34.197  20.763  25.283  1.00  0.00     0.123 C 
BRANCH  10  11
ATOM     11  N   UNL A   1      34.557  21.874  24.430  1.00  0.00    -0.345 N 
ATOM     12  C   UNL A   1      35.715  22.621  24.329  1.00  0.00     0.251 C 
ATOM     13  O   UNL A   1      35.706  23.581  23.557  1.00  0.00    -0.269 OA
ATOM     14  H   UNL A   1      33.847  22.149  23.807  1.00  0.00     0.164 HD
BRANCH  12  15
ATOM     15  C   UNL A   1      36.999  22.284  25.030  1.00  0.00     0.039 A 
ATOM     16  C   UNL A   1      39.552  21.925  26.145  1.00  0.00     0.067 A 
ATOM     17  C   UNL A   1      38.877  23.124  26.355  1.00  0.00     0.021 A 
ATOM     18  C   UNL A   1      38.943  20.884  25.452  1.00  0.00     0.021 A 
ATOM     19  C   UNL A   1      37.613  23.306  25.777  1.00  0.00     0.015 A 
ATOM     20  C   UNL A   1      37.639  21.041  24.991  1.00  0.00     0.015 A 
BRANCH  16  21
ATOM     21  S   UNL A   1      41.170  21.636  26.809  1.00  0.00     0.175 S 
ATOM     22  C   UNL A   1      41.111  19.909  27.227  1.00  0.00     0.163 C 
ATOM     23  O   UNL A   1      41.292  22.394  28.037  1.00  0.00    -0.224 OA
ATOM     24  O   UNL A   1      42.105  21.813  25.714  1.00  0.00    -0.224 OA
ENDBRANCH  16  21
ENDBRANCH  12  15
ENDBRANCH  10  11
BRANCH  10  25
ATOM     25  C   UNL A   1      33.732  19.487  24.588  1.00  0.00    -0.025 A 
ATOM     26  C   UNL A   1      34.557  18.383  24.536  1.00  0.00     0.006 A 
ATOM     27  C   UNL A   1      32.554  19.428  23.818  1.00  0.00     0.006 A 
ATOM     28  C   UNL A   1      34.340  17.330  23.642  1.00  0.00     0.000 A 
ATOM     29  C   UNL A   1      32.290  18.343  22.966  1.00  0.00     0.000 A 
ATOM     30  C   UNL A   1      33.203  17.305  22.854  1.00  0.00     0.000 A 
ENDBRANCH  10  25
ENDBRANCH   9  10
ENDBRANCH   7   9
ENDBRANCH   6   7
ENDBRANCH   5   6
ENDBRANCH   4   5
ENDBRANCH   3   4
ENDBRANCH   2   3
ENDBRANCH   1   2
BRANCH   1  31
ATOM     31  O   UNL A   1      32.344  28.394  24.248  1.00  0.00    -0.377 OA
BRANCH  31  32
ATOM     32  C   UNL A   1      31.750  29.436  25.014  1.00  0.00     0.188 C 
BRANCH  32  33
ATOM     33  C   UNL A   1      32.495  29.936  26.250  1.00  0.00     0.188 C 
BRANCH  33  34
ATOM     34  O   UNL A   1      31.852  30.874  27.115  1.00  0.00    -0.376 OA
BRANCH  34  35
ATOM     35  C   UNL A   1      31.324  32.068  26.554  1.00  0.00     0.202 C 
BRANCH  35  36
ATOM     36  C   UNL A   1      32.039  33.381  26.863  1.00  0.00     0.261 C 
BRANCH  36  37
ATOM     37  O   UNL A   1      32.334  33.502  28.255  1.00  0.00    -0.460 OA
BRANCH  37  38
ATOM     38  C   UNL A   1      33.368  34.335  28.516  1.00  0.00     0.338 C 
ATOM     39  O   UNL A   1      33.339  35.530  28.715  1.00  0.00    -0.246 OA
BRANCH  38  40
ATOM     40  C   UNL A   1      34.570  33.512  28.695  1.00  0.00     0.060 A 
ATOM     41  C   UNL A   1      34.387  32.197  29.134  1.00  0.00     0.016 A 
ATOM     42  C   UNL A   1      35.845  34.041  28.489  1.00  0.00     0.016 A 
ATOM     43  C   UNL A   1      35.486  31.402  29.397  1.00  0.00     0.010 A 
ATOM     44  C   UNL A   1      36.952  33.258  28.792  1.00  0.00     0.010 A 
ATOM     45  C   UNL A   1      36.765  31.957  29.286  1.00  0.00    -0.014 A 
BRANCH  45  46
ATOM     46  C   UNL A   1      37.875  31.254  29.946  1.00  0.00     0.031 A 
ATOM     47  C   UNL A   1      38.105  31.536  31.401  1.00  0.00     0.074 A 
ATOM     48  C   UNL A   1      38.599  30.352  29.270  1.00  0.00     0.049 A 
ATOM     49  N   UNL A   1      39.027  31.071  32.199  1.00  0.00    -0.248 NA
ATOM     50  C   UNL A   1      37.165  32.472  32.044  1.00  0.00     0.031 C 
ATOM     51  C   UNL A   1      38.390  29.979  27.871  1.00  0.00     0.029 A 
ATOM     52  N   UNL A   1      39.659  29.589  29.674  1.00  0.00    -0.354 N 
ATOM     53  C   UNL A   1      38.783  31.663  33.432  1.00  0.00     0.074 A 
ATOM     54  C   UNL A   1      37.647  32.542  33.274  1.00  0.00     0.031 C 
ATOM     55  C   UNL A   1      39.312  29.065  27.526  1.00  0.00     0.029 A 
ATOM     56  C   UNL A   1      40.189  28.822  28.668  1.00  0.00     0.049 A 
ATOM     57  H   UNL A   1      40.006  29.590  30.595  1.00  0.00     0.167 HD
ATOM     58  C   UNL A   1      39.452  31.478  34.592  1.00  0.00     0.037 A 
ATOM     59  C   UNL A   1      41.283  28.040  28.679  1.00  0.00     0.037 A 
ATOM     60  C   UNL A   1      40.586  30.604  34.714  1.00  0.00     0.049 A 
ATOM     61  C   UNL A   1      42.061  27.918  29.962  1.00  0.00     0.074 A 
ATOM     62  C   UNL A   1      41.350  30.331  35.833  1.00  0.00     0.029 A 
ATOM     63  N   UNL A   1      41.124  29.868  33.667  1.00  0.00    -0.354 N 
ATOM     64  N   UNL A   1      41.825  28.467  31.130  1.00  0.00    -0.248 NA
ATOM     65  C   UNL A   1      43.256  27.066  29.930  1.00  0.00     0.031 C 
ATOM     66  C   UNL A   1      42.388  29.476  35.448  1.00  0.00     0.029 A 
ATOM     67  C   UNL A   1      42.229  29.161  34.106  1.00  0.00     0.049 A 
ATOM     68  H   UNL A   1      40.771  29.851  32.748  1.00  0.00     0.167 HD
ATOM     69  C   UNL A   1      42.821  28.004  31.981  1.00  0.00     0.074 A 
ATOM     70  C   UNL A   1      43.654  27.117  31.193  1.00  0.00     0.031 C 
ATOM     71  C   UNL A   1      43.031  28.281  33.292  1.00  0.00     0.037 A 
BRANCH  58  72
ATOM     72  C   UNL A   1      39.000  32.265  35.787  1.00  0.00     0.057 A 
ATOM     73  C   UNL A   1      39.397  33.593  36.001  1.00  0.00     0.134 A 
ATOM     74  C   UNL A   1      38.149  31.688  36.738  1.00  0.00     0.134 A 
ATOM     75  F   UNL A   1      40.231  34.201  35.143  1.00  0.00    -0.206 F 
ATOM     76  C   UNL A   1      38.982  34.308  37.126  1.00  0.00     0.040 A 
ATOM     77  C   UNL A   1      37.703  32.402  37.851  1.00  0.00     0.040 A 
ATOM     78  F   UNL A   1      37.734  30.420  36.599  1.00  0.00    -0.206 F 
ATOM     79  C   UNL A   1      38.125  33.714  38.051  1.00  0.00     0.006 A 
ENDBRANCH  58  72
BRANCH  59  80
ATOM     80  C   UNL A   1      41.709  27.338  27.443  1.00  0.00     0.057 A 
ATOM     81  C   UNL A   1      41.335  26.013  27.194  1.00  0.00     0.134 A 
ATOM     82  C   UNL A   1      42.505  27.974  26.481  1.00  0.00     0.134 A 
ATOM     83  F   UNL A   1      40.585  25.344  28.082  1.00  0.00    -0.206 F 
ATOM     84  C   UNL A   1      41.754  25.339  26.045  1.00  0.00     0.040 A 
ATOM     85  C   UNL A   1      42.906  27.323  25.315  1.00  0.00     0.040 A 
ATOM     86  F   UNL A   1      42.891  29.246  26.657  1.00  0.00    -0.206 F 
ATOM     87  C   UNL A   1      42.537  25.997  25.099  1.00  0.00     0.006 A 
ENDBRANCH  59  80
BRANCH  71  88
ATOM     88  C   UNL A   1      44.178  27.581  33.961  1.00  0.00     0.057 A 
ATOM     89  C   UNL A   1      44.058  26.286  34.477  1.00  0.00     0.134 A 
ATOM     90  C   UNL A   1      45.432  28.200  34.043  1.00  0.00     0.134 A 
ATOM     91  F   UNL A   1      42.880  25.643  34.438  1.00  0.00    -0.206 F 
ATOM     92  C   UNL A   1      45.139  25.641  35.079  1.00  0.00     0.040 A 
ATOM     93  C   UNL A   1      46.528  27.552  34.612  1.00  0.00     0.040 A 
ATOM     94  F   UNL A   1      45.617  29.435  33.554  1.00  0.00    -0.206 F 
ATOM     95  C   UNL A   1      46.381  26.272  35.140  1.00  0.00     0.006 A 
ENDBRANCH  71  88
ENDBRANCH  45  46
ENDBRANCH  38  40
ENDBRANCH  37  38
ENDBRANCH  36  37
ENDBRANCH  35  36
ENDBRANCH  34  35
ENDBRANCH  33  34
ENDBRANCH  32  33
ENDBRANCH  31  32
ENDBRANCH   1  31
TORSDOF 25
ENDMDL
MODEL 2
REMARK VINA RESULT:      -9.8      2.178      3.661
REMARK SMILES CS(=O)(=O)c1ccc(C(=O)N[C@@H](CC(=O)OCCOCCOCCOCCOC(=O)c2ccc(-c3c4nc(c(-c5c(F)cccc5F)c5ccc([nH]5)c(-c5c(F)cccc5F)c5nc(c(-c6c(F)cccc6F)c6ccc3[nH]6)C=C5)C=C4)cc2)c2ccccc2)cc1
REMARK SMILES IDX 21 1 20 2 19 3 18 4 17 5 16 6 14 7 15 8 13 9 12 10 11 11
REMARK SMILES IDX 9 12 10 13 8 15 5 16 6 17 92 18 7 19 91 20 2 21 1 22 3 23
REMARK SMILES IDX 4 24 85 25 86 26 90 27 87 28 89 29 88 30 22 31 23 32 24 33
REMARK SMILES IDX 25 34 26 35 27 36 28 37 29 38 30 39 31 40 32 41 84 42 33 43
REMARK SMILES IDX 83 44 34 45 35 46 36 47 77 48 37 49 82 50 76 51 78 52 38 53
REMARK SMILES IDX 81 54 75 55 74 56 39 58 65 59 48 60 64 61 49 62 52 63 63 64
REMARK SMILES IDX 79 65 50 66 51 67 62 69 80 70 53 71 40 72 41 73 46 74 42 75
REMARK SMILES IDX 43 76 45 77 47 78 44 79 66 80 67 81 72 82 68 83 69 84 71 85
REMARK SMILES IDX 73 86 70 87 54 88 55 89 60 90 56 91 57 92 59 93 61 94 58 95
REMARK H PARENT 11 14 78 57 52 68
REMARK Flexibility Score: inf
ROOT
ATOM      1  C   UNL A   1      33.963  26.988  25.973  1.00  0.00     0.188 C 
ENDROOT
BRANCH   1   2
ATOM      2  C   UNL A   1      33.077  25.764  25.721  1.00  0.00     0.188 C 
BRANCH   2   3
ATOM      3  O   UNL A   1      31.979  25.615  26.613  1.00  0.00    -0.376 OA
BRANCH   3   4
ATOM      4  C   UNL A   1      30.917  24.751  26.202  1.00  0.00     0.202 C 
BRANCH   4   5
ATOM      5  C   UNL A   1      30.830  23.352  26.854  1.00  0.00     0.261 C 
BRANCH   5   6
ATOM      6  O   UNL A   1      31.906  22.419  26.519  1.00  0.00    -0.463 OA
BRANCH   6   7
ATOM      7  C   UNL A   1      32.895  22.313  27.434  1.00  0.00     0.308 C 
ATOM      8  O   UNL A   1      32.733  22.582  28.627  1.00  0.00    -0.252 OA
BRANCH   7   9
ATOM      9  C   UNL A   1      34.217  21.695  27.009  1.00  0.00     0.152 C 
BRANCH   9  10
ATOM     10  C   UNL A   1      34.750  21.345  25.600  1.00  0.00     0.123 C 
BRANCH  10  11
ATOM     11  N   UNL A   1      33.936  20.430  24.832  1.00  0.00    -0.345 N 
ATOM     12  C   UNL A   1      32.960  20.642  23.878  1.00  0.00     0.251 C 
ATOM     13  O   UNL A   1      32.362  19.654  23.447  1.00  0.00    -0.269 OA
ATOM     14  H   UNL A   1      34.109  19.480  25.023  1.00  0.00     0.164 HD
BRANCH  12  15
ATOM     15  C   UNL A   1      32.647  21.981  23.277  1.00  0.00     0.039 A 
ATOM     16  C   UNL A   1      32.290  24.627  22.405  1.00  0.00     0.067 A 
ATOM     17  C   UNL A   1      33.550  24.043  22.315  1.00  0.00     0.021 A 
ATOM     18  C   UNL A   1      31.200  23.890  22.853  1.00  0.00     0.021 A 
ATOM     19  C   UNL A   1      33.727  22.730  22.773  1.00  0.00     0.015 A 
ATOM     20  C   UNL A   1      31.372  22.550  23.187  1.00  0.00     0.015 A 
BRANCH  16  21
ATOM     21  S   UNL A   1      31.996  26.297  21.884  1.00  0.00     0.175 S 
ATOM     22  C   UNL A   1      30.742  26.838  23.021  1.00  0.00     0.163 C 
ATOM     23  O   UNL A   1      31.416  26.257  20.557  1.00  0.00    -0.224 OA
ATOM     24  O   UNL A   1      33.215  27.036  22.155  1.00  0.00    -0.224 OA
ENDBRANCH  16  21
ENDBRANCH  12  15
ENDBRANCH  10  11
BRANCH  10  25
ATOM     25  C   UNL A   1      36.258  21.278  25.374  1.00  0.00    -0.025 A 
ATOM     26  C   UNL A   1      36.854  20.091  25.003  1.00  0.00     0.006 A 
ATOM     27  C   UNL A   1      37.124  22.337  25.711  1.00  0.00     0.006 A 
ATOM     28  C   UNL A   1      38.231  19.880  25.114  1.00  0.00     0.000 A 
ATOM     29  C   UNL A   1      38.515  22.157  25.761  1.00  0.00     0.000 A 
ATOM     30  C   UNL A   1      39.069  20.914  25.492  1.00  0.00     0.000 A 
ENDBRANCH  10  25
ENDBRANCH   9  10
ENDBRANCH   7   9
ENDBRANCH   6   7
ENDBRANCH   5   6
ENDBRANCH   4   5
ENDBRANCH   3   4
ENDBRANCH   2   3
ENDBRANCH   1   2
BRANCH   1  31
ATOM     31  O   UNL A   1      33.690  28.011  25.023  1.00  0.00    -0.377 OA
BRANCH  31  32
ATOM     32  C   UNL A   1      32.797  29.084  25.302  1.00  0.00     0.188 C 
BRANCH  32  33
ATOM     33  C   UNL A   1      32.478  29.393  26.763  1.00  0.00     0.188 C 
BRANCH  33  34
ATOM     34  O   UNL A   1      31.472  30.364  27.062  1.00  0.00    -0.376 OA
BRANCH  34  35
ATOM     35  C   UNL A   1      31.411  31.547  26.277  1.00  0.00     0.202 C 
BRANCH  35  36
ATOM     36  C   UNL A   1      31.980  32.832  26.874  1.00  0.00     0.261 C 
BRANCH  36  37
ATOM     37  O   UNL A   1      32.947  32.556  27.887  1.00  0.00    -0.460 OA
BRANCH  37  38
ATOM     38  C   UNL A   1      33.924  33.488  27.967  1.00  0.00     0.338 C 
ATOM     39  O   UNL A   1      33.814  34.695  27.960  1.00  0.00    -0.246 OA
BRANCH  38  40
ATOM     40  C   UNL A   1      35.186  32.790  28.243  1.00  0.00     0.060 A 
ATOM     41  C   UNL A   1      35.130  31.401  28.395  1.00  0.00     0.016 A 
ATOM     42  C   UNL A   1      36.381  33.495  28.403  1.00  0.00     0.016 A 
ATOM     43  C   UNL A   1      36.272  30.702  28.736  1.00  0.00     0.010 A 
ATOM     44  C   UNL A   1      37.521  32.799  28.786  1.00  0.00     0.010 A 
ATOM     45  C   UNL A   1      37.449  31.412  28.993  1.00  0.00    -0.014 A 
BRANCH  45  46
ATOM     46  C   UNL A   1      38.515  30.723  29.734  1.00  0.00     0.031 A 
ATOM     47  C   UNL A   1      38.680  31.061  31.186  1.00  0.00     0.074 A 
ATOM     48  C   UNL A   1      39.258  29.784  29.131  1.00  0.00     0.049 A 
ATOM     49  N   UNL A   1      39.554  30.617  32.046  1.00  0.00    -0.248 NA
ATOM     50  C   UNL A   1      37.723  32.034  31.744  1.00  0.00     0.031 C 
ATOM     51  C   UNL A   1      39.111  29.358  27.740  1.00  0.00     0.029 A 
ATOM     52  N   UNL A   1      40.286  29.025  29.616  1.00  0.00    -0.354 N 
ATOM     53  C   UNL A   1      39.260  31.262  33.241  1.00  0.00     0.074 A 
ATOM     54  C   UNL A   1      38.147  32.148  32.993  1.00  0.00     0.031 C 
ATOM     55  C   UNL A   1      40.036  28.418  27.477  1.00  0.00     0.029 A 
ATOM     56  C   UNL A   1      40.852  28.211  28.670  1.00  0.00     0.049 A 
ATOM     57  H   UNL A   1      40.588  29.059  30.552  1.00  0.00     0.167 HD
ATOM     58  C   UNL A   1      39.870  31.116  34.438  1.00  0.00     0.037 A 
ATOM     59  C   UNL A   1      41.933  27.416  28.765  1.00  0.00     0.037 A 
ATOM     60  C   UNL A   1      40.984  30.234  34.651  1.00  0.00     0.049 A 
ATOM     61  C   UNL A   1      42.647  27.337  30.088  1.00  0.00     0.074 A 
ATOM     62  C   UNL A   1      41.689  29.997  35.816  1.00  0.00     0.029 A 
ATOM     63  N   UNL A   1      41.560  29.448  33.662  1.00  0.00    -0.354 N 
ATOM     64  N   UNL A   1      42.363  27.936  31.221  1.00  0.00    -0.248 NA
ATOM     65  C   UNL A   1      43.829  26.469  30.149  1.00  0.00     0.031 C 
ATOM     66  C   UNL A   1      42.731  29.114  35.517  1.00  0.00     0.029 A 
ATOM     67  C   UNL A   1      42.633  28.746  34.182  1.00  0.00     0.049 A 
ATOM     68  H   UNL A   1      41.252  29.398  32.728  1.00  0.00     0.167 HD
ATOM     69  C   UNL A   1      43.309  27.496  32.137  1.00  0.00     0.074 A 
ATOM     70  C   UNL A   1      44.166  26.567  31.427  1.00  0.00     0.031 C 
ATOM     71  C   UNL A   1      43.459  27.824  33.445  1.00  0.00     0.037 A 
BRANCH  58  72
ATOM     72  C   UNL A   1      39.372  31.958  35.577  1.00  0.00     0.057 A 
ATOM     73  C   UNL A   1      38.418  31.489  36.492  1.00  0.00     0.134 A 
ATOM     74  C   UNL A   1      39.860  33.257  35.766  1.00  0.00     0.134 A 
ATOM     75  F   UNL A   1      37.890  30.263  36.356  1.00  0.00    -0.206 F 
ATOM     76  C   UNL A   1      37.952  32.289  37.537  1.00  0.00     0.040 A 
ATOM     77  C   UNL A   1      39.425  34.056  36.825  1.00  0.00     0.040 A 
ATOM     78  F   UNL A   1      40.770  33.771  34.926  1.00  0.00    -0.206 F 
ATOM     79  C   UNL A   1      38.463  33.575  37.710  1.00  0.00     0.006 A 
ENDBRANCH  58  72
BRANCH  59  80
ATOM     80  C   UNL A   1      42.407  26.658  27.581  1.00  0.00     0.057 A 
ATOM     81  C   UNL A   1      41.907  25.386  27.283  1.00  0.00     0.134 A 
ATOM     82  C   UNL A   1      43.377  27.187  26.719  1.00  0.00     0.134 A 
ATOM     83  F   UNL A   1      40.988  24.819  28.077  1.00  0.00    -0.206 F 
ATOM     84  C   UNL A   1      42.369  24.658  26.184  1.00  0.00     0.040 A 
ATOM     85  C   UNL A   1      43.826  26.484  25.601  1.00  0.00     0.040 A 
ATOM     86  F   UNL A   1      43.892  28.405  26.944  1.00  0.00    -0.206 F 
ATOM     87  C   UNL A   1      43.327  25.210  25.336  1.00  0.00     0.006 A 
ENDBRANCH  59  80
BRANCH  71  88
ATOM     88  C   UNL A   1      44.562  27.137  34.196  1.00  0.00     0.057 A 
ATOM     89  C   UNL A   1      44.378  25.896  34.817  1.00  0.00     0.134 A 
ATOM     90  C   UNL A   1      45.840  27.709  34.255  1.00  0.00     0.134 A 
ATOM     91  F   UNL A   1      43.175  25.301  34.805  1.00  0.00    -0.206 F 
ATOM     92  C   UNL A   1      45.419  25.261  35.496  1.00  0.00     0.040 A 
ATOM     93  C   UNL A   1      46.897  27.068  34.901  1.00  0.00     0.040 A 
ATOM     94  F   UNL A   1      46.087  28.890  33.668  1.00  0.00    -0.206 F 
ATOM     95  C   UNL A   1      46.684  25.844  35.532  1.00  0.00     0.006 A 
ENDBRANCH  71  88
ENDBRANCH  45  46
ENDBRANCH  38  40
ENDBRANCH  37  38
ENDBRANCH  36  37
ENDBRANCH  35  36
ENDBRANCH  34  35
ENDBRANCH  33  34
ENDBRANCH  32  33
ENDBRANCH  31  32
ENDBRANCH   1  31
TORSDOF 25
ENDMDL
MODEL 3
REMARK VINA RESULT:      -9.7      4.245      9.931
REMARK SMILES CS(=O)(=O)c1ccc(C(=O)N[C@@H](CC(=O)OCCOCCOCCOCCOC(=O)c2ccc(-c3c4nc(c(-c5c(F)cccc5F)c5ccc([nH]5)c(-c5c(F)cccc5F)c5nc(c(-c6c(F)cccc6F)c6ccc3[nH]6)C=C5)C=C4)cc2)c2ccccc2)cc1
REMARK SMILES IDX 21 1 20 2 19 3 18 4 17 5 16 6 14 7 15 8 13 9 12 10 11 11
REMARK SMILES IDX 9 12 10 13 8 15 5 16 6 17 92 18 7 19 91 20 2 21 1 22 3 23
REMARK SMILES IDX 4 24 85 25 86 26 90 27 87 28 89 29 88 30 22 31 23 32 24 33
REMARK SMILES IDX 25 34 26 35 27 36 28 37 29 38 30 39 31 40 32 41 84 42 33 43
REMARK SMILES IDX 83 44 34 45 35 46 36 47 77 48 37 49 82 50 76 51 78 52 38 53
REMARK SMILES IDX 81 54 75 55 74 56 39 58 65 59 48 60 64 61 49 62 52 63 63 64
REMARK SMILES IDX 79 65 50 66 51 67 62 69 80 70 53 71 40 72 41 73 46 74 42 75
REMARK SMILES IDX 43 76 45 77 47 78 44 79 66 80 67 81 72 82 68 83 69 84 71 85
REMARK SMILES IDX 73 86 70 87 54 88 55 89 60 90 56 91 57 92 59 93 61 94 58 95
REMARK H PARENT 11 14 78 57 52 68
REMARK Flexibility Score: inf
ROOT
ATOM      1  C   UNL A   1      42.094  20.532  27.140  1.00  0.00     0.188 C 
ENDROOT
BRANCH   1   2
ATOM      2  C   UNL A   1      40.911  21.384  27.608  1.00  0.00     0.188 C 
BRANCH   2   3
ATOM      3  O   UNL A   1      40.296  22.177  26.600  1.00  0.00    -0.376 OA
BRANCH   3   4
ATOM      4  C   UNL A   1      39.094  21.671  26.014  1.00  0.00     0.202 C 
BRANCH   4   5
ATOM      5  C   UNL A   1      37.973  22.683  25.679  1.00  0.00     0.261 C 
BRANCH   5   6
ATOM      6  O   UNL A   1      37.373  22.558  24.350  1.00  0.00    -0.463 OA
BRANCH   6   7
ATOM      7  C   UNL A   1      36.034  22.374  24.327  1.00  0.00     0.308 C 
ATOM      8  O   UNL A   1      35.296  22.939  23.517  1.00  0.00    -0.252 OA
BRANCH   7   9
ATOM      9  C   UNL A   1      35.430  21.314  25.235  1.00  0.00     0.152 C 
BRANCH   9  10
ATOM     10  C   UNL A   1      33.995  20.738  25.282  1.00  0.00     0.123 C 
BRANCH  10  11
ATOM     11  N   UNL A   1      33.170  21.201  26.376  1.00  0.00    -0.345 N 
ATOM     12  C   UNL A   1      32.564  22.417  26.624  1.00  0.00     0.251 C 
ATOM     13  O   UNL A   1      31.982  22.553  27.701  1.00  0.00    -0.269 OA
ATOM     14  H   UNL A   1      33.010  20.525  27.073  1.00  0.00     0.164 HD
BRANCH  12  15
ATOM     15  C   UNL A   1      32.498  23.543  25.633  1.00  0.00     0.039 A 
ATOM     16  C   UNL A   1      32.505  25.407  23.532  1.00  0.00     0.067 A 
ATOM     17  C   UNL A   1      31.684  24.287  23.447  1.00  0.00     0.021 A 
ATOM     18  C   UNL A   1      33.262  25.644  24.674  1.00  0.00     0.021 A 
ATOM     19  C   UNL A   1      31.701  23.348  24.489  1.00  0.00     0.015 A 
ATOM     20  C   UNL A   1      33.172  24.763  25.748  1.00  0.00     0.015 A 
BRANCH  16  21
ATOM     21  S   UNL A   1      32.568  26.618  22.238  1.00  0.00     0.175 S 
ATOM     22  C   UNL A   1      32.571  28.147  23.143  1.00  0.00     0.163 C 
ATOM     23  O   UNL A   1      31.330  26.538  21.490  1.00  0.00    -0.224 OA
ATOM     24  O   UNL A   1      33.856  26.463  21.588  1.00  0.00    -0.224 OA
ENDBRANCH  16  21
ENDBRANCH  12  15
ENDBRANCH  10  11
BRANCH  10  25
ATOM     25  C   UNL A   1      33.753  19.313  24.795  1.00  0.00    -0.025 A 
ATOM     26  C   UNL A   1      32.483  18.775  24.820  1.00  0.00     0.006 A 
ATOM     27  C   UNL A   1      34.804  18.428  24.485  1.00  0.00     0.006 A 
ATOM     28  C   UNL A   1      32.253  17.400  24.718  1.00  0.00     0.000 A 
ATOM     29  C   UNL A   1      34.577  17.054  24.313  1.00  0.00     0.000 A 
ATOM     30  C   UNL A   1      33.299  16.532  24.461  1.00  0.00     0.000 A 
ENDBRANCH  10  25
ENDBRANCH   9  10
ENDBRANCH   7   9
ENDBRANCH   6   7
ENDBRANCH   5   6
ENDBRANCH   4   5
ENDBRANCH   3   4
ENDBRANCH   2   3
ENDBRANCH   1   2
BRANCH   1  31
ATOM     31  O   UNL A   1      41.681  19.596  26.152  1.00  0.00    -0.377 OA
BRANCH  31  32
ATOM     32  C   UNL A   1      42.604  18.739  25.489  1.00  0.00     0.188 C 
BRANCH  32  33
ATOM     33  C   UNL A   1      43.921  18.417  26.193  1.00  0.00     0.188 C 
BRANCH  33  34
ATOM     34  O   UNL A   1      45.081  18.147  25.402  1.00  0.00    -0.376 OA
BRANCH  34  35
ATOM     35  C   UNL A   1      46.276  18.865  25.677  1.00  0.00     0.202 C 
BRANCH  35  36
ATOM     36  C   UNL A   1      46.745  19.894  24.651  1.00  0.00     0.261 C 
BRANCH  36  37
ATOM     37  O   UNL A   1      46.364  21.218  25.025  1.00  0.00    -0.460 OA
BRANCH  37  38
ATOM     38  C   UNL A   1      45.167  21.597  24.520  1.00  0.00     0.338 C 
ATOM     39  O   UNL A   1      44.507  21.053  23.662  1.00  0.00    -0.246 OA
BRANCH  38  40
ATOM     40  C   UNL A   1      44.682  22.728  25.321  1.00  0.00     0.060 A 
ATOM     41  C   UNL A   1      44.158  23.825  24.629  1.00  0.00     0.016 A 
ATOM     42  C   UNL A   1      44.794  22.728  26.713  1.00  0.00     0.016 A 
ATOM     43  C   UNL A   1      43.761  24.950  25.327  1.00  0.00     0.010 A 
ATOM     44  C   UNL A   1      44.434  23.874  27.413  1.00  0.00     0.010 A 
ATOM     45  C   UNL A   1      43.961  24.994  26.710  1.00  0.00    -0.014 A 
BRANCH  45  46
ATOM     46  C   UNL A   1      43.923  26.310  27.365  1.00  0.00     0.031 A 
ATOM     47  C   UNL A   1      45.234  26.966  27.679  1.00  0.00     0.074 A 
ATOM     48  C   UNL A   1      42.748  26.910  27.603  1.00  0.00     0.049 A 
ATOM     49  N   UNL A   1      45.470  28.103  28.274  1.00  0.00    -0.248 NA
ATOM     50  C   UNL A   1      46.447  26.238  27.264  1.00  0.00     0.031 C 
ATOM     51  C   UNL A   1      41.436  26.360  27.266  1.00  0.00     0.029 A 
ATOM     52  N   UNL A   1      42.476  28.114  28.190  1.00  0.00    -0.354 N 
ATOM     53  C   UNL A   1      46.854  28.222  28.312  1.00  0.00     0.074 A 
ATOM     54  C   UNL A   1      47.408  27.032  27.708  1.00  0.00     0.031 C 
ATOM     55  C   UNL A   1      40.489  27.225  27.671  1.00  0.00     0.029 A 
ATOM     56  C   UNL A   1      41.133  28.361  28.323  1.00  0.00     0.049 A 
ATOM     57  H   UNL A   1      43.174  28.742  28.486  1.00  0.00     0.167 HD
ATOM     58  C   UNL A   1      47.589  29.242  28.806  1.00  0.00     0.037 A 
ATOM     59  C   UNL A   1      40.511  29.384  28.936  1.00  0.00     0.037 A 
ATOM     60  C   UNL A   1      47.008  30.409  29.411  1.00  0.00     0.049 A 
ATOM     61  C   UNL A   1      41.355  30.466  29.554  1.00  0.00     0.074 A 
ATOM     62  C   UNL A   1      47.644  31.511  29.950  1.00  0.00     0.029 A 
ATOM     63  N   UNL A   1      45.643  30.613  29.565  1.00  0.00    -0.354 N 
ATOM     64  N   UNL A   1      42.662  30.585  29.580  1.00  0.00    -0.248 NA
ATOM     65  C   UNL A   1      40.640  31.558  30.225  1.00  0.00     0.031 C 
ATOM     66  C   UNL A   1      46.665  32.355  30.484  1.00  0.00     0.029 A 
ATOM     67  C   UNL A   1      45.417  31.812  30.217  1.00  0.00     0.049 A 
ATOM     68  H   UNL A   1      44.941  29.997  29.257  1.00  0.00     0.167 HD
ATOM     69  C   UNL A   1      42.926  31.778  30.241  1.00  0.00     0.074 A 
ATOM     70  C   UNL A   1      41.639  32.350  30.585  1.00  0.00     0.031 C 
ATOM     71  C   UNL A   1      44.119  32.353  30.537  1.00  0.00     0.037 A 
BRANCH  58  72
ATOM     72  C   UNL A   1      49.083  29.112  28.749  1.00  0.00     0.057 A 
ATOM     73  C   UNL A   1      49.817  28.481  29.764  1.00  0.00     0.134 A 
ATOM     74  C   UNL A   1      49.800  29.622  27.659  1.00  0.00     0.134 A 
ATOM     75  F   UNL A   1      49.197  27.992  30.849  1.00  0.00    -0.206 F 
ATOM     76  C   UNL A   1      51.209  28.382  29.706  1.00  0.00     0.040 A 
ATOM     77  C   UNL A   1      51.188  29.502  27.575  1.00  0.00     0.040 A 
ATOM     78  F   UNL A   1      49.162  30.242  26.656  1.00  0.00    -0.206 F 
ATOM     79  C   UNL A   1      51.897  28.887  28.603  1.00  0.00     0.006 A 
ENDBRANCH  58  72
BRANCH  59  80
ATOM     80  C   UNL A   1      39.029  29.418  29.009  1.00  0.00     0.057 A 
ATOM     81  C   UNL A   1      38.251  29.663  27.873  1.00  0.00     0.134 A 
ATOM     82  C   UNL A   1      38.355  29.210  30.219  1.00  0.00     0.134 A 
ATOM     83  F   UNL A   1      38.837  29.884  26.687  1.00  0.00    -0.206 F 
ATOM     84  C   UNL A   1      36.857  29.722  27.941  1.00  0.00     0.040 A 
ATOM     85  C   UNL A   1      36.962  29.237  30.296  1.00  0.00     0.040 A 
ATOM     86  F   UNL A   1      39.042  28.963  31.344  1.00  0.00    -0.206 F 
ATOM     87  C   UNL A   1      36.209  29.502  29.155  1.00  0.00     0.006 A 
ENDBRANCH  59  80
BRANCH  71  88
ATOM     88  C   UNL A   1      44.080  33.686  31.226  1.00  0.00     0.057 A 
ATOM     89  C   UNL A   1      44.178  33.806  32.617  1.00  0.00     0.134 A 
ATOM     90  C   UNL A   1      43.992  34.866  30.477  1.00  0.00     0.134 A 
ATOM     91  F   UNL A   1      44.254  32.712  33.391  1.00  0.00    -0.206 F 
ATOM     92  C   UNL A   1      44.159  35.054  33.242  1.00  0.00     0.040 A 
ATOM     93  C   UNL A   1      44.007  36.120  31.087  1.00  0.00     0.040 A 
ATOM     94  F   UNL A   1      43.910  34.821  29.138  1.00  0.00    -0.206 F 
ATOM     95  C   UNL A   1      44.082  36.215  32.475  1.00  0.00     0.006 A 
ENDBRANCH  71  88
ENDBRANCH  45  46
ENDBRANCH  38  40
ENDBRANCH  37  38
ENDBRANCH  36  37
ENDBRANCH  35  36
ENDBRANCH  34  35
ENDBRANCH  33  34
ENDBRANCH  32  33
ENDBRANCH  31  32
ENDBRANCH   1  31
TORSDOF 25
ENDMDL
