MODEL 1
REMARK VINA RESULT:      -8.7      0.000      0.000
REMARK SMILES COc1ccc(/C=C2/C(=O)N(c3ccccc3)C(=O)N=C2OCCOCCOCCOCCOC(=O)c2ccc(-c3c4nc(c(-c5c(F)cccc5F)c5ccc([nH]5)c(-c5c(F)cccc5F)c5nc(c(-c6c(F)cccc6F)c6ccc3[nH]6)C=C5)C=C4)cc2)cc1C(=O)[O-]
REMARK SMILES IDX 29 1 28 2 27 3 26 4 25 5 24 6 23 7 22 8 21 9 7 10 8 11 9 12
REMARK SMILES IDX 10 13 11 14 20 15 18 16 19 17 6 18 3 19 4 20 92 21 5 22
REMARK SMILES IDX 91 23 2 24 1 25 93 26 94 27 95 28 12 29 13 30 17 31 14 32
REMARK SMILES IDX 16 33 15 34 30 35 31 36 32 37 33 38 34 39 35 40 36 41 37 42
REMARK SMILES IDX 38 43 90 44 39 45 89 46 40 47 41 48 42 49 83 50 43 51 88 52
REMARK SMILES IDX 82 53 84 54 44 55 87 56 81 57 80 58 45 60 71 61 54 62 70 63
REMARK SMILES IDX 55 64 58 65 69 66 85 67 56 68 57 69 68 71 86 72 59 73 46 74
REMARK SMILES IDX 47 75 52 76 48 77 49 78 51 79 53 80 50 81 72 82 73 83 78 84
REMARK SMILES IDX 74 85 75 86 77 87 79 88 76 89 60 90 61 91 66 92 62 93 63 94
REMARK SMILES IDX 65 95 67 96 64 97
REMARK H PARENT 84 59 58 70
REMARK Flexibility Score: inf
ROOT
ATOM      1  C   UNL A   1      42.492  19.084  25.885  1.00  0.00     0.188 C 
ENDROOT
BRANCH   1   2
ATOM      2  O   UNL A   1      43.197  20.018  25.092  1.00  0.00    -0.377 OA
BRANCH   2   3
ATOM      3  C   UNL A   1      44.515  19.630  24.749  1.00  0.00     0.188 C 
BRANCH   3   4
ATOM      4  C   UNL A   1      45.743  20.263  25.437  1.00  0.00     0.188 C 
BRANCH   4   5
ATOM      5  O   UNL A   1      46.069  21.647  25.417  1.00  0.00    -0.376 OA
BRANCH   5   6
ATOM      6  C   UNL A   1      45.536  22.679  26.223  1.00  0.00     0.201 C 
BRANCH   6   7
ATOM      7  C   UNL A   1      46.291  23.291  27.402  1.00  0.00     0.260 C 
BRANCH   7   8
ATOM      8  O   UNL A   1      45.850  24.605  27.757  1.00  0.00    -0.475 OA
BRANCH   8   9
ATOM      9  C   UNL A   1      45.355  24.776  28.989  1.00  0.00     0.231 C 
ATOM     10  C   UNL A   1      47.117  26.590  29.491  1.00  0.00     0.027 C 
ATOM     11  C   UNL A   1      46.119  25.720  29.823  1.00  0.00     0.103 C 
ATOM     12  C   UNL A   1      45.787  25.577  31.299  1.00  0.00     0.272 C 
ATOM     13  O   UNL A   1      46.319  26.305  32.136  1.00  0.00    -0.268 OA
ATOM     14  N   UNL A   1      44.911  24.536  31.606  1.00  0.00    -0.226 N 
ATOM     15  N   UNL A   1      44.383  24.036  29.362  1.00  0.00    -0.156 NA
ATOM     16  C   UNL A   1      44.071  23.922  30.675  1.00  0.00     0.358 C 
ATOM     17  O   UNL A   1      43.094  23.250  30.997  1.00  0.00    -0.245 OA
BRANCH  10  18
ATOM     18  C   UNL A   1      47.905  26.980  28.266  1.00  0.00    -0.024 A 
ATOM     19  C   UNL A   1      49.228  27.957  25.906  1.00  0.00     0.127 A 
ATOM     20  C   UNL A   1      49.949  27.463  26.984  1.00  0.00     0.048 A 
ATOM     21  C   UNL A   1      47.838  27.859  25.943  1.00  0.00     0.040 A 
ATOM     22  C   UNL A   1      49.294  26.940  28.113  1.00  0.00     0.012 A 
ATOM     23  C   UNL A   1      47.191  27.431  27.132  1.00  0.00     0.022 A 
BRANCH  19  24
ATOM     24  O   UNL A   1      49.976  28.395  24.848  1.00  0.00    -0.496 OA
ATOM     25  C   UNL A   1      50.519  27.327  24.068  1.00  0.00     0.278 C 
ENDBRANCH  19  24
BRANCH  21  26
ATOM     26  C   UNL A   1      46.983  28.106  24.762  1.00  0.00     0.075 C 
ATOM     27  O   UNL A   1      46.263  29.075  24.595  1.00  0.00    -0.545 OA
ATOM     28  O   UNL A   1      46.978  27.071  23.903  1.00  0.00    -0.545 OA
ENDBRANCH  21  26
ENDBRANCH  10  18
BRANCH  14  29
ATOM     29  C   UNL A   1      44.729  24.121  32.957  1.00  0.00     0.054 A 
ATOM     30  C   UNL A   1      45.524  23.080  33.467  1.00  0.00     0.027 A 
ATOM     31  C   UNL A   1      43.667  24.615  33.716  1.00  0.00     0.027 A 
ATOM     32  C   UNL A   1      45.255  22.538  34.724  1.00  0.00     0.002 A 
ATOM     33  C   UNL A   1      43.381  24.044  34.958  1.00  0.00     0.002 A 
ATOM     34  C   UNL A   1      44.173  23.010  35.462  1.00  0.00     0.000 A 
ENDBRANCH  14  29
ENDBRANCH   8   9
ENDBRANCH   7   8
ENDBRANCH   6   7
ENDBRANCH   5   6
ENDBRANCH   4   5
ENDBRANCH   3   4
ENDBRANCH   2   3
ENDBRANCH   1   2
BRANCH   1  35
ATOM     35  C   UNL A   1      41.230  19.707  26.497  1.00  0.00     0.188 C 
BRANCH  35  36
ATOM     36  O   UNL A   1      40.605  20.639  25.626  1.00  0.00    -0.376 OA
BRANCH  36  37
ATOM     37  C   UNL A   1      39.639  21.530  26.172  1.00  0.00     0.202 C 
BRANCH  37  38
ATOM     38  C   UNL A   1      40.095  22.722  27.035  1.00  0.00     0.261 C 
BRANCH  38  39
ATOM     39  O   UNL A   1      40.388  23.948  26.345  1.00  0.00    -0.460 OA
BRANCH  39  40
ATOM     40  C   UNL A   1      41.544  24.576  26.634  1.00  0.00     0.338 C 
ATOM     41  O   UNL A   1      42.636  24.394  26.129  1.00  0.00    -0.246 OA
BRANCH  40  42
ATOM     42  C   UNL A   1      41.214  25.695  27.542  1.00  0.00     0.060 A 
ATOM     43  C   UNL A   1      42.033  26.832  27.533  1.00  0.00     0.016 A 
ATOM     44  C   UNL A   1      40.090  25.636  28.370  1.00  0.00     0.016 A 
ATOM     45  C   UNL A   1      41.753  27.897  28.385  1.00  0.00     0.010 A 
ATOM     46  C   UNL A   1      39.826  26.691  29.245  1.00  0.00     0.010 A 
ATOM     47  C   UNL A   1      40.679  27.808  29.280  1.00  0.00    -0.014 A 
BRANCH  47  48
ATOM     48  C   UNL A   1      40.605  28.760  30.410  1.00  0.00     0.031 A 
ATOM     49  C   UNL A   1      39.569  29.848  30.343  1.00  0.00     0.074 A 
ATOM     50  C   UNL A   1      41.402  28.642  31.485  1.00  0.00     0.049 A 
ATOM     51  N   UNL A   1      39.312  30.806  31.194  1.00  0.00    -0.248 NA
ATOM     52  C   UNL A   1      38.700  29.848  29.154  1.00  0.00     0.031 C 
ATOM     53  C   UNL A   1      42.403  27.598  31.689  1.00  0.00     0.029 A 
ATOM     54  N   UNL A   1      41.491  29.421  32.611  1.00  0.00    -0.354 N 
ATOM     55  C   UNL A   1      38.248  31.514  30.648  1.00  0.00     0.074 A 
ATOM     56  C   UNL A   1      37.936  30.905  29.375  1.00  0.00     0.031 C 
ATOM     57  C   UNL A   1      43.025  27.815  32.863  1.00  0.00     0.029 A 
ATOM     58  C   UNL A   1      42.476  29.021  33.480  1.00  0.00     0.049 A 
ATOM     59  H   UNL A   1      40.904  30.193  32.779  1.00  0.00     0.167 HD
ATOM     60  C   UNL A   1      37.579  32.568  31.169  1.00  0.00     0.037 A 
ATOM     61  C   UNL A   1      42.891  29.581  34.632  1.00  0.00     0.037 A 
ATOM     62  C   UNL A   1      37.901  33.184  32.428  1.00  0.00     0.049 A 
ATOM     63  C   UNL A   1      42.195  30.815  35.145  1.00  0.00     0.074 A 
ATOM     64  C   UNL A   1      37.291  34.262  33.043  1.00  0.00     0.029 A 
ATOM     65  N   UNL A   1      38.932  32.776  33.261  1.00  0.00    -0.354 N 
ATOM     66  N   UNL A   1      41.177  31.467  34.633  1.00  0.00    -0.248 NA
ATOM     67  C   UNL A   1      42.698  31.386  36.403  1.00  0.00     0.031 C 
ATOM     68  C   UNL A   1      37.983  34.535  34.228  1.00  0.00     0.029 A 
ATOM     69  C   UNL A   1      38.989  33.594  34.376  1.00  0.00     0.049 A 
ATOM     70  H   UNL A   1      39.534  32.016  33.085  1.00  0.00     0.167 HD
ATOM     71  C   UNL A   1      40.895  32.496  35.525  1.00  0.00     0.074 A 
ATOM     72  C   UNL A   1      41.843  32.377  36.612  1.00  0.00     0.031 C 
ATOM     73  C   UNL A   1      39.934  33.450  35.454  1.00  0.00     0.037 A 
BRANCH  60  74
ATOM     74  C   UNL A   1      36.447  33.130  30.359  1.00  0.00     0.057 A 
ATOM     75  C   UNL A   1      36.671  34.003  29.286  1.00  0.00     0.134 A 
ATOM     76  C   UNL A   1      35.122  32.787  30.649  1.00  0.00     0.134 A 
ATOM     77  F   UNL A   1      37.916  34.389  28.970  1.00  0.00    -0.206 F 
ATOM     78  C   UNL A   1      35.613  34.532  28.543  1.00  0.00     0.040 A 
ATOM     79  C   UNL A   1      34.058  33.288  29.898  1.00  0.00     0.040 A 
ATOM     80  F   UNL A   1      34.839  31.958  31.666  1.00  0.00    -0.206 F 
ATOM     81  C   UNL A   1      34.302  34.169  28.845  1.00  0.00     0.006 A 
ENDBRANCH  60  74
BRANCH  61  82
ATOM     82  C   UNL A   1      44.028  28.991  35.383  1.00  0.00     0.057 A 
ATOM     83  C   UNL A   1      45.346  29.404  35.151  1.00  0.00     0.134 A 
ATOM     84  C   UNL A   1      43.827  27.973  36.323  1.00  0.00     0.134 A 
ATOM     85  F   UNL A   1      45.604  30.359  34.246  1.00  0.00    -0.206 F 
ATOM     86  C   UNL A   1      46.425  28.809  35.807  1.00  0.00     0.040 A 
ATOM     87  C   UNL A   1      44.895  27.388  37.006  1.00  0.00     0.040 A 
ATOM     88  F   UNL A   1      42.589  27.532  36.590  1.00  0.00    -0.206 F 
ATOM     89  C   UNL A   1      46.200  27.799  36.741  1.00  0.00     0.006 A 
ENDBRANCH  61  82
BRANCH  73  90
ATOM     90  C   UNL A   1      39.828  34.406  36.608  1.00  0.00     0.057 A 
ATOM     91  C   UNL A   1      40.496  35.636  36.620  1.00  0.00     0.134 A 
ATOM     92  C   UNL A   1      39.019  34.099  37.710  1.00  0.00     0.134 A 
ATOM     93  F   UNL A   1      41.295  35.985  35.600  1.00  0.00    -0.206 F 
ATOM     94  C   UNL A   1      40.388  36.515  37.700  1.00  0.00     0.040 A 
ATOM     95  C   UNL A   1      38.878  34.982  38.782  1.00  0.00     0.040 A 
ATOM     96  F   UNL A   1      38.341  32.942  37.758  1.00  0.00    -0.206 F 
ATOM     97  C   UNL A   1      39.572  36.190  38.782  1.00  0.00     0.006 A 
ENDBRANCH  73  90
ENDBRANCH  47  48
ENDBRANCH  40  42
ENDBRANCH  39  40
ENDBRANCH  38  39
ENDBRANCH  37  38
ENDBRANCH  36  37
ENDBRANCH  35  36
ENDBRANCH   1  35
TORSDOF 23
ENDMDL
MODEL 2
REMARK VINA RESULT:      -8.6      5.866     12.183
REMARK SMILES COc1ccc(/C=C2/C(=O)N(c3ccccc3)C(=O)N=C2OCCOCCOCCOCCOC(=O)c2ccc(-c3c4nc(c(-c5c(F)cccc5F)c5ccc([nH]5)c(-c5c(F)cccc5F)c5nc(c(-c6c(F)cccc6F)c6ccc3[nH]6)C=C5)C=C4)cc2)cc1C(=O)[O-]
REMARK SMILES IDX 29 1 28 2 27 3 26 4 25 5 24 6 23 7 22 8 21 9 7 10 8 11 9 12
REMARK SMILES IDX 10 13 11 14 20 15 18 16 19 17 6 18 3 19 4 20 92 21 5 22
REMARK SMILES IDX 91 23 2 24 1 25 93 26 94 27 95 28 12 29 13 30 17 31 14 32
REMARK SMILES IDX 16 33 15 34 30 35 31 36 32 37 33 38 34 39 35 40 36 41 37 42
REMARK SMILES IDX 38 43 90 44 39 45 89 46 40 47 41 48 42 49 83 50 43 51 88 52
REMARK SMILES IDX 82 53 84 54 44 55 87 56 81 57 80 58 45 60 71 61 54 62 70 63
REMARK SMILES IDX 55 64 58 65 69 66 85 67 56 68 57 69 68 71 86 72 59 73 46 74
REMARK SMILES IDX 47 75 52 76 48 77 49 78 51 79 53 80 50 81 72 82 73 83 78 84
REMARK SMILES IDX 74 85 75 86 77 87 79 88 76 89 60 90 61 91 66 92 62 93 63 94
REMARK SMILES IDX 65 95 67 96 64 97
REMARK H PARENT 84 59 58 70
REMARK Flexibility Score: inf
ROOT
ATOM      1  C   UNL A   1      40.908  28.789  28.896  1.00  0.00     0.188 C 
ENDROOT
BRANCH   1   2
ATOM      2  O   UNL A   1      40.937  29.495  30.121  1.00  0.00    -0.377 OA
BRANCH   2   3
ATOM      3  C   UNL A   1      40.383  30.798  30.068  1.00  0.00     0.188 C 
BRANCH   3   4
ATOM      4  C   UNL A   1      38.975  31.093  30.625  1.00  0.00     0.188 C 
BRANCH   4   5
ATOM      5  O   UNL A   1      38.129  32.150  30.192  1.00  0.00    -0.376 OA
BRANCH   5   6
ATOM      6  C   UNL A   1      38.495  33.344  29.530  1.00  0.00     0.201 C 
BRANCH   6   7
ATOM      7  C   UNL A   1      39.217  34.498  30.226  1.00  0.00     0.260 C 
BRANCH   7   8
ATOM      8  O   UNL A   1      38.579  34.946  31.425  1.00  0.00    -0.475 OA
BRANCH   8   9
ATOM      9  C   UNL A   1      39.134  34.583  32.589  1.00  0.00     0.231 C 
ATOM     10  C   UNL A   1      36.805  34.286  33.654  1.00  0.00     0.027 C 
ATOM     11  C   UNL A   1      38.167  34.370  33.679  1.00  0.00     0.103 C 
ATOM     12  C   UNL A   1      38.836  34.368  35.044  1.00  0.00     0.272 C 
ATOM     13  O   UNL A   1      38.178  34.180  36.067  1.00  0.00    -0.268 OA
ATOM     14  N   UNL A   1      40.201  34.661  35.030  1.00  0.00    -0.226 N 
ATOM     15  N   UNL A   1      40.408  34.584  32.681  1.00  0.00    -0.156 NA
ATOM     16  C   UNL A   1      41.008  34.563  33.896  1.00  0.00     0.358 C 
ATOM     17  O   UNL A   1      42.234  34.504  33.951  1.00  0.00    -0.245 OA
BRANCH  10  18
ATOM     18  C   UNL A   1      35.692  34.392  32.643  1.00  0.00    -0.024 A 
ATOM     19  C   UNL A   1      33.637  34.880  30.690  1.00  0.00     0.127 A 
ATOM     20  C   UNL A   1      34.429  33.742  30.634  1.00  0.00     0.048 A 
ATOM     21  C   UNL A   1      33.779  35.728  31.788  1.00  0.00     0.040 A 
ATOM     22  C   UNL A   1      35.397  33.486  31.620  1.00  0.00     0.012 A 
ATOM     23  C   UNL A   1      34.832  35.513  32.715  1.00  0.00     0.022 A 
BRANCH  19  24
ATOM     24  O   UNL A   1      32.700  34.996  29.700  1.00  0.00    -0.496 OA
ATOM     25  C   UNL A   1      33.096  34.364  28.481  1.00  0.00     0.278 C 
ENDBRANCH  19  24
BRANCH  21  26
ATOM     26  C   UNL A   1      32.825  36.816  32.093  1.00  0.00     0.075 C 
ATOM     27  O   UNL A   1      33.111  37.991  32.241  1.00  0.00    -0.545 OA
ATOM     28  O   UNL A   1      31.579  36.363  32.317  1.00  0.00    -0.545 OA
ENDBRANCH  21  26
ENDBRANCH  10  18
BRANCH  14  29
ATOM     29  C   UNL A   1      40.887  34.957  36.243  1.00  0.00     0.054 A 
ATOM     30  C   UNL A   1      41.298  36.279  36.492  1.00  0.00     0.027 A 
ATOM     31  C   UNL A   1      41.301  33.932  37.094  1.00  0.00     0.027 A 
ATOM     32  C   UNL A   1      42.118  36.568  37.583  1.00  0.00     0.002 A 
ATOM     33  C   UNL A   1      42.151  34.224  38.164  1.00  0.00     0.002 A 
ATOM     34  C   UNL A   1      42.557  35.537  38.409  1.00  0.00     0.000 A 
ENDBRANCH  14  29
ENDBRANCH   8   9
ENDBRANCH   7   8
ENDBRANCH   6   7
ENDBRANCH   5   6
ENDBRANCH   4   5
ENDBRANCH   3   4
ENDBRANCH   2   3
ENDBRANCH   1   2
BRANCH   1  35
ATOM     35  C   UNL A   1      39.791  27.736  28.882  1.00  0.00     0.188 C 
BRANCH  35  36
ATOM     36  O   UNL A   1      39.980  26.755  27.873  1.00  0.00    -0.376 OA
BRANCH  36  37
ATOM     37  C   UNL A   1      39.559  25.422  28.141  1.00  0.00     0.202 C 
BRANCH  37  38
ATOM     38  C   UNL A   1      39.981  24.279  27.198  1.00  0.00     0.261 C 
BRANCH  38  39
ATOM     39  O   UNL A   1      41.217  23.611  27.500  1.00  0.00    -0.460 OA
BRANCH  39  40
ATOM     40  C   UNL A   1      42.136  23.507  26.521  1.00  0.00     0.338 C 
ATOM     41  O   UNL A   1      42.196  22.668  25.642  1.00  0.00    -0.246 OA
BRANCH  40  42
ATOM     42  C   UNL A   1      42.959  24.735  26.567  1.00  0.00     0.060 A 
ATOM     43  C   UNL A   1      43.248  25.396  25.366  1.00  0.00     0.016 A 
ATOM     44  C   UNL A   1      43.414  25.244  27.786  1.00  0.00     0.016 A 
ATOM     45  C   UNL A   1      44.029  26.549  25.378  1.00  0.00     0.010 A 
ATOM     46  C   UNL A   1      44.222  26.383  27.795  1.00  0.00     0.010 A 
ATOM     47  C   UNL A   1      44.562  27.015  26.587  1.00  0.00    -0.014 A 
BRANCH  47  48
ATOM     48  C   UNL A   1      45.664  28.002  26.553  1.00  0.00     0.031 A 
ATOM     49  C   UNL A   1      45.304  29.459  26.641  1.00  0.00     0.074 A 
ATOM     50  C   UNL A   1      46.951  27.619  26.489  1.00  0.00     0.049 A 
ATOM     51  N   UNL A   1      46.079  30.511  26.621  1.00  0.00    -0.248 NA
ATOM     52  C   UNL A   1      43.870  29.769  26.777  1.00  0.00     0.031 C 
ATOM     53  C   UNL A   1      47.425  26.238  26.456  1.00  0.00     0.029 A 
ATOM     54  N   UNL A   1      48.096  28.373  26.437  1.00  0.00    -0.354 N 
ATOM     55  C   UNL A   1      45.230  31.603  26.752  1.00  0.00     0.074 A 
ATOM     56  C   UNL A   1      43.879  31.091  26.807  1.00  0.00     0.031 C 
ATOM     57  C   UNL A   1      48.768  26.242  26.366  1.00  0.00     0.029 A 
ATOM     58  C   UNL A   1      49.241  27.624  26.316  1.00  0.00     0.049 A 
ATOM     59  H   UNL A   1      48.097  29.356  26.481  1.00  0.00     0.167 HD
ATOM     60  C   UNL A   1      45.548  32.915  26.837  1.00  0.00     0.037 A 
ATOM     61  C   UNL A   1      50.520  28.019  26.168  1.00  0.00     0.037 A 
ATOM     62  C   UNL A   1      46.891  33.424  26.765  1.00  0.00     0.049 A 
ATOM     63  C   UNL A   1      50.841  29.492  26.165  1.00  0.00     0.074 A 
ATOM     64  C   UNL A   1      47.322  34.737  26.832  1.00  0.00     0.029 A 
ATOM     65  N   UNL A   1      48.022  32.638  26.602  1.00  0.00    -0.354 N 
ATOM     66  N   UNL A   1      50.035  30.517  26.309  1.00  0.00    -0.248 NA
ATOM     67  C   UNL A   1      52.254  29.861  25.990  1.00  0.00     0.031 C 
ATOM     68  C   UNL A   1      48.711  34.748  26.663  1.00  0.00     0.029 A 
ATOM     69  C   UNL A   1      49.149  33.439  26.546  1.00  0.00     0.049 A 
ATOM     70  H   UNL A   1      48.022  31.655  26.537  1.00  0.00     0.167 HD
ATOM     71  C   UNL A   1      50.845  31.646  26.283  1.00  0.00     0.074 A 
ATOM     72  C   UNL A   1      52.205  31.180  26.116  1.00  0.00     0.031 C 
ATOM     73  C   UNL A   1      50.497  32.953  26.393  1.00  0.00     0.037 A 
BRANCH  60  74
ATOM     74  C   UNL A   1      44.415  33.887  26.992  1.00  0.00     0.057 A 
ATOM     75  C   UNL A   1      43.774  34.456  25.884  1.00  0.00     0.134 A 
ATOM     76  C   UNL A   1      43.955  34.250  28.263  1.00  0.00     0.134 A 
ATOM     77  F   UNL A   1      44.180  34.166  24.639  1.00  0.00    -0.206 F 
ATOM     78  C   UNL A   1      42.727  35.368  26.036  1.00  0.00     0.040 A 
ATOM     79  C   UNL A   1      42.893  35.140  28.428  1.00  0.00     0.040 A 
ATOM     80  F   UNL A   1      44.528  33.744  29.366  1.00  0.00    -0.206 F 
ATOM     81  C   UNL A   1      42.280  35.707  27.311  1.00  0.00     0.006 A 
ENDBRANCH  60  74
BRANCH  61  82
ATOM     82  C   UNL A   1      51.599  27.013  26.000  1.00  0.00     0.057 A 
ATOM     83  C   UNL A   1      51.937  26.512  24.737  1.00  0.00     0.134 A 
ATOM     84  C   UNL A   1      52.291  26.499  27.104  1.00  0.00     0.134 A 
ATOM     85  F   UNL A   1      51.294  26.948  23.644  1.00  0.00    -0.206 F 
ATOM     86  C   UNL A   1      52.906  25.520  24.578  1.00  0.00     0.040 A 
ATOM     87  C   UNL A   1      53.281  25.526  26.957  1.00  0.00     0.040 A 
ATOM     88  F   UNL A   1      52.012  26.936  28.340  1.00  0.00    -0.206 F 
ATOM     89  C   UNL A   1      53.583  25.026  25.692  1.00  0.00     0.006 A 
ENDBRANCH  61  82
BRANCH  73  90
ATOM     90  C   UNL A   1      51.608  33.963  26.389  1.00  0.00     0.057 A 
ATOM     91  C   UNL A   1      52.105  34.520  25.204  1.00  0.00     0.134 A 
ATOM     92  C   UNL A   1      52.166  34.407  27.595  1.00  0.00     0.134 A 
ATOM     93  F   UNL A   1      51.622  34.129  24.015  1.00  0.00    -0.206 F 
ATOM     94  C   UNL A   1      53.138  35.459  25.217  1.00  0.00     0.040 A 
ATOM     95  C   UNL A   1      53.179  35.367  27.623  1.00  0.00     0.040 A 
ATOM     96  F   UNL A   1      51.728  33.924  28.768  1.00  0.00    -0.206 F 
ATOM     97  C   UNL A   1      53.674  35.888  26.430  1.00  0.00     0.006 A 
ENDBRANCH  73  90
ENDBRANCH  47  48
ENDBRANCH  40  42
ENDBRANCH  39  40
ENDBRANCH  38  39
ENDBRANCH  37  38
ENDBRANCH  36  37
ENDBRANCH  35  36
ENDBRANCH   1  35
TORSDOF 23
ENDMDL
MODEL 3
REMARK VINA RESULT:      -8.5      5.126     11.386
REMARK SMILES COc1ccc(/C=C2/C(=O)N(c3ccccc3)C(=O)N=C2OCCOCCOCCOCCOC(=O)c2ccc(-c3c4nc(c(-c5c(F)cccc5F)c5ccc([nH]5)c(-c5c(F)cccc5F)c5nc(c(-c6c(F)cccc6F)c6ccc3[nH]6)C=C5)C=C4)cc2)cc1C(=O)[O-]
REMARK SMILES IDX 29 1 28 2 27 3 26 4 25 5 24 6 23 7 22 8 21 9 7 10 8 11 9 12
REMARK SMILES IDX 10 13 11 14 20 15 18 16 19 17 6 18 3 19 4 20 92 21 5 22
REMARK SMILES IDX 91 23 2 24 1 25 93 26 94 27 95 28 12 29 13 30 17 31 14 32
REMARK SMILES IDX 16 33 15 34 30 35 31 36 32 37 33 38 34 39 35 40 36 41 37 42
REMARK SMILES IDX 38 43 90 44 39 45 89 46 40 47 41 48 42 49 83 50 43 51 88 52
REMARK SMILES IDX 82 53 84 54 44 55 87 56 81 57 80 58 45 60 71 61 54 62 70 63
REMARK SMILES IDX 55 64 58 65 69 66 85 67 56 68 57 69 68 71 86 72 59 73 46 74
REMARK SMILES IDX 47 75 52 76 48 77 49 78 51 79 53 80 50 81 72 82 73 83 78 84
REMARK SMILES IDX 74 85 75 86 77 87 79 88 76 89 60 90 61 91 66 92 62 93 63 94
REMARK SMILES IDX 65 95 67 96 64 97
REMARK H PARENT 84 59 58 70
REMARK Flexibility Score: inf
ROOT
ATOM      1  C   UNL A   1      38.628  28.886  28.133  1.00  0.00     0.188 C 
ENDROOT
BRANCH   1   2
ATOM      2  O   UNL A   1      38.902  27.689  28.834  1.00  0.00    -0.377 OA
BRANCH   2   3
ATOM      3  C   UNL A   1      39.759  26.788  28.156  1.00  0.00     0.188 C 
BRANCH   3   4
ATOM      4  C   UNL A   1      39.305  25.354  27.814  1.00  0.00     0.188 C 
BRANCH   4   5
ATOM      5  O   UNL A   1      39.345  24.769  26.519  1.00  0.00    -0.376 OA
BRANCH   5   6
ATOM      6  C   UNL A   1      38.318  24.064  25.850  1.00  0.00     0.201 C 
BRANCH   6   7
ATOM      7  C   UNL A   1      37.182  23.350  26.581  1.00  0.00     0.260 C 
BRANCH   7   8
ATOM      8  O   UNL A   1      35.924  23.407  25.901  1.00  0.00    -0.475 OA
BRANCH   8   9
ATOM      9  C   UNL A   1      35.524  22.304  25.256  1.00  0.00     0.231 C 
ATOM     10  C   UNL A   1      33.362  23.484  24.495  1.00  0.00     0.027 C 
ATOM     11  C   UNL A   1      34.179  22.404  24.665  1.00  0.00     0.103 C 
ATOM     12  C   UNL A   1      33.606  21.040  24.314  1.00  0.00     0.272 C 
ATOM     13  O   UNL A   1      32.498  20.940  23.789  1.00  0.00    -0.268 OA
ATOM     14  N   UNL A   1      34.397  19.955  24.694  1.00  0.00    -0.226 N 
ATOM     15  N   UNL A   1      36.259  21.261  25.321  1.00  0.00    -0.156 NA
ATOM     16  C   UNL A   1      35.758  20.047  24.989  1.00  0.00     0.358 C 
ATOM     17  O   UNL A   1      36.506  19.072  25.004  1.00  0.00    -0.245 OA
BRANCH  10  18
ATOM     18  C   UNL A   1      33.369  24.958  24.811  1.00  0.00    -0.024 A 
ATOM     19  C   UNL A   1      33.205  27.806  25.181  1.00  0.00     0.127 A 
ATOM     20  C   UNL A   1      33.141  26.934  26.259  1.00  0.00     0.048 A 
ATOM     21  C   UNL A   1      33.472  27.276  23.920  1.00  0.00     0.040 A 
ATOM     22  C   UNL A   1      33.273  25.547  26.075  1.00  0.00     0.012 A 
ATOM     23  C   UNL A   1      33.493  25.868  23.735  1.00  0.00     0.022 A 
BRANCH  19  24
ATOM     24  O   UNL A   1      33.110  29.135  25.491  1.00  0.00    -0.496 OA
ATOM     25  C   UNL A   1      31.780  29.642  25.367  1.00  0.00     0.278 C 
ENDBRANCH  19  24
BRANCH  21  26
ATOM     26  C   UNL A   1      33.820  28.113  22.752  1.00  0.00     0.075 C 
ATOM     27  O   UNL A   1      33.867  29.331  22.740  1.00  0.00    -0.545 OA
ATOM     28  O   UNL A   1      33.973  27.394  21.627  1.00  0.00    -0.545 OA
ENDBRANCH  21  26
ENDBRANCH  10  18
BRANCH  14  29
ATOM     29  C   UNL A   1      33.866  18.633  24.672  1.00  0.00     0.054 A 
ATOM     30  C   UNL A   1      32.928  18.256  25.649  1.00  0.00     0.027 A 
ATOM     31  C   UNL A   1      34.390  17.671  23.808  1.00  0.00     0.027 A 
ATOM     32  C   UNL A   1      32.520  16.926  25.759  1.00  0.00     0.002 A 
ATOM     33  C   UNL A   1      34.004  16.335  23.946  1.00  0.00     0.002 A 
ATOM     34  C   UNL A   1      33.072  15.963  24.917  1.00  0.00     0.000 A 
ENDBRANCH  14  29
ENDBRANCH   8   9
ENDBRANCH   7   8
ENDBRANCH   6   7
ENDBRANCH   5   6
ENDBRANCH   4   5
ENDBRANCH   3   4
ENDBRANCH   2   3
ENDBRANCH   1   2
BRANCH   1  35
ATOM     35  C   UNL A   1      37.166  29.319  28.311  1.00  0.00     0.188 C 
BRANCH  35  36
ATOM     36  O   UNL A   1      36.955  30.681  27.967  1.00  0.00    -0.376 OA
BRANCH  36  37
ATOM     37  C   UNL A   1      37.518  31.683  28.806  1.00  0.00     0.202 C 
BRANCH  37  38
ATOM     38  C   UNL A   1      36.823  32.056  30.129  1.00  0.00     0.261 C 
BRANCH  38  39
ATOM     39  O   UNL A   1      37.442  31.593  31.341  1.00  0.00    -0.460 OA
BRANCH  39  40
ATOM     40  C   UNL A   1      37.191  30.331  31.737  1.00  0.00     0.338 C 
ATOM     41  O   UNL A   1      36.161  29.699  31.603  1.00  0.00    -0.246 OA
BRANCH  40  42
ATOM     42  C   UNL A   1      38.477  29.755  32.187  1.00  0.00     0.060 A 
ATOM     43  C   UNL A   1      39.551  30.621  32.433  1.00  0.00     0.016 A 
ATOM     44  C   UNL A   1      38.611  28.380  32.394  1.00  0.00     0.016 A 
ATOM     45  C   UNL A   1      40.777  30.107  32.848  1.00  0.00     0.010 A 
ATOM     46  C   UNL A   1      39.848  27.862  32.781  1.00  0.00     0.010 A 
ATOM     47  C   UNL A   1      40.944  28.722  32.972  1.00  0.00    -0.014 A 
BRANCH  47  48
ATOM     48  C   UNL A   1      42.314  28.168  33.054  1.00  0.00     0.031 A 
ATOM     49  C   UNL A   1      43.027  27.865  31.765  1.00  0.00     0.074 A 
ATOM     50  C   UNL A   1      42.928  27.978  34.234  1.00  0.00     0.049 A 
ATOM     51  N   UNL A   1      44.220  27.368  31.570  1.00  0.00    -0.248 NA
ATOM     52  C   UNL A   1      42.292  28.175  30.526  1.00  0.00     0.031 C 
ATOM     53  C   UNL A   1      42.361  28.286  35.545  1.00  0.00     0.029 A 
ATOM     54  N   UNL A   1      44.172  27.472  34.513  1.00  0.00    -0.354 N 
ATOM     55  C   UNL A   1      44.381  27.315  30.191  1.00  0.00     0.074 A 
ATOM     56  C   UNL A   1      43.151  27.788  29.597  1.00  0.00     0.031 C 
ATOM     57  C   UNL A   1      43.249  27.940  36.495  1.00  0.00     0.029 A 
ATOM     58  C   UNL A   1      44.435  27.371  35.857  1.00  0.00     0.049 A 
ATOM     59  H   UNL A   1      44.814  27.206  33.816  1.00  0.00     0.167 HD
ATOM     60  C   UNL A   1      45.464  26.922  29.481  1.00  0.00     0.037 A 
ATOM     61  C   UNL A   1      45.508  26.861  36.491  1.00  0.00     0.037 A 
ATOM     62  C   UNL A   1      46.681  26.436  30.073  1.00  0.00     0.049 A 
ATOM     63  C   UNL A   1      46.665  26.336  35.679  1.00  0.00     0.074 A 
ATOM     64  C   UNL A   1      47.835  26.005  29.445  1.00  0.00     0.029 A 
ATOM     65  N   UNL A   1      46.895  26.310  31.437  1.00  0.00    -0.354 N 
ATOM     66  N   UNL A   1      46.818  26.307  34.375  1.00  0.00    -0.248 NA
ATOM     67  C   UNL A   1      47.803  25.784  36.427  1.00  0.00     0.031 C 
ATOM     68  C   UNL A   1      48.731  25.575  30.428  1.00  0.00     0.029 A 
ATOM     69  C   UNL A   1      48.156  25.788  31.671  1.00  0.00     0.049 A 
ATOM     70  H   UNL A   1      46.246  26.556  32.137  1.00  0.00     0.167 HD
ATOM     71  C   UNL A   1      48.081  25.773  34.151  1.00  0.00     0.074 A 
ATOM     72  C   UNL A   1      48.655  25.499  35.451  1.00  0.00     0.031 C 
ATOM     73  C   UNL A   1      48.714  25.536  32.975  1.00  0.00     0.037 A 
BRANCH  60  74
ATOM     74  C   UNL A   1      45.363  26.985  27.986  1.00  0.00     0.057 A 
ATOM     75  C   UNL A   1      44.862  25.913  27.235  1.00  0.00     0.134 A 
ATOM     76  C   UNL A   1      45.762  28.132  27.290  1.00  0.00     0.134 A 
ATOM     77  F   UNL A   1      44.482  24.777  27.839  1.00  0.00    -0.206 F 
ATOM     78  C   UNL A   1      44.781  25.972  25.842  1.00  0.00     0.040 A 
ATOM     79  C   UNL A   1      45.662  28.213  25.900  1.00  0.00     0.040 A 
ATOM     80  F   UNL A   1      46.254  29.192  27.949  1.00  0.00    -0.206 F 
ATOM     81  C   UNL A   1      45.176  27.129  25.172  1.00  0.00     0.006 A 
ENDBRANCH  60  74
BRANCH  61  82
ATOM     82  C   UNL A   1      45.546  26.809  37.974  1.00  0.00     0.057 A 
ATOM     83  C   UNL A   1      44.917  25.777  38.682  1.00  0.00     0.134 A 
ATOM     84  C   UNL A   1      46.178  27.811  38.720  1.00  0.00     0.134 A 
ATOM     85  F   UNL A   1      44.275  24.802  38.024  1.00  0.00    -0.206 F 
ATOM     86  C   UNL A   1      44.893  25.756  40.078  1.00  0.00     0.040 A 
ATOM     87  C   UNL A   1      46.186  27.788  40.116  1.00  0.00     0.040 A 
ATOM     88  F   UNL A   1      46.797  28.826  38.102  1.00  0.00    -0.206 F 
ATOM     89  C   UNL A   1      45.533  26.763  40.799  1.00  0.00     0.006 A 
ENDBRANCH  61  82
BRANCH  73  90
ATOM     90  C   UNL A   1      50.115  25.001  33.043  1.00  0.00     0.057 A 
ATOM     91  C   UNL A   1      51.237  25.831  32.917  1.00  0.00     0.134 A 
ATOM     92  C   UNL A   1      50.343  23.637  33.269  1.00  0.00     0.134 A 
ATOM     93  F   UNL A   1      51.088  27.144  32.688  1.00  0.00    -0.206 F 
ATOM     94  C   UNL A   1      52.534  25.318  32.983  1.00  0.00     0.040 A 
ATOM     95  C   UNL A   1      51.635  23.117  33.368  1.00  0.00     0.040 A 
ATOM     96  F   UNL A   1      49.314  22.788  33.412  1.00  0.00    -0.206 F 
ATOM     97  C   UNL A   1      52.734  23.958  33.215  1.00  0.00     0.006 A 
ENDBRANCH  73  90
ENDBRANCH  47  48
ENDBRANCH  40  42
ENDBRANCH  39  40
ENDBRANCH  38  39
ENDBRANCH  37  38
ENDBRANCH  36  37
ENDBRANCH  35  36
ENDBRANCH   1  35
TORSDOF 23
ENDMDL
