MODEL 1
REMARK VINA RESULT:      -8.9      0.000      0.000
REMARK SMILES O=C(CCCCCC(F)(F)c1ccccc1)OCCOCCOCCOCCOC(=O)c1ccc(-c2c3nc(c(-c4c(F)cccc4F)c4ccc([nH]4)c(-c4c(F)cccc4F)c4nc(c(-c5c(F)cccc5F)c5ccc2[nH]5)C=C4)C=C3)cc1
REMARK SMILES IDX 21 1 20 2 19 3 18 4 17 5 2 6 1 7 3 8 4 9 5 10 6 11 7 12 8 13
REMARK SMILES IDX 9 14 10 15 11 16 12 17 16 18 13 19 15 20 14 21 22 22 23 23
REMARK SMILES IDX 24 24 25 25 26 26 27 27 28 28 29 29 30 30 31 31 32 32 33 33
REMARK SMILES IDX 85 34 34 35 84 36 35 37 36 38 37 39 78 40 38 41 83 42 77 43
REMARK SMILES IDX 79 44 39 45 82 46 76 47 75 48 40 50 66 51 49 52 65 53 50 54
REMARK SMILES IDX 53 55 64 56 80 57 51 58 52 59 63 61 81 62 54 63 41 64 42 65
REMARK SMILES IDX 47 66 43 67 44 68 46 69 48 70 45 71 67 72 68 73 73 74 69 75
REMARK SMILES IDX 70 76 72 77 74 78 71 79 55 80 56 81 61 82 57 83 58 84 60 85
REMARK SMILES IDX 62 86 59 87
REMARK H PARENT 79 49 53 60
REMARK Flexibility Score: inf
ROOT
ATOM      1  C   UNL A   1      37.701  23.049  25.799  1.00  0.00     0.188 C 
ENDROOT
BRANCH   1   2
ATOM      2  O   UNL A   1      37.358  23.634  24.539  1.00  0.00    -0.376 OA
BRANCH   2   3
ATOM      3  C   UNL A   1      36.506  22.856  23.710  1.00  0.00     0.202 C 
BRANCH   3   4
ATOM      4  C   UNL A   1      35.013  23.112  23.963  1.00  0.00     0.261 C 
BRANCH   4   5
ATOM      5  O   UNL A   1      34.161  21.962  23.911  1.00  0.00    -0.463 OA
BRANCH   5   6
ATOM      6  C   UNL A   1      33.822  21.382  25.080  1.00  0.00     0.305 C 
ATOM      7  O   UNL A   1      34.111  20.228  25.376  1.00  0.00    -0.252 OA
BRANCH   6   8
ATOM      8  C   UNL A   1      32.894  22.264  25.903  1.00  0.00     0.123 C 
BRANCH   8   9
ATOM      9  C   UNL A   1      31.447  22.414  25.454  1.00  0.00     0.012 C 
BRANCH   9  10
ATOM     10  C   UNL A   1      31.058  23.418  24.367  1.00  0.00     0.001 C 
BRANCH  10  11
ATOM     11  C   UNL A   1      30.844  24.901  24.686  1.00  0.00     0.007 C 
BRANCH  11  12
ATOM     12  C   UNL A   1      30.569  25.763  23.429  1.00  0.00     0.082 C 
BRANCH  12  13
ATOM     13  C   UNL A   1      30.785  27.297  23.535  1.00  0.00     0.273 C 
ATOM     14  F   UNL A   1      31.088  27.761  22.285  1.00  0.00    -0.201 F 
ATOM     15  F   UNL A   1      29.563  27.844  23.824  1.00  0.00    -0.201 F 
BRANCH  13  16
ATOM     16  C   UNL A   1      31.820  27.705  24.568  1.00  0.00     0.021 A 
ATOM     17  C   UNL A   1      31.514  28.676  25.538  1.00  0.00     0.010 A 
ATOM     18  C   UNL A   1      33.014  26.973  24.692  1.00  0.00     0.010 A 
ATOM     19  C   UNL A   1      32.313  28.809  26.675  1.00  0.00     0.001 A 
ATOM     20  C   UNL A   1      33.808  27.108  25.832  1.00  0.00     0.001 A 
ATOM     21  C   UNL A   1      33.440  28.004  26.836  1.00  0.00     0.000 A 
ENDBRANCH  13  16
ENDBRANCH  12  13
ENDBRANCH  11  12
ENDBRANCH  10  11
ENDBRANCH   9  10
ENDBRANCH   8   9
ENDBRANCH   6   8
ENDBRANCH   5   6
ENDBRANCH   4   5
ENDBRANCH   3   4
ENDBRANCH   2   3
ENDBRANCH   1   2
BRANCH   1  22
ATOM     22  C   UNL A   1      38.594  21.808  25.771  1.00  0.00     0.188 C 
BRANCH  22  23
ATOM     23  O   UNL A   1      39.955  21.927  26.176  1.00  0.00    -0.377 OA
BRANCH  23  24
ATOM     24  C   UNL A   1      40.629  20.767  26.642  1.00  0.00     0.188 C 
BRANCH  24  25
ATOM     25  C   UNL A   1      42.077  20.543  26.202  1.00  0.00     0.188 C 
BRANCH  25  26
ATOM     26  O   UNL A   1      42.992  21.500  26.727  1.00  0.00    -0.376 OA
BRANCH  26  27
ATOM     27  C   UNL A   1      44.088  21.778  25.856  1.00  0.00     0.202 C 
BRANCH  27  28
ATOM     28  C   UNL A   1      43.683  22.511  24.565  1.00  0.00     0.261 C 
BRANCH  28  29
ATOM     29  O   UNL A   1      43.156  23.840  24.740  1.00  0.00    -0.460 OA
BRANCH  29  30
ATOM     30  C   UNL A   1      43.999  24.780  25.217  1.00  0.00     0.338 C 
ATOM     31  O   UNL A   1      45.115  25.034  24.787  1.00  0.00    -0.246 OA
BRANCH  30  32
ATOM     32  C   UNL A   1      43.305  25.598  26.241  1.00  0.00     0.060 A 
ATOM     33  C   UNL A   1      43.593  26.968  26.304  1.00  0.00     0.016 A 
ATOM     34  C   UNL A   1      42.399  25.037  27.148  1.00  0.00     0.016 A 
ATOM     35  C   UNL A   1      42.995  27.771  27.279  1.00  0.00     0.010 A 
ATOM     36  C   UNL A   1      41.823  25.838  28.145  1.00  0.00     0.010 A 
ATOM     37  C   UNL A   1      42.142  27.205  28.235  1.00  0.00    -0.014 A 
BRANCH  37  38
ATOM     38  C   UNL A   1      41.779  28.009  29.434  1.00  0.00     0.031 A 
ATOM     39  C   UNL A   1      40.574  28.909  29.350  1.00  0.00     0.074 A 
ATOM     40  C   UNL A   1      42.442  27.897  30.601  1.00  0.00     0.049 A 
ATOM     41  N   UNL A   1      40.012  29.642  30.278  1.00  0.00    -0.248 NA
ATOM     42  C   UNL A   1      39.911  28.987  28.038  1.00  0.00     0.031 C 
ATOM     43  C   UNL A   1      43.611  27.052  30.836  1.00  0.00     0.029 A 
ATOM     44  N   UNL A   1      42.215  28.502  31.815  1.00  0.00    -0.354 N 
ATOM     45  C   UNL A   1      38.918  30.246  29.670  1.00  0.00     0.074 A 
ATOM     46  C   UNL A   1      38.926  29.838  28.282  1.00  0.00     0.031 C 
ATOM     47  C   UNL A   1      44.003  27.198  32.115  1.00  0.00     0.029 A 
ATOM     48  C   UNL A   1      43.122  28.154  32.787  1.00  0.00     0.049 A 
ATOM     49  H   UNL A   1      41.471  29.127  31.974  1.00  0.00     0.167 HD
ATOM     50  C   UNL A   1      37.976  31.050  30.217  1.00  0.00     0.037 A 
ATOM     51  C   UNL A   1      43.231  28.563  34.068  1.00  0.00     0.037 A 
ATOM     52  C   UNL A   1      37.973  31.486  31.588  1.00  0.00     0.049 A 
ATOM     53  C   UNL A   1      42.211  29.521  34.636  1.00  0.00     0.074 A 
ATOM     54  C   UNL A   1      37.065  32.313  32.229  1.00  0.00     0.029 A 
ATOM     55  N   UNL A   1      38.929  31.140  32.529  1.00  0.00    -0.354 N 
ATOM     56  N   UNL A   1      41.160  30.053  34.061  1.00  0.00    -0.248 NA
ATOM     57  C   UNL A   1      42.389  29.922  36.040  1.00  0.00     0.031 C 
ATOM     58  C   UNL A   1      37.499  32.504  33.545  1.00  0.00     0.029 A 
ATOM     59  C   UNL A   1      38.645  31.751  33.740  1.00  0.00     0.049 A 
ATOM     60  H   UNL A   1      39.697  30.548  32.362  1.00  0.00     0.167 HD
ATOM     61  C   UNL A   1      40.538  30.826  35.037  1.00  0.00     0.074 A 
ATOM     62  C   UNL A   1      41.316  30.673  36.248  1.00  0.00     0.031 C 
ATOM     63  C   UNL A   1      39.425  31.595  34.941  1.00  0.00     0.037 A 
BRANCH  50  64
ATOM     64  C   UNL A   1      36.872  31.522  29.316  1.00  0.00     0.057 A 
ATOM     65  C   UNL A   1      35.772  30.707  29.012  1.00  0.00     0.134 A 
ATOM     66  C   UNL A   1      36.893  32.810  28.767  1.00  0.00     0.134 A 
ATOM     67  F   UNL A   1      35.700  29.456  29.493  1.00  0.00    -0.206 F 
ATOM     68  C   UNL A   1      34.745  31.148  28.177  1.00  0.00     0.040 A 
ATOM     69  C   UNL A   1      35.857  33.272  27.953  1.00  0.00     0.040 A 
ATOM     70  F   UNL A   1      37.914  33.642  29.019  1.00  0.00    -0.206 F 
ATOM     71  C   UNL A   1      34.782  32.438  27.651  1.00  0.00     0.006 A 
ENDBRANCH  50  64
BRANCH  51  72
ATOM     72  C   UNL A   1      44.358  28.087  34.916  1.00  0.00     0.057 A 
ATOM     73  C   UNL A   1      45.574  28.778  34.976  1.00  0.00     0.134 A 
ATOM     74  C   UNL A   1      44.261  26.892  35.640  1.00  0.00     0.134 A 
ATOM     75  F   UNL A   1      45.742  29.912  34.281  1.00  0.00    -0.206 F 
ATOM     76  C   UNL A   1      46.661  28.286  35.704  1.00  0.00     0.040 A 
ATOM     77  C   UNL A   1      45.329  26.404  36.394  1.00  0.00     0.040 A 
ATOM     78  F   UNL A   1      43.126  26.179  35.620  1.00  0.00    -0.206 F 
ATOM     79  C   UNL A   1      46.538  27.096  36.419  1.00  0.00     0.006 A 
ENDBRANCH  51  72
BRANCH  63  80
ATOM     80  C   UNL A   1      38.966  32.304  36.185  1.00  0.00     0.057 A 
ATOM     81  C   UNL A   1      38.155  31.678  37.141  1.00  0.00     0.134 A 
ATOM     82  C   UNL A   1      39.355  33.626  36.439  1.00  0.00     0.134 A 
ATOM     83  F   UNL A   1      37.739  30.416  36.958  1.00  0.00    -0.206 F 
ATOM     84  C   UNL A   1      37.715  32.352  38.282  1.00  0.00     0.040 A 
ATOM     85  C   UNL A   1      38.947  34.301  37.591  1.00  0.00     0.040 A 
ATOM     86  F   UNL A   1      40.143  34.283  35.575  1.00  0.00    -0.206 F 
ATOM     87  C   UNL A   1      38.115  33.667  38.511  1.00  0.00     0.006 A 
ENDBRANCH  63  80
ENDBRANCH  37  38
ENDBRANCH  30  32
ENDBRANCH  29  30
ENDBRANCH  28  29
ENDBRANCH  27  28
ENDBRANCH  26  27
ENDBRANCH  25  26
ENDBRANCH  24  25
ENDBRANCH  23  24
ENDBRANCH  22  23
ENDBRANCH   1  22
TORSDOF 26
ENDMDL
MODEL 2
REMARK VINA RESULT:      -8.9      0.778      6.148
REMARK SMILES O=C(CCCCCC(F)(F)c1ccccc1)OCCOCCOCCOCCOC(=O)c1ccc(-c2c3nc(c(-c4c(F)cccc4F)c4ccc([nH]4)c(-c4c(F)cccc4F)c4nc(c(-c5c(F)cccc5F)c5ccc2[nH]5)C=C4)C=C3)cc1
REMARK SMILES IDX 21 1 20 2 19 3 18 4 17 5 2 6 1 7 3 8 4 9 5 10 6 11 7 12 8 13
REMARK SMILES IDX 9 14 10 15 11 16 12 17 16 18 13 19 15 20 14 21 22 22 23 23
REMARK SMILES IDX 24 24 25 25 26 26 27 27 28 28 29 29 30 30 31 31 32 32 33 33
REMARK SMILES IDX 85 34 34 35 84 36 35 37 36 38 37 39 78 40 38 41 83 42 77 43
REMARK SMILES IDX 79 44 39 45 82 46 76 47 75 48 40 50 66 51 49 52 65 53 50 54
REMARK SMILES IDX 53 55 64 56 80 57 51 58 52 59 63 61 81 62 54 63 41 64 42 65
REMARK SMILES IDX 47 66 43 67 44 68 46 69 48 70 45 71 67 72 68 73 73 74 69 75
REMARK SMILES IDX 70 76 72 77 74 78 71 79 55 80 56 81 61 82 57 83 58 84 60 85
REMARK SMILES IDX 62 86 59 87
REMARK H PARENT 79 49 53 60
REMARK Flexibility Score: inf
ROOT
ATOM      1  C   UNL A   1      37.394  22.822  25.731  1.00  0.00     0.188 C 
ENDROOT
BRANCH   1   2
ATOM      2  O   UNL A   1      37.214  23.496  24.482  1.00  0.00    -0.376 OA
BRANCH   2   3
ATOM      3  C   UNL A   1      36.383  22.834  23.539  1.00  0.00     0.202 C 
BRANCH   3   4
ATOM      4  C   UNL A   1      34.925  23.315  23.570  1.00  0.00     0.261 C 
BRANCH   4   5
ATOM      5  O   UNL A   1      33.935  22.309  23.813  1.00  0.00    -0.463 OA
BRANCH   5   6
ATOM      6  C   UNL A   1      33.435  22.214  25.061  1.00  0.00     0.305 C 
ATOM      7  O   UNL A   1      33.424  21.177  25.713  1.00  0.00    -0.252 OA
BRANCH   6   8
ATOM      8  C   UNL A   1      32.731  23.494  25.489  1.00  0.00     0.123 C 
BRANCH   8   9
ATOM      9  C   UNL A   1      31.372  23.814  24.882  1.00  0.00     0.012 C 
BRANCH   9  10
ATOM     10  C   UNL A   1      31.257  24.438  23.490  1.00  0.00     0.001 C 
BRANCH  10  11
ATOM     11  C   UNL A   1      32.017  25.716  23.119  1.00  0.00     0.007 C 
BRANCH  11  12
ATOM     12  C   UNL A   1      31.112  26.806  22.495  1.00  0.00     0.082 C 
BRANCH  12  13
ATOM     13  C   UNL A   1      30.540  27.904  23.432  1.00  0.00     0.273 C 
ATOM     14  F   UNL A   1      30.358  29.035  22.686  1.00  0.00    -0.201 F 
ATOM     15  F   UNL A   1      29.275  27.504  23.774  1.00  0.00    -0.201 F 
BRANCH  13  16
ATOM     16  C   UNL A   1      31.382  28.159  24.670  1.00  0.00     0.021 A 
ATOM     17  C   UNL A   1      31.162  27.418  25.845  1.00  0.00     0.010 A 
ATOM     18  C   UNL A   1      32.515  28.986  24.589  1.00  0.00     0.010 A 
ATOM     19  C   UNL A   1      32.127  27.400  26.854  1.00  0.00     0.001 A 
ATOM     20  C   UNL A   1      33.478  28.962  25.600  1.00  0.00     0.001 A 
ATOM     21  C   UNL A   1      33.296  28.147  26.717  1.00  0.00     0.000 A 
ENDBRANCH  13  16
ENDBRANCH  12  13
ENDBRANCH  11  12
ENDBRANCH  10  11
ENDBRANCH   9  10
ENDBRANCH   8   9
ENDBRANCH   6   8
ENDBRANCH   5   6
ENDBRANCH   4   5
ENDBRANCH   3   4
ENDBRANCH   2   3
ENDBRANCH   1   2
BRANCH   1  22
ATOM     22  C   UNL A   1      38.340  21.620  25.745  1.00  0.00     0.188 C 
BRANCH  22  23
ATOM     23  O   UNL A   1      39.715  21.826  26.058  1.00  0.00    -0.377 OA
BRANCH  23  24
ATOM     24  C   UNL A   1      40.453  20.748  26.614  1.00  0.00     0.188 C 
BRANCH  24  25
ATOM     25  C   UNL A   1      41.880  20.512  26.114  1.00  0.00     0.188 C 
BRANCH  25  26
ATOM     26  O   UNL A   1      42.848  21.372  26.708  1.00  0.00    -0.376 OA
BRANCH  26  27
ATOM     27  C   UNL A   1      43.973  21.629  25.869  1.00  0.00     0.202 C 
BRANCH  27  28
ATOM     28  C   UNL A   1      43.630  22.437  24.604  1.00  0.00     0.261 C 
BRANCH  28  29
ATOM     29  O   UNL A   1      43.179  23.786  24.827  1.00  0.00    -0.460 OA
BRANCH  29  30
ATOM     30  C   UNL A   1      44.115  24.705  25.141  1.00  0.00     0.338 C 
ATOM     31  O   UNL A   1      45.048  25.057  24.435  1.00  0.00    -0.246 OA
BRANCH  30  32
ATOM     32  C   UNL A   1      43.749  25.373  26.414  1.00  0.00     0.060 A 
ATOM     33  C   UNL A   1      42.625  24.907  27.109  1.00  0.00     0.016 A 
ATOM     34  C   UNL A   1      44.475  26.458  26.917  1.00  0.00     0.016 A 
ATOM     35  C   UNL A   1      42.216  25.530  28.291  1.00  0.00     0.010 A 
ATOM     36  C   UNL A   1      44.046  27.103  28.087  1.00  0.00     0.010 A 
ATOM     37  C   UNL A   1      42.895  26.661  28.765  1.00  0.00    -0.014 A 
BRANCH  37  38
ATOM     38  C   UNL A   1      42.258  27.484  29.829  1.00  0.00     0.031 A 
ATOM     39  C   UNL A   1      42.872  27.467  31.205  1.00  0.00     0.074 A 
ATOM     40  C   UNL A   1      41.210  28.291  29.581  1.00  0.00     0.049 A 
ATOM     41  N   UNL A   1      42.551  28.157  32.271  1.00  0.00    -0.248 NA
ATOM     42  C   UNL A   1      44.006  26.550  31.400  1.00  0.00     0.031 C 
ATOM     43  C   UNL A   1      40.527  28.426  28.296  1.00  0.00     0.029 A 
ATOM     44  N   UNL A   1      40.539  29.159  30.410  1.00  0.00    -0.354 N 
ATOM     45  C   UNL A   1      43.458  27.776  33.253  1.00  0.00     0.074 A 
ATOM     46  C   UNL A   1      44.306  26.756  32.673  1.00  0.00     0.031 C 
ATOM     47  C   UNL A   1      39.529  29.320  28.425  1.00  0.00     0.029 A 
ATOM     48  C   UNL A   1      39.493  29.812  29.803  1.00  0.00     0.049 A 
ATOM     49  H   UNL A   1      40.785  29.301  31.353  1.00  0.00     0.167 HD
ATOM     50  C   UNL A   1      43.592  28.244  34.516  1.00  0.00     0.037 A 
ATOM     51  C   UNL A   1      38.608  30.699  30.302  1.00  0.00     0.037 A 
ATOM     52  C   UNL A   1      42.738  29.236  35.113  1.00  0.00     0.049 A 
ATOM     53  C   UNL A   1      38.730  31.151  31.738  1.00  0.00     0.074 A 
ATOM     54  C   UNL A   1      42.790  29.763  36.392  1.00  0.00     0.029 A 
ATOM     55  N   UNL A   1      41.669  29.844  34.475  1.00  0.00    -0.354 N 
ATOM     56  N   UNL A   1      39.617  30.811  32.643  1.00  0.00    -0.248 NA
ATOM     57  C   UNL A   1      37.734  32.123  32.214  1.00  0.00     0.031 C 
ATOM     58  C   UNL A   1      41.723  30.655  36.544  1.00  0.00     0.029 A 
ATOM     59  C   UNL A   1      41.042  30.727  35.340  1.00  0.00     0.049 A 
ATOM     60  H   UNL A   1      41.395  29.674  33.545  1.00  0.00     0.167 HD
ATOM     61  C   UNL A   1      39.302  31.546  33.782  1.00  0.00     0.074 A 
ATOM     62  C   UNL A   1      38.159  32.368  33.446  1.00  0.00     0.031 C 
ATOM     63  C   UNL A   1      39.903  31.541  34.998  1.00  0.00     0.037 A 
BRANCH  50  64
ATOM     64  C   UNL A   1      44.706  27.670  35.344  1.00  0.00     0.057 A 
ATOM     65  C   UNL A   1      45.976  28.262  35.378  1.00  0.00     0.134 A 
ATOM     66  C   UNL A   1      44.501  26.533  36.134  1.00  0.00     0.134 A 
ATOM     67  F   UNL A   1      46.242  29.345  34.631  1.00  0.00    -0.206 F 
ATOM     68  C   UNL A   1      47.009  27.729  36.151  1.00  0.00     0.040 A 
ATOM     69  C   UNL A   1      45.519  26.007  36.932  1.00  0.00     0.040 A 
ATOM     70  F   UNL A   1      43.309  25.919  36.150  1.00  0.00    -0.206 F 
ATOM     71  C   UNL A   1      46.779  26.602  36.937  1.00  0.00     0.006 A 
ENDBRANCH  50  64
BRANCH  51  72
ATOM     72  C   UNL A   1      37.505  31.221  29.450  1.00  0.00     0.057 A 
ATOM     73  C   UNL A   1      37.538  32.516  28.918  1.00  0.00     0.134 A 
ATOM     74  C   UNL A   1      36.362  30.453  29.197  1.00  0.00     0.134 A 
ATOM     75  F   UNL A   1      38.590  33.315  29.150  1.00  0.00    -0.206 F 
ATOM     76  C   UNL A   1      36.466  33.037  28.190  1.00  0.00     0.040 A 
ATOM     77  C   UNL A   1      35.296  30.950  28.447  1.00  0.00     0.040 A 
ATOM     78  F   UNL A   1      36.264  29.206  29.682  1.00  0.00    -0.206 F 
ATOM     79  C   UNL A   1      35.341  32.250  27.949  1.00  0.00     0.006 A 
ENDBRANCH  51  72
BRANCH  63  80
ATOM     80  C   UNL A   1      39.356  32.473  36.043  1.00  0.00     0.057 A 
ATOM     81  C   UNL A   1      39.790  33.800  36.157  1.00  0.00     0.134 A 
ATOM     82  C   UNL A   1      38.366  32.042  36.937  1.00  0.00     0.134 A 
ATOM     83  F   UNL A   1      40.741  34.277  35.339  1.00  0.00    -0.206 F 
ATOM     84  C   UNL A   1      39.292  34.651  37.146  1.00  0.00     0.040 A 
ATOM     85  C   UNL A   1      37.837  32.893  37.910  1.00  0.00     0.040 A 
ATOM     86  F   UNL A   1      37.891  30.789  36.877  1.00  0.00    -0.206 F 
ATOM     87  C   UNL A   1      38.309  34.198  38.024  1.00  0.00     0.006 A 
ENDBRANCH  63  80
ENDBRANCH  37  38
ENDBRANCH  30  32
ENDBRANCH  29  30
ENDBRANCH  28  29
ENDBRANCH  27  28
ENDBRANCH  26  27
ENDBRANCH  25  26
ENDBRANCH  24  25
ENDBRANCH  23  24
ENDBRANCH  22  23
ENDBRANCH   1  22
TORSDOF 26
ENDMDL
MODEL 3
REMARK VINA RESULT:      -8.9      1.515      6.373
REMARK SMILES O=C(CCCCCC(F)(F)c1ccccc1)OCCOCCOCCOCCOC(=O)c1ccc(-c2c3nc(c(-c4c(F)cccc4F)c4ccc([nH]4)c(-c4c(F)cccc4F)c4nc(c(-c5c(F)cccc5F)c5ccc2[nH]5)C=C4)C=C3)cc1
REMARK SMILES IDX 21 1 20 2 19 3 18 4 17 5 2 6 1 7 3 8 4 9 5 10 6 11 7 12 8 13
REMARK SMILES IDX 9 14 10 15 11 16 12 17 16 18 13 19 15 20 14 21 22 22 23 23
REMARK SMILES IDX 24 24 25 25 26 26 27 27 28 28 29 29 30 30 31 31 32 32 33 33
REMARK SMILES IDX 85 34 34 35 84 36 35 37 36 38 37 39 78 40 38 41 83 42 77 43
REMARK SMILES IDX 79 44 39 45 82 46 76 47 75 48 40 50 66 51 49 52 65 53 50 54
REMARK SMILES IDX 53 55 64 56 80 57 51 58 52 59 63 61 81 62 54 63 41 64 42 65
REMARK SMILES IDX 47 66 43 67 44 68 46 69 48 70 45 71 67 72 68 73 73 74 69 75
REMARK SMILES IDX 70 76 72 77 74 78 71 79 55 80 56 81 61 82 57 83 58 84 60 85
REMARK SMILES IDX 62 86 59 87
REMARK H PARENT 79 49 53 60
REMARK Flexibility Score: inf
ROOT
ATOM      1  C   UNL A   1      38.449  21.511  25.597  1.00  0.00     0.188 C 
ENDROOT
BRANCH   1   2
ATOM      2  O   UNL A   1      37.034  21.665  25.745  1.00  0.00    -0.376 OA
BRANCH   2   3
ATOM      3  C   UNL A   1      36.235  20.746  25.014  1.00  0.00     0.202 C 
BRANCH   3   4
ATOM      4  C   UNL A   1      34.767  20.724  25.464  1.00  0.00     0.261 C 
BRANCH   4   5
ATOM      5  O   UNL A   1      33.832  21.369  24.592  1.00  0.00    -0.463 OA
BRANCH   5   6
ATOM      6  C   UNL A   1      32.524  21.290  24.910  1.00  0.00     0.305 C 
ATOM      7  O   UNL A   1      31.918  20.233  25.038  1.00  0.00    -0.252 OA
BRANCH   6   8
ATOM      8  C   UNL A   1      31.858  22.659  24.914  1.00  0.00     0.123 C 
BRANCH   8   9
ATOM      9  C   UNL A   1      31.674  23.381  23.587  1.00  0.00     0.012 C 
BRANCH   9  10
ATOM     10  C   UNL A   1      30.645  24.504  23.435  1.00  0.00     0.001 C 
BRANCH  10  11
ATOM     11  C   UNL A   1      30.219  25.366  24.628  1.00  0.00     0.007 C 
BRANCH  11  12
ATOM     12  C   UNL A   1      31.144  26.585  24.863  1.00  0.00     0.082 C 
BRANCH  12  13
ATOM     13  C   UNL A   1      32.309  26.432  25.877  1.00  0.00     0.273 C 
ATOM     14  F   UNL A   1      31.956  25.462  26.774  1.00  0.00    -0.201 F 
ATOM     15  F   UNL A   1      33.362  25.897  25.183  1.00  0.00    -0.201 F 
BRANCH  13  16
ATOM     16  C   UNL A   1      32.710  27.728  26.557  1.00  0.00     0.021 A 
ATOM     17  C   UNL A   1      34.067  28.073  26.690  1.00  0.00     0.010 A 
ATOM     18  C   UNL A   1      31.731  28.686  26.873  1.00  0.00     0.010 A 
ATOM     19  C   UNL A   1      34.431  29.386  26.995  1.00  0.00     0.001 A 
ATOM     20  C   UNL A   1      32.100  29.998  27.176  1.00  0.00     0.001 A 
ATOM     21  C   UNL A   1      33.449  30.353  27.207  1.00  0.00     0.000 A 
ENDBRANCH  13  16
ENDBRANCH  12  13
ENDBRANCH  11  12
ENDBRANCH  10  11
ENDBRANCH   9  10
ENDBRANCH   8   9
ENDBRANCH   6   8
ENDBRANCH   5   6
ENDBRANCH   4   5
ENDBRANCH   3   4
ENDBRANCH   2   3
ENDBRANCH   1   2
BRANCH   1  22
ATOM     22  C   UNL A   1      39.342  22.386  26.478  1.00  0.00     0.188 C 
BRANCH  22  23
ATOM     23  O   UNL A   1      40.345  21.765  27.277  1.00  0.00    -0.377 OA
BRANCH  23  24
ATOM     24  C   UNL A   1      40.727  20.431  26.972  1.00  0.00     0.188 C 
BRANCH  24  25
ATOM     25  C   UNL A   1      41.956  20.212  26.088  1.00  0.00     0.188 C 
BRANCH  25  26
ATOM     26  O   UNL A   1      43.075  21.016  26.449  1.00  0.00    -0.376 OA
BRANCH  26  27
ATOM     27  C   UNL A   1      43.430  21.978  25.457  1.00  0.00     0.202 C 
BRANCH  27  28
ATOM     28  C   UNL A   1      43.525  23.417  25.995  1.00  0.00     0.261 C 
BRANCH  28  29
ATOM     29  O   UNL A   1      42.291  24.159  26.015  1.00  0.00    -0.460 OA
BRANCH  29  30
ATOM     30  C   UNL A   1      42.363  25.482  25.759  1.00  0.00     0.338 C 
ATOM     31  O   UNL A   1      42.375  26.005  24.655  1.00  0.00    -0.246 OA
BRANCH  30  32
ATOM     32  C   UNL A   1      42.246  26.241  27.029  1.00  0.00     0.060 A 
ATOM     33  C   UNL A   1      41.272  25.841  27.953  1.00  0.00     0.016 A 
ATOM     34  C   UNL A   1      43.058  27.345  27.310  1.00  0.00     0.016 A 
ATOM     35  C   UNL A   1      41.095  26.550  29.144  1.00  0.00     0.010 A 
ATOM     36  C   UNL A   1      42.860  28.074  28.492  1.00  0.00     0.010 A 
ATOM     37  C   UNL A   1      41.856  27.699  29.402  1.00  0.00    -0.014 A 
BRANCH  37  38
ATOM     38  C   UNL A   1      41.434  28.602  30.507  1.00  0.00     0.031 A 
ATOM     39  C   UNL A   1      42.232  28.584  31.786  1.00  0.00     0.074 A 
ATOM     40  C   UNL A   1      40.421  29.478  30.371  1.00  0.00     0.049 A 
ATOM     41  N   UNL A   1      42.113  29.331  32.855  1.00  0.00    -0.248 NA
ATOM     42  C   UNL A   1      43.314  27.591  31.862  1.00  0.00     0.031 C 
ATOM     43  C   UNL A   1      39.576  29.622  29.187  1.00  0.00     0.029 A 
ATOM     44  N   UNL A   1      39.937  30.422  31.246  1.00  0.00    -0.354 N 
ATOM     45  C   UNL A   1      43.120  28.915  33.718  1.00  0.00     0.074 A 
ATOM     46  C   UNL A   1      43.804  27.815  33.072  1.00  0.00     0.031 C 
ATOM     47  C   UNL A   1      38.672  30.593  29.414  1.00  0.00     0.029 A 
ATOM     48  C   UNL A   1      38.865  31.132  30.761  1.00  0.00     0.049 A 
ATOM     49  H   UNL A   1      40.321  30.575  32.140  1.00  0.00     0.167 HD
ATOM     50  C   UNL A   1      43.462  29.412  34.930  1.00  0.00     0.037 A 
ATOM     51  C   UNL A   1      38.123  32.100  31.338  1.00  0.00     0.037 A 
ATOM     52  C   UNL A   1      42.772  30.486  35.595  1.00  0.00     0.049 A 
ATOM     53  C   UNL A   1      38.477  32.588  32.722  1.00  0.00     0.074 A 
ATOM     54  C   UNL A   1      43.040  31.049  36.831  1.00  0.00     0.029 A 
ATOM     55  N   UNL A   1      41.670  31.152  35.084  1.00  0.00    -0.354 N 
ATOM     56  N   UNL A   1      39.455  32.212  33.511  1.00  0.00    -0.248 NA
ATOM     57  C   UNL A   1      37.629  33.648  33.289  1.00  0.00     0.031 C 
ATOM     58  C   UNL A   1      42.071  32.024  37.089  1.00  0.00     0.029 A 
ATOM     59  C   UNL A   1      41.234  32.108  35.988  1.00  0.00     0.049 A 
ATOM     60  H   UNL A   1      41.257  30.973  34.208  1.00  0.00     0.167 HD
ATOM     61  C   UNL A   1      39.356  33.006  34.650  1.00  0.00     0.074 A 
ATOM     62  C   UNL A   1      38.238  33.900  34.438  1.00  0.00     0.031 C 
ATOM     63  C   UNL A   1      40.120  32.994  35.771  1.00  0.00     0.037 A 
BRANCH  50  64
ATOM     64  C   UNL A   1      44.637  28.783  35.621  1.00  0.00     0.057 A 
ATOM     65  C   UNL A   1      44.480  27.707  36.506  1.00  0.00     0.134 A 
ATOM     66  C   UNL A   1      45.939  29.238  35.380  1.00  0.00     0.134 A 
ATOM     67  F   UNL A   1      43.257  27.235  36.792  1.00  0.00    -0.206 F 
ATOM     68  C   UNL A   1      45.575  27.122  37.144  1.00  0.00     0.040 A 
ATOM     69  C   UNL A   1      47.044  28.642  35.991  1.00  0.00     0.040 A 
ATOM     70  F   UNL A   1      46.161  30.261  34.543  1.00  0.00    -0.206 F 
ATOM     71  C   UNL A   1      46.863  27.584  36.881  1.00  0.00     0.006 A 
ENDBRANCH  50  64
BRANCH  51  72
ATOM     72  C   UNL A   1      36.952  32.676  30.623  1.00  0.00     0.057 A 
ATOM     73  C   UNL A   1      35.655  32.187  30.824  1.00  0.00     0.134 A 
ATOM     74  C   UNL A   1      37.114  33.693  29.675  1.00  0.00     0.134 A 
ATOM     75  F   UNL A   1      35.436  31.192  31.695  1.00  0.00    -0.206 F 
ATOM     76  C   UNL A   1      34.568  32.669  30.090  1.00  0.00     0.040 A 
ATOM     77  C   UNL A   1      36.033  34.205  28.955  1.00  0.00     0.040 A 
ATOM     78  F   UNL A   1      38.330  34.202  29.430  1.00  0.00    -0.206 F 
ATOM     79  C   UNL A   1      34.756  33.685  29.155  1.00  0.00     0.006 A 
ENDBRANCH  51  72
BRANCH  63  80
ATOM     80  C   UNL A   1      39.791  34.000  36.840  1.00  0.00     0.057 A 
ATOM     81  C   UNL A   1      40.261  35.319  36.791  1.00  0.00     0.134 A 
ATOM     82  C   UNL A   1      38.978  33.648  37.926  1.00  0.00     0.134 A 
ATOM     83  F   UNL A   1      41.050  35.722  35.784  1.00  0.00    -0.206 F 
ATOM     84  C   UNL A   1      39.969  36.238  37.800  1.00  0.00     0.040 A 
ATOM     85  C   UNL A   1      38.653  34.566  38.926  1.00  0.00     0.040 A 
ATOM     86  F   UNL A   1      38.480  32.406  38.031  1.00  0.00    -0.206 F 
ATOM     87  C   UNL A   1      39.160  35.863  38.871  1.00  0.00     0.006 A 
ENDBRANCH  63  80
ENDBRANCH  37  38
ENDBRANCH  30  32
ENDBRANCH  29  30
ENDBRANCH  28  29
ENDBRANCH  27  28
ENDBRANCH  26  27
ENDBRANCH  25  26
ENDBRANCH  24  25
ENDBRANCH  23  24
ENDBRANCH  22  23
ENDBRANCH   1  22
TORSDOF 26
ENDMDL
