MODEL 1
REMARK VINA RESULT:     -10.8      0.000      0.000
REMARK SMILES CC(=O)n1cc2c3c(cccc31)C(=O)C[C@@H]2C(=O)OCCOCCOCCOCCOC(=O)c1ccc(-c2c3nc(c(-c4c(F)cccc4F)c4ccc([nH]4)c(-c4c(F)cccc4F)c4nc(c(-c5c(F)cccc5F)c5ccc2[nH]5)C=C4)C=C3)cc1
REMARK SMILES IDX 26 1 25 2 24 3 23 4 22 5 21 6 20 7 19 8 17 9 18 10 16 11
REMARK SMILES IDX 4 12 5 13 12 14 6 15 7 16 11 17 8 18 10 19 15 20 9 21 13 22
REMARK SMILES IDX 14 23 2 24 1 25 3 26 27 27 28 28 29 29 30 30 31 31 32 32
REMARK SMILES IDX 33 33 34 34 35 35 87 36 36 37 86 38 37 39 38 40 39 41 80 42
REMARK SMILES IDX 40 43 85 44 79 45 81 46 41 47 84 48 78 49 77 50 42 52 68 53
REMARK SMILES IDX 51 54 67 55 52 56 55 57 66 58 82 59 53 60 54 61 65 63 83 64
REMARK SMILES IDX 56 65 43 66 44 67 49 68 45 69 46 70 48 71 50 72 47 73 69 74
REMARK SMILES IDX 70 75 75 76 71 77 72 78 74 79 76 80 73 81 57 82 58 83 63 84
REMARK SMILES IDX 59 85 60 86 62 87 64 88 61 89
REMARK H PARENT 81 51 55 62
REMARK Flexibility Score: inf
ROOT
ATOM      1  C   UNL A   1      34.218  31.525  27.869  1.00  0.00     0.188 C 
ENDROOT
BRANCH   1   2
ATOM      2  O   UNL A   1      33.192  31.190  26.944  1.00  0.00    -0.377 OA
BRANCH   2   3
ATOM      3  C   UNL A   1      33.138  29.824  26.586  1.00  0.00     0.188 C 
BRANCH   3   4
ATOM      4  C   UNL A   1      33.062  29.503  25.078  1.00  0.00     0.188 C 
BRANCH   4   5
ATOM      5  O   UNL A   1      34.017  28.667  24.435  1.00  0.00    -0.376 OA
BRANCH   5   6
ATOM      6  C   UNL A   1      34.039  28.544  23.025  1.00  0.00     0.202 C 
BRANCH   6   7
ATOM      7  C   UNL A   1      33.081  27.546  22.356  1.00  0.00     0.261 C 
BRANCH   7   8
ATOM      8  O   UNL A   1      33.681  26.421  21.686  1.00  0.00    -0.463 OA
BRANCH   8   9
ATOM      9  C   UNL A   1      33.352  25.204  22.192  1.00  0.00     0.314 C 
ATOM     10  O   UNL A   1      33.276  24.178  21.521  1.00  0.00    -0.252 OA
BRANCH   9  11
ATOM     11  C   UNL A   1      32.953  25.234  23.669  1.00  0.00     0.139 C 
ATOM     12  N   UNL A   1      35.728  23.345  25.266  1.00  0.00    -0.287 N 
ATOM     13  C   UNL A   1      35.269  24.181  24.255  1.00  0.00     0.100 A 
ATOM     14  C   UNL A   1      34.640  23.041  26.093  1.00  0.00     0.057 A 
ATOM     15  C   UNL A   1      33.929  24.409  24.429  1.00  0.00    -0.006 A 
ATOM     16  C   UNL A   1      33.544  23.713  25.575  1.00  0.00     0.015 A 
ATOM     17  C   UNL A   1      34.497  22.292  27.272  1.00  0.00     0.027 A 
ATOM     18  C   UNL A   1      32.292  23.667  26.187  1.00  0.00     0.027 A 
ATOM     19  C   UNL A   1      33.234  22.276  27.901  1.00  0.00     0.003 A 
ATOM     20  C   UNL A   1      31.501  24.835  24.036  1.00  0.00     0.101 C 
ATOM     21  C   UNL A   1      32.136  22.960  27.372  1.00  0.00     0.012 A 
ATOM     22  C   UNL A   1      31.227  24.411  25.486  1.00  0.00     0.164 C 
ATOM     23  O   UNL A   1      30.138  24.591  26.024  1.00  0.00    -0.294 OA
BRANCH  12  24
ATOM     24  C   UNL A   1      37.060  22.926  25.435  1.00  0.00     0.227 C 
ATOM     25  C   UNL A   1      37.376  21.590  24.827  1.00  0.00     0.115 C 
ATOM     26  O   UNL A   1      37.872  23.653  25.994  1.00  0.00    -0.274 OA
ENDBRANCH  12  24
ENDBRANCH   9  11
ENDBRANCH   8   9
ENDBRANCH   7   8
ENDBRANCH   6   7
ENDBRANCH   5   6
ENDBRANCH   4   5
ENDBRANCH   3   4
ENDBRANCH   2   3
ENDBRANCH   1   2
BRANCH   1  27
ATOM     27  C   UNL A   1      34.619  33.016  27.928  1.00  0.00     0.188 C 
BRANCH  27  28
ATOM     28  O   UNL A   1      33.528  33.923  28.074  1.00  0.00    -0.376 OA
BRANCH  28  29
ATOM     29  C   UNL A   1      33.732  35.276  28.453  1.00  0.00     0.202 C 
BRANCH  29  30
ATOM     30  C   UNL A   1      33.207  35.693  29.832  1.00  0.00     0.261 C 
BRANCH  30  31
ATOM     31  O   UNL A   1      33.361  34.692  30.823  1.00  0.00    -0.460 OA
BRANCH  31  32
ATOM     32  C   UNL A   1      33.139  35.109  32.072  1.00  0.00     0.338 C 
ATOM     33  O   UNL A   1      32.222  35.839  32.472  1.00  0.00    -0.246 OA
BRANCH  32  34
ATOM     34  C   UNL A   1      34.202  34.643  32.942  1.00  0.00     0.060 A 
ATOM     35  C   UNL A   1      35.356  35.425  32.948  1.00  0.00     0.016 A 
ATOM     36  C   UNL A   1      34.188  33.281  33.276  1.00  0.00     0.016 A 
ATOM     37  C   UNL A   1      36.551  34.764  32.939  1.00  0.00     0.010 A 
ATOM     38  C   UNL A   1      35.383  32.620  33.239  1.00  0.00     0.010 A 
ATOM     39  C   UNL A   1      36.523  33.364  32.955  1.00  0.00    -0.014 A 
BRANCH  39  40
ATOM     40  C   UNL A   1      37.753  32.687  32.657  1.00  0.00     0.031 A 
ATOM     41  C   UNL A   1      38.662  32.645  33.809  1.00  0.00     0.074 A 
ATOM     42  C   UNL A   1      37.989  32.130  31.459  1.00  0.00     0.049 A 
ATOM     43  N   UNL A   1      39.743  33.328  33.978  1.00  0.00    -0.248 NA
ATOM     44  C   UNL A   1      38.208  31.909  34.997  1.00  0.00     0.031 C 
ATOM     45  C   UNL A   1      37.053  31.875  30.360  1.00  0.00     0.029 A 
ATOM     46  N   UNL A   1      39.148  31.587  31.012  1.00  0.00    -0.354 N 
ATOM     47  C   UNL A   1      40.223  32.938  35.219  1.00  0.00     0.074 A 
ATOM     48  C   UNL A   1      39.148  32.247  35.878  1.00  0.00     0.031 C 
ATOM     49  C   UNL A   1      37.636  31.033  29.475  1.00  0.00     0.029 A 
ATOM     50  C   UNL A   1      39.013  30.802  29.881  1.00  0.00     0.049 A 
ATOM     51  H   UNL A   1      40.013  31.739  31.456  1.00  0.00     0.167 HD
ATOM     52  C   UNL A   1      41.554  32.964  35.484  1.00  0.00     0.037 A 
ATOM     53  C   UNL A   1      39.961  29.966  29.391  1.00  0.00     0.037 A 
ATOM     54  C   UNL A   1      42.258  33.813  34.555  1.00  0.00     0.049 A 
ATOM     55  C   UNL A   1      41.267  30.379  29.974  1.00  0.00     0.074 A 
ATOM     56  C   UNL A   1      42.195  35.152  34.220  1.00  0.00     0.029 A 
ATOM     57  N   UNL A   1      42.954  33.206  33.537  1.00  0.00    -0.354 N 
ATOM     58  N   UNL A   1      41.884  31.485  29.664  1.00  0.00    -0.248 NA
ATOM     59  C   UNL A   1      41.665  29.784  31.243  1.00  0.00     0.031 C 
ATOM     60  C   UNL A   1      42.451  35.200  32.817  1.00  0.00     0.029 A 
ATOM     61  C   UNL A   1      42.692  33.897  32.383  1.00  0.00     0.049 A 
ATOM     62  H   UNL A   1      43.536  32.417  33.622  1.00  0.00     0.167 HD
ATOM     63  C   UNL A   1      42.420  31.945  30.860  1.00  0.00     0.074 A 
ATOM     64  C   UNL A   1      42.337  30.810  31.775  1.00  0.00     0.031 C 
ATOM     65  C   UNL A   1      42.609  33.279  31.079  1.00  0.00     0.037 A 
BRANCH  52  66
ATOM     66  C   UNL A   1      42.248  31.903  36.298  1.00  0.00     0.057 A 
ATOM     67  C   UNL A   1      42.352  30.545  35.927  1.00  0.00     0.134 A 
ATOM     68  C   UNL A   1      43.106  32.306  37.334  1.00  0.00     0.134 A 
ATOM     69  F   UNL A   1      41.663  30.013  34.910  1.00  0.00    -0.206 F 
ATOM     70  C   UNL A   1      43.261  29.666  36.514  1.00  0.00     0.040 A 
ATOM     71  C   UNL A   1      44.059  31.447  37.891  1.00  0.00     0.040 A 
ATOM     72  F   UNL A   1      43.104  33.574  37.774  1.00  0.00    -0.206 F 
ATOM     73  C   UNL A   1      44.146  30.126  37.473  1.00  0.00     0.006 A 
ENDBRANCH  52  66
BRANCH  53  74
ATOM     74  C   UNL A   1      39.770  28.667  28.713  1.00  0.00     0.057 A 
ATOM     75  C   UNL A   1      39.288  27.540  29.403  1.00  0.00     0.134 A 
ATOM     76  C   UNL A   1      40.305  28.428  27.440  1.00  0.00     0.134 A 
ATOM     77  F   UNL A   1      38.830  27.638  30.660  1.00  0.00    -0.206 F 
ATOM     78  C   UNL A   1      39.342  26.251  28.864  1.00  0.00     0.040 A 
ATOM     79  C   UNL A   1      40.374  27.140  26.892  1.00  0.00     0.040 A 
ATOM     80  F   UNL A   1      40.831  29.431  26.724  1.00  0.00    -0.206 F 
ATOM     81  C   UNL A   1      39.898  26.045  27.609  1.00  0.00     0.006 A 
ENDBRANCH  53  74
BRANCH  65  82
ATOM     82  C   UNL A   1      42.471  34.199  29.898  1.00  0.00     0.057 A 
ATOM     83  C   UNL A   1      41.216  34.741  29.603  1.00  0.00     0.134 A 
ATOM     84  C   UNL A   1      43.505  34.459  28.985  1.00  0.00     0.134 A 
ATOM     85  F   UNL A   1      40.164  34.484  30.397  1.00  0.00    -0.206 F 
ATOM     86  C   UNL A   1      40.999  35.522  28.465  1.00  0.00     0.040 A 
ATOM     87  C   UNL A   1      43.311  35.267  27.861  1.00  0.00     0.040 A 
ATOM     88  F   UNL A   1      44.711  33.896  29.127  1.00  0.00    -0.206 F 
ATOM     89  C   UNL A   1      42.053  35.799  27.597  1.00  0.00     0.006 A 
ENDBRANCH  65  82
ENDBRANCH  39  40
ENDBRANCH  32  34
ENDBRANCH  31  32
ENDBRANCH  30  31
ENDBRANCH  29  30
ENDBRANCH  28  29
ENDBRANCH  27  28
ENDBRANCH   1  27
TORSDOF 21
ENDMDL
MODEL 2
REMARK VINA RESULT:     -10.6      4.871     10.409
REMARK SMILES CC(=O)n1cc2c3c(cccc31)C(=O)C[C@@H]2C(=O)OCCOCCOCCOCCOC(=O)c1ccc(-c2c3nc(c(-c4c(F)cccc4F)c4ccc([nH]4)c(-c4c(F)cccc4F)c4nc(c(-c5c(F)cccc5F)c5ccc2[nH]5)C=C4)C=C3)cc1
REMARK SMILES IDX 26 1 25 2 24 3 23 4 22 5 21 6 20 7 19 8 17 9 18 10 16 11
REMARK SMILES IDX 4 12 5 13 12 14 6 15 7 16 11 17 8 18 10 19 15 20 9 21 13 22
REMARK SMILES IDX 14 23 2 24 1 25 3 26 27 27 28 28 29 29 30 30 31 31 32 32
REMARK SMILES IDX 33 33 34 34 35 35 87 36 36 37 86 38 37 39 38 40 39 41 80 42
REMARK SMILES IDX 40 43 85 44 79 45 81 46 41 47 84 48 78 49 77 50 42 52 68 53
REMARK SMILES IDX 51 54 67 55 52 56 55 57 66 58 82 59 53 60 54 61 65 63 83 64
REMARK SMILES IDX 56 65 43 66 44 67 49 68 45 69 46 70 48 71 50 72 47 73 69 74
REMARK SMILES IDX 70 75 75 76 71 77 72 78 74 79 76 80 73 81 57 82 58 83 63 84
REMARK SMILES IDX 59 85 60 86 62 87 64 88 61 89
REMARK H PARENT 81 51 55 62
REMARK Flexibility Score: inf
ROOT
ATOM      1  C   UNL A   1      38.491  21.841  25.842  1.00  0.00     0.188 C 
ENDROOT
BRANCH   1   2
ATOM      2  O   UNL A   1      37.883  20.751  25.163  1.00  0.00    -0.377 OA
BRANCH   2   3
ATOM      3  C   UNL A   1      36.554  20.981  24.738  1.00  0.00     0.188 C 
BRANCH   3   4
ATOM      4  C   UNL A   1      35.617  21.687  25.741  1.00  0.00     0.188 C 
BRANCH   4   5
ATOM      5  O   UNL A   1      34.262  21.289  25.917  1.00  0.00    -0.376 OA
BRANCH   5   6
ATOM      6  C   UNL A   1      33.630  21.408  27.178  1.00  0.00     0.202 C 
BRANCH   6   7
ATOM      7  C   UNL A   1      33.258  22.810  27.687  1.00  0.00     0.261 C 
BRANCH   7   8
ATOM      8  O   UNL A   1      32.909  23.789  26.691  1.00  0.00    -0.463 OA
BRANCH   8   9
ATOM      9  C   UNL A   1      31.628  24.235  26.743  1.00  0.00     0.314 C 
ATOM     10  O   UNL A   1      30.676  23.551  27.110  1.00  0.00    -0.252 OA
BRANCH   9  11
ATOM     11  C   UNL A   1      31.438  25.645  26.180  1.00  0.00     0.139 C 
ATOM     12  N   UNL A   1      32.761  25.291  22.724  1.00  0.00    -0.287 N 
ATOM     13  C   UNL A   1      32.131  24.738  23.832  1.00  0.00     0.100 A 
ATOM     14  C   UNL A   1      33.067  26.623  23.031  1.00  0.00     0.057 A 
ATOM     15  C   UNL A   1      32.034  25.684  24.818  1.00  0.00    -0.006 A 
ATOM     16  C   UNL A   1      32.602  26.855  24.315  1.00  0.00     0.015 A 
ATOM     17  C   UNL A   1      33.656  27.674  22.308  1.00  0.00     0.027 A 
ATOM     18  C   UNL A   1      32.703  28.105  24.923  1.00  0.00     0.027 A 
ATOM     19  C   UNL A   1      33.726  28.943  22.920  1.00  0.00     0.003 A 
ATOM     20  C   UNL A   1      31.942  26.839  27.029  1.00  0.00     0.101 C 
ATOM     21  C   UNL A   1      33.251  29.168  24.215  1.00  0.00     0.012 A 
ATOM     22  C   UNL A   1      32.188  28.171  26.304  1.00  0.00     0.164 C 
ATOM     23  O   UNL A   1      32.058  29.254  26.868  1.00  0.00    -0.294 OA
BRANCH  12  24
ATOM     24  C   UNL A   1      33.001  24.628  21.506  1.00  0.00     0.227 C 
ATOM     25  C   UNL A   1      32.502  25.356  20.291  1.00  0.00     0.115 C 
ATOM     26  O   UNL A   1      33.619  23.570  21.488  1.00  0.00    -0.274 OA
ENDBRANCH  12  24
ENDBRANCH   9  11
ENDBRANCH   8   9
ENDBRANCH   7   8
ENDBRANCH   6   7
ENDBRANCH   5   6
ENDBRANCH   4   5
ENDBRANCH   3   4
ENDBRANCH   2   3
ENDBRANCH   1   2
BRANCH   1  27
ATOM     27  C   UNL A   1      39.986  21.676  26.191  1.00  0.00     0.188 C 
BRANCH  27  28
ATOM     28  O   UNL A   1      40.366  20.358  26.584  1.00  0.00    -0.376 OA
BRANCH  28  29
ATOM     29  C   UNL A   1      41.676  20.070  27.052  1.00  0.00     0.202 C 
BRANCH  29  30
ATOM     30  C   UNL A   1      42.570  19.235  26.128  1.00  0.00     0.261 C 
BRANCH  30  31
ATOM     31  O   UNL A   1      43.010  19.937  24.979  1.00  0.00    -0.460 OA
BRANCH  31  32
ATOM     32  C   UNL A   1      44.326  19.872  24.761  1.00  0.00     0.338 C 
ATOM     33  O   UNL A   1      45.035  18.857  24.717  1.00  0.00    -0.246 OA
BRANCH  32  34
ATOM     34  C   UNL A   1      44.872  21.211  24.649  1.00  0.00     0.060 A 
ATOM     35  C   UNL A   1      45.879  21.523  25.562  1.00  0.00     0.016 A 
ATOM     36  C   UNL A   1      44.057  22.173  24.037  1.00  0.00     0.016 A 
ATOM     37  C   UNL A   1      45.831  22.763  26.134  1.00  0.00     0.010 A 
ATOM     38  C   UNL A   1      43.994  23.402  24.629  1.00  0.00     0.010 A 
ATOM     39  C   UNL A   1      44.802  23.626  25.739  1.00  0.00    -0.014 A 
BRANCH  39  40
ATOM     40  C   UNL A   1      44.592  24.797  26.542  1.00  0.00     0.031 A 
ATOM     41  C   UNL A   1      45.731  25.722  26.491  1.00  0.00     0.074 A 
ATOM     42  C   UNL A   1      43.449  25.005  27.216  1.00  0.00     0.049 A 
ATOM     43  N   UNL A   1      46.602  25.941  27.416  1.00  0.00    -0.248 NA
ATOM     44  C   UNL A   1      46.053  26.320  25.188  1.00  0.00     0.031 C 
ATOM     45  C   UNL A   1      42.173  24.295  27.105  1.00  0.00     0.029 A 
ATOM     46  N   UNL A   1      43.181  25.991  28.106  1.00  0.00    -0.354 N 
ATOM     47  C   UNL A   1      47.468  26.881  26.877  1.00  0.00     0.074 A 
ATOM     48  C   UNL A   1      47.215  26.909  25.461  1.00  0.00     0.031 C 
ATOM     49  C   UNL A   1      41.215  25.016  27.735  1.00  0.00     0.029 A 
ATOM     50  C   UNL A   1      41.837  26.155  28.390  1.00  0.00     0.049 A 
ATOM     51  H   UNL A   1      43.885  26.544  28.517  1.00  0.00     0.167 HD
ATOM     52  C   UNL A   1      48.117  27.763  27.679  1.00  0.00     0.037 A 
ATOM     53  C   UNL A   1      41.300  27.211  29.047  1.00  0.00     0.037 A 
ATOM     54  C   UNL A   1      48.136  27.311  29.049  1.00  0.00     0.049 A 
ATOM     55  C   UNL A   1      42.401  27.887  29.786  1.00  0.00     0.074 A 
ATOM     56  C   UNL A   1      48.631  26.198  29.699  1.00  0.00     0.029 A 
ATOM     57  N   UNL A   1      47.251  27.893  29.924  1.00  0.00    -0.354 N 
ATOM     58  N   UNL A   1      43.005  27.372  30.822  1.00  0.00    -0.248 NA
ATOM     59  C   UNL A   1      43.143  28.934  29.096  1.00  0.00     0.031 C 
ATOM     60  C   UNL A   1      47.688  25.918  30.733  1.00  0.00     0.029 A 
ATOM     61  C   UNL A   1      46.694  26.894  30.679  1.00  0.00     0.049 A 
ATOM     62  H   UNL A   1      47.052  28.854  29.996  1.00  0.00     0.167 HD
ATOM     63  C   UNL A   1      44.342  27.712  30.664  1.00  0.00     0.074 A 
ATOM     64  C   UNL A   1      44.351  28.753  29.640  1.00  0.00     0.031 C 
ATOM     65  C   UNL A   1      45.333  26.918  31.165  1.00  0.00     0.037 A 
BRANCH  52  66
ATOM     66  C   UNL A   1      48.347  29.202  27.297  1.00  0.00     0.057 A 
ATOM     67  C   UNL A   1      47.324  30.155  27.100  1.00  0.00     0.134 A 
ATOM     68  C   UNL A   1      49.640  29.733  27.430  1.00  0.00     0.134 A 
ATOM     69  F   UNL A   1      46.029  29.827  27.029  1.00  0.00    -0.206 F 
ATOM     70  C   UNL A   1      47.563  31.528  27.073  1.00  0.00     0.040 A 
ATOM     71  C   UNL A   1      49.882  31.110  27.460  1.00  0.00     0.040 A 
ATOM     72  F   UNL A   1      50.697  28.929  27.626  1.00  0.00    -0.206 F 
ATOM     73  C   UNL A   1      48.840  32.013  27.293  1.00  0.00     0.006 A 
ENDBRANCH  52  66
BRANCH  53  74
ATOM     74  C   UNL A   1      39.983  27.847  28.831  1.00  0.00     0.057 A 
ATOM     75  C   UNL A   1      39.735  28.666  27.715  1.00  0.00     0.134 A 
ATOM     76  C   UNL A   1      39.020  27.883  29.848  1.00  0.00     0.134 A 
ATOM     77  F   UNL A   1      40.628  28.774  26.720  1.00  0.00    -0.206 F 
ATOM     78  C   UNL A   1      38.602  29.479  27.618  1.00  0.00     0.040 A 
ATOM     79  C   UNL A   1      37.884  28.700  29.768  1.00  0.00     0.040 A 
ATOM     80  F   UNL A   1      39.190  27.172  30.971  1.00  0.00    -0.206 F 
ATOM     81  C   UNL A   1      37.677  29.508  28.653  1.00  0.00     0.006 A 
ENDBRANCH  53  74
BRANCH  65  82
ATOM     82  C   UNL A   1      44.928  25.821  32.110  1.00  0.00     0.057 A 
ATOM     83  C   UNL A   1      44.594  24.567  31.589  1.00  0.00     0.134 A 
ATOM     84  C   UNL A   1      44.741  26.006  33.488  1.00  0.00     0.134 A 
ATOM     85  F   UNL A   1      44.688  24.335  30.270  1.00  0.00    -0.206 F 
ATOM     86  C   UNL A   1      44.116  23.536  32.401  1.00  0.00     0.040 A 
ATOM     87  C   UNL A   1      44.296  24.973  34.318  1.00  0.00     0.040 A 
ATOM     88  F   UNL A   1      44.932  27.203  34.058  1.00  0.00    -0.206 F 
ATOM     89  C   UNL A   1      43.979  23.733  33.773  1.00  0.00     0.006 A 
ENDBRANCH  65  82
ENDBRANCH  39  40
ENDBRANCH  32  34
ENDBRANCH  31  32
ENDBRANCH  30  31
ENDBRANCH  29  30
ENDBRANCH  28  29
ENDBRANCH  27  28
ENDBRANCH   1  27
TORSDOF 21
ENDMDL
MODEL 3
REMARK VINA RESULT:      -9.2      4.230      9.636
REMARK SMILES CC(=O)n1cc2c3c(cccc31)C(=O)C[C@@H]2C(=O)OCCOCCOCCOCCOC(=O)c1ccc(-c2c3nc(c(-c4c(F)cccc4F)c4ccc([nH]4)c(-c4c(F)cccc4F)c4nc(c(-c5c(F)cccc5F)c5ccc2[nH]5)C=C4)C=C3)cc1
REMARK SMILES IDX 26 1 25 2 24 3 23 4 22 5 21 6 20 7 19 8 17 9 18 10 16 11
REMARK SMILES IDX 4 12 5 13 12 14 6 15 7 16 11 17 8 18 10 19 15 20 9 21 13 22
REMARK SMILES IDX 14 23 2 24 1 25 3 26 27 27 28 28 29 29 30 30 31 31 32 32
REMARK SMILES IDX 33 33 34 34 35 35 87 36 36 37 86 38 37 39 38 40 39 41 80 42
REMARK SMILES IDX 40 43 85 44 79 45 81 46 41 47 84 48 78 49 77 50 42 52 68 53
REMARK SMILES IDX 51 54 67 55 52 56 55 57 66 58 82 59 53 60 54 61 65 63 83 64
REMARK SMILES IDX 56 65 43 66 44 67 49 68 45 69 46 70 48 71 50 72 47 73 69 74
REMARK SMILES IDX 70 75 75 76 71 77 72 78 74 79 76 80 73 81 57 82 58 83 63 84
REMARK SMILES IDX 59 85 60 86 62 87 64 88 61 89
REMARK H PARENT 81 51 55 62
REMARK Flexibility Score: inf
ROOT
ATOM      1  C   UNL A   1      38.237  22.164  25.754  1.00  0.00     0.188 C 
ENDROOT
BRANCH   1   2
ATOM      2  O   UNL A   1      37.535  21.030  25.263  1.00  0.00    -0.377 OA
BRANCH   2   3
ATOM      3  C   UNL A   1      36.267  21.310  24.706  1.00  0.00     0.188 C 
BRANCH   3   4
ATOM      4  C   UNL A   1      35.246  22.017  25.624  1.00  0.00     0.188 C 
BRANCH   4   5
ATOM      5  O   UNL A   1      33.965  22.424  25.156  1.00  0.00    -0.376 OA
BRANCH   5   6
ATOM      6  C   UNL A   1      32.784  21.965  25.786  1.00  0.00     0.202 C 
BRANCH   6   7
ATOM      7  C   UNL A   1      32.273  22.710  27.029  1.00  0.00     0.261 C 
BRANCH   7   8
ATOM      8  O   UNL A   1      32.163  24.142  26.925  1.00  0.00    -0.463 OA
BRANCH   8   9
ATOM      9  C   UNL A   1      30.925  24.605  26.612  1.00  0.00     0.314 C 
ATOM     10  O   UNL A   1      29.896  23.942  26.714  1.00  0.00    -0.252 OA
BRANCH   9  11
ATOM     11  C   UNL A   1      30.925  26.003  25.990  1.00  0.00     0.139 C 
ATOM     12  N   UNL A   1      32.607  25.409  22.729  1.00  0.00    -0.287 N 
ATOM     13  C   UNL A   1      31.807  24.952  23.769  1.00  0.00     0.100 A 
ATOM     14  C   UNL A   1      32.989  26.722  23.032  1.00  0.00     0.057 A 
ATOM     15  C   UNL A   1      31.677  25.941  24.709  1.00  0.00    -0.006 A 
ATOM     16  C   UNL A   1      32.399  27.041  24.244  1.00  0.00     0.015 A 
ATOM     17  C   UNL A   1      33.747  27.692  22.356  1.00  0.00     0.027 A 
ATOM     18  C   UNL A   1      32.535  28.301  24.824  1.00  0.00     0.027 A 
ATOM     19  C   UNL A   1      33.854  28.974  22.935  1.00  0.00     0.003 A 
ATOM     20  C   UNL A   1      31.427  27.184  26.859  1.00  0.00     0.101 C 
ATOM     21  C   UNL A   1      33.252  29.287  24.157  1.00  0.00     0.012 A 
ATOM     22  C   UNL A   1      31.870  28.462  26.132  1.00  0.00     0.164 C 
ATOM     23  O   UNL A   1      31.769  29.573  26.645  1.00  0.00    -0.294 OA
BRANCH  12  24
ATOM     24  C   UNL A   1      32.929  24.682  21.568  1.00  0.00     0.227 C 
ATOM     25  C   UNL A   1      32.543  25.356  20.283  1.00  0.00     0.115 C 
ATOM     26  O   UNL A   1      33.525  23.615  21.650  1.00  0.00    -0.274 OA
ENDBRANCH  12  24
ENDBRANCH   9  11
ENDBRANCH   8   9
ENDBRANCH   7   8
ENDBRANCH   6   7
ENDBRANCH   5   6
ENDBRANCH   4   5
ENDBRANCH   3   4
ENDBRANCH   2   3
ENDBRANCH   1   2
BRANCH   1  27
ATOM     27  C   UNL A   1      39.611  21.885  26.401  1.00  0.00     0.188 C 
BRANCH  27  28
ATOM     28  O   UNL A   1      40.083  20.548  26.249  1.00  0.00    -0.376 OA
BRANCH  28  29
ATOM     29  C   UNL A   1      41.065  20.003  27.118  1.00  0.00     0.202 C 
BRANCH  29  30
ATOM     30  C   UNL A   1      42.341  19.459  26.464  1.00  0.00     0.261 C 
BRANCH  30  31
ATOM     31  O   UNL A   1      42.744  20.188  25.317  1.00  0.00    -0.460 OA
BRANCH  31  32
ATOM     32  C   UNL A   1      44.032  20.542  25.310  1.00  0.00     0.338 C 
ATOM     33  O   UNL A   1      45.019  19.795  25.277  1.00  0.00    -0.246 OA
BRANCH  32  34
ATOM     34  C   UNL A   1      44.146  21.983  25.429  1.00  0.00     0.060 A 
ATOM     35  C   UNL A   1      45.240  22.436  26.166  1.00  0.00     0.016 A 
ATOM     36  C   UNL A   1      42.968  22.723  25.258  1.00  0.00     0.016 A 
ATOM     37  C   UNL A   1      45.017  23.473  27.027  1.00  0.00     0.010 A 
ATOM     38  C   UNL A   1      42.740  23.741  26.139  1.00  0.00     0.010 A 
ATOM     39  C   UNL A   1      43.727  24.013  27.080  1.00  0.00    -0.014 A 
BRANCH  39  40
ATOM     40  C   UNL A   1      43.436  24.892  28.177  1.00  0.00     0.031 A 
ATOM     41  C   UNL A   1      42.205  25.664  27.965  1.00  0.00     0.074 A 
ATOM     42  C   UNL A   1      44.206  24.941  29.276  1.00  0.00     0.049 A 
ATOM     43  N   UNL A   1      42.108  26.917  27.678  1.00  0.00    -0.248 NA
ATOM     44  C   UNL A   1      40.949  24.909  27.858  1.00  0.00     0.031 C 
ATOM     45  C   UNL A   1      45.270  24.027  29.697  1.00  0.00     0.029 A 
ATOM     46  N   UNL A   1      44.118  25.814  30.310  1.00  0.00    -0.354 N 
ATOM     47  C   UNL A   1      40.746  27.156  27.569  1.00  0.00     0.074 A 
ATOM     48  C   UNL A   1      40.110  25.869  27.473  1.00  0.00     0.031 C 
ATOM     49  C   UNL A   1      45.569  24.271  30.995  1.00  0.00     0.029 A 
ATOM     50  C   UNL A   1      44.813  25.430  31.442  1.00  0.00     0.049 A 
ATOM     51  H   UNL A   1      43.602  26.650  30.258  1.00  0.00     0.167 HD
ATOM     52  C   UNL A   1      40.233  28.379  27.857  1.00  0.00     0.037 A 
ATOM     53  C   UNL A   1      44.687  25.995  32.667  1.00  0.00     0.037 A 
ATOM     54  C   UNL A   1      41.255  29.396  27.830  1.00  0.00     0.049 A 
ATOM     55  C   UNL A   1      44.062  27.333  32.481  1.00  0.00     0.074 A 
ATOM     56  C   UNL A   1      42.126  29.875  26.871  1.00  0.00     0.029 A 
ATOM     57  N   UNL A   1      41.744  29.842  29.034  1.00  0.00    -0.354 N 
ATOM     58  N   UNL A   1      44.665  28.346  31.922  1.00  0.00    -0.248 NA
ATOM     59  C   UNL A   1      42.607  27.415  32.500  1.00  0.00     0.031 C 
ATOM     60  C   UNL A   1      43.326  30.187  27.577  1.00  0.00     0.029 A 
ATOM     61  C   UNL A   1      43.108  29.918  28.928  1.00  0.00     0.049 A 
ATOM     62  H   UNL A   1      41.210  30.065  29.831  1.00  0.00     0.167 HD
ATOM     63  C   UNL A   1      43.688  28.968  31.156  1.00  0.00     0.074 A 
ATOM     64  C   UNL A   1      42.423  28.411  31.627  1.00  0.00     0.031 C 
ATOM     65  C   UNL A   1      44.015  29.654  30.022  1.00  0.00     0.037 A 
BRANCH  52  66
ATOM     66  C   UNL A   1      38.919  28.569  28.568  1.00  0.00     0.057 A 
ATOM     67  C   UNL A   1      38.668  28.195  29.907  1.00  0.00     0.134 A 
ATOM     68  C   UNL A   1      37.967  29.432  28.001  1.00  0.00     0.134 A 
ATOM     69  F   UNL A   1      39.510  27.440  30.621  1.00  0.00    -0.206 F 
ATOM     70  C   UNL A   1      37.577  28.669  30.634  1.00  0.00     0.040 A 
ATOM     71  C   UNL A   1      36.901  29.956  28.739  1.00  0.00     0.040 A 
ATOM     72  F   UNL A   1      38.097  29.862  26.737  1.00  0.00    -0.206 F 
ATOM     73  C   UNL A   1      36.710  29.584  30.063  1.00  0.00     0.006 A 
ENDBRANCH  52  66
BRANCH  53  74
ATOM     74  C   UNL A   1      44.779  25.341  33.989  1.00  0.00     0.057 A 
ATOM     75  C   UNL A   1      43.942  24.266  34.339  1.00  0.00     0.134 A 
ATOM     76  C   UNL A   1      45.506  25.922  35.037  1.00  0.00     0.134 A 
ATOM     77  F   UNL A   1      43.140  23.687  33.433  1.00  0.00    -0.206 F 
ATOM     78  C   UNL A   1      43.827  23.801  35.652  1.00  0.00     0.040 A 
ATOM     79  C   UNL A   1      45.393  25.472  36.359  1.00  0.00     0.040 A 
ATOM     80  F   UNL A   1      46.296  26.981  34.811  1.00  0.00    -0.206 F 
ATOM     81  C   UNL A   1      44.544  24.413  36.671  1.00  0.00     0.006 A 
ENDBRANCH  53  74
BRANCH  65  82
ATOM     82  C   UNL A   1      45.472  29.936  29.781  1.00  0.00     0.057 A 
ATOM     83  C   UNL A   1      45.981  31.198  30.104  1.00  0.00     0.134 A 
ATOM     84  C   UNL A   1      46.343  29.047  29.132  1.00  0.00     0.134 A 
ATOM     85  F   UNL A   1      45.190  32.122  30.670  1.00  0.00    -0.206 F 
ATOM     86  C   UNL A   1      47.300  31.556  29.815  1.00  0.00     0.040 A 
ATOM     87  C   UNL A   1      47.675  29.380  28.868  1.00  0.00     0.040 A 
ATOM     88  F   UNL A   1      45.915  27.858  28.690  1.00  0.00    -0.206 F 
ATOM     89  C   UNL A   1      48.156  30.640  29.208  1.00  0.00     0.006 A 
ENDBRANCH  65  82
ENDBRANCH  39  40
ENDBRANCH  32  34
ENDBRANCH  31  32
ENDBRANCH  30  31
ENDBRANCH  29  30
ENDBRANCH  28  29
ENDBRANCH  27  28
ENDBRANCH   1  27
TORSDOF 21
ENDMDL
