MODEL 1
REMARK VINA RESULT:      -8.5      0.000      0.000
REMARK SMILES O=C(CCCN1C(=O)C(=O)/C(=C(/[O-])c2ccc(Cl)cc2)[C@@H]1c1ccccc1[N+](=O)[O-])OCCOCCOCCOCCOC(=O)c1ccc(-c2c3nc(c(-c4c(F)cccc4F)c4ccc([nH]4)c(-c4c(F)cccc4F)c4nc(c(-c5c(F)cccc5F)c5ccc2[nH]5)C=C4)C=C3)cc1
REMARK SMILES IDX 35 1 34 2 33 3 32 4 31 5 2 6 1 7 3 8 4 9 5 10 6 11 7 12
REMARK SMILES IDX 21 13 8 14 9 15 11 16 10 17 12 18 13 19 22 20 23 21 27 22
REMARK SMILES IDX 24 23 26 24 25 25 28 26 29 27 30 28 14 29 15 30 20 31 16 32
REMARK SMILES IDX 19 33 17 34 18 35 36 36 37 37 38 38 39 39 40 40 41 41 42 42
REMARK SMILES IDX 43 43 44 44 45 45 46 46 47 47 99 48 48 49 98 50 49 51 50 52
REMARK SMILES IDX 51 53 92 54 52 55 97 56 91 57 93 58 53 59 96 60 90 61 89 62
REMARK SMILES IDX 54 64 80 65 63 66 79 67 64 68 67 69 78 70 94 71 65 72 66 73
REMARK SMILES IDX 77 75 95 76 68 77 55 78 56 79 61 80 57 81 58 82 60 83 62 84
REMARK SMILES IDX 59 85 81 86 82 87 87 88 83 89 84 90 86 91 88 92 85 93 69 94
REMARK SMILES IDX 70 95 75 96 71 97 72 98 74 99 76 100 73 101
REMARK H PARENT 93 63 67 74
REMARK Flexibility Score: inf
ROOT
ATOM      1  C   UNL A   1      33.311  34.508  28.678  1.00  0.00     0.188 C 
ENDROOT
BRANCH   1   2
ATOM      2  O   UNL A   1      34.532  33.795  28.412  1.00  0.00    -0.376 OA
BRANCH   2   3
ATOM      3  C   UNL A   1      34.656  32.593  29.182  1.00  0.00     0.202 C 
BRANCH   3   4
ATOM      4  C   UNL A   1      36.111  32.100  29.274  1.00  0.00     0.261 C 
BRANCH   4   5
ATOM      5  O   UNL A   1      36.439  31.027  28.432  1.00  0.00    -0.463 OA
BRANCH   5   6
ATOM      6  C   UNL A   1      37.626  30.471  28.784  1.00  0.00     0.305 C 
ATOM      7  O   UNL A   1      38.533  31.152  29.244  1.00  0.00    -0.252 OA
BRANCH   6   8
ATOM      8  C   UNL A   1      37.790  29.003  28.380  1.00  0.00     0.124 C 
BRANCH   8   9
ATOM      9  C   UNL A   1      39.056  28.330  27.706  1.00  0.00     0.033 C 
BRANCH   9  10
ATOM     10  C   UNL A   1      40.654  28.535  28.028  1.00  0.00     0.121 C 
BRANCH  10  11
ATOM     11  N   UNL A   1      41.600  27.697  27.163  1.00  0.00    -0.324 N 
ATOM     12  C   UNL A   1      42.648  28.495  26.680  1.00  0.00     0.295 C 
ATOM     13  C   UNL A   1      42.051  26.169  27.202  1.00  0.00     0.157 C 
ATOM     14  O   UNL A   1      42.860  29.681  26.865  1.00  0.00    -0.265 OA
ATOM     15  C   UNL A   1      43.613  27.617  25.965  1.00  0.00     0.248 C 
ATOM     16  C   UNL A   1      43.582  26.317  26.664  1.00  0.00     0.025 C 
ATOM     17  O   UNL A   1      44.254  27.991  25.002  1.00  0.00    -0.283 OA
ATOM     18  C   UNL A   1      44.784  25.738  26.942  1.00  0.00    -0.092 C 
ATOM     19  O   UNL A   1      44.834  24.683  27.836  1.00  0.00    -0.872 OA
BRANCH  13  20
ATOM     20  C   UNL A   1      41.305  24.688  26.694  1.00  0.00     0.057 A 
ATOM     21  C   UNL A   1      39.912  24.828  26.923  1.00  0.00     0.013 A 
ATOM     22  C   UNL A   1      41.587  23.274  26.289  1.00  0.00     0.275 A 
ATOM     23  C   UNL A   1      38.979  23.766  26.856  1.00  0.00     0.001 A 
ATOM     24  C   UNL A   1      40.613  22.217  26.315  1.00  0.00     0.086 A 
ATOM     25  C   UNL A   1      39.306  22.465  26.583  1.00  0.00     0.007 A 
BRANCH  22  26
ATOM     26  N   UNL A   1      42.599  22.670  25.376  1.00  0.00     0.063 N 
ATOM     27  O   UNL A   1      43.412  23.401  24.797  1.00  0.00    -0.258 OA
ATOM     28  O   UNL A   1      42.665  21.430  25.381  1.00  0.00    -0.258 OA
ENDBRANCH  22  26
ENDBRANCH  13  20
BRANCH  18  29
ATOM     29  C   UNL A   1      46.143  26.065  26.327  1.00  0.00    -0.033 A 
ATOM     30  C   UNL A   1      46.874  27.240  26.559  1.00  0.00     0.009 A 
ATOM     31  C   UNL A   1      46.699  25.195  25.370  1.00  0.00     0.009 A 
ATOM     32  C   UNL A   1      47.935  27.628  25.710  1.00  0.00     0.021 A 
ATOM     33  C   UNL A   1      47.722  25.585  24.488  1.00  0.00     0.021 A 
ATOM     34  C   UNL A   1      48.309  26.827  24.636  1.00  0.00     0.041 A 
ATOM     35  Cl  UNL A   1      49.483  27.368  23.502  1.00  0.00    -0.084 Cl
ENDBRANCH  18  29
ENDBRANCH  10  11
ENDBRANCH   9  10
ENDBRANCH   8   9
ENDBRANCH   6   8
ENDBRANCH   5   6
ENDBRANCH   4   5
ENDBRANCH   3   4
ENDBRANCH   2   3
ENDBRANCH   1   2
BRANCH   1  36
ATOM     36  C   UNL A   1      33.517  36.028  28.815  1.00  0.00     0.188 C 
BRANCH  36  37
ATOM     37  O   UNL A   1      32.907  36.759  29.871  1.00  0.00    -0.377 OA
BRANCH  37  38
ATOM     38  C   UNL A   1      32.518  36.077  31.038  1.00  0.00     0.188 C 
BRANCH  38  39
ATOM     39  C   UNL A   1      33.572  35.858  32.126  1.00  0.00     0.188 C 
BRANCH  39  40
ATOM     40  O   UNL A   1      33.557  34.661  32.875  1.00  0.00    -0.376 OA
BRANCH  40  41
ATOM     41  C   UNL A   1      34.395  33.599  32.453  1.00  0.00     0.202 C 
BRANCH  41  42
ATOM     42  C   UNL A   1      35.876  33.601  32.862  1.00  0.00     0.261 C 
BRANCH  42  43
ATOM     43  O   UNL A   1      36.520  32.303  32.881  1.00  0.00    -0.460 OA
BRANCH  43  44
ATOM     44  C   UNL A   1      37.241  32.027  33.994  1.00  0.00     0.338 C 
ATOM     45  O   UNL A   1      37.009  32.417  35.129  1.00  0.00    -0.246 OA
BRANCH  44  46
ATOM     46  C   UNL A   1      38.332  31.050  33.760  1.00  0.00     0.060 A 
ATOM     47  C   UNL A   1      39.510  31.214  34.488  1.00  0.00     0.016 A 
ATOM     48  C   UNL A   1      38.344  30.207  32.657  1.00  0.00     0.016 A 
ATOM     49  C   UNL A   1      40.731  30.697  34.047  1.00  0.00     0.010 A 
ATOM     50  C   UNL A   1      39.556  29.604  32.258  1.00  0.00     0.010 A 
ATOM     51  C   UNL A   1      40.780  29.902  32.904  1.00  0.00    -0.014 A 
BRANCH  51  52
ATOM     52  C   UNL A   1      42.094  29.524  32.282  1.00  0.00     0.031 A 
ATOM     53  C   UNL A   1      42.822  28.321  32.816  1.00  0.00     0.074 A 
ATOM     54  C   UNL A   1      42.642  30.164  31.227  1.00  0.00     0.049 A 
ATOM     55  N   UNL A   1      44.032  27.904  32.554  1.00  0.00    -0.248 NA
ATOM     56  C   UNL A   1      42.064  27.447  33.726  1.00  0.00     0.031 C 
ATOM     57  C   UNL A   1      41.978  31.162  30.414  1.00  0.00     0.029 A 
ATOM     58  N   UNL A   1      43.889  30.090  30.654  1.00  0.00    -0.354 N 
ATOM     59  C   UNL A   1      44.186  26.726  33.269  1.00  0.00     0.074 A 
ATOM     60  C   UNL A   1      42.958  26.510  34.003  1.00  0.00     0.031 C 
ATOM     61  C   UNL A   1      42.844  31.749  29.579  1.00  0.00     0.029 A 
ATOM     62  C   UNL A   1      44.126  31.084  29.726  1.00  0.00     0.049 A 
ATOM     63  H   UNL A   1      44.549  29.397  30.883  1.00  0.00     0.167 HD
ATOM     64  C   UNL A   1      45.250  25.890  33.294  1.00  0.00     0.037 A 
ATOM     65  C   UNL A   1      45.237  31.421  29.044  1.00  0.00     0.037 A 
ATOM     66  C   UNL A   1      46.464  26.090  32.549  1.00  0.00     0.049 A 
ATOM     67  C   UNL A   1      46.452  30.558  29.195  1.00  0.00     0.074 A 
ATOM     68  C   UNL A   1      47.609  25.313  32.545  1.00  0.00     0.029 A 
ATOM     69  N   UNL A   1      46.689  27.136  31.667  1.00  0.00    -0.354 N 
ATOM     70  N   UNL A   1      46.603  29.476  29.918  1.00  0.00    -0.248 NA
ATOM     71  C   UNL A   1      47.637  30.937  28.415  1.00  0.00     0.031 C 
ATOM     72  C   UNL A   1      48.544  25.914  31.697  1.00  0.00     0.029 A 
ATOM     73  C   UNL A   1      47.964  27.037  31.131  1.00  0.00     0.049 A 
ATOM     74  H   UNL A   1      46.040  27.845  31.453  1.00  0.00     0.167 HD
ATOM     75  C   UNL A   1      47.888  29.027  29.658  1.00  0.00     0.074 A 
ATOM     76  C   UNL A   1      48.464  29.941  28.694  1.00  0.00     0.031 C 
ATOM     77  C   UNL A   1      48.530  27.953  30.176  1.00  0.00     0.037 A 
BRANCH  64  78
ATOM     78  C   UNL A   1      45.155  24.694  34.193  1.00  0.00     0.057 A 
ATOM     79  C   UNL A   1      45.579  24.730  35.527  1.00  0.00     0.134 A 
ATOM     80  C   UNL A   1      44.606  23.496  33.717  1.00  0.00     0.134 A 
ATOM     81  F   UNL A   1      46.135  25.841  36.033  1.00  0.00    -0.206 F 
ATOM     82  C   UNL A   1      45.473  23.611  36.354  1.00  0.00     0.040 A 
ATOM     83  C   UNL A   1      44.473  22.379  34.542  1.00  0.00     0.040 A 
ATOM     84  F   UNL A   1      44.186  23.397  32.448  1.00  0.00    -0.206 F 
ATOM     85  C   UNL A   1      44.910  22.434  35.863  1.00  0.00     0.006 A 
ENDBRANCH  64  78
BRANCH  65  86
ATOM     86  C   UNL A   1      45.260  32.616  28.161  1.00  0.00     0.057 A 
ATOM     87  C   UNL A   1      45.130  32.509  26.771  1.00  0.00     0.134 A 
ATOM     88  C   UNL A   1      45.474  33.897  28.689  1.00  0.00     0.134 A 
ATOM     89  F   UNL A   1      44.933  31.310  26.204  1.00  0.00    -0.206 F 
ATOM     90  C   UNL A   1      45.256  33.621  25.936  1.00  0.00     0.040 A 
ATOM     91  C   UNL A   1      45.576  35.021  27.867  1.00  0.00     0.040 A 
ATOM     92  F   UNL A   1      45.596  34.072  30.013  1.00  0.00    -0.206 F 
ATOM     93  C   UNL A   1      45.482  34.883  26.484  1.00  0.00     0.006 A 
ENDBRANCH  65  86
BRANCH  77  94
ATOM     94  C   UNL A   1      49.925  27.703  29.686  1.00  0.00     0.057 A 
ATOM     95  C   UNL A   1      51.020  28.423  30.181  1.00  0.00     0.134 A 
ATOM     96  C   UNL A   1      50.175  26.729  28.712  1.00  0.00     0.134 A 
ATOM     97  F   UNL A   1      50.843  29.382  31.102  1.00  0.00    -0.206 F 
ATOM     98  C   UNL A   1      52.311  28.206  29.700  1.00  0.00     0.040 A 
ATOM     99  C   UNL A   1      51.466  26.482  28.244  1.00  0.00     0.040 A 
ATOM    100  F   UNL A   1      49.170  26.002  28.200  1.00  0.00    -0.206 F 
ATOM    101  C   UNL A   1      52.537  27.228  28.733  1.00  0.00     0.006 A 
ENDBRANCH  77  94
ENDBRANCH  51  52
ENDBRANCH  44  46
ENDBRANCH  43  44
ENDBRANCH  42  43
ENDBRANCH  41  42
ENDBRANCH  40  41
ENDBRANCH  39  40
ENDBRANCH  38  39
ENDBRANCH  37  38
ENDBRANCH  36  37
ENDBRANCH   1  36
TORSDOF 26
ENDMDL
MODEL 2
REMARK VINA RESULT:      -8.4      5.279     10.423
REMARK SMILES O=C(CCCN1C(=O)C(=O)/C(=C(/[O-])c2ccc(Cl)cc2)[C@@H]1c1ccccc1[N+](=O)[O-])OCCOCCOCCOCCOC(=O)c1ccc(-c2c3nc(c(-c4c(F)cccc4F)c4ccc([nH]4)c(-c4c(F)cccc4F)c4nc(c(-c5c(F)cccc5F)c5ccc2[nH]5)C=C4)C=C3)cc1
REMARK SMILES IDX 35 1 34 2 33 3 32 4 31 5 2 6 1 7 3 8 4 9 5 10 6 11 7 12
REMARK SMILES IDX 21 13 8 14 9 15 11 16 10 17 12 18 13 19 22 20 23 21 27 22
REMARK SMILES IDX 24 23 26 24 25 25 28 26 29 27 30 28 14 29 15 30 20 31 16 32
REMARK SMILES IDX 19 33 17 34 18 35 36 36 37 37 38 38 39 39 40 40 41 41 42 42
REMARK SMILES IDX 43 43 44 44 45 45 46 46 47 47 99 48 48 49 98 50 49 51 50 52
REMARK SMILES IDX 51 53 92 54 52 55 97 56 91 57 93 58 53 59 96 60 90 61 89 62
REMARK SMILES IDX 54 64 80 65 63 66 79 67 64 68 67 69 78 70 94 71 65 72 66 73
REMARK SMILES IDX 77 75 95 76 68 77 55 78 56 79 61 80 57 81 58 82 60 83 62 84
REMARK SMILES IDX 59 85 81 86 82 87 87 88 83 89 84 90 86 91 88 92 85 93 69 94
REMARK SMILES IDX 70 95 75 96 71 97 72 98 74 99 76 100 73 101
REMARK H PARENT 93 63 67 74
REMARK Flexibility Score: inf
ROOT
ATOM      1  C   UNL A   1      37.663  22.333  25.676  1.00  0.00     0.188 C 
ENDROOT
BRANCH   1   2
ATOM      2  O   UNL A   1      37.088  21.980  24.405  1.00  0.00    -0.376 OA
BRANCH   2   3
ATOM      3  C   UNL A   1      36.620  23.117  23.668  1.00  0.00     0.202 C 
BRANCH   3   4
ATOM      4  C   UNL A   1      35.205  22.909  23.101  1.00  0.00     0.261 C 
BRANCH   4   5
ATOM      5  O   UNL A   1      34.538  24.077  22.703  1.00  0.00    -0.463 OA
BRANCH   5   6
ATOM      6  C   UNL A   1      33.296  23.797  22.231  1.00  0.00     0.305 C 
ATOM      7  O   UNL A   1      32.671  22.824  22.631  1.00  0.00    -0.252 OA
BRANCH   6   8
ATOM      8  C   UNL A   1      32.849  24.665  21.051  1.00  0.00     0.124 C 
BRANCH   8   9
ATOM      9  C   UNL A   1      31.731  25.787  21.057  1.00  0.00     0.033 C 
BRANCH   9  10
ATOM     10  C   UNL A   1      31.173  26.711  22.296  1.00  0.00     0.121 C 
BRANCH  10  11
ATOM     11  N   UNL A   1      32.134  26.854  23.479  1.00  0.00    -0.324 N 
ATOM     12  C   UNL A   1      32.860  28.051  23.368  1.00  0.00     0.295 C 
ATOM     13  C   UNL A   1      32.070  26.394  25.003  1.00  0.00     0.157 C 
ATOM     14  O   UNL A   1      32.804  28.907  22.503  1.00  0.00    -0.265 OA
ATOM     15  C   UNL A   1      33.676  28.218  24.601  1.00  0.00     0.248 C 
ATOM     16  C   UNL A   1      32.891  27.617  25.698  1.00  0.00     0.025 C 
ATOM     17  O   UNL A   1      34.765  28.757  24.601  1.00  0.00    -0.283 OA
ATOM     18  C   UNL A   1      32.799  28.334  26.854  1.00  0.00    -0.092 C 
ATOM     19  O   UNL A   1      31.857  27.972  27.799  1.00  0.00    -0.872 OA
BRANCH  13  20
ATOM     20  C   UNL A   1      32.321  24.879  25.807  1.00  0.00     0.057 A 
ATOM     21  C   UNL A   1      33.713  24.776  26.068  1.00  0.00     0.013 A 
ATOM     22  C   UNL A   1      31.669  23.576  26.157  1.00  0.00     0.275 A 
ATOM     23  C   UNL A   1      34.360  23.595  26.504  1.00  0.00     0.001 A 
ATOM     24  C   UNL A   1      32.386  22.385  26.519  1.00  0.00     0.086 A 
ATOM     25  C   UNL A   1      33.730  22.397  26.708  1.00  0.00     0.007 A 
BRANCH  22  26
ATOM     26  N   UNL A   1      30.319  23.238  26.690  1.00  0.00     0.063 N 
ATOM     27  O   UNL A   1      29.617  24.129  27.185  1.00  0.00    -0.258 OA
ATOM     28  O   UNL A   1      29.912  22.089  26.453  1.00  0.00    -0.258 OA
ENDBRANCH  22  26
ENDBRANCH  13  20
BRANCH  18  29
ATOM     29  C   UNL A   1      33.678  29.500  27.302  1.00  0.00    -0.033 A 
ATOM     30  C   UNL A   1      34.951  29.379  27.878  1.00  0.00     0.009 A 
ATOM     31  C   UNL A   1      33.172  30.813  27.242  1.00  0.00     0.009 A 
ATOM     32  C   UNL A   1      35.552  30.453  28.574  1.00  0.00     0.021 A 
ATOM     33  C   UNL A   1      33.732  31.879  27.967  1.00  0.00     0.021 A 
ATOM     34  C   UNL A   1      34.905  31.680  28.671  1.00  0.00     0.041 A 
ATOM     35  Cl  UNL A   1      35.547  32.938  29.652  1.00  0.00    -0.084 Cl
ENDBRANCH  18  29
ENDBRANCH  10  11
ENDBRANCH   9  10
ENDBRANCH   8   9
ENDBRANCH   6   8
ENDBRANCH   5   6
ENDBRANCH   4   5
ENDBRANCH   3   4
ENDBRANCH   2   3
ENDBRANCH   1   2
BRANCH   1  36
ATOM     36  C   UNL A   1      39.149  21.946  25.795  1.00  0.00     0.188 C 
BRANCH  36  37
ATOM     37  O   UNL A   1      39.566  20.894  26.655  1.00  0.00    -0.377 OA
BRANCH  37  38
ATOM     38  C   UNL A   1      40.282  19.812  26.111  1.00  0.00     0.188 C 
BRANCH  38  39
ATOM     39  C   UNL A   1      41.808  19.830  26.228  1.00  0.00     0.188 C 
BRANCH  39  40
ATOM     40  O   UNL A   1      42.543  20.837  25.565  1.00  0.00    -0.376 OA
BRANCH  40  41
ATOM     41  C   UNL A   1      43.464  21.600  26.325  1.00  0.00     0.202 C 
BRANCH  41  42
ATOM     42  C   UNL A   1      42.967  22.360  27.565  1.00  0.00     0.261 C 
BRANCH  42  43
ATOM     43  O   UNL A   1      41.793  23.184  27.363  1.00  0.00    -0.460 OA
BRANCH  43  44
ATOM     44  C   UNL A   1      41.918  24.479  27.741  1.00  0.00     0.338 C 
ATOM     45  O   UNL A   1      41.115  25.130  28.393  1.00  0.00    -0.246 OA
BRANCH  44  46
ATOM     46  C   UNL A   1      43.239  25.065  27.404  1.00  0.00     0.060 A 
ATOM     47  C   UNL A   1      43.994  25.595  28.450  1.00  0.00     0.016 A 
ATOM     48  C   UNL A   1      43.594  25.381  26.099  1.00  0.00     0.016 A 
ATOM     49  C   UNL A   1      44.980  26.561  28.234  1.00  0.00     0.010 A 
ATOM     50  C   UNL A   1      44.653  26.286  25.869  1.00  0.00     0.010 A 
ATOM     51  C   UNL A   1      45.310  26.945  26.936  1.00  0.00    -0.014 A 
BRANCH  51  52
ATOM     52  C   UNL A   1      46.194  28.132  26.683  1.00  0.00     0.031 A 
ATOM     53  C   UNL A   1      47.660  27.896  26.437  1.00  0.00     0.074 A 
ATOM     54  C   UNL A   1      45.748  29.404  26.603  1.00  0.00     0.049 A 
ATOM     55  N   UNL A   1      48.634  28.764  26.360  1.00  0.00    -0.248 NA
ATOM     56  C   UNL A   1      48.068  26.504  26.195  1.00  0.00     0.031 C 
ATOM     57  C   UNL A   1      44.356  29.802  26.546  1.00  0.00     0.029 A 
ATOM     58  N   UNL A   1      46.407  30.610  26.570  1.00  0.00    -0.354 N 
ATOM     59  C   UNL A   1      49.771  28.025  26.069  1.00  0.00     0.074 A 
ATOM     60  C   UNL A   1      49.373  26.635  26.014  1.00  0.00     0.031 C 
ATOM     61  C   UNL A   1      44.235  31.129  26.674  1.00  0.00     0.029 A 
ATOM     62  C   UNL A   1      45.570  31.697  26.719  1.00  0.00     0.049 A 
ATOM     63  H   UNL A   1      47.381  30.690  26.453  1.00  0.00     0.167 HD
ATOM     64  C   UNL A   1      51.030  28.470  25.846  1.00  0.00     0.037 A 
ATOM     65  C   UNL A   1      45.831  33.011  26.853  1.00  0.00     0.037 A 
ATOM     66  C   UNL A   1      51.424  29.854  25.878  1.00  0.00     0.049 A 
ATOM     67  C   UNL A   1      47.253  33.468  26.743  1.00  0.00     0.074 A 
ATOM     68  C   UNL A   1      52.686  30.392  25.703  1.00  0.00     0.029 A 
ATOM     69  N   UNL A   1      50.562  30.919  26.089  1.00  0.00    -0.354 N 
ATOM     70  N   UNL A   1      48.328  32.753  26.522  1.00  0.00    -0.248 NA
ATOM     71  C   UNL A   1      47.499  34.910  26.865  1.00  0.00     0.031 C 
ATOM     72  C   UNL A   1      52.597  31.779  25.854  1.00  0.00     0.029 A 
ATOM     73  C   UNL A   1      51.270  32.110  26.072  1.00  0.00     0.049 A 
ATOM     74  H   UNL A   1      49.591  30.841  26.231  1.00  0.00     0.167 HD
ATOM     75  C   UNL A   1      49.373  33.659  26.448  1.00  0.00     0.074 A 
ATOM     76  C   UNL A   1      48.799  34.976  26.625  1.00  0.00     0.031 C 
ATOM     77  C   UNL A   1      50.691  33.416  26.253  1.00  0.00     0.037 A 
BRANCH  64  78
ATOM     78  C   UNL A   1      52.081  27.435  25.585  1.00  0.00     0.057 A 
ATOM     79  C   UNL A   1      52.829  26.856  26.618  1.00  0.00     0.134 A 
ATOM     80  C   UNL A   1      52.330  26.996  24.278  1.00  0.00     0.134 A 
ATOM     81  F   UNL A   1      52.654  27.252  27.888  1.00  0.00    -0.206 F 
ATOM     82  C   UNL A   1      53.797  25.885  26.358  1.00  0.00     0.040 A 
ATOM     83  C   UNL A   1      53.277  26.009  24.010  1.00  0.00     0.040 A 
ATOM     84  F   UNL A   1      51.649  27.516  23.245  1.00  0.00    -0.206 F 
ATOM     85  C   UNL A   1      54.016  25.452  25.051  1.00  0.00     0.006 A 
ENDBRANCH  64  78
BRANCH  65  86
ATOM     86  C   UNL A   1      44.737  33.986  27.102  1.00  0.00     0.057 A 
ATOM     87  C   UNL A   1      44.349  34.344  28.399  1.00  0.00     0.134 A 
ATOM     88  C   UNL A   1      44.012  34.540  26.039  1.00  0.00     0.134 A 
ATOM     89  F   UNL A   1      44.998  33.840  29.459  1.00  0.00    -0.206 F 
ATOM     90  C   UNL A   1      43.255  35.180  28.632  1.00  0.00     0.040 A 
ATOM     91  C   UNL A   1      42.931  35.398  26.257  1.00  0.00     0.040 A 
ATOM     92  F   UNL A   1      44.337  34.249  24.772  1.00  0.00    -0.206 F 
ATOM     93  C   UNL A   1      42.541  35.708  27.557  1.00  0.00     0.006 A 
ENDBRANCH  65  86
BRANCH  77  94
ATOM     94  C   UNL A   1      51.595  34.612  26.199  1.00  0.00     0.057 A 
ATOM     95  C   UNL A   1      52.218  35.117  27.348  1.00  0.00     0.134 A 
ATOM     96  C   UNL A   1      51.846  35.262  24.985  1.00  0.00     0.134 A 
ATOM     97  F   UNL A   1      52.001  34.548  28.544  1.00  0.00    -0.206 F 
ATOM     98  C   UNL A   1      53.033  36.247  27.297  1.00  0.00     0.040 A 
ATOM     99  C   UNL A   1      52.684  36.375  24.917  1.00  0.00     0.040 A 
ATOM    100  F   UNL A   1      51.284  34.826  23.848  1.00  0.00    -0.206 F 
ATOM    101  C   UNL A   1      53.272  36.876  26.076  1.00  0.00     0.006 A 
ENDBRANCH  77  94
ENDBRANCH  51  52
ENDBRANCH  44  46
ENDBRANCH  43  44
ENDBRANCH  42  43
ENDBRANCH  41  42
ENDBRANCH  40  41
ENDBRANCH  39  40
ENDBRANCH  38  39
ENDBRANCH  37  38
ENDBRANCH  36  37
ENDBRANCH   1  36
TORSDOF 26
ENDMDL
MODEL 3
REMARK VINA RESULT:      -8.1      5.364     11.109
REMARK SMILES O=C(CCCN1C(=O)C(=O)/C(=C(/[O-])c2ccc(Cl)cc2)[C@@H]1c1ccccc1[N+](=O)[O-])OCCOCCOCCOCCOC(=O)c1ccc(-c2c3nc(c(-c4c(F)cccc4F)c4ccc([nH]4)c(-c4c(F)cccc4F)c4nc(c(-c5c(F)cccc5F)c5ccc2[nH]5)C=C4)C=C3)cc1
REMARK SMILES IDX 35 1 34 2 33 3 32 4 31 5 2 6 1 7 3 8 4 9 5 10 6 11 7 12
REMARK SMILES IDX 21 13 8 14 9 15 11 16 10 17 12 18 13 19 22 20 23 21 27 22
REMARK SMILES IDX 24 23 26 24 25 25 28 26 29 27 30 28 14 29 15 30 20 31 16 32
REMARK SMILES IDX 19 33 17 34 18 35 36 36 37 37 38 38 39 39 40 40 41 41 42 42
REMARK SMILES IDX 43 43 44 44 45 45 46 46 47 47 99 48 48 49 98 50 49 51 50 52
REMARK SMILES IDX 51 53 92 54 52 55 97 56 91 57 93 58 53 59 96 60 90 61 89 62
REMARK SMILES IDX 54 64 80 65 63 66 79 67 64 68 67 69 78 70 94 71 65 72 66 73
REMARK SMILES IDX 77 75 95 76 68 77 55 78 56 79 61 80 57 81 58 82 60 83 62 84
REMARK SMILES IDX 59 85 81 86 82 87 87 88 83 89 84 90 86 91 88 92 85 93 69 94
REMARK SMILES IDX 70 95 75 96 71 97 72 98 74 99 76 100 73 101
REMARK H PARENT 93 63 67 74
REMARK Flexibility Score: inf
ROOT
ATOM      1  C   UNL A   1      37.046  21.763  25.241  1.00  0.00     0.188 C 
ENDROOT
BRANCH   1   2
ATOM      2  O   UNL A   1      37.131  21.765  23.805  1.00  0.00    -0.376 OA
BRANCH   2   3
ATOM      3  C   UNL A   1      36.592  22.955  23.215  1.00  0.00     0.202 C 
BRANCH   3   4
ATOM      4  C   UNL A   1      35.062  22.896  23.064  1.00  0.00     0.261 C 
BRANCH   4   5
ATOM      5  O   UNL A   1      34.446  24.098  22.688  1.00  0.00    -0.463 OA
BRANCH   5   6
ATOM      6  C   UNL A   1      33.200  23.880  22.195  1.00  0.00     0.305 C 
ATOM      7  O   UNL A   1      32.494  22.983  22.633  1.00  0.00    -0.252 OA
BRANCH   6   8
ATOM      8  C   UNL A   1      32.852  24.701  20.949  1.00  0.00     0.124 C 
BRANCH   8   9
ATOM      9  C   UNL A   1      31.836  25.913  20.854  1.00  0.00     0.033 C 
BRANCH   9  10
ATOM     10  C   UNL A   1      31.174  26.828  22.047  1.00  0.00     0.121 C 
BRANCH  10  11
ATOM     11  N   UNL A   1      32.014  26.931  23.324  1.00  0.00    -0.324 N 
ATOM     12  C   UNL A   1      32.743  28.131  23.326  1.00  0.00     0.295 C 
ATOM     13  C   UNL A   1      31.801  26.420  24.818  1.00  0.00     0.157 C 
ATOM     14  O   UNL A   1      32.769  29.016  22.489  1.00  0.00    -0.265 OA
ATOM     15  C   UNL A   1      33.434  28.256  24.638  1.00  0.00     0.248 C 
ATOM     16  C   UNL A   1      32.546  27.619  25.631  1.00  0.00     0.025 C 
ATOM     17  O   UNL A   1      34.516  28.795  24.763  1.00  0.00    -0.283 OA
ATOM     18  C   UNL A   1      32.339  28.296  26.796  1.00  0.00    -0.092 C 
ATOM     19  O   UNL A   1      31.309  27.902  27.631  1.00  0.00    -0.872 OA
BRANCH  13  20
ATOM     20  C   UNL A   1      31.978  24.878  25.591  1.00  0.00     0.057 A 
ATOM     21  C   UNL A   1      30.725  24.218  25.486  1.00  0.00     0.013 A 
ATOM     22  C   UNL A   1      32.876  24.069  26.476  1.00  0.00     0.275 A 
ATOM     23  C   UNL A   1      30.383  23.035  26.185  1.00  0.00     0.001 A 
ATOM     24  C   UNL A   1      32.450  22.918  27.223  1.00  0.00     0.086 A 
ATOM     25  C   UNL A   1      31.209  22.392  27.067  1.00  0.00     0.007 A 
BRANCH  22  26
ATOM     26  N   UNL A   1      34.351  23.852  26.485  1.00  0.00     0.063 N 
ATOM     27  O   UNL A   1      35.093  24.680  25.944  1.00  0.00    -0.258 OA
ATOM     28  O   UNL A   1      34.758  22.914  27.190  1.00  0.00    -0.258 OA
ENDBRANCH  22  26
ENDBRANCH  13  20
BRANCH  18  29
ATOM     29  C   UNL A   1      33.165  29.446  27.368  1.00  0.00    -0.033 A 
ATOM     30  C   UNL A   1      32.799  30.800  27.333  1.00  0.00     0.009 A 
ATOM     31  C   UNL A   1      34.446  29.187  27.891  1.00  0.00     0.009 A 
ATOM     32  C   UNL A   1      33.744  31.826  27.562  1.00  0.00     0.021 A 
ATOM     33  C   UNL A   1      35.411  30.192  28.078  1.00  0.00     0.021 A 
ATOM     34  C   UNL A   1      35.064  31.513  27.868  1.00  0.00     0.041 A 
ATOM     35  Cl  UNL A   1      36.257  32.747  27.983  1.00  0.00    -0.084 Cl
ENDBRANCH  18  29
ENDBRANCH  10  11
ENDBRANCH   9  10
ENDBRANCH   8   9
ENDBRANCH   6   8
ENDBRANCH   5   6
ENDBRANCH   4   5
ENDBRANCH   3   4
ENDBRANCH   2   3
ENDBRANCH   1   2
BRANCH   1  36
ATOM     36  C   UNL A   1      38.422  21.679  25.928  1.00  0.00     0.188 C 
BRANCH  36  37
ATOM     37  O   UNL A   1      39.186  20.480  25.897  1.00  0.00    -0.377 OA
BRANCH  37  38
ATOM     38  C   UNL A   1      40.587  20.566  25.809  1.00  0.00     0.188 C 
BRANCH  38  39
ATOM     39  C   UNL A   1      41.414  20.014  26.973  1.00  0.00     0.188 C 
BRANCH  39  40
ATOM     40  O   UNL A   1      42.167  20.902  27.772  1.00  0.00    -0.376 OA
BRANCH  40  41
ATOM     41  C   UNL A   1      41.480  21.948  28.437  1.00  0.00     0.202 C 
BRANCH  41  42
ATOM     42  C   UNL A   1      41.190  23.255  27.683  1.00  0.00     0.261 C 
BRANCH  42  43
ATOM     43  O   UNL A   1      42.175  23.634  26.690  1.00  0.00    -0.460 OA
BRANCH  43  44
ATOM     44  C   UNL A   1      42.225  24.955  26.394  1.00  0.00     0.338 C 
ATOM     45  O   UNL A   1      41.272  25.710  26.265  1.00  0.00    -0.246 OA
BRANCH  44  46
ATOM     46  C   UNL A   1      43.605  25.499  26.360  1.00  0.00     0.060 A 
ATOM     47  C   UNL A   1      44.158  25.926  27.566  1.00  0.00     0.016 A 
ATOM     48  C   UNL A   1      44.218  25.879  25.173  1.00  0.00     0.016 A 
ATOM     49  C   UNL A   1      45.200  26.856  27.613  1.00  0.00     0.010 A 
ATOM     50  C   UNL A   1      45.332  26.746  25.216  1.00  0.00     0.010 A 
ATOM     51  C   UNL A   1      45.790  27.305  26.434  1.00  0.00    -0.014 A 
BRANCH  51  52
ATOM     52  C   UNL A   1      46.746  28.462  26.441  1.00  0.00     0.031 A 
ATOM     53  C   UNL A   1      46.185  29.858  26.499  1.00  0.00     0.074 A 
ATOM     54  C   UNL A   1      48.090  28.333  26.458  1.00  0.00     0.049 A 
ATOM     55  N   UNL A   1      46.799  31.002  26.350  1.00  0.00    -0.248 NA
ATOM     56  C   UNL A   1      44.753  29.976  26.816  1.00  0.00     0.031 C 
ATOM     57  C   UNL A   1      48.810  27.094  26.673  1.00  0.00     0.029 A 
ATOM     58  N   UNL A   1      49.104  29.243  26.279  1.00  0.00    -0.354 N 
ATOM     59  C   UNL A   1      45.832  31.975  26.548  1.00  0.00     0.074 A 
ATOM     60  C   UNL A   1      44.581  31.289  26.795  1.00  0.00     0.031 C 
ATOM     61  C   UNL A   1      50.117  27.255  26.434  1.00  0.00     0.029 A 
ATOM     62  C   UNL A   1      50.348  28.659  26.144  1.00  0.00     0.049 A 
ATOM     63  H   UNL A   1      48.958  30.216  26.248  1.00  0.00     0.167 HD
ATOM     64  C   UNL A   1      45.978  33.320  26.544  1.00  0.00     0.037 A 
ATOM     65  C   UNL A   1      51.551  29.183  25.846  1.00  0.00     0.037 A 
ATOM     66  C   UNL A   1      47.224  34.005  26.321  1.00  0.00     0.049 A 
ATOM     67  C   UNL A   1      51.663  30.670  25.707  1.00  0.00     0.074 A 
ATOM     68  C   UNL A   1      47.457  35.368  26.261  1.00  0.00     0.029 A 
ATOM     69  N   UNL A   1      48.448  33.382  26.131  1.00  0.00    -0.354 N 
ATOM     70  N   UNL A   1      50.729  31.578  25.842  1.00  0.00    -0.248 NA
ATOM     71  C   UNL A   1      52.996  31.211  25.410  1.00  0.00     0.031 C 
ATOM     72  C   UNL A   1      48.813  35.569  25.989  1.00  0.00     0.029 A 
ATOM     73  C   UNL A   1      49.436  34.334  25.930  1.00  0.00     0.049 A 
ATOM     74  H   UNL A   1      48.594  32.409  26.137  1.00  0.00     0.167 HD
ATOM     75  C   UNL A   1      51.364  32.799  25.677  1.00  0.00     0.074 A 
ATOM     76  C   UNL A   1      52.766  32.515  25.455  1.00  0.00     0.031 C 
ATOM     77  C   UNL A   1      50.828  34.042  25.706  1.00  0.00     0.037 A 
BRANCH  64  78
ATOM     78  C   UNL A   1      44.742  34.140  26.754  1.00  0.00     0.057 A 
ATOM     79  C   UNL A   1      44.360  34.601  28.020  1.00  0.00     0.134 A 
ATOM     80  C   UNL A   1      43.935  34.493  25.664  1.00  0.00     0.134 A 
ATOM     81  F   UNL A   1      45.078  34.276  29.106  1.00  0.00    -0.206 F 
ATOM     82  C   UNL A   1      43.211  35.373  28.197  1.00  0.00     0.040 A 
ATOM     83  C   UNL A   1      42.799  35.285  25.826  1.00  0.00     0.040 A 
ATOM     84  F   UNL A   1      44.245  34.079  24.427  1.00  0.00    -0.206 F 
ATOM     85  C   UNL A   1      42.432  35.725  27.096  1.00  0.00     0.006 A 
ENDBRANCH  64  78
BRANCH  65  86
ATOM     86  C   UNL A   1      52.741  28.312  25.660  1.00  0.00     0.057 A 
ATOM     87  C   UNL A   1      53.627  28.041  26.709  1.00  0.00     0.134 A 
ATOM     88  C   UNL A   1      53.050  27.776  24.403  1.00  0.00     0.134 A 
ATOM     89  F   UNL A   1      53.392  28.533  27.933  1.00  0.00    -0.206 F 
ATOM     90  C   UNL A   1      54.799  27.308  26.507  1.00  0.00     0.040 A 
ATOM     91  C   UNL A   1      54.205  27.019  24.193  1.00  0.00     0.040 A 
ATOM     92  F   UNL A   1      52.238  27.987  23.357  1.00  0.00    -0.206 F 
ATOM     93  C   UNL A   1      55.091  26.796  25.244  1.00  0.00     0.006 A 
ENDBRANCH  65  86
BRANCH  77  94
ATOM     94  C   UNL A   1      51.776  35.188  25.513  1.00  0.00     0.057 A 
ATOM     95  C   UNL A   1      52.148  35.629  24.236  1.00  0.00     0.134 A 
ATOM     96  C   UNL A   1      52.319  35.858  26.615  1.00  0.00     0.134 A 
ATOM     97  F   UNL A   1      51.676  35.015  23.140  1.00  0.00    -0.206 F 
ATOM     98  C   UNL A   1      53.053  36.675  24.063  1.00  0.00     0.040 A 
ATOM     99  C   UNL A   1      53.202  36.926  26.455  1.00  0.00     0.040 A 
ATOM    100  F   UNL A   1      52.000  35.488  27.865  1.00  0.00    -0.206 F 
ATOM    101  C   UNL A   1      53.578  37.331  25.176  1.00  0.00     0.006 A 
ENDBRANCH  77  94
ENDBRANCH  51  52
ENDBRANCH  44  46
ENDBRANCH  43  44
ENDBRANCH  42  43
ENDBRANCH  41  42
ENDBRANCH  40  41
ENDBRANCH  39  40
ENDBRANCH  38  39
ENDBRANCH  37  38
ENDBRANCH  36  37
ENDBRANCH   1  36
TORSDOF 26
ENDMDL
