MODEL 1
REMARK VINA RESULT:     -12.9      0.000      0.000
REMARK SMILES O=C(NC1(C(=O)OCCOCCOCCOCCOC(=O)c2ccc(-c3c4nc(c(-c5c(F)cccc5F)c5ccc([nH]5)c(-c5c(F)cccc5F)c5nc(c(-c6c(F)cccc6F)c6ccc3[nH]6)C=C5)C=C4)cc2)CC[NH2+]CC1)OCC1c2ccccc2-c2ccccc21
REMARK SMILES IDX 12 1 11 2 10 3 9 4 8 5 7 6 5 7 6 8 4 9 76 10 80 11 77 12
REMARK SMILES IDX 79 13 78 14 3 17 1 18 2 19 81 21 82 22 83 23 84 24 95 25
REMARK SMILES IDX 85 26 89 27 90 28 94 29 86 30 88 31 91 32 93 33 87 34 92 35
REMARK SMILES IDX 13 36 14 37 15 38 16 39 17 40 18 41 19 42 20 43 21 44 22 45
REMARK SMILES IDX 23 46 75 47 24 48 74 49 25 50 26 51 27 52 68 53 28 54 73 55
REMARK SMILES IDX 67 56 69 57 29 58 72 59 66 60 65 61 30 63 56 64 39 65 55 66
REMARK SMILES IDX 40 67 43 68 54 69 70 70 41 71 42 72 53 74 71 75 44 76 31 77
REMARK SMILES IDX 32 78 37 79 33 80 34 81 36 82 38 83 35 84 57 85 58 86 63 87
REMARK SMILES IDX 59 88 60 89 62 90 64 91 61 92 45 93 46 94 51 95 47 96 48 97
REMARK SMILES IDX 50 98 52 99 49 100
REMARK H PARENT 78 15 78 16 3 20 69 62 43 73
REMARK Flexibility Score: inf
ROOT
ATOM      1  C   UNL A   1      33.272  34.798  28.468  1.00  0.00     0.188 C 
ENDROOT
BRANCH   1   2
ATOM      2  C   UNL A   1      34.249  33.633  28.189  1.00  0.00     0.188 C 
BRANCH   2   3
ATOM      3  O   UNL A   1      33.763  32.349  28.530  1.00  0.00    -0.376 OA
BRANCH   3   4
ATOM      4  C   UNL A   1      33.920  31.339  27.555  1.00  0.00     0.202 C 
BRANCH   4   5
ATOM      5  C   UNL A   1      32.716  30.446  27.252  1.00  0.00     0.261 C 
BRANCH   5   6
ATOM      6  O   UNL A   1      33.002  29.049  26.875  1.00  0.00    -0.461 OA
BRANCH   6   7
ATOM      7  C   UNL A   1      32.102  28.023  26.880  1.00  0.00     0.332 C 
ATOM      8  O   UNL A   1      31.247  27.785  27.716  1.00  0.00    -0.249 OA
BRANCH   7   9
ATOM      9  C   UNL A   1      31.846  27.245  25.662  1.00  0.00     0.151 C 
ATOM     10  C   UNL A   1      31.363  28.225  24.581  1.00  0.00     0.102 C 
ATOM     11  C   UNL A   1      33.212  26.533  25.287  1.00  0.00     0.102 C 
ATOM     12  C   UNL A   1      31.879  27.932  23.173  1.00  0.00     0.263 C 
ATOM     13  C   UNL A   1      33.608  26.447  23.829  1.00  0.00     0.263 C 
ATOM     14  N   UNL A   1      33.315  27.688  23.132  1.00  0.00    -0.346 N 
ATOM     15  H   UNL A   1      33.804  28.459  23.587  1.00  0.00     0.346 HD
ATOM     16  H   UNL A   1      33.623  27.618  22.162  1.00  0.00     0.346 HD
BRANCH   9  17
ATOM     17  N   UNL A   1      30.892  26.378  26.399  1.00  0.00    -0.305 N 
ATOM     18  O   UNL A   1      29.501  24.706  26.893  1.00  0.00    -0.225 OA
ATOM     19  C   UNL A   1      30.323  25.116  26.065  1.00  0.00     0.408 C 
ATOM     20  H   UNL A   1      30.605  26.738  27.269  1.00  0.00     0.168 HD
BRANCH  19  21
ATOM     21  O   UNL A   1      30.662  24.290  24.996  1.00  0.00    -0.449 OA
BRANCH  21  22
ATOM     22  C   UNL A   1      31.406  23.147  24.056  1.00  0.00     0.248 C 
BRANCH  22  23
ATOM     23  C   UNL A   1      32.370  21.706  24.447  1.00  0.00     0.088 C 
ATOM     24  C   UNL A   1      33.849  21.900  24.827  1.00  0.00    -0.029 A 
ATOM     25  C   UNL A   1      32.591  20.187  23.833  1.00  0.00    -0.029 A 
ATOM     26  C   UNL A   1      34.641  23.019  24.626  1.00  0.00     0.005 A 
ATOM     27  C   UNL A   1      34.433  20.603  25.020  1.00  0.00    -0.014 A 
ATOM     28  C   UNL A   1      33.480  19.558  24.681  1.00  0.00    -0.014 A 
ATOM     29  C   UNL A   1      32.356  19.452  22.659  1.00  0.00     0.005 A 
ATOM     30  C   UNL A   1      36.021  22.821  24.510  1.00  0.00     0.000 A 
ATOM     31  C   UNL A   1      35.804  20.428  24.892  1.00  0.00     0.009 A 
ATOM     32  C   UNL A   1      33.601  18.166  24.710  1.00  0.00     0.009 A 
ATOM     33  C   UNL A   1      32.475  18.063  22.613  1.00  0.00     0.000 A 
ATOM     34  C   UNL A   1      36.590  21.540  24.609  1.00  0.00     0.001 A 
ATOM     35  C   UNL A   1      32.999  17.404  23.706  1.00  0.00     0.001 A 
ENDBRANCH  22  23
ENDBRANCH  21  22
ENDBRANCH  19  21
ENDBRANCH   9  17
ENDBRANCH   7   9
ENDBRANCH   6   7
ENDBRANCH   5   6
ENDBRANCH   4   5
ENDBRANCH   3   4
ENDBRANCH   2   3
ENDBRANCH   1   2
BRANCH   1  36
ATOM     36  O   UNL A   1      32.660  34.941  29.743  1.00  0.00    -0.377 OA
BRANCH  36  37
ATOM     37  C   UNL A   1      32.907  36.053  30.597  1.00  0.00     0.188 C 
BRANCH  37  38
ATOM     38  C   UNL A   1      33.207  35.866  32.091  1.00  0.00     0.188 C 
BRANCH  38  39
ATOM     39  O   UNL A   1      34.579  35.738  32.393  1.00  0.00    -0.376 OA
BRANCH  39  40
ATOM     40  C   UNL A   1      34.983  35.329  33.685  1.00  0.00     0.202 C 
BRANCH  40  41
ATOM     41  C   UNL A   1      35.036  33.834  34.046  1.00  0.00     0.261 C 
BRANCH  41  42
ATOM     42  O   UNL A   1      35.846  32.972  33.234  1.00  0.00    -0.460 OA
BRANCH  42  43
ATOM     43  C   UNL A   1      35.257  32.295  32.222  1.00  0.00     0.338 C 
ATOM     44  O   UNL A   1      34.163  32.482  31.750  1.00  0.00    -0.246 OA
BRANCH  43  45
ATOM     45  C   UNL A   1      36.293  31.400  31.642  1.00  0.00     0.060 A 
ATOM     46  C   UNL A   1      37.234  30.807  32.497  1.00  0.00     0.016 A 
ATOM     47  C   UNL A   1      36.321  31.138  30.271  1.00  0.00     0.016 A 
ATOM     48  C   UNL A   1      38.245  30.002  31.972  1.00  0.00     0.010 A 
ATOM     49  C   UNL A   1      37.352  30.358  29.741  1.00  0.00     0.010 A 
ATOM     50  C   UNL A   1      38.347  29.834  30.586  1.00  0.00    -0.014 A 
BRANCH  50  51
ATOM     51  C   UNL A   1      39.636  29.393  30.003  1.00  0.00     0.031 A 
ATOM     52  C   UNL A   1      40.734  30.420  29.904  1.00  0.00     0.074 A 
ATOM     53  C   UNL A   1      39.849  28.131  29.594  1.00  0.00     0.049 A 
ATOM     54  N   UNL A   1      41.921  30.327  29.364  1.00  0.00    -0.248 NA
ATOM     55  C   UNL A   1      40.444  31.738  30.495  1.00  0.00     0.031 C 
ATOM     56  C   UNL A   1      38.890  27.034  29.691  1.00  0.00     0.029 A 
ATOM     57  N   UNL A   1      40.950  27.569  28.998  1.00  0.00    -0.354 N 
ATOM     58  C   UNL A   1      42.510  31.573  29.540  1.00  0.00     0.074 A 
ATOM     59  C   UNL A   1      41.542  32.416  30.205  1.00  0.00     0.031 C 
ATOM     60  C   UNL A   1      39.441  25.930  29.150  1.00  0.00     0.029 A 
ATOM     61  C   UNL A   1      40.771  26.256  28.639  1.00  0.00     0.049 A 
ATOM     62  H   UNL A   1      41.789  28.061  28.843  1.00  0.00     0.167 HD
ATOM     63  C   UNL A   1      43.751  31.982  29.187  1.00  0.00     0.037 A 
ATOM     64  C   UNL A   1      41.581  25.429  27.948  1.00  0.00     0.037 A 
ATOM     65  C   UNL A   1      44.708  31.144  28.516  1.00  0.00     0.049 A 
ATOM     66  C   UNL A   1      42.925  25.930  27.480  1.00  0.00     0.074 A 
ATOM     67  C   UNL A   1      45.994  31.455  28.114  1.00  0.00     0.029 A 
ATOM     68  N   UNL A   1      44.476  29.829  28.139  1.00  0.00    -0.354 N 
ATOM     69  N   UNL A   1      43.482  27.105  27.659  1.00  0.00    -0.248 NA
ATOM     70  C   UNL A   1      43.756  24.987  26.717  1.00  0.00     0.031 C 
ATOM     71  C   UNL A   1      46.518  30.349  27.440  1.00  0.00     0.029 A 
ATOM     72  C   UNL A   1      45.586  29.324  27.484  1.00  0.00     0.049 A 
ATOM     73  H   UNL A   1      43.645  29.330  28.313  1.00  0.00     0.167 HD
ATOM     74  C   UNL A   1      44.735  27.032  27.060  1.00  0.00     0.074 A 
ATOM     75  C   UNL A   1      44.862  25.693  26.524  1.00  0.00     0.031 C 
ATOM     76  C   UNL A   1      45.697  27.984  26.964  1.00  0.00     0.037 A 
BRANCH  63  77
ATOM     77  C   UNL A   1      44.119  33.407  29.484  1.00  0.00     0.057 A 
ATOM     78  C   UNL A   1      43.921  34.436  28.553  1.00  0.00     0.134 A 
ATOM     79  C   UNL A   1      44.676  33.755  30.720  1.00  0.00     0.134 A 
ATOM     80  F   UNL A   1      43.411  34.170  27.340  1.00  0.00    -0.206 F 
ATOM     81  C   UNL A   1      44.290  35.753  28.832  1.00  0.00     0.040 A 
ATOM     82  C   UNL A   1      45.019  35.073  31.023  1.00  0.00     0.040 A 
ATOM     83  F   UNL A   1      44.894  32.819  31.658  1.00  0.00    -0.206 F 
ATOM     84  C   UNL A   1      44.834  36.075  30.074  1.00  0.00     0.006 A 
ENDBRANCH  63  77
BRANCH  64  85
ATOM     85  C   UNL A   1      41.138  24.046  27.631  1.00  0.00     0.057 A 
ATOM     86  C   UNL A   1      40.150  23.799  26.671  1.00  0.00     0.134 A 
ATOM     87  C   UNL A   1      41.674  22.938  28.300  1.00  0.00     0.134 A 
ATOM     88  F   UNL A   1      39.578  24.818  26.014  1.00  0.00    -0.206 F 
ATOM     89  C   UNL A   1      39.698  22.505  26.401  1.00  0.00     0.040 A 
ATOM     90  C   UNL A   1      41.253  21.637  28.020  1.00  0.00     0.040 A 
ATOM     91  F   UNL A   1      42.625  23.104  29.232  1.00  0.00    -0.206 F 
ATOM     92  C   UNL A   1      40.255  21.419  27.072  1.00  0.00     0.006 A 
ENDBRANCH  64  85
BRANCH  76  93
ATOM     93  C   UNL A   1      46.989  27.603  26.299  1.00  0.00     0.057 A 
ATOM     94  C   UNL A   1      48.093  27.137  27.025  1.00  0.00     0.134 A 
ATOM     95  C   UNL A   1      47.111  27.653  24.904  1.00  0.00     0.134 A 
ATOM     96  F   UNL A   1      48.047  27.071  28.365  1.00  0.00    -0.206 F 
ATOM     97  C   UNL A   1      49.278  26.762  26.390  1.00  0.00     0.040 A 
ATOM     98  C   UNL A   1      48.278  27.250  24.255  1.00  0.00     0.040 A 
ATOM     99  F   UNL A   1      46.087  28.075  24.145  1.00  0.00    -0.206 F 
ATOM    100  C   UNL A   1      49.370  26.810  25.000  1.00  0.00     0.006 A 
ENDBRANCH  76  93
ENDBRANCH  50  51
ENDBRANCH  43  45
ENDBRANCH  42  43
ENDBRANCH  41  42
ENDBRANCH  40  41
ENDBRANCH  39  40
ENDBRANCH  38  39
ENDBRANCH  37  38
ENDBRANCH  36  37
ENDBRANCH   1  36
TORSDOF 24
ENDMDL
MODEL 2
REMARK VINA RESULT:     -12.3      0.602      2.242
REMARK SMILES O=C(NC1(C(=O)OCCOCCOCCOCCOC(=O)c2ccc(-c3c4nc(c(-c5c(F)cccc5F)c5ccc([nH]5)c(-c5c(F)cccc5F)c5nc(c(-c6c(F)cccc6F)c6ccc3[nH]6)C=C5)C=C4)cc2)CC[NH2+]CC1)OCC1c2ccccc2-c2ccccc21
REMARK SMILES IDX 12 1 11 2 10 3 9 4 8 5 7 6 5 7 6 8 4 9 76 10 80 11 77 12
REMARK SMILES IDX 79 13 78 14 3 17 1 18 2 19 81 21 82 22 83 23 84 24 95 25
REMARK SMILES IDX 85 26 89 27 90 28 94 29 86 30 88 31 91 32 93 33 87 34 92 35
REMARK SMILES IDX 13 36 14 37 15 38 16 39 17 40 18 41 19 42 20 43 21 44 22 45
REMARK SMILES IDX 23 46 75 47 24 48 74 49 25 50 26 51 27 52 68 53 28 54 73 55
REMARK SMILES IDX 67 56 69 57 29 58 72 59 66 60 65 61 30 63 56 64 39 65 55 66
REMARK SMILES IDX 40 67 43 68 54 69 70 70 41 71 42 72 53 74 71 75 44 76 31 77
REMARK SMILES IDX 32 78 37 79 33 80 34 81 36 82 38 83 35 84 57 85 58 86 63 87
REMARK SMILES IDX 59 88 60 89 62 90 64 91 61 92 45 93 46 94 51 95 47 96 48 97
REMARK SMILES IDX 50 98 52 99 49 100
REMARK H PARENT 78 15 78 16 3 20 69 62 43 73
REMARK Flexibility Score: inf
ROOT
ATOM      1  C   UNL A   1      33.605  34.888  28.962  1.00  0.00     0.188 C 
ENDROOT
BRANCH   1   2
ATOM      2  C   UNL A   1      34.286  33.547  28.606  1.00  0.00     0.188 C 
BRANCH   2   3
ATOM      3  O   UNL A   1      33.478  32.638  27.884  1.00  0.00    -0.376 OA
BRANCH   3   4
ATOM      4  C   UNL A   1      34.089  31.424  27.499  1.00  0.00     0.202 C 
BRANCH   4   5
ATOM      5  C   UNL A   1      33.221  30.378  26.798  1.00  0.00     0.261 C 
BRANCH   5   6
ATOM      6  O   UNL A   1      33.051  29.085  27.486  1.00  0.00    -0.461 OA
BRANCH   6   7
ATOM      7  C   UNL A   1      32.019  28.212  27.296  1.00  0.00     0.332 C 
ATOM      8  O   UNL A   1      31.031  28.061  27.995  1.00  0.00    -0.249 OA
BRANCH   7   9
ATOM      9  C   UNL A   1      31.823  27.555  25.998  1.00  0.00     0.151 C 
ATOM     10  C   UNL A   1      31.345  28.628  25.006  1.00  0.00     0.102 C 
ATOM     11  C   UNL A   1      33.219  26.919  25.600  1.00  0.00     0.102 C 
ATOM     12  C   UNL A   1      31.913  28.491  23.593  1.00  0.00     0.263 C 
ATOM     13  C   UNL A   1      33.662  26.991  24.154  1.00  0.00     0.263 C 
ATOM     14  N   UNL A   1      33.356  28.289  23.576  1.00  0.00    -0.346 N 
ATOM     15  H   UNL A   1      33.808  29.022  24.123  1.00  0.00     0.346 HD
ATOM     16  H   UNL A   1      33.695  28.326  22.615  1.00  0.00     0.346 HD
BRANCH   9  17
ATOM     17  N   UNL A   1      30.871  26.594  26.612  1.00  0.00    -0.305 N 
ATOM     18  O   UNL A   1      29.491  24.863  26.879  1.00  0.00    -0.225 OA
ATOM     19  C   UNL A   1      30.315  25.381  26.116  1.00  0.00     0.408 C 
ATOM     20  H   UNL A   1      30.575  26.838  27.518  1.00  0.00     0.168 HD
BRANCH  19  21
ATOM     21  O   UNL A   1      30.669  24.700  24.954  1.00  0.00    -0.449 OA
BRANCH  21  22
ATOM     22  C   UNL A   1      31.457  23.727  23.870  1.00  0.00     0.248 C 
BRANCH  22  23
ATOM     23  C   UNL A   1      33.061  22.962  23.882  1.00  0.00     0.088 C 
ATOM     24  C   UNL A   1      33.136  21.428  23.986  1.00  0.00    -0.029 A 
ATOM     25  C   UNL A   1      34.524  23.214  24.610  1.00  0.00    -0.029 A 
ATOM     26  C   UNL A   1      32.137  20.550  24.373  1.00  0.00     0.005 A 
ATOM     27  C   UNL A   1      34.520  21.053  24.057  1.00  0.00    -0.014 A 
ATOM     28  C   UNL A   1      35.367  22.234  24.125  1.00  0.00    -0.014 A 
ATOM     29  C   UNL A   1      35.088  23.925  25.683  1.00  0.00     0.005 A 
ATOM     30  C   UNL A   1      32.529  19.331  24.936  1.00  0.00     0.000 A 
ATOM     31  C   UNL A   1      34.888  19.842  24.626  1.00  0.00     0.009 A 
ATOM     32  C   UNL A   1      36.756  22.360  24.208  1.00  0.00     0.009 A 
ATOM     33  C   UNL A   1      36.466  24.075  25.835  1.00  0.00     0.000 A 
ATOM     34  C   UNL A   1      33.886  18.996  25.090  1.00  0.00     0.001 A 
ATOM     35  C   UNL A   1      37.307  23.367  25.003  1.00  0.00     0.001 A 
ENDBRANCH  22  23
ENDBRANCH  21  22
ENDBRANCH  19  21
ENDBRANCH   9  17
ENDBRANCH   7   9
ENDBRANCH   6   7
ENDBRANCH   5   6
ENDBRANCH   4   5
ENDBRANCH   3   4
ENDBRANCH   2   3
ENDBRANCH   1   2
BRANCH   1  36
ATOM     36  O   UNL A   1      32.645  34.959  30.007  1.00  0.00    -0.377 OA
BRANCH  36  37
ATOM     37  C   UNL A   1      32.521  36.088  30.867  1.00  0.00     0.188 C 
BRANCH  37  38
ATOM     38  C   UNL A   1      33.090  36.077  32.292  1.00  0.00     0.188 C 
BRANCH  38  39
ATOM     39  O   UNL A   1      34.452  35.717  32.368  1.00  0.00    -0.376 OA
BRANCH  39  40
ATOM     40  C   UNL A   1      35.013  35.327  33.606  1.00  0.00     0.202 C 
BRANCH  40  41
ATOM     41  C   UNL A   1      34.980  33.851  34.043  1.00  0.00     0.261 C 
BRANCH  41  42
ATOM     42  O   UNL A   1      35.774  32.911  33.305  1.00  0.00    -0.460 OA
BRANCH  42  43
ATOM     43  C   UNL A   1      35.199  32.241  32.282  1.00  0.00     0.338 C 
ATOM     44  O   UNL A   1      34.102  32.416  31.811  1.00  0.00    -0.246 OA
BRANCH  43  45
ATOM     45  C   UNL A   1      36.250  31.373  31.689  1.00  0.00     0.060 A 
ATOM     46  C   UNL A   1      37.182  30.758  32.539  1.00  0.00     0.016 A 
ATOM     47  C   UNL A   1      36.301  31.156  30.311  1.00  0.00     0.016 A 
ATOM     48  C   UNL A   1      38.208  29.979  32.004  1.00  0.00     0.010 A 
ATOM     49  C   UNL A   1      37.346  30.401  29.772  1.00  0.00     0.010 A 
ATOM     50  C   UNL A   1      38.332  29.857  30.615  1.00  0.00    -0.014 A 
BRANCH  50  51
ATOM     51  C   UNL A   1      39.634  29.445  30.039  1.00  0.00     0.031 A 
ATOM     52  C   UNL A   1      40.696  30.506  29.909  1.00  0.00     0.074 A 
ATOM     53  C   UNL A   1      39.888  28.181  29.661  1.00  0.00     0.049 A 
ATOM     54  N   UNL A   1      41.884  30.439  29.367  1.00  0.00    -0.248 NA
ATOM     55  C   UNL A   1      40.364  31.828  30.467  1.00  0.00     0.031 C 
ATOM     56  C   UNL A   1      38.967  27.054  29.790  1.00  0.00     0.029 A 
ATOM     57  N   UNL A   1      41.006  27.641  29.076  1.00  0.00    -0.354 N 
ATOM     58  C   UNL A   1      42.431  31.708  29.508  1.00  0.00     0.074 A 
ATOM     59  C   UNL A   1      41.437  32.534  30.156  1.00  0.00     0.031 C 
ATOM     60  C   UNL A   1      39.553  25.957  29.276  1.00  0.00     0.029 A 
ATOM     61  C   UNL A   1      40.870  26.314  28.752  1.00  0.00     0.049 A 
ATOM     62  H   UNL A   1      41.827  28.156  28.905  1.00  0.00     0.167 HD
ATOM     63  C   UNL A   1      43.657  32.148  29.140  1.00  0.00     0.037 A 
ATOM     64  C   UNL A   1      41.705  25.496  28.079  1.00  0.00     0.037 A 
ATOM     65  C   UNL A   1      44.639  31.326  28.488  1.00  0.00     0.049 A 
ATOM     66  C   UNL A   1      43.030  26.030  27.593  1.00  0.00     0.074 A 
ATOM     67  C   UNL A   1      45.913  31.670  28.072  1.00  0.00     0.029 A 
ATOM     68  N   UNL A   1      44.450  29.995  28.146  1.00  0.00    -0.354 N 
ATOM     69  N   UNL A   1      43.548  27.228  27.739  1.00  0.00    -0.248 NA
ATOM     70  C   UNL A   1      43.890  25.097  26.851  1.00  0.00     0.031 C 
ATOM     71  C   UNL A   1      46.472  30.565  27.425  1.00  0.00     0.029 A 
ATOM     72  C   UNL A   1      45.575  29.511  27.500  1.00  0.00     0.049 A 
ATOM     73  H   UNL A   1      43.638  29.473  28.336  1.00  0.00     0.167 HD
ATOM     74  C   UNL A   1      44.801  27.181  27.138  1.00  0.00     0.074 A 
ATOM     75  C   UNL A   1      44.971  25.834  26.635  1.00  0.00     0.031 C 
ATOM     76  C   UNL A   1      45.730  28.163  27.013  1.00  0.00     0.037 A 
BRANCH  63  77
ATOM     77  C   UNL A   1      43.978  33.592  29.399  1.00  0.00     0.057 A 
ATOM     78  C   UNL A   1      44.435  34.041  30.646  1.00  0.00     0.134 A 
ATOM     79  C   UNL A   1      43.830  34.546  28.385  1.00  0.00     0.134 A 
ATOM     80  F   UNL A   1      44.578  33.183  31.668  1.00  0.00    -0.206 F 
ATOM     81  C   UNL A   1      44.707  35.390  30.881  1.00  0.00     0.040 A 
ATOM     82  C   UNL A   1      44.129  35.892  28.599  1.00  0.00     0.040 A 
ATOM     83  F   UNL A   1      43.396  34.186  27.168  1.00  0.00    -0.206 F 
ATOM     84  C   UNL A   1      44.561  36.319  29.853  1.00  0.00     0.006 A 
ENDBRANCH  63  77
BRANCH  64  85
ATOM     85  C   UNL A   1      41.308  24.092  27.799  1.00  0.00     0.057 A 
ATOM     86  C   UNL A   1      41.847  23.024  28.526  1.00  0.00     0.134 A 
ATOM     87  C   UNL A   1      40.400  23.781  26.780  1.00  0.00     0.134 A 
ATOM     88  F   UNL A   1      42.742  23.253  29.497  1.00  0.00    -0.206 F 
ATOM     89  C   UNL A   1      41.513  21.698  28.238  1.00  0.00     0.040 A 
ATOM     90  C   UNL A   1      40.034  22.463  26.500  1.00  0.00     0.040 A 
ATOM     91  F   UNL A   1      39.846  24.756  26.044  1.00  0.00    -0.206 F 
ATOM     92  C   UNL A   1      40.598  21.416  27.226  1.00  0.00     0.006 A 
ENDBRANCH  64  85
BRANCH  76  93
ATOM     93  C   UNL A   1      47.032  27.808  26.353  1.00  0.00     0.057 A 
ATOM     94  C   UNL A   1      47.176  27.772  24.960  1.00  0.00     0.134 A 
ATOM     95  C   UNL A   1      48.173  27.551  27.125  1.00  0.00     0.134 A 
ATOM     96  F   UNL A   1      46.122  28.001  24.161  1.00  0.00    -0.206 F 
ATOM     97  C   UNL A   1      48.399  27.465  24.361  1.00  0.00     0.040 A 
ATOM     98  C   UNL A   1      49.408  27.275  26.539  1.00  0.00     0.040 A 
ATOM     99  F   UNL A   1      48.109  27.583  28.466  1.00  0.00    -0.206 F 
ATOM    100  C   UNL A   1      49.522  27.225  25.151  1.00  0.00     0.006 A 
ENDBRANCH  76  93
ENDBRANCH  50  51
ENDBRANCH  43  45
ENDBRANCH  42  43
ENDBRANCH  41  42
ENDBRANCH  40  41
ENDBRANCH  39  40
ENDBRANCH  38  39
ENDBRANCH  37  38
ENDBRANCH  36  37
ENDBRANCH   1  36
TORSDOF 24
ENDMDL
MODEL 3
REMARK VINA RESULT:     -12.0      4.850     10.562
REMARK SMILES O=C(NC1(C(=O)OCCOCCOCCOCCOC(=O)c2ccc(-c3c4nc(c(-c5c(F)cccc5F)c5ccc([nH]5)c(-c5c(F)cccc5F)c5nc(c(-c6c(F)cccc6F)c6ccc3[nH]6)C=C5)C=C4)cc2)CC[NH2+]CC1)OCC1c2ccccc2-c2ccccc21
REMARK SMILES IDX 12 1 11 2 10 3 9 4 8 5 7 6 5 7 6 8 4 9 76 10 80 11 77 12
REMARK SMILES IDX 79 13 78 14 3 17 1 18 2 19 81 21 82 22 83 23 84 24 95 25
REMARK SMILES IDX 85 26 89 27 90 28 94 29 86 30 88 31 91 32 93 33 87 34 92 35
REMARK SMILES IDX 13 36 14 37 15 38 16 39 17 40 18 41 19 42 20 43 21 44 22 45
REMARK SMILES IDX 23 46 75 47 24 48 74 49 25 50 26 51 27 52 68 53 28 54 73 55
REMARK SMILES IDX 67 56 69 57 29 58 72 59 66 60 65 61 30 63 56 64 39 65 55 66
REMARK SMILES IDX 40 67 43 68 54 69 70 70 41 71 42 72 53 74 71 75 44 76 31 77
REMARK SMILES IDX 32 78 37 79 33 80 34 81 36 82 38 83 35 84 57 85 58 86 63 87
REMARK SMILES IDX 59 88 60 89 62 90 64 91 61 92 45 93 46 94 51 95 47 96 48 97
REMARK SMILES IDX 50 98 52 99 49 100
REMARK H PARENT 78 15 78 16 3 20 69 62 43 73
REMARK Flexibility Score: inf
ROOT
ATOM      1  C   UNL A   1      41.609  18.776  25.778  1.00  0.00     0.188 C 
ENDROOT
BRANCH   1   2
ATOM      2  C   UNL A   1      40.708  19.969  26.169  1.00  0.00     0.188 C 
BRANCH   2   3
ATOM      3  O   UNL A   1      39.362  19.867  25.746  1.00  0.00    -0.376 OA
BRANCH   3   4
ATOM      4  C   UNL A   1      38.706  21.081  25.442  1.00  0.00     0.202 C 
BRANCH   4   5
ATOM      5  C   UNL A   1      37.354  21.003  24.732  1.00  0.00     0.261 C 
BRANCH   5   6
ATOM      6  O   UNL A   1      36.201  21.600  25.432  1.00  0.00    -0.461 OA
BRANCH   6   7
ATOM      7  C   UNL A   1      34.890  21.275  25.227  1.00  0.00     0.332 C 
ATOM      8  O   UNL A   1      34.314  20.253  25.559  1.00  0.00    -0.249 OA
BRANCH   7   9
ATOM      9  C   UNL A   1      33.914  22.305  24.852  1.00  0.00     0.151 C 
ATOM     10  C   UNL A   1      34.698  23.508  24.304  1.00  0.00     0.102 C 
ATOM     11  C   UNL A   1      32.956  21.646  23.776  1.00  0.00     0.102 C 
ATOM     12  C   UNL A   1      34.042  24.213  23.117  1.00  0.00     0.263 C 
ATOM     13  C   UNL A   1      32.507  22.482  22.596  1.00  0.00     0.263 C 
ATOM     14  N   UNL A   1      33.599  23.290  22.080  1.00  0.00    -0.346 N 
ATOM     15  H   UNL A   1      34.374  22.684  21.810  1.00  0.00     0.346 HD
ATOM     16  H   UNL A   1      33.281  23.816  21.267  1.00  0.00     0.346 HD
BRANCH   9  17
ATOM     17  N   UNL A   1      33.365  22.306  26.232  1.00  0.00    -0.305 N 
ATOM     18  O   UNL A   1      32.102  22.792  28.005  1.00  0.00    -0.225 OA
ATOM     19  C   UNL A   1      32.226  22.957  26.787  1.00  0.00     0.408 C 
ATOM     20  H   UNL A   1      33.877  21.764  26.874  1.00  0.00     0.168 HD
BRANCH  19  21
ATOM     21  O   UNL A   1      31.228  23.646  26.102  1.00  0.00    -0.449 OA
BRANCH  21  22
ATOM     22  C   UNL A   1      30.426  24.569  24.984  1.00  0.00     0.248 C 
BRANCH  22  23
ATOM     23  C   UNL A   1      30.626  26.249  24.442  1.00  0.00     0.088 C 
ATOM     24  C   UNL A   1      31.413  27.217  25.345  1.00  0.00    -0.029 A 
ATOM     25  C   UNL A   1      29.685  27.433  23.772  1.00  0.00    -0.029 A 
ATOM     26  C   UNL A   1      31.749  27.056  26.679  1.00  0.00     0.005 A 
ATOM     27  C   UNL A   1      31.374  28.519  24.742  1.00  0.00    -0.014 A 
ATOM     28  C   UNL A   1      30.519  28.513  23.566  1.00  0.00    -0.014 A 
ATOM     29  C   UNL A   1      28.331  27.752  23.572  1.00  0.00     0.005 A 
ATOM     30  C   UNL A   1      31.940  28.213  27.442  1.00  0.00     0.000 A 
ATOM     31  C   UNL A   1      31.559  29.655  25.519  1.00  0.00     0.009 A 
ATOM     32  C   UNL A   1      30.182  29.535  22.675  1.00  0.00     0.009 A 
ATOM     33  C   UNL A   1      27.926  28.771  22.711  1.00  0.00     0.000 A 
ATOM     34  C   UNL A   1      31.815  29.494  26.877  1.00  0.00     0.001 A 
ATOM     35  C   UNL A   1      28.883  29.600  22.164  1.00  0.00     0.001 A 
ENDBRANCH  22  23
ENDBRANCH  21  22
ENDBRANCH  19  21
ENDBRANCH   9  17
ENDBRANCH   7   9
ENDBRANCH   6   7
ENDBRANCH   5   6
ENDBRANCH   4   5
ENDBRANCH   3   4
ENDBRANCH   2   3
ENDBRANCH   1   2
BRANCH   1  36
ATOM     36  O   UNL A   1      42.931  18.667  26.290  1.00  0.00    -0.377 OA
BRANCH  36  37
ATOM     37  C   UNL A   1      44.081  18.616  25.451  1.00  0.00     0.188 C 
BRANCH  37  38
ATOM     38  C   UNL A   1      44.550  19.843  24.658  1.00  0.00     0.188 C 
BRANCH  38  39
ATOM     39  O   UNL A   1      45.505  20.636  25.330  1.00  0.00    -0.376 OA
BRANCH  39  40
ATOM     40  C   UNL A   1      45.667  21.996  24.980  1.00  0.00     0.202 C 
BRANCH  40  41
ATOM     41  C   UNL A   1      44.523  22.763  24.292  1.00  0.00     0.261 C 
BRANCH  41  42
ATOM     42  O   UNL A   1      43.854  23.789  25.039  1.00  0.00    -0.460 OA
BRANCH  42  43
ATOM     43  C   UNL A   1      44.490  24.965  25.238  1.00  0.00     0.338 C 
ATOM     44  O   UNL A   1      45.449  25.393  24.642  1.00  0.00    -0.246 OA
BRANCH  43  45
ATOM     45  C   UNL A   1      43.664  25.747  26.195  1.00  0.00     0.060 A 
ATOM     46  C   UNL A   1      43.925  27.115  26.358  1.00  0.00     0.016 A 
ATOM     47  C   UNL A   1      42.633  25.134  26.910  1.00  0.00     0.016 A 
ATOM     48  C   UNL A   1      43.197  27.860  27.286  1.00  0.00     0.010 A 
ATOM     49  C   UNL A   1      41.924  25.872  27.861  1.00  0.00     0.010 A 
ATOM     50  C   UNL A   1      42.243  27.223  28.089  1.00  0.00    -0.014 A 
BRANCH  50  51
ATOM     51  C   UNL A   1      41.815  27.868  29.353  1.00  0.00     0.031 A 
ATOM     52  C   UNL A   1      40.585  28.736  29.301  1.00  0.00     0.074 A 
ATOM     53  C   UNL A   1      42.467  27.684  30.513  1.00  0.00     0.049 A 
ATOM     54  N   UNL A   1      40.044  29.478  30.232  1.00  0.00    -0.248 NA
ATOM     55  C   UNL A   1      39.871  28.772  28.013  1.00  0.00     0.031 C 
ATOM     56  C   UNL A   1      43.631  26.824  30.706  1.00  0.00     0.029 A 
ATOM     57  N   UNL A   1      42.239  28.231  31.752  1.00  0.00    -0.354 N 
ATOM     58  C   UNL A   1      38.939  30.075  29.638  1.00  0.00     0.074 A 
ATOM     59  C   UNL A   1      38.902  29.638  28.261  1.00  0.00     0.031 C 
ATOM     60  C   UNL A   1      44.030  26.918  31.989  1.00  0.00     0.029 A 
ATOM     61  C   UNL A   1      43.172  27.871  32.692  1.00  0.00     0.049 A 
ATOM     62  H   UNL A   1      41.478  28.824  31.947  1.00  0.00     0.167 HD
ATOM     63  C   UNL A   1      38.027  30.908  30.191  1.00  0.00     0.037 A 
ATOM     64  C   UNL A   1      43.329  28.293  33.963  1.00  0.00     0.037 A 
ATOM     65  C   UNL A   1      38.071  31.349  31.559  1.00  0.00     0.049 A 
ATOM     66  C   UNL A   1      42.356  29.294  34.535  1.00  0.00     0.074 A 
ATOM     67  C   UNL A   1      37.198  32.191  32.222  1.00  0.00     0.029 A 
ATOM     68  N   UNL A   1      39.053  30.989  32.470  1.00  0.00    -0.354 N 
ATOM     69  N   UNL A   1      41.306  29.847  33.973  1.00  0.00    -0.248 NA
ATOM     70  C   UNL A   1      42.589  29.729  35.920  1.00  0.00     0.031 C 
ATOM     71  C   UNL A   1      37.684  32.389  33.517  1.00  0.00     0.029 A 
ATOM     72  C   UNL A   1      38.821  31.614  33.683  1.00  0.00     0.049 A 
ATOM     73  H   UNL A   1      39.802  30.378  32.281  1.00  0.00     0.167 HD
ATOM     74  C   UNL A   1      40.738  30.666  34.943  1.00  0.00     0.074 A 
ATOM     75  C   UNL A   1      41.552  30.529  36.132  1.00  0.00     0.031 C 
ATOM     76  C   UNL A   1      39.639  31.459  34.860  1.00  0.00     0.037 A 
BRANCH  63  77
ATOM     77  C   UNL A   1      36.934  31.425  29.299  1.00  0.00     0.057 A 
ATOM     78  C   UNL A   1      36.954  32.725  28.775  1.00  0.00     0.134 A 
ATOM     79  C   UNL A   1      35.850  30.608  28.956  1.00  0.00     0.134 A 
ATOM     80  F   UNL A   1      37.953  33.568  29.081  1.00  0.00    -0.206 F 
ATOM     81  C   UNL A   1      35.920  33.202  27.967  1.00  0.00     0.040 A 
ATOM     82  C   UNL A   1      34.827  31.063  28.124  1.00  0.00     0.040 A 
ATOM     83  F   UNL A   1      35.768  29.353  29.423  1.00  0.00    -0.206 F 
ATOM     84  C   UNL A   1      34.856  32.366  27.633  1.00  0.00     0.006 A 
ENDBRANCH  63  77
BRANCH  64  85
ATOM     85  C   UNL A   1      44.465  27.792  34.780  1.00  0.00     0.057 A 
ATOM     86  C   UNL A   1      44.329  26.670  35.607  1.00  0.00     0.134 A 
ATOM     87  C   UNL A   1      45.707  28.438  34.774  1.00  0.00     0.134 A 
ATOM     88  F   UNL A   1      43.157  26.022  35.677  1.00  0.00    -0.206 F 
ATOM     89  C   UNL A   1      45.379  26.221  36.411  1.00  0.00     0.040 A 
ATOM     90  C   UNL A   1      46.774  27.984  35.551  1.00  0.00     0.040 A 
ATOM     91  F   UNL A   1      45.905  29.519  34.005  1.00  0.00    -0.206 F 
ATOM     92  C   UNL A   1      46.608  26.875  36.379  1.00  0.00     0.006 A 
ENDBRANCH  64  85
BRANCH  76  93
ATOM     93  C   UNL A   1      39.223  32.201  36.098  1.00  0.00     0.057 A 
ATOM     94  C   UNL A   1      39.701  33.484  36.395  1.00  0.00     0.134 A 
ATOM     95  C   UNL A   1      38.287  31.643  36.979  1.00  0.00     0.134 A 
ATOM     96  F   UNL A   1      40.605  34.075  35.598  1.00  0.00    -0.206 F 
ATOM     97  C   UNL A   1      39.285  34.172  37.536  1.00  0.00     0.040 A 
ATOM     98  C   UNL A   1      37.838  32.333  38.106  1.00  0.00     0.040 A 
ATOM     99  F   UNL A   1      37.777  30.423  36.748  1.00  0.00    -0.206 F 
ATOM    100  C   UNL A   1      38.344  33.600  38.391  1.00  0.00     0.006 A 
ENDBRANCH  76  93
ENDBRANCH  50  51
ENDBRANCH  43  45
ENDBRANCH  42  43
ENDBRANCH  41  42
ENDBRANCH  40  41
ENDBRANCH  39  40
ENDBRANCH  38  39
ENDBRANCH  37  38
ENDBRANCH  36  37
ENDBRANCH   1  36
TORSDOF 24
ENDMDL
