MODEL 1
REMARK VINA RESULT:      -9.7      0.000      0.000
REMARK SMILES O=C(OCCOCCOCCOCCOC(=O)c1nn(-c2ccc([N+](=O)[O-])cc2)cc1CCO)c1ccc(-c2c3nc(c(-c4c(F)cccc4F)c4ccc([nH]4)c(-c4c(F)cccc4F)c4nc(c(-c5c(F)cccc5F)c5ccc2[nH]5)C=C4)C=C3)cc1
REMARK SMILES IDX 10 1 9 2 8 3 7 4 6 5 5 6 4 7 3 8 2 9 1 10 35 11 36 12 88 13
REMARK SMILES IDX 37 14 87 15 38 16 39 17 40 18 81 19 41 20 86 21 80 22 82 23
REMARK SMILES IDX 42 24 85 25 79 26 78 27 43 29 69 30 52 31 68 32 53 33 56 34
REMARK SMILES IDX 67 35 83 36 54 37 55 38 66 40 84 41 57 42 44 43 45 44 50 45
REMARK SMILES IDX 46 46 47 47 49 48 51 49 48 50 70 51 71 52 76 53 72 54 73 55
REMARK SMILES IDX 75 56 77 57 74 58 58 59 59 60 64 61 60 62 61 63 63 64 65 65
REMARK SMILES IDX 62 66 11 67 12 68 13 69 14 70 15 71 16 72 17 73 18 74 19 75
REMARK SMILES IDX 31 76 20 77 30 78 32 79 33 80 34 81 21 83 22 84 29 85 23 86
REMARK SMILES IDX 28 87 24 88 25 89 26 90 27 91
REMARK H PARENT 82 28 56 39 34 82
REMARK Flexibility Score: inf
ROOT
ATOM      1  C   UNL A   1      31.581  29.237  24.864  1.00  0.00     0.188 C 
ENDROOT
BRANCH   1   2
ATOM      2  O   UNL A   1      31.341  30.515  25.423  1.00  0.00    -0.377 OA
BRANCH   2   3
ATOM      3  C   UNL A   1      31.949  30.744  26.687  1.00  0.00     0.188 C 
BRANCH   3   4
ATOM      4  C   UNL A   1      33.068  29.772  27.048  1.00  0.00     0.188 C 
BRANCH   4   5
ATOM      5  O   UNL A   1      34.424  30.195  26.990  1.00  0.00    -0.376 OA
BRANCH   5   6
ATOM      6  C   UNL A   1      35.101  30.824  28.078  1.00  0.00     0.202 C 
BRANCH   6   7
ATOM      7  C   UNL A   1      35.170  32.333  28.367  1.00  0.00     0.261 C 
BRANCH   7   8
ATOM      8  O   UNL A   1      34.292  32.934  29.318  1.00  0.00    -0.460 OA
BRANCH   8   9
ATOM      9  C   UNL A   1      34.586  33.353  30.566  1.00  0.00     0.338 C 
ATOM     10  O   UNL A   1      33.933  34.254  31.086  1.00  0.00    -0.246 OA
BRANCH   9  11
ATOM     11  C   UNL A   1      35.788  32.863  31.273  1.00  0.00     0.060 A 
ATOM     12  C   UNL A   1      36.978  33.586  31.357  1.00  0.00     0.016 A 
ATOM     13  C   UNL A   1      35.709  31.552  31.787  1.00  0.00     0.016 A 
ATOM     14  C   UNL A   1      38.116  32.971  31.815  1.00  0.00     0.010 A 
ATOM     15  C   UNL A   1      36.851  30.922  32.237  1.00  0.00     0.010 A 
ATOM     16  C   UNL A   1      38.052  31.610  32.094  1.00  0.00    -0.014 A 
BRANCH  16  17
ATOM     17  C   UNL A   1      39.287  30.900  31.815  1.00  0.00     0.031 A 
ATOM     18  C   UNL A   1      40.219  30.732  32.953  1.00  0.00     0.074 A 
ATOM     19  C   UNL A   1      39.502  30.530  30.534  1.00  0.00     0.049 A 
ATOM     20  N   UNL A   1      41.475  31.042  33.022  1.00  0.00    -0.248 NA
ATOM     21  C   UNL A   1      39.643  30.254  34.221  1.00  0.00     0.031 C 
ATOM     22  C   UNL A   1      38.549  30.559  29.410  1.00  0.00     0.029 A 
ATOM     23  N   UNL A   1      40.589  29.939  29.980  1.00  0.00    -0.354 N 
ATOM     24  C   UNL A   1      41.895  30.608  34.277  1.00  0.00     0.074 A 
ATOM     25  C   UNL A   1      40.712  30.253  35.016  1.00  0.00     0.031 C 
ATOM     26  C   UNL A   1      39.001  29.770  28.417  1.00  0.00     0.029 A 
ATOM     27  C   UNL A   1      40.318  29.295  28.783  1.00  0.00     0.049 A 
ATOM     28  H   UNL A   1      41.485  29.966  30.388  1.00  0.00     0.167 HD
ATOM     29  C   UNL A   1      43.197  30.333  34.545  1.00  0.00     0.037 A 
ATOM     30  C   UNL A   1      41.063  28.305  28.244  1.00  0.00     0.037 A 
ATOM     31  C   UNL A   1      44.099  31.067  33.705  1.00  0.00     0.049 A 
ATOM     32  C   UNL A   1      42.415  28.396  28.852  1.00  0.00     0.074 A 
ATOM     33  C   UNL A   1      44.368  32.410  33.523  1.00  0.00     0.029 A 
ATOM     34  N   UNL A   1      44.684  30.427  32.642  1.00  0.00    -0.354 N 
ATOM     35  N   UNL A   1      43.235  29.391  28.646  1.00  0.00    -0.248 NA
ATOM     36  C   UNL A   1      42.666  27.624  30.062  1.00  0.00     0.031 C 
ATOM     37  C   UNL A   1      44.671  32.545  32.139  1.00  0.00     0.029 A 
ATOM     38  C   UNL A   1      44.593  31.275  31.568  1.00  0.00     0.049 A 
ATOM     39  H   UNL A   1      45.091  29.530  32.649  1.00  0.00     0.167 HD
ATOM     40  C   UNL A   1      43.855  29.611  29.871  1.00  0.00     0.074 A 
ATOM     41  C   UNL A   1      43.517  28.445  30.683  1.00  0.00     0.031 C 
ATOM     42  C   UNL A   1      44.345  30.838  30.214  1.00  0.00     0.037 A 
BRANCH  29  43
ATOM     43  C   UNL A   1      43.603  29.124  35.341  1.00  0.00     0.057 A 
ATOM     44  C   UNL A   1      43.181  27.845  34.951  1.00  0.00     0.134 A 
ATOM     45  C   UNL A   1      44.167  29.209  36.633  1.00  0.00     0.134 A 
ATOM     46  F   UNL A   1      42.595  27.648  33.761  1.00  0.00    -0.206 F 
ATOM     47  C   UNL A   1      43.280  26.737  35.803  1.00  0.00     0.040 A 
ATOM     48  C   UNL A   1      44.317  28.102  37.470  1.00  0.00     0.040 A 
ATOM     49  F   UNL A   1      44.510  30.380  37.187  1.00  0.00    -0.206 F 
ATOM     50  C   UNL A   1      43.847  26.864  37.066  1.00  0.00     0.006 A 
ENDBRANCH  29  43
BRANCH  30  51
ATOM     51  C   UNL A   1      40.509  27.086  27.611  1.00  0.00     0.057 A 
ATOM     52  C   UNL A   1      40.941  26.659  26.352  1.00  0.00     0.134 A 
ATOM     53  C   UNL A   1      39.680  26.189  28.317  1.00  0.00     0.134 A 
ATOM     54  F   UNL A   1      41.778  27.417  25.630  1.00  0.00    -0.206 F 
ATOM     55  C   UNL A   1      40.559  25.420  25.820  1.00  0.00     0.040 A 
ATOM     56  C   UNL A   1      39.277  24.960  27.792  1.00  0.00     0.040 A 
ATOM     57  F   UNL A   1      39.293  26.438  29.577  1.00  0.00    -0.206 F 
ATOM     58  C   UNL A   1      39.723  24.567  26.539  1.00  0.00     0.006 A 
ENDBRANCH  30  51
BRANCH  42  59
ATOM     59  C   UNL A   1      44.346  31.908  29.156  1.00  0.00     0.057 A 
ATOM     60  C   UNL A   1      43.316  32.853  29.031  1.00  0.00     0.134 A 
ATOM     61  C   UNL A   1      45.484  32.104  28.369  1.00  0.00     0.134 A 
ATOM     62  F   UNL A   1      42.243  32.810  29.829  1.00  0.00    -0.206 F 
ATOM     63  C   UNL A   1      43.393  33.917  28.129  1.00  0.00     0.040 A 
ATOM     64  C   UNL A   1      45.588  33.182  27.484  1.00  0.00     0.040 A 
ATOM     65  F   UNL A   1      46.538  31.283  28.489  1.00  0.00    -0.206 F 
ATOM     66  C   UNL A   1      44.536  34.088  27.355  1.00  0.00     0.006 A 
ENDBRANCH  42  59
ENDBRANCH  16  17
ENDBRANCH   9  11
ENDBRANCH   8   9
ENDBRANCH   7   8
ENDBRANCH   6   7
ENDBRANCH   5   6
ENDBRANCH   4   5
ENDBRANCH   3   4
ENDBRANCH   2   3
ENDBRANCH   1   2
BRANCH   1  67
ATOM     67  C   UNL A   1      30.498  28.689  23.908  1.00  0.00     0.188 C 
BRANCH  67  68
ATOM     68  O   UNL A   1      30.649  27.325  23.575  1.00  0.00    -0.376 OA
BRANCH  68  69
ATOM     69  C   UNL A   1      29.786  26.427  24.251  1.00  0.00     0.202 C 
BRANCH  69  70
ATOM     70  C   UNL A   1      30.109  26.145  25.726  1.00  0.00     0.261 C 
BRANCH  70  71
ATOM     71  O   UNL A   1      31.116  25.154  26.012  1.00  0.00    -0.458 OA
BRANCH  71  72
ATOM     72  C   UNL A   1      32.412  25.308  25.619  1.00  0.00     0.359 C 
ATOM     73  O   UNL A   1      33.209  26.109  26.098  1.00  0.00    -0.244 OA
BRANCH  72  74
ATOM     74  C   UNL A   1      32.780  24.276  24.637  1.00  0.00     0.174 A 
ATOM     75  N   UNL A   1      32.726  22.987  25.007  1.00  0.00    -0.161 NA
ATOM     76  C   UNL A   1      33.279  24.398  23.292  1.00  0.00     0.008 A 
ATOM     77  N   UNL A   1      33.302  22.298  24.007  1.00  0.00    -0.240 N 
ATOM     78  C   UNL A   1      33.713  23.118  22.991  1.00  0.00     0.119 A 
BRANCH  76  79
ATOM     79  C   UNL A   1      33.460  25.575  22.378  1.00  0.00     0.068 C 
BRANCH  79  80
ATOM     80  C   UNL A   1      32.727  25.500  21.042  1.00  0.00     0.161 C 
BRANCH  80  81
ATOM     81  O   UNL A   1      31.591  26.349  21.012  1.00  0.00    -0.396 OA
ATOM     82  H   UNL A   1      31.069  26.220  21.819  1.00  0.00     0.210 HD
ENDBRANCH  80  81
ENDBRANCH  79  80
ENDBRANCH  76  79
BRANCH  77  83
ATOM     83  C   UNL A   1      33.341  20.886  24.041  1.00  0.00     0.065 A 
ATOM     84  C   UNL A   1      32.366  20.187  23.313  1.00  0.00     0.035 A 
ATOM     85  C   UNL A   1      34.350  20.199  24.727  1.00  0.00     0.035 A 
ATOM     86  C   UNL A   1      32.430  18.799  23.217  1.00  0.00     0.088 A 
ATOM     87  C   UNL A   1      34.386  18.801  24.672  1.00  0.00     0.088 A 
ATOM     88  C   UNL A   1      33.440  18.111  23.898  1.00  0.00     0.269 A 
BRANCH  88  89
ATOM     89  N   UNL A   1      33.516  16.651  23.781  1.00  0.00     0.062 N 
ATOM     90  O   UNL A   1      32.949  15.975  24.651  1.00  0.00    -0.258 OA
ATOM     91  O   UNL A   1      34.132  16.182  22.815  1.00  0.00    -0.258 OA
ENDBRANCH  88  89
ENDBRANCH  77  83
ENDBRANCH  72  74
ENDBRANCH  71  72
ENDBRANCH  70  71
ENDBRANCH  69  70
ENDBRANCH  68  69
ENDBRANCH  67  68
ENDBRANCH   1  67
TORSDOF 25
ENDMDL
MODEL 2
REMARK VINA RESULT:      -9.5      3.098      6.750
REMARK SMILES O=C(OCCOCCOCCOCCOC(=O)c1nn(-c2ccc([N+](=O)[O-])cc2)cc1CCO)c1ccc(-c2c3nc(c(-c4c(F)cccc4F)c4ccc([nH]4)c(-c4c(F)cccc4F)c4nc(c(-c5c(F)cccc5F)c5ccc2[nH]5)C=C4)C=C3)cc1
REMARK SMILES IDX 10 1 9 2 8 3 7 4 6 5 5 6 4 7 3 8 2 9 1 10 35 11 36 12 88 13
REMARK SMILES IDX 37 14 87 15 38 16 39 17 40 18 81 19 41 20 86 21 80 22 82 23
REMARK SMILES IDX 42 24 85 25 79 26 78 27 43 29 69 30 52 31 68 32 53 33 56 34
REMARK SMILES IDX 67 35 83 36 54 37 55 38 66 40 84 41 57 42 44 43 45 44 50 45
REMARK SMILES IDX 46 46 47 47 49 48 51 49 48 50 70 51 71 52 76 53 72 54 73 55
REMARK SMILES IDX 75 56 77 57 74 58 58 59 59 60 64 61 60 62 61 63 63 64 65 65
REMARK SMILES IDX 62 66 11 67 12 68 13 69 14 70 15 71 16 72 17 73 18 74 19 75
REMARK SMILES IDX 31 76 20 77 30 78 32 79 33 80 34 81 21 83 22 84 29 85 23 86
REMARK SMILES IDX 28 87 24 88 25 89 26 90 27 91
REMARK H PARENT 82 28 56 39 34 82
REMARK Flexibility Score: inf
ROOT
ATOM      1  C   UNL A   1      34.100  29.658  27.332  1.00  0.00     0.188 C 
ENDROOT
BRANCH   1   2
ATOM      2  O   UNL A   1      33.300  30.824  27.267  1.00  0.00    -0.377 OA
BRANCH   2   3
ATOM      3  C   UNL A   1      33.892  31.993  27.818  1.00  0.00     0.188 C 
BRANCH   3   4
ATOM      4  C   UNL A   1      35.418  32.013  27.794  1.00  0.00     0.188 C 
BRANCH   4   5
ATOM      5  O   UNL A   1      36.122  33.133  28.315  1.00  0.00    -0.376 OA
BRANCH   5   6
ATOM      6  C   UNL A   1      36.471  33.273  29.692  1.00  0.00     0.202 C 
BRANCH   6   7
ATOM      7  C   UNL A   1      35.887  32.479  30.873  1.00  0.00     0.261 C 
BRANCH   7   8
ATOM      8  O   UNL A   1      35.749  31.061  30.800  1.00  0.00    -0.460 OA
BRANCH   8   9
ATOM      9  C   UNL A   1      36.485  30.124  31.434  1.00  0.00     0.338 C 
ATOM     10  O   UNL A   1      36.558  30.120  32.659  1.00  0.00    -0.246 OA
BRANCH   9  11
ATOM     11  C   UNL A   1      37.347  29.191  30.678  1.00  0.00     0.060 A 
ATOM     12  C   UNL A   1      37.956  28.074  31.250  1.00  0.00     0.016 A 
ATOM     13  C   UNL A   1      37.614  29.545  29.340  1.00  0.00     0.016 A 
ATOM     14  C   UNL A   1      38.926  27.398  30.553  1.00  0.00     0.010 A 
ATOM     15  C   UNL A   1      38.598  28.880  28.637  1.00  0.00     0.010 A 
ATOM     16  C   UNL A   1      39.328  27.918  29.327  1.00  0.00    -0.014 A 
BRANCH  16  17
ATOM     17  C   UNL A   1      40.733  27.700  29.035  1.00  0.00     0.031 A 
ATOM     18  C   UNL A   1      41.087  26.381  28.462  1.00  0.00     0.074 A 
ATOM     19  C   UNL A   1      41.589  28.685  29.384  1.00  0.00     0.049 A 
ATOM     20  N   UNL A   1      41.974  25.532  28.874  1.00  0.00    -0.248 NA
ATOM     21  C   UNL A   1      40.263  25.899  27.342  1.00  0.00     0.031 C 
ATOM     22  C   UNL A   1      41.265  30.052  29.828  1.00  0.00     0.029 A 
ATOM     23  N   UNL A   1      42.942  28.715  29.308  1.00  0.00    -0.354 N 
ATOM     24  C   UNL A   1      41.959  24.499  27.941  1.00  0.00     0.074 A 
ATOM     25  C   UNL A   1      40.809  24.709  27.100  1.00  0.00     0.031 C 
ATOM     26  C   UNL A   1      42.355  30.833  29.710  1.00  0.00     0.029 A 
ATOM     27  C   UNL A   1      43.467  29.998  29.310  1.00  0.00     0.049 A 
ATOM     28  H   UNL A   1      43.499  27.904  29.258  1.00  0.00     0.167 HD
ATOM     29  C   UNL A   1      43.024  23.676  27.760  1.00  0.00     0.037 A 
ATOM     30  C   UNL A   1      44.685  30.343  28.837  1.00  0.00     0.037 A 
ATOM     31  C   UNL A   1      43.839  23.564  28.935  1.00  0.00     0.049 A 
ATOM     32  C   UNL A   1      45.508  29.107  28.807  1.00  0.00     0.074 A 
ATOM     33  C   UNL A   1      43.625  23.089  30.214  1.00  0.00     0.029 A 
ATOM     34  N   UNL A   1      45.011  24.275  28.996  1.00  0.00    -0.354 N 
ATOM     35  N   UNL A   1      45.891  28.468  29.880  1.00  0.00    -0.248 NA
ATOM     36  C   UNL A   1      45.501  28.318  27.583  1.00  0.00     0.031 C 
ATOM     37  C   UNL A   1      44.405  23.928  31.059  1.00  0.00     0.029 A 
ATOM     38  C   UNL A   1      45.064  24.847  30.242  1.00  0.00     0.049 A 
ATOM     39  H   UNL A   1      45.685  24.358  28.283  1.00  0.00     0.167 HD
ATOM     40  C   UNL A   1      45.803  27.120  29.551  1.00  0.00     0.074 A 
ATOM     41  C   UNL A   1      45.628  27.093  28.101  1.00  0.00     0.031 C 
ATOM     42  C   UNL A   1      45.595  26.164  30.503  1.00  0.00     0.037 A 
BRANCH  29  43
ATOM     43  C   UNL A   1      43.484  23.267  26.388  1.00  0.00     0.057 A 
ATOM     44  C   UNL A   1      43.627  21.910  26.065  1.00  0.00     0.134 A 
ATOM     45  C   UNL A   1      44.051  24.174  25.466  1.00  0.00     0.134 A 
ATOM     46  F   UNL A   1      43.162  20.956  26.884  1.00  0.00    -0.206 F 
ATOM     47  C   UNL A   1      44.320  21.487  24.923  1.00  0.00     0.040 A 
ATOM     48  C   UNL A   1      44.699  23.764  24.300  1.00  0.00     0.040 A 
ATOM     49  F   UNL A   1      44.094  25.494  25.696  1.00  0.00    -0.206 F 
ATOM     50  C   UNL A   1      44.859  22.415  24.038  1.00  0.00     0.006 A 
ENDBRANCH  29  43
BRANCH  30  51
ATOM     51  C   UNL A   1      44.958  31.552  28.026  1.00  0.00     0.057 A 
ATOM     52  C   UNL A   1      46.002  32.423  28.348  1.00  0.00     0.134 A 
ATOM     53  C   UNL A   1      44.324  31.779  26.786  1.00  0.00     0.134 A 
ATOM     54  F   UNL A   1      46.703  32.252  29.478  1.00  0.00    -0.206 F 
ATOM     55  C   UNL A   1      46.385  33.468  27.496  1.00  0.00     0.040 A 
ATOM     56  C   UNL A   1      44.682  32.827  25.936  1.00  0.00     0.040 A 
ATOM     57  F   UNL A   1      43.385  30.945  26.318  1.00  0.00    -0.206 F 
ATOM     58  C   UNL A   1      45.723  33.674  26.286  1.00  0.00     0.006 A 
ENDBRANCH  30  51
BRANCH  42  59
ATOM     59  C   UNL A   1      45.632  26.596  31.943  1.00  0.00     0.057 A 
ATOM     60  C   UNL A   1      46.823  26.672  32.683  1.00  0.00     0.134 A 
ATOM     61  C   UNL A   1      44.482  27.117  32.542  1.00  0.00     0.134 A 
ATOM     62  F   UNL A   1      47.991  26.306  32.143  1.00  0.00    -0.206 F 
ATOM     63  C   UNL A   1      46.859  27.197  33.977  1.00  0.00     0.040 A 
ATOM     64  C   UNL A   1      44.509  27.674  33.825  1.00  0.00     0.040 A 
ATOM     65  F   UNL A   1      43.323  27.146  31.867  1.00  0.00    -0.206 F 
ATOM     66  C   UNL A   1      45.699  27.707  34.551  1.00  0.00     0.006 A 
ENDBRANCH  42  59
ENDBRANCH  16  17
ENDBRANCH   9  11
ENDBRANCH   8   9
ENDBRANCH   7   8
ENDBRANCH   6   7
ENDBRANCH   5   6
ENDBRANCH   4   5
ENDBRANCH   3   4
ENDBRANCH   2   3
ENDBRANCH   1   2
BRANCH   1  67
ATOM     67  C   UNL A   1      34.055  28.723  26.102  1.00  0.00     0.188 C 
BRANCH  67  68
ATOM     68  O   UNL A   1      33.174  29.144  25.081  1.00  0.00    -0.376 OA
BRANCH  68  69
ATOM     69  C   UNL A   1      31.859  28.621  25.150  1.00  0.00     0.202 C 
BRANCH  69  70
ATOM     70  C   UNL A   1      31.395  27.774  23.956  1.00  0.00     0.261 C 
BRANCH  70  71
ATOM     71  O   UNL A   1      32.407  27.111  23.173  1.00  0.00    -0.458 OA
BRANCH  71  72
ATOM     72  C   UNL A   1      32.305  25.798  22.826  1.00  0.00     0.359 C 
ATOM     73  O   UNL A   1      31.906  25.378  21.743  1.00  0.00    -0.244 OA
BRANCH  72  74
ATOM     74  C   UNL A   1      32.879  24.939  23.874  1.00  0.00     0.174 A 
ATOM     75  N   UNL A   1      34.131  24.483  23.717  1.00  0.00    -0.161 NA
ATOM     76  C   UNL A   1      32.294  24.413  25.080  1.00  0.00     0.008 A 
ATOM     77  N   UNL A   1      34.314  23.579  24.694  1.00  0.00    -0.240 N 
ATOM     78  C   UNL A   1      33.207  23.456  25.491  1.00  0.00     0.119 A 
BRANCH  76  79
ATOM     79  C   UNL A   1      30.979  24.658  25.762  1.00  0.00     0.068 C 
BRANCH  79  80
ATOM     80  C   UNL A   1      30.574  23.630  26.816  1.00  0.00     0.161 C 
BRANCH  80  81
ATOM     81  O   UNL A   1      29.170  23.437  26.856  1.00  0.00    -0.396 OA
ATOM     82  H   UNL A   1      28.955  22.552  26.518  1.00  0.00     0.210 HD
ENDBRANCH  80  81
ENDBRANCH  79  80
ENDBRANCH  76  79
BRANCH  77  83
ATOM     83  C   UNL A   1      35.569  22.955  24.867  1.00  0.00     0.065 A 
ATOM     84  C   UNL A   1      36.542  23.636  25.612  1.00  0.00     0.035 A 
ATOM     85  C   UNL A   1      35.823  21.673  24.363  1.00  0.00     0.035 A 
ATOM     86  C   UNL A   1      37.752  23.016  25.912  1.00  0.00     0.088 A 
ATOM     87  C   UNL A   1      37.059  21.068  24.621  1.00  0.00     0.088 A 
ATOM     88  C   UNL A   1      38.006  21.734  25.414  1.00  0.00     0.269 A 
BRANCH  88  89
ATOM     89  N   UNL A   1      39.275  21.075  25.743  1.00  0.00     0.062 N 
ATOM     90  O   UNL A   1      39.317  19.839  25.670  1.00  0.00    -0.258 OA
ATOM     91  O   UNL A   1      40.230  21.795  26.065  1.00  0.00    -0.258 OA
ENDBRANCH  88  89
ENDBRANCH  77  83
ENDBRANCH  72  74
ENDBRANCH  71  72
ENDBRANCH  70  71
ENDBRANCH  69  70
ENDBRANCH  68  69
ENDBRANCH  67  68
ENDBRANCH   1  67
TORSDOF 25
ENDMDL
MODEL 3
REMARK VINA RESULT:      -9.3      2.708      6.395
REMARK SMILES O=C(OCCOCCOCCOCCOC(=O)c1nn(-c2ccc([N+](=O)[O-])cc2)cc1CCO)c1ccc(-c2c3nc(c(-c4c(F)cccc4F)c4ccc([nH]4)c(-c4c(F)cccc4F)c4nc(c(-c5c(F)cccc5F)c5ccc2[nH]5)C=C4)C=C3)cc1
REMARK SMILES IDX 10 1 9 2 8 3 7 4 6 5 5 6 4 7 3 8 2 9 1 10 35 11 36 12 88 13
REMARK SMILES IDX 37 14 87 15 38 16 39 17 40 18 81 19 41 20 86 21 80 22 82 23
REMARK SMILES IDX 42 24 85 25 79 26 78 27 43 29 69 30 52 31 68 32 53 33 56 34
REMARK SMILES IDX 67 35 83 36 54 37 55 38 66 40 84 41 57 42 44 43 45 44 50 45
REMARK SMILES IDX 46 46 47 47 49 48 51 49 48 50 70 51 71 52 76 53 72 54 73 55
REMARK SMILES IDX 75 56 77 57 74 58 58 59 59 60 64 61 60 62 61 63 63 64 65 65
REMARK SMILES IDX 62 66 11 67 12 68 13 69 14 70 15 71 16 72 17 73 18 74 19 75
REMARK SMILES IDX 31 76 20 77 30 78 32 79 33 80 34 81 21 83 22 84 29 85 23 86
REMARK SMILES IDX 28 87 24 88 25 89 26 90 27 91
REMARK H PARENT 82 28 56 39 34 82
REMARK Flexibility Score: inf
ROOT
ATOM      1  C   UNL A   1      34.123  29.458  27.288  1.00  0.00     0.188 C 
ENDROOT
BRANCH   1   2
ATOM      2  O   UNL A   1      33.133  30.466  27.372  1.00  0.00    -0.377 OA
BRANCH   2   3
ATOM      3  C   UNL A   1      33.598  31.732  27.821  1.00  0.00     0.188 C 
BRANCH   3   4
ATOM      4  C   UNL A   1      35.114  31.903  27.802  1.00  0.00     0.188 C 
BRANCH   4   5
ATOM      5  O   UNL A   1      35.698  33.123  28.241  1.00  0.00    -0.376 OA
BRANCH   5   6
ATOM      6  C   UNL A   1      36.033  33.391  29.602  1.00  0.00     0.202 C 
BRANCH   6   7
ATOM      7  C   UNL A   1      35.619  32.562  30.830  1.00  0.00     0.261 C 
BRANCH   7   8
ATOM      8  O   UNL A   1      35.680  31.137  30.801  1.00  0.00    -0.460 OA
BRANCH   8   9
ATOM      9  C   UNL A   1      36.577  30.334  31.410  1.00  0.00     0.338 C 
ATOM     10  O   UNL A   1      36.811  30.467  32.609  1.00  0.00    -0.246 OA
BRANCH   9  11
ATOM     11  C   UNL A   1      37.414  29.396  30.633  1.00  0.00     0.060 A 
ATOM     12  C   UNL A   1      37.946  28.221  31.164  1.00  0.00     0.016 A 
ATOM     13  C   UNL A   1      37.743  29.803  29.324  1.00  0.00     0.016 A 
ATOM     14  C   UNL A   1      38.902  27.531  30.463  1.00  0.00     0.010 A 
ATOM     15  C   UNL A   1      38.714  29.123  28.617  1.00  0.00     0.010 A 
ATOM     16  C   UNL A   1      39.371  28.090  29.278  1.00  0.00    -0.014 A 
BRANCH  16  17
ATOM     17  C   UNL A   1      40.771  27.813  29.017  1.00  0.00     0.031 A 
ATOM     18  C   UNL A   1      41.082  26.480  28.450  1.00  0.00     0.074 A 
ATOM     19  C   UNL A   1      41.660  28.760  29.387  1.00  0.00     0.049 A 
ATOM     20  N   UNL A   1      41.923  25.594  28.881  1.00  0.00    -0.248 NA
ATOM     21  C   UNL A   1      40.263  26.034  27.311  1.00  0.00     0.031 C 
ATOM     22  C   UNL A   1      41.384  30.140  29.826  1.00  0.00     0.029 A 
ATOM     23  N   UNL A   1      43.015  28.733  29.342  1.00  0.00    -0.354 N 
ATOM     24  C   UNL A   1      41.885  24.563  27.946  1.00  0.00     0.074 A 
ATOM     25  C   UNL A   1      40.764  24.823  27.080  1.00  0.00     0.031 C 
ATOM     26  C   UNL A   1      42.509  30.874  29.733  1.00  0.00     0.029 A 
ATOM     27  C   UNL A   1      43.593  29.993  29.357  1.00  0.00     0.049 A 
ATOM     28  H   UNL A   1      43.537  27.899  29.303  1.00  0.00     0.167 HD
ATOM     29  C   UNL A   1      42.918  23.696  27.788  1.00  0.00     0.037 A 
ATOM     30  C   UNL A   1      44.835  30.286  28.912  1.00  0.00     0.037 A 
ATOM     31  C   UNL A   1      43.701  23.550  28.981  1.00  0.00     0.049 A 
ATOM     32  C   UNL A   1      45.605  29.017  28.900  1.00  0.00     0.074 A 
ATOM     33  C   UNL A   1      43.438  23.083  30.254  1.00  0.00     0.029 A 
ATOM     34  N   UNL A   1      44.901  24.209  29.070  1.00  0.00    -0.354 N 
ATOM     35  N   UNL A   1      45.936  28.361  29.980  1.00  0.00    -0.248 NA
ATOM     36  C   UNL A   1      45.592  28.229  27.674  1.00  0.00     0.031 C 
ATOM     37  C   UNL A   1      44.233  23.888  31.118  1.00  0.00     0.029 A 
ATOM     38  C   UNL A   1      44.949  24.779  30.318  1.00  0.00     0.049 A 
ATOM     39  H   UNL A   1      45.593  24.264  28.372  1.00  0.00     0.167 HD
ATOM     40  C   UNL A   1      45.799  27.019  29.646  1.00  0.00     0.074 A 
ATOM     41  C   UNL A   1      45.656  27.000  28.193  1.00  0.00     0.031 C 
ATOM     42  C   UNL A   1      45.529  26.072  30.592  1.00  0.00     0.037 A 
BRANCH  29  43
ATOM     43  C   UNL A   1      43.391  23.269  26.426  1.00  0.00     0.057 A 
ATOM     44  C   UNL A   1      43.418  21.910  26.080  1.00  0.00     0.134 A 
ATOM     45  C   UNL A   1      44.077  24.133  25.546  1.00  0.00     0.134 A 
ATOM     46  F   UNL A   1      42.834  20.991  26.862  1.00  0.00    -0.206 F 
ATOM     47  C   UNL A   1      44.113  21.443  24.957  1.00  0.00     0.040 A 
ATOM     48  C   UNL A   1      44.729  23.684  24.396  1.00  0.00     0.040 A 
ATOM     49  F   UNL A   1      44.235  25.439  25.804  1.00  0.00    -0.206 F 
ATOM     50  C   UNL A   1      44.771  22.330  24.113  1.00  0.00     0.006 A 
ENDBRANCH  29  43
BRANCH  30  51
ATOM     51  C   UNL A   1      45.177  31.483  28.110  1.00  0.00     0.057 A 
ATOM     52  C   UNL A   1      46.279  32.282  28.428  1.00  0.00     0.134 A 
ATOM     53  C   UNL A   1      44.546  31.763  26.879  1.00  0.00     0.134 A 
ATOM     54  F   UNL A   1      46.979  32.055  29.549  1.00  0.00    -0.206 F 
ATOM     55  C   UNL A   1      46.719  33.309  27.581  1.00  0.00     0.040 A 
ATOM     56  C   UNL A   1      44.962  32.794  26.034  1.00  0.00     0.040 A 
ATOM     57  F   UNL A   1      43.550  30.995  26.413  1.00  0.00    -0.206 F 
ATOM     58  C   UNL A   1      46.059  33.569  26.381  1.00  0.00     0.006 A 
ENDBRANCH  30  51
BRANCH  42  59
ATOM     59  C   UNL A   1      45.552  26.501  32.034  1.00  0.00     0.057 A 
ATOM     60  C   UNL A   1      46.729  26.526  32.800  1.00  0.00     0.134 A 
ATOM     61  C   UNL A   1      44.412  27.069  32.607  1.00  0.00     0.134 A 
ATOM     62  F   UNL A   1      47.892  26.112  32.285  1.00  0.00    -0.206 F 
ATOM     63  C   UNL A   1      46.757  27.049  34.095  1.00  0.00     0.040 A 
ATOM     64  C   UNL A   1      44.434  27.624  33.891  1.00  0.00     0.040 A 
ATOM     65  F   UNL A   1      43.271  27.147  31.906  1.00  0.00    -0.206 F 
ATOM     66  C   UNL A   1      45.607  27.607  34.643  1.00  0.00     0.006 A 
ENDBRANCH  42  59
ENDBRANCH  16  17
ENDBRANCH   9  11
ENDBRANCH   8   9
ENDBRANCH   7   8
ENDBRANCH   6   7
ENDBRANCH   5   6
ENDBRANCH   4   5
ENDBRANCH   3   4
ENDBRANCH   2   3
ENDBRANCH   1   2
BRANCH   1  67
ATOM     67  C   UNL A   1      33.919  28.382  26.196  1.00  0.00     0.188 C 
BRANCH  67  68
ATOM     68  O   UNL A   1      32.569  28.041  25.958  1.00  0.00    -0.376 OA
BRANCH  68  69
ATOM     69  C   UNL A   1      32.060  26.968  26.731  1.00  0.00     0.202 C 
BRANCH  69  70
ATOM     70  C   UNL A   1      30.802  26.272  26.194  1.00  0.00     0.261 C 
BRANCH  70  71
ATOM     71  O   UNL A   1      30.174  26.836  25.026  1.00  0.00    -0.458 OA
BRANCH  71  72
ATOM     72  C   UNL A   1      29.618  26.055  24.057  1.00  0.00     0.359 C 
ATOM     73  O   UNL A   1      28.487  26.187  23.600  1.00  0.00    -0.244 OA
BRANCH  72  74
ATOM     74  C   UNL A   1      30.613  25.114  23.518  1.00  0.00     0.174 A 
ATOM     75  N   UNL A   1      30.599  23.845  23.954  1.00  0.00    -0.161 NA
ATOM     76  C   UNL A   1      31.705  25.326  22.604  1.00  0.00     0.008 A 
ATOM     77  N   UNL A   1      31.717  23.282  23.466  1.00  0.00    -0.240 N 
ATOM     78  C   UNL A   1      32.446  24.161  22.710  1.00  0.00     0.119 A 
BRANCH  76  79
ATOM     79  C   UNL A   1      32.125  26.508  21.779  1.00  0.00     0.068 C 
BRANCH  79  80
ATOM     80  C   UNL A   1      33.603  26.881  21.854  1.00  0.00     0.161 C 
BRANCH  80  81
ATOM     81  O   UNL A   1      33.844  28.191  21.368  1.00  0.00    -0.396 OA
ATOM     82  H   UNL A   1      33.039  28.724  21.460  1.00  0.00     0.210 HD
ENDBRANCH  80  81
ENDBRANCH  79  80
ENDBRANCH  76  79
BRANCH  77  83
ATOM     83  C   UNL A   1      31.977  21.908  23.674  1.00  0.00     0.065 A 
ATOM     84  C   UNL A   1      31.959  21.062  22.556  1.00  0.00     0.035 A 
ATOM     85  C   UNL A   1      32.299  21.410  24.943  1.00  0.00     0.035 A 
ATOM     86  C   UNL A   1      32.324  19.725  22.688  1.00  0.00     0.088 A 
ATOM     87  C   UNL A   1      32.617  20.054  25.086  1.00  0.00     0.088 A 
ATOM     88  C   UNL A   1      32.651  19.226  23.953  1.00  0.00     0.269 A 
BRANCH  88  89
ATOM     89  N   UNL A   1      33.050  17.821  24.088  1.00  0.00     0.062 N 
ATOM     90  O   UNL A   1      32.360  17.094  24.817  1.00  0.00    -0.258 OA
ATOM     91  O   UNL A   1      34.047  17.443  23.457  1.00  0.00    -0.258 OA
ENDBRANCH  88  89
ENDBRANCH  77  83
ENDBRANCH  72  74
ENDBRANCH  71  72
ENDBRANCH  70  71
ENDBRANCH  69  70
ENDBRANCH  68  69
ENDBRANCH  67  68
ENDBRANCH   1  67
TORSDOF 25
ENDMDL
