MODEL 1
REMARK VINA RESULT:      -9.7      0.000      0.000
REMARK SMILES COc1ccccc1[C@@H]1C[N@@H+](Cc2cc3c(cc2C)OCO3)C[C@H]1C(=O)OCCOCCOCCOCCOC(=O)c1ccc(-c2c3nc(c(-c4c(F)cccc4F)c4ccc([nH]4)c(-c4c(F)cccc4F)c4nc(c(-c5c(F)cccc5F)c5ccc2[nH]5)C=C4)C=C3)cc1
REMARK SMILES IDX 33 1 32 2 31 3 30 4 29 5 28 6 27 7 25 8 26 9 24 10 9 11
REMARK SMILES IDX 10 12 11 13 23 14 8 16 3 17 4 18 5 19 7 20 6 21 2 22 1 23
REMARK SMILES IDX 12 24 13 25 14 26 18 27 15 28 17 29 19 30 16 31 22 32 20 33
REMARK SMILES IDX 21 34 34 35 35 36 36 37 37 38 38 39 39 40 40 41 41 42 42 43
REMARK SMILES IDX 43 44 95 45 44 46 94 47 45 48 46 49 47 50 88 51 48 52 93 53
REMARK SMILES IDX 87 54 89 55 49 56 92 57 86 58 85 59 50 61 76 62 59 63 75 64
REMARK SMILES IDX 60 65 63 66 74 67 90 68 61 69 62 70 73 72 91 73 64 74 51 75
REMARK SMILES IDX 52 76 57 77 53 78 54 79 56 80 58 81 55 82 77 83 78 84 83 85
REMARK SMILES IDX 79 86 80 87 82 88 84 89 81 90 65 91 66 92 71 93 67 94 68 95
REMARK SMILES IDX 70 96 72 97 69 98
REMARK H PARENT 11 15 89 60 63 71
REMARK Flexibility Score: inf
ROOT
ATOM      1  O   UNL A   1      38.945  24.861  27.357  1.00  0.00    -0.377 OA
ENDROOT
BRANCH   1   2
ATOM      2  C   UNL A   1      38.607  23.800  26.493  1.00  0.00     0.188 C 
BRANCH   2   3
ATOM      3  C   UNL A   1      37.333  23.735  25.648  1.00  0.00     0.188 C 
BRANCH   3   4
ATOM      4  O   UNL A   1      36.974  22.507  25.055  1.00  0.00    -0.376 OA
BRANCH   4   5
ATOM      5  C   UNL A   1      36.518  22.401  23.720  1.00  0.00     0.202 C 
BRANCH   5   6
ATOM      6  C   UNL A   1      35.352  23.214  23.140  1.00  0.00     0.261 C 
BRANCH   6   7
ATOM      7  O   UNL A   1      34.424  23.795  24.080  1.00  0.00    -0.463 OA
BRANCH   7   8
ATOM      8  C   UNL A   1      33.564  24.694  23.542  1.00  0.00     0.315 C 
ATOM      9  O   UNL A   1      33.389  24.785  22.324  1.00  0.00    -0.252 OA
BRANCH   8  10
ATOM     10  C   UNL A   1      32.730  25.577  24.470  1.00  0.00     0.167 C 
ATOM     11  C   UNL A   1      31.220  25.896  24.460  1.00  0.00     0.098 C 
ATOM     12  C   UNL A   1      30.830  25.915  25.946  1.00  0.00     0.272 C 
ATOM     13  N   UNL A   1      31.736  24.993  26.622  1.00  0.00    -0.330 N 
ATOM     14  C   UNL A   1      33.007  25.094  25.905  1.00  0.00     0.278 C 
ATOM     15  H   UNL A   1      31.865  25.262  27.598  1.00  0.00     0.348 HD
BRANCH  11  16
ATOM     16  C   UNL A   1      30.655  27.174  23.817  1.00  0.00     0.004 A 
ATOM     17  C   UNL A   1      31.321  28.384  23.535  1.00  0.00     0.122 A 
ATOM     18  C   UNL A   1      30.661  29.412  22.829  1.00  0.00     0.047 A 
ATOM     19  C   UNL A   1      29.305  29.317  22.515  1.00  0.00     0.004 A 
ATOM     20  C   UNL A   1      29.260  27.151  23.563  1.00  0.00     0.008 A 
ATOM     21  C   UNL A   1      28.591  28.210  22.943  1.00  0.00     0.001 A 
BRANCH  17  22
ATOM     22  O   UNL A   1      32.410  28.823  24.246  1.00  0.00    -0.496 OA
ATOM     23  C   UNL A   1      32.188  29.716  25.322  1.00  0.00     0.278 C 
ENDBRANCH  17  22
ENDBRANCH  11  16
BRANCH  13  24
ATOM     24  C   UNL A   1      31.216  23.636  26.836  1.00  0.00     0.299 C 
BRANCH  24  25
ATOM     25  C   UNL A   1      32.081  22.477  26.376  1.00  0.00     0.013 A 
ATOM     26  C   UNL A   1      31.654  21.776  25.229  1.00  0.00     0.060 A 
ATOM     27  C   UNL A   1      33.290  22.084  27.020  1.00  0.00    -0.038 A 
ATOM     28  C   UNL A   1      32.466  20.791  24.727  1.00  0.00     0.166 A 
ATOM     29  C   UNL A   1      34.138  21.145  26.407  1.00  0.00     0.054 A 
ATOM     30  C   UNL A   1      33.721  22.575  28.374  1.00  0.00     0.045 C 
ATOM     31  C   UNL A   1      33.690  20.512  25.278  1.00  0.00     0.166 A 
ATOM     32  O   UNL A   1      32.170  19.973  23.686  1.00  0.00    -0.454 OA
ATOM     33  O   UNL A   1      34.328  19.500  24.637  1.00  0.00    -0.454 OA
ATOM     34  C   UNL A   1      33.227  19.014  23.843  1.00  0.00     0.468 C 
ENDBRANCH  24  25
ENDBRANCH  13  24
ENDBRANCH   8  10
ENDBRANCH   7   8
ENDBRANCH   6   7
ENDBRANCH   5   6
ENDBRANCH   4   5
ENDBRANCH   3   4
ENDBRANCH   2   3
ENDBRANCH   1   2
BRANCH   1  35
ATOM     35  C   UNL A   1      40.034  25.682  27.023  1.00  0.00     0.188 C 
BRANCH  35  36
ATOM     36  C   UNL A   1      40.853  25.136  25.847  1.00  0.00     0.188 C 
BRANCH  36  37
ATOM     37  O   UNL A   1      41.871  25.910  25.225  1.00  0.00    -0.376 OA
BRANCH  37  38
ATOM     38  C   UNL A   1      43.114  25.351  24.836  1.00  0.00     0.202 C 
BRANCH  38  39
ATOM     39  C   UNL A   1      43.487  23.882  25.117  1.00  0.00     0.261 C 
BRANCH  39  40
ATOM     40  O   UNL A   1      43.949  23.533  26.425  1.00  0.00    -0.460 OA
BRANCH  40  41
ATOM     41  C   UNL A   1      44.801  24.415  26.992  1.00  0.00     0.338 C 
ATOM     42  O   UNL A   1      45.995  24.519  26.802  1.00  0.00    -0.246 OA
BRANCH  41  43
ATOM     43  C   UNL A   1      44.031  25.334  27.855  1.00  0.00     0.060 A 
ATOM     44  C   UNL A   1      44.382  26.688  27.882  1.00  0.00     0.016 A 
ATOM     45  C   UNL A   1      43.026  24.847  28.694  1.00  0.00     0.016 A 
ATOM     46  C   UNL A   1      43.752  27.564  28.769  1.00  0.00     0.010 A 
ATOM     47  C   UNL A   1      42.417  25.718  29.605  1.00  0.00     0.010 A 
ATOM     48  C   UNL A   1      42.792  27.079  29.662  1.00  0.00    -0.014 A 
BRANCH  48  49
ATOM     49  C   UNL A   1      42.314  27.928  30.782  1.00  0.00     0.031 A 
ATOM     50  C   UNL A   1      41.148  28.839  30.515  1.00  0.00     0.074 A 
ATOM     51  C   UNL A   1      42.879  27.902  32.004  1.00  0.00     0.049 A 
ATOM     52  N   UNL A   1      40.574  29.705  31.308  1.00  0.00    -0.248 NA
ATOM     53  C   UNL A   1      40.532  28.744  29.180  1.00  0.00     0.031 C 
ATOM     54  C   UNL A   1      43.938  26.994  32.435  1.00  0.00     0.029 A 
ATOM     55  N   UNL A   1      42.657  28.690  33.108  1.00  0.00    -0.354 N 
ATOM     56  C   UNL A   1      39.522  30.238  30.577  1.00  0.00     0.074 A 
ATOM     57  C   UNL A   1      39.569  29.648  29.259  1.00  0.00     0.031 C 
ATOM     58  C   UNL A   1      44.347  27.341  33.668  1.00  0.00     0.029 A 
ATOM     59  C   UNL A   1      43.548  28.471  34.133  1.00  0.00     0.049 A 
ATOM     60  H   UNL A   1      41.929  29.351  33.160  1.00  0.00     0.167 HD
ATOM     61  C   UNL A   1      38.581  31.121  30.980  1.00  0.00     0.037 A 
ATOM     62  C   UNL A   1      43.700  29.108  35.310  1.00  0.00     0.037 A 
ATOM     63  C   UNL A   1      38.536  31.709  32.291  1.00  0.00     0.049 A 
ATOM     64  C   UNL A   1      42.713  30.183  35.688  1.00  0.00     0.074 A 
ATOM     65  C   UNL A   1      37.603  32.591  32.805  1.00  0.00     0.029 A 
ATOM     66  N   UNL A   1      39.474  31.487  33.286  1.00  0.00    -0.354 N 
ATOM     67  N   UNL A   1      41.681  30.630  35.014  1.00  0.00    -0.248 NA
ATOM     68  C   UNL A   1      42.885  30.812  37.007  1.00  0.00     0.031 C 
ATOM     69  C   UNL A   1      38.014  32.957  34.089  1.00  0.00     0.029 A 
ATOM     70  C   UNL A   1      39.164  32.249  34.400  1.00  0.00     0.049 A 
ATOM     71  H   UNL A   1      40.244  30.878  33.214  1.00  0.00     0.167 HD
ATOM     72  C   UNL A   1      41.049  31.544  35.848  1.00  0.00     0.074 A 
ATOM     73  C   UNL A   1      41.813  31.586  37.076  1.00  0.00     0.031 C 
ATOM     74  C   UNL A   1      39.928  32.272  35.622  1.00  0.00     0.037 A 
BRANCH  61  75
ATOM     75  C   UNL A   1      37.531  31.517  29.987  1.00  0.00     0.057 A 
ATOM     76  C   UNL A   1      37.627  32.697  29.239  1.00  0.00     0.134 A 
ATOM     77  C   UNL A   1      36.433  30.682  29.744  1.00  0.00     0.134 A 
ATOM     78  F   UNL A   1      38.643  33.551  29.439  1.00  0.00    -0.206 F 
ATOM     79  C   UNL A   1      36.661  33.038  28.289  1.00  0.00     0.040 A 
ATOM     80  C   UNL A   1      35.477  30.998  28.779  1.00  0.00     0.040 A 
ATOM     81  F   UNL A   1      36.283  29.539  30.430  1.00  0.00    -0.206 F 
ATOM     82  C   UNL A   1      35.589  32.181  28.050  1.00  0.00     0.006 A 
ENDBRANCH  61  75
BRANCH  62  83
ATOM     83  C   UNL A   1      44.805  28.745  36.239  1.00  0.00     0.057 A 
ATOM     84  C   UNL A   1      46.059  29.364  36.157  1.00  0.00     0.134 A 
ATOM     85  C   UNL A   1      44.656  27.723  37.183  1.00  0.00     0.134 A 
ATOM     86  F   UNL A   1      46.273  30.337  35.260  1.00  0.00    -0.206 F 
ATOM     87  C   UNL A   1      47.132  28.954  36.951  1.00  0.00     0.040 A 
ATOM     88  C   UNL A   1      45.714  27.319  38.001  1.00  0.00     0.040 A 
ATOM     89  F   UNL A   1      43.480  27.090  37.317  1.00  0.00    -0.206 F 
ATOM     90  C   UNL A   1      46.962  27.927  37.877  1.00  0.00     0.006 A 
ENDBRANCH  62  83
BRANCH  74  91
ATOM     91  C   UNL A   1      39.428  33.138  36.741  1.00  0.00     0.057 A 
ATOM     92  C   UNL A   1      38.476  32.687  37.663  1.00  0.00     0.134 A 
ATOM     93  C   UNL A   1      39.945  34.428  36.925  1.00  0.00     0.134 A 
ATOM     94  F   UNL A   1      37.933  31.466  37.538  1.00  0.00    -0.206 F 
ATOM     95  C   UNL A   1      38.033  33.498  38.708  1.00  0.00     0.040 A 
ATOM     96  C   UNL A   1      39.536  35.235  37.986  1.00  0.00     0.040 A 
ATOM     97  F   UNL A   1      40.870  34.918  36.085  1.00  0.00    -0.206 F 
ATOM     98  C   UNL A   1      38.570  34.773  38.878  1.00  0.00     0.006 A 
ENDBRANCH  74  91
ENDBRANCH  48  49
ENDBRANCH  41  43
ENDBRANCH  40  41
ENDBRANCH  39  40
ENDBRANCH  38  39
ENDBRANCH  37  38
ENDBRANCH  36  37
ENDBRANCH  35  36
ENDBRANCH   1  35
TORSDOF 24
ENDMDL
MODEL 2
REMARK VINA RESULT:      -9.3      4.717     10.388
REMARK SMILES COc1ccccc1[C@@H]1C[N@@H+](Cc2cc3c(cc2C)OCO3)C[C@H]1C(=O)OCCOCCOCCOCCOC(=O)c1ccc(-c2c3nc(c(-c4c(F)cccc4F)c4ccc([nH]4)c(-c4c(F)cccc4F)c4nc(c(-c5c(F)cccc5F)c5ccc2[nH]5)C=C4)C=C3)cc1
REMARK SMILES IDX 33 1 32 2 31 3 30 4 29 5 28 6 27 7 25 8 26 9 24 10 9 11
REMARK SMILES IDX 10 12 11 13 23 14 8 16 3 17 4 18 5 19 7 20 6 21 2 22 1 23
REMARK SMILES IDX 12 24 13 25 14 26 18 27 15 28 17 29 19 30 16 31 22 32 20 33
REMARK SMILES IDX 21 34 34 35 35 36 36 37 37 38 38 39 39 40 40 41 41 42 42 43
REMARK SMILES IDX 43 44 95 45 44 46 94 47 45 48 46 49 47 50 88 51 48 52 93 53
REMARK SMILES IDX 87 54 89 55 49 56 92 57 86 58 85 59 50 61 76 62 59 63 75 64
REMARK SMILES IDX 60 65 63 66 74 67 90 68 61 69 62 70 73 72 91 73 64 74 51 75
REMARK SMILES IDX 52 76 57 77 53 78 54 79 56 80 58 81 55 82 77 83 78 84 83 85
REMARK SMILES IDX 79 86 80 87 82 88 84 89 81 90 65 91 66 92 71 93 67 94 68 95
REMARK SMILES IDX 70 96 72 97 69 98
REMARK H PARENT 11 15 89 60 63 71
REMARK Flexibility Score: inf
ROOT
ATOM      1  O   UNL A   1      36.307  32.048  29.564  1.00  0.00    -0.377 OA
ENDROOT
BRANCH   1   2
ATOM      2  C   UNL A   1      35.519  31.592  28.488  1.00  0.00     0.188 C 
BRANCH   2   3
ATOM      3  C   UNL A   1      34.228  32.258  28.009  1.00  0.00     0.188 C 
BRANCH   3   4
ATOM      4  O   UNL A   1      33.365  31.533  27.161  1.00  0.00    -0.376 OA
BRANCH   4   5
ATOM      5  C   UNL A   1      33.133  30.145  27.304  1.00  0.00     0.202 C 
BRANCH   5   6
ATOM      6  C   UNL A   1      33.942  29.056  26.585  1.00  0.00     0.261 C 
BRANCH   6   7
ATOM      7  O   UNL A   1      33.599  27.685  26.872  1.00  0.00    -0.463 OA
BRANCH   7   8
ATOM      8  C   UNL A   1      32.351  27.322  26.488  1.00  0.00     0.315 C 
ATOM      9  O   UNL A   1      31.366  27.506  27.207  1.00  0.00    -0.252 OA
BRANCH   8  10
ATOM     10  C   UNL A   1      32.141  26.730  25.094  1.00  0.00     0.167 C 
ATOM     11  C   UNL A   1      31.199  25.606  24.614  1.00  0.00     0.098 C 
ATOM     12  C   UNL A   1      30.696  26.096  23.247  1.00  0.00     0.272 C 
ATOM     13  N   UNL A   1      30.700  27.554  23.304  1.00  0.00    -0.330 N 
ATOM     14  C   UNL A   1      31.834  27.911  24.156  1.00  0.00     0.278 C 
ATOM     15  H   UNL A   1      30.825  27.953  22.374  1.00  0.00     0.348 HD
BRANCH  11  16
ATOM     16  C   UNL A   1      31.676  24.155  24.439  1.00  0.00     0.004 A 
ATOM     17  C   UNL A   1      32.024  23.218  25.433  1.00  0.00     0.122 A 
ATOM     18  C   UNL A   1      32.329  21.886  25.081  1.00  0.00     0.047 A 
ATOM     19  C   UNL A   1      32.427  21.497  23.745  1.00  0.00     0.004 A 
ATOM     20  C   UNL A   1      31.875  23.748  23.095  1.00  0.00     0.008 A 
ATOM     21  C   UNL A   1      32.263  22.449  22.752  1.00  0.00     0.001 A 
BRANCH  17  22
ATOM     22  O   UNL A   1      32.505  23.579  26.667  1.00  0.00    -0.496 OA
ATOM     23  C   UNL A   1      32.910  22.551  27.552  1.00  0.00     0.278 C 
ENDBRANCH  17  22
ENDBRANCH  11  16
BRANCH  13  24
ATOM     24  C   UNL A   1      29.413  28.178  23.639  1.00  0.00     0.299 C 
BRANCH  24  25
ATOM     25  C   UNL A   1      29.165  29.583  23.123  1.00  0.00     0.013 A 
ATOM     26  C   UNL A   1      28.525  29.702  21.872  1.00  0.00     0.060 A 
ATOM     27  C   UNL A   1      29.520  30.766  23.836  1.00  0.00    -0.038 A 
ATOM     28  C   UNL A   1      28.194  30.955  21.425  1.00  0.00     0.166 A 
ATOM     29  C   UNL A   1      29.063  32.018  23.388  1.00  0.00     0.054 A 
ATOM     30  C   UNL A   1      30.417  30.784  25.042  1.00  0.00     0.045 C 
ATOM     31  C   UNL A   1      28.421  32.077  22.180  1.00  0.00     0.166 A 
ATOM     32  O   UNL A   1      27.652  31.248  20.216  1.00  0.00    -0.454 OA
ATOM     33  O   UNL A   1      28.028  33.213  21.552  1.00  0.00    -0.454 OA
ATOM     34  C   UNL A   1      27.822  32.674  20.231  1.00  0.00     0.468 C 
ENDBRANCH  24  25
ENDBRANCH  13  24
ENDBRANCH   8  10
ENDBRANCH   7   8
ENDBRANCH   6   7
ENDBRANCH   5   6
ENDBRANCH   4   5
ENDBRANCH   3   4
ENDBRANCH   2   3
ENDBRANCH   1   2
BRANCH   1  35
ATOM     35  C   UNL A   1      36.822  31.106  30.470  1.00  0.00     0.188 C 
BRANCH  35  36
ATOM     36  C   UNL A   1      35.934  30.924  31.708  1.00  0.00     0.188 C 
BRANCH  36  37
ATOM     37  O   UNL A   1      35.035  31.939  32.135  1.00  0.00    -0.376 OA
BRANCH  37  38
ATOM     38  C   UNL A   1      35.255  33.311  31.852  1.00  0.00     0.202 C 
BRANCH  38  39
ATOM     39  C   UNL A   1      35.814  34.294  32.898  1.00  0.00     0.261 C 
BRANCH  39  40
ATOM     40  O   UNL A   1      37.020  35.002  32.594  1.00  0.00    -0.460 OA
BRANCH  40  41
ATOM     41  C   UNL A   1      38.121  34.580  33.255  1.00  0.00     0.338 C 
ATOM     42  O   UNL A   1      38.452  34.847  34.391  1.00  0.00    -0.246 OA
BRANCH  41  43
ATOM     43  C   UNL A   1      38.860  33.636  32.391  1.00  0.00     0.060 A 
ATOM     44  C   UNL A   1      39.483  32.529  32.980  1.00  0.00     0.016 A 
ATOM     45  C   UNL A   1      39.010  33.888  31.026  1.00  0.00     0.016 A 
ATOM     46  C   UNL A   1      40.284  31.679  32.214  1.00  0.00     0.010 A 
ATOM     47  C   UNL A   1      39.838  33.054  30.266  1.00  0.00     0.010 A 
ATOM     48  C   UNL A   1      40.498  31.956  30.860  1.00  0.00    -0.014 A 
BRANCH  48  49
ATOM     49  C   UNL A   1      41.550  31.231  30.104  1.00  0.00     0.031 A 
ATOM     50  C   UNL A   1      42.783  31.999  29.718  1.00  0.00     0.074 A 
ATOM     51  C   UNL A   1      41.435  29.932  29.768  1.00  0.00     0.049 A 
ATOM     52  N   UNL A   1      43.818  31.609  29.024  1.00  0.00    -0.248 NA
ATOM     53  C   UNL A   1      42.869  33.389  30.200  1.00  0.00     0.031 C 
ATOM     54  C   UNL A   1      40.351  29.039  30.168  1.00  0.00     0.029 A 
ATOM     55  N   UNL A   1      42.234  29.140  28.978  1.00  0.00    -0.354 N 
ATOM     56  C   UNL A   1      44.684  32.693  29.005  1.00  0.00     0.074 A 
ATOM     57  C   UNL A   1      44.032  33.778  29.702  1.00  0.00     0.031 C 
ATOM     58  C   UNL A   1      40.494  27.858  29.542  1.00  0.00     0.029 A 
ATOM     59  C   UNL A   1      41.704  27.896  28.726  1.00  0.00     0.049 A 
ATOM     60  H   UNL A   1      43.103  29.436  28.623  1.00  0.00     0.167 HD
ATOM     61  C   UNL A   1      45.926  32.769  28.477  1.00  0.00     0.037 A 
ATOM     62  C   UNL A   1      42.147  26.902  27.932  1.00  0.00     0.037 A 
ATOM     63  C   UNL A   1      46.573  31.690  27.782  1.00  0.00     0.049 A 
ATOM     64  C   UNL A   1      43.480  27.057  27.246  1.00  0.00     0.074 A 
ATOM     65  C   UNL A   1      47.844  31.659  27.237  1.00  0.00     0.029 A 
ATOM     66  N   UNL A   1      45.991  30.460  27.520  1.00  0.00    -0.354 N 
ATOM     67  N   UNL A   1      44.319  28.063  27.293  1.00  0.00    -0.248 NA
ATOM     68  C   UNL A   1      43.948  25.924  26.434  1.00  0.00     0.031 C 
ATOM     69  C   UNL A   1      48.007  30.434  26.586  1.00  0.00     0.029 A 
ATOM     70  C   UNL A   1      46.864  29.675  26.784  1.00  0.00     0.049 A 
ATOM     71  H   UNL A   1      45.093  30.183  27.814  1.00  0.00     0.167 HD
ATOM     72  C   UNL A   1      45.436  27.661  26.570  1.00  0.00     0.074 A 
ATOM     73  C   UNL A   1      45.166  26.320  26.097  1.00  0.00     0.031 C 
ATOM     74  C   UNL A   1      46.587  28.336  26.331  1.00  0.00     0.037 A 
BRANCH  61  75
ATOM     75  C   UNL A   1      46.662  34.067  28.617  1.00  0.00     0.057 A 
ATOM     76  C   UNL A   1      47.530  34.315  29.688  1.00  0.00     0.134 A 
ATOM     77  C   UNL A   1      46.533  35.064  27.642  1.00  0.00     0.134 A 
ATOM     78  F   UNL A   1      47.680  33.409  30.667  1.00  0.00    -0.206 F 
ATOM     79  C   UNL A   1      48.238  35.514  29.789  1.00  0.00     0.040 A 
ATOM     80  C   UNL A   1      47.256  36.254  27.718  1.00  0.00     0.040 A 
ATOM     81  F   UNL A   1      45.715  34.889  26.594  1.00  0.00    -0.206 F 
ATOM     82  C   UNL A   1      48.110  36.482  28.796  1.00  0.00     0.006 A 
ENDBRANCH  61  75
BRANCH  62  83
ATOM     83  C   UNL A   1      41.351  25.658  27.749  1.00  0.00     0.057 A 
ATOM     84  C   UNL A   1      41.716  24.459  28.375  1.00  0.00     0.134 A 
ATOM     85  C   UNL A   1      40.247  25.620  26.888  1.00  0.00     0.134 A 
ATOM     86  F   UNL A   1      42.776  24.423  29.195  1.00  0.00    -0.206 F 
ATOM     87  C   UNL A   1      41.040  23.263  28.122  1.00  0.00     0.040 A 
ATOM     88  C   UNL A   1      39.545  24.436  26.646  1.00  0.00     0.040 A 
ATOM     89  F   UNL A   1      39.840  26.733  26.258  1.00  0.00    -0.206 F 
ATOM     90  C   UNL A   1      39.950  23.249  27.254  1.00  0.00     0.006 A 
ENDBRANCH  62  83
BRANCH  74  91
ATOM     91  C   UNL A   1      47.663  27.621  25.567  1.00  0.00     0.057 A 
ATOM     92  C   UNL A   1      47.723  27.644  24.169  1.00  0.00     0.134 A 
ATOM     93  C   UNL A   1      48.682  26.939  26.248  1.00  0.00     0.134 A 
ATOM     94  F   UNL A   1      46.774  28.270  23.457  1.00  0.00    -0.206 F 
ATOM     95  C   UNL A   1      48.740  26.988  23.473  1.00  0.00     0.040 A 
ATOM     96  C   UNL A   1      49.721  26.309  25.565  1.00  0.00     0.040 A 
ATOM     97  F   UNL A   1      48.691  26.889  27.589  1.00  0.00    -0.206 F 
ATOM     98  C   UNL A   1      49.748  26.326  24.172  1.00  0.00     0.006 A 
ENDBRANCH  74  91
ENDBRANCH  48  49
ENDBRANCH  41  43
ENDBRANCH  40  41
ENDBRANCH  39  40
ENDBRANCH  38  39
ENDBRANCH  37  38
ENDBRANCH  36  37
ENDBRANCH  35  36
ENDBRANCH   1  35
TORSDOF 24
ENDMDL
MODEL 3
REMARK VINA RESULT:      -9.0      7.024      9.725
REMARK SMILES COc1ccccc1[C@@H]1C[N@@H+](Cc2cc3c(cc2C)OCO3)C[C@H]1C(=O)OCCOCCOCCOCCOC(=O)c1ccc(-c2c3nc(c(-c4c(F)cccc4F)c4ccc([nH]4)c(-c4c(F)cccc4F)c4nc(c(-c5c(F)cccc5F)c5ccc2[nH]5)C=C4)C=C3)cc1
REMARK SMILES IDX 33 1 32 2 31 3 30 4 29 5 28 6 27 7 25 8 26 9 24 10 9 11
REMARK SMILES IDX 10 12 11 13 23 14 8 16 3 17 4 18 5 19 7 20 6 21 2 22 1 23
REMARK SMILES IDX 12 24 13 25 14 26 18 27 15 28 17 29 19 30 16 31 22 32 20 33
REMARK SMILES IDX 21 34 34 35 35 36 36 37 37 38 38 39 39 40 40 41 41 42 42 43
REMARK SMILES IDX 43 44 95 45 44 46 94 47 45 48 46 49 47 50 88 51 48 52 93 53
REMARK SMILES IDX 87 54 89 55 49 56 92 57 86 58 85 59 50 61 76 62 59 63 75 64
REMARK SMILES IDX 60 65 63 66 74 67 90 68 61 69 62 70 73 72 91 73 64 74 51 75
REMARK SMILES IDX 52 76 57 77 53 78 54 79 56 80 58 81 55 82 77 83 78 84 83 85
REMARK SMILES IDX 79 86 80 87 82 88 84 89 81 90 65 91 66 92 71 93 67 94 68 95
REMARK SMILES IDX 70 96 72 97 69 98
REMARK H PARENT 11 15 89 60 63 71
REMARK Flexibility Score: inf
ROOT
ATOM      1  O   UNL A   1      39.377  25.197  27.516  1.00  0.00    -0.377 OA
ENDROOT
BRANCH   1   2
ATOM      2  C   UNL A   1      38.594  24.128  27.036  1.00  0.00     0.188 C 
BRANCH   2   3
ATOM      3  C   UNL A   1      37.475  24.263  26.002  1.00  0.00     0.188 C 
BRANCH   3   4
ATOM      4  O   UNL A   1      36.758  23.109  25.624  1.00  0.00    -0.376 OA
BRANCH   4   5
ATOM      5  C   UNL A   1      36.539  22.747  24.274  1.00  0.00     0.202 C 
BRANCH   5   6
ATOM      6  C   UNL A   1      35.307  23.166  23.458  1.00  0.00     0.261 C 
BRANCH   6   7
ATOM      7  O   UNL A   1      34.788  24.493  23.688  1.00  0.00    -0.463 OA
BRANCH   7   8
ATOM      8  C   UNL A   1      33.456  24.623  23.469  1.00  0.00     0.315 C 
ATOM      9  O   UNL A   1      32.875  24.000  22.577  1.00  0.00    -0.252 OA
BRANCH   8  10
ATOM     10  C   UNL A   1      32.631  25.514  24.398  1.00  0.00     0.167 C 
ATOM     11  C   UNL A   1      31.121  25.832  24.400  1.00  0.00     0.098 C 
ATOM     12  C   UNL A   1      30.745  25.863  25.889  1.00  0.00     0.272 C 
ATOM     13  N   UNL A   1      31.658  24.947  26.565  1.00  0.00    -0.330 N 
ATOM     14  C   UNL A   1      32.922  25.043  25.834  1.00  0.00     0.278 C 
ATOM     15  H   UNL A   1      31.797  25.224  27.537  1.00  0.00     0.348 HD
BRANCH  11  16
ATOM     16  C   UNL A   1      30.550  27.105  23.751  1.00  0.00     0.004 A 
ATOM     17  C   UNL A   1      31.230  28.280  23.375  1.00  0.00     0.122 A 
ATOM     18  C   UNL A   1      30.551  29.304  22.681  1.00  0.00     0.047 A 
ATOM     19  C   UNL A   1      29.173  29.244  22.472  1.00  0.00     0.004 A 
ATOM     20  C   UNL A   1      29.139  27.120  23.603  1.00  0.00     0.008 A 
ATOM     21  C   UNL A   1      28.459  28.178  22.994  1.00  0.00     0.001 A 
BRANCH  17  22
ATOM     22  O   UNL A   1      32.382  28.708  23.986  1.00  0.00    -0.496 OA
ATOM     23  C   UNL A   1      32.279  29.284  25.275  1.00  0.00     0.278 C 
ENDBRANCH  17  22
ENDBRANCH  11  16
BRANCH  13  24
ATOM     24  C   UNL A   1      31.141  23.592  26.795  1.00  0.00     0.299 C 
BRANCH  24  25
ATOM     25  C   UNL A   1      32.017  22.429  26.367  1.00  0.00     0.013 A 
ATOM     26  C   UNL A   1      31.613  21.711  25.223  1.00  0.00     0.060 A 
ATOM     27  C   UNL A   1      33.215  22.049  27.039  1.00  0.00    -0.038 A 
ATOM     28  C   UNL A   1      32.436  20.721  24.751  1.00  0.00     0.166 A 
ATOM     29  C   UNL A   1      34.076  21.103  26.455  1.00  0.00     0.054 A 
ATOM     30  C   UNL A   1      33.620  22.561  28.393  1.00  0.00     0.045 C 
ATOM     31  C   UNL A   1      33.650  20.452  25.327  1.00  0.00     0.166 A 
ATOM     32  O   UNL A   1      32.160  19.886  23.717  1.00  0.00    -0.454 OA
ATOM     33  O   UNL A   1      34.302  19.433  24.713  1.00  0.00    -0.454 OA
ATOM     34  C   UNL A   1      33.217  18.933  23.907  1.00  0.00     0.468 C 
ENDBRANCH  24  25
ENDBRANCH  13  24
ENDBRANCH   8  10
ENDBRANCH   7   8
ENDBRANCH   6   7
ENDBRANCH   5   6
ENDBRANCH   4   5
ENDBRANCH   3   4
ENDBRANCH   2   3
ENDBRANCH   1   2
BRANCH   1  35
ATOM     35  C   UNL A   1      40.606  25.469  26.893  1.00  0.00     0.188 C 
BRANCH  35  36
ATOM     36  C   UNL A   1      41.393  24.197  26.550  1.00  0.00     0.188 C 
BRANCH  36  37
ATOM     37  O   UNL A   1      42.112  24.073  25.330  1.00  0.00    -0.376 OA
BRANCH  37  38
ATOM     38  C   UNL A   1      43.034  23.021  25.100  1.00  0.00     0.202 C 
BRANCH  38  39
ATOM     39  C   UNL A   1      43.588  22.141  26.238  1.00  0.00     0.261 C 
BRANCH  39  40
ATOM     40  O   UNL A   1      44.753  22.586  26.939  1.00  0.00    -0.460 OA
BRANCH  40  41
ATOM     41  C   UNL A   1      45.865  22.723  26.185  1.00  0.00     0.338 C 
ATOM     42  O   UNL A   1      46.389  21.888  25.477  1.00  0.00    -0.246 OA
BRANCH  41  43
ATOM     43  C   UNL A   1      46.334  24.121  26.279  1.00  0.00     0.060 A 
ATOM     44  C   UNL A   1      46.172  24.963  25.172  1.00  0.00     0.016 A 
ATOM     45  C   UNL A   1      47.005  24.571  27.417  1.00  0.00     0.016 A 
ATOM     46  C   UNL A   1      46.704  26.254  25.183  1.00  0.00     0.010 A 
ATOM     47  C   UNL A   1      47.565  25.854  27.416  1.00  0.00     0.010 A 
ATOM     48  C   UNL A   1      47.436  26.696  26.289  1.00  0.00    -0.014 A 
BRANCH  48  49
ATOM     49  C   UNL A   1      48.230  27.948  26.210  1.00  0.00     0.031 A 
ATOM     50  C   UNL A   1      47.516  29.242  26.487  1.00  0.00     0.074 A 
ATOM     51  C   UNL A   1      49.543  27.956  25.910  1.00  0.00     0.049 A 
ATOM     52  N   UNL A   1      47.972  30.466  26.440  1.00  0.00    -0.248 NA
ATOM     53  C   UNL A   1      46.104  29.140  26.894  1.00  0.00     0.031 C 
ATOM     54  C   UNL A   1      50.384  26.777  25.728  1.00  0.00     0.029 A 
ATOM     55  N   UNL A   1      50.398  29.006  25.674  1.00  0.00    -0.354 N 
ATOM     56  C   UNL A   1      46.912  31.272  26.831  1.00  0.00     0.074 A 
ATOM     57  C   UNL A   1      45.773  30.412  27.052  1.00  0.00     0.031 C 
ATOM     58  C   UNL A   1      51.602  27.160  25.308  1.00  0.00     0.029 A 
ATOM     59  C   UNL A   1      51.642  28.617  25.231  1.00  0.00     0.049 A 
ATOM     60  H   UNL A   1      50.145  29.947  25.808  1.00  0.00     0.167 HD
ATOM     61  C   UNL A   1      46.898  32.611  27.016  1.00  0.00     0.037 A 
ATOM     62  C   UNL A   1      52.690  29.354  24.815  1.00  0.00     0.037 A 
ATOM     63  C   UNL A   1      48.031  33.467  26.794  1.00  0.00     0.049 A 
ATOM     64  C   UNL A   1      52.608  30.856  24.910  1.00  0.00     0.074 A 
ATOM     65  C   UNL A   1      48.125  34.834  26.983  1.00  0.00     0.029 A 
ATOM     66  N   UNL A   1      49.259  33.040  26.314  1.00  0.00    -0.354 N 
ATOM     67  N   UNL A   1      51.622  31.602  25.345  1.00  0.00    -0.248 NA
ATOM     68  C   UNL A   1      53.798  31.616  24.497  1.00  0.00     0.031 C 
ATOM     69  C   UNL A   1      49.390  35.245  26.554  1.00  0.00     0.029 A 
ATOM     70  C   UNL A   1      50.106  34.126  26.162  1.00  0.00     0.049 A 
ATOM     71  H   UNL A   1      49.496  32.106  26.113  1.00  0.00     0.167 HD
ATOM     72  C   UNL A   1      52.093  32.909  25.316  1.00  0.00     0.074 A 
ATOM     73  C   UNL A   1      53.452  32.853  24.821  1.00  0.00     0.031 C 
ATOM     74  C   UNL A   1      51.462  34.052  25.680  1.00  0.00     0.037 A 
BRANCH  61  75
ATOM     75  C   UNL A   1      45.613  33.236  27.468  1.00  0.00     0.057 A 
ATOM     76  C   UNL A   1      45.265  33.316  28.822  1.00  0.00     0.134 A 
ATOM     77  C   UNL A   1      44.735  33.804  26.537  1.00  0.00     0.134 A 
ATOM     78  F   UNL A   1      46.053  32.772  29.762  1.00  0.00    -0.206 F 
ATOM     79  C   UNL A   1      44.082  33.934  29.234  1.00  0.00     0.040 A 
ATOM     80  C   UNL A   1      43.564  34.446  26.938  1.00  0.00     0.040 A 
ATOM     81  F   UNL A   1      45.010  33.756  25.225  1.00  0.00    -0.206 F 
ATOM     82  C   UNL A   1      43.234  34.511  28.291  1.00  0.00     0.006 A 
ENDBRANCH  61  75
BRANCH  62  83
ATOM     83  C   UNL A   1      53.923  28.702  24.293  1.00  0.00     0.057 A 
ATOM     84  C   UNL A   1      54.082  28.431  22.929  1.00  0.00     0.134 A 
ATOM     85  C   UNL A   1      54.939  28.272  25.155  1.00  0.00     0.134 A 
ATOM     86  F   UNL A   1      53.135  28.799  22.053  1.00  0.00    -0.206 F 
ATOM     87  C   UNL A   1      55.185  27.723  22.445  1.00  0.00     0.040 A 
ATOM     88  C   UNL A   1      56.060  27.585  24.682  1.00  0.00     0.040 A 
ATOM     89  F   UNL A   1      54.852  28.502  26.474  1.00  0.00    -0.206 F 
ATOM     90  C   UNL A   1      56.178  27.297  23.324  1.00  0.00     0.006 A 
ENDBRANCH  62  83
BRANCH  74  91
ATOM     91  C   UNL A   1      52.247  35.330  25.607  1.00  0.00     0.057 A 
ATOM     92  C   UNL A   1      53.031  35.783  26.673  1.00  0.00     0.134 A 
ATOM     93  C   UNL A   1      52.252  36.092  24.430  1.00  0.00     0.134 A 
ATOM     94  F   UNL A   1      53.063  35.106  27.831  1.00  0.00    -0.206 F 
ATOM     95  C   UNL A   1      53.769  36.965  26.584  1.00  0.00     0.040 A 
ATOM     96  C   UNL A   1      53.011  37.256  24.317  1.00  0.00     0.040 A 
ATOM     97  F   UNL A   1      51.531  35.708  23.365  1.00  0.00    -0.206 F 
ATOM     98  C   UNL A   1      53.767  37.700  25.400  1.00  0.00     0.006 A 
ENDBRANCH  74  91
ENDBRANCH  48  49
ENDBRANCH  41  43
ENDBRANCH  40  41
ENDBRANCH  39  40
ENDBRANCH  38  39
ENDBRANCH  37  38
ENDBRANCH  36  37
ENDBRANCH  35  36
ENDBRANCH   1  35
TORSDOF 24
ENDMDL
