MODEL 1
REMARK VINA RESULT:     -10.8      0.000      0.000
REMARK SMILES Cc1ccnc(C(=O)c2[nH]c3cc(Cl)c(F)cc3c2CC(=O)OCCOCCOCCOCCOC(=O)c2ccc(-c3c4nc(c(-c5c(F)cccc5F)c5ccc([nH]5)c(-c5c(F)cccc5F)c5nc(c(-c6c(F)cccc6F)c6ccc3[nH]6)C=C5)C=C4)cc2)c1
REMARK SMILES IDX 28 1 27 2 26 3 25 4 24 5 23 6 21 7 22 8 20 9 19 10 9 11
REMARK SMILES IDX 10 12 11 13 18 15 12 16 17 17 13 18 15 19 14 20 16 21 7 22
REMARK SMILES IDX 8 23 6 24 1 25 2 26 3 27 92 28 4 29 5 30 29 31 30 32 31 33
REMARK SMILES IDX 32 34 33 35 34 36 35 37 36 38 37 39 38 40 39 41 91 42 40 43
REMARK SMILES IDX 90 44 41 45 42 46 43 47 84 48 44 49 89 50 83 51 85 52 45 53
REMARK SMILES IDX 88 54 82 55 81 56 46 58 72 59 55 60 71 61 56 62 59 63 70 64
REMARK SMILES IDX 86 65 57 66 58 67 69 69 87 70 60 71 47 72 48 73 53 74 49 75
REMARK SMILES IDX 50 76 52 77 54 78 51 79 73 80 74 81 79 82 75 83 76 84 78 85
REMARK SMILES IDX 80 86 77 87 61 88 62 89 67 90 63 91 64 92 66 93 68 94 65 95
REMARK H PARENT 10 14 85 57 59 68
REMARK Flexibility Score: inf
ROOT
ATOM      1  C   UNL A   1      34.462  31.094  27.644  1.00  0.00     0.188 C 
ENDROOT
BRANCH   1   2
ATOM      2  C   UNL A   1      33.047  30.724  27.196  1.00  0.00     0.188 C 
BRANCH   2   3
ATOM      3  O   UNL A   1      33.026  29.614  26.322  1.00  0.00    -0.376 OA
BRANCH   3   4
ATOM      4  C   UNL A   1      31.782  28.927  26.365  1.00  0.00     0.202 C 
BRANCH   4   5
ATOM      5  C   UNL A   1      31.994  27.437  26.661  1.00  0.00     0.261 C 
BRANCH   5   6
ATOM      6  O   UNL A   1      30.790  26.687  26.335  1.00  0.00    -0.463 OA
BRANCH   6   7
ATOM      7  C   UNL A   1      31.002  25.477  25.756  1.00  0.00     0.310 C 
ATOM      8  O   UNL A   1      31.514  24.535  26.358  1.00  0.00    -0.252 OA
BRANCH   7   9
ATOM      9  C   UNL A   1      30.456  25.319  24.341  1.00  0.00     0.161 C 
BRANCH   9  10
ATOM     10  C   UNL A   1      30.664  26.414  23.312  1.00  0.00     0.000 A 
ATOM     11  C   UNL A   1      31.826  26.719  22.567  1.00  0.00     0.093 A 
ATOM     12  N   UNL A   1      31.599  27.961  21.999  1.00  0.00    -0.351 N 
ATOM     13  C   UNL A   1      30.346  28.442  22.295  1.00  0.00     0.048 A 
ATOM     14  H   UNL A   1      32.258  28.442  21.448  1.00  0.00     0.167 HD
ATOM     15  C   UNL A   1      29.719  27.487  23.090  1.00  0.00     0.007 A 
ATOM     16  C   UNL A   1      29.746  29.667  21.958  1.00  0.00     0.050 A 
ATOM     17  C   UNL A   1      28.412  27.760  23.554  1.00  0.00     0.051 A 
ATOM     18  C   UNL A   1      28.452  29.910  22.430  1.00  0.00     0.078 A 
ATOM     19  C   UNL A   1      27.794  28.966  23.207  1.00  0.00     0.142 A 
ATOM     20  Cl  UNL A   1      27.688  31.408  22.043  1.00  0.00    -0.081 Cl
ATOM     21  F   UNL A   1      26.552  29.197  23.658  1.00  0.00    -0.205 F 
BRANCH  11  22
ATOM     22  C   UNL A   1      33.197  26.174  22.572  1.00  0.00     0.227 C 
ATOM     23  O   UNL A   1      34.032  26.696  21.835  1.00  0.00    -0.285 OA
BRANCH  22  24
ATOM     24  C   UNL A   1      33.614  24.930  23.358  1.00  0.00     0.113 A 
ATOM     25  C   UNL A   1      35.995  23.697  26.106  1.00  0.00     0.044 C 
ATOM     26  C   UNL A   1      34.920  23.760  25.049  1.00  0.00    -0.047 A 
ATOM     27  C   UNL A   1      34.438  22.559  24.550  1.00  0.00     0.023 A 
ATOM     28  C   UNL A   1      34.434  24.957  24.476  1.00  0.00     0.036 A 
ATOM     29  C   UNL A   1      33.546  22.605  23.495  1.00  0.00     0.112 A 
ATOM     30  N   UNL A   1      33.150  23.746  22.878  1.00  0.00    -0.253 NA
ENDBRANCH  22  24
ENDBRANCH  11  22
ENDBRANCH   9  10
ENDBRANCH   7   9
ENDBRANCH   6   7
ENDBRANCH   5   6
ENDBRANCH   4   5
ENDBRANCH   3   4
ENDBRANCH   2   3
ENDBRANCH   1   2
BRANCH   1  31
ATOM     31  O   UNL A   1      34.399  32.096  28.661  1.00  0.00    -0.377 OA
BRANCH  31  32
ATOM     32  C   UNL A   1      33.659  33.258  28.282  1.00  0.00     0.188 C 
BRANCH  32  33
ATOM     33  C   UNL A   1      34.628  34.428  28.100  1.00  0.00     0.188 C 
BRANCH  33  34
ATOM     34  O   UNL A   1      34.117  35.697  28.495  1.00  0.00    -0.376 OA
BRANCH  34  35
ATOM     35  C   UNL A   1      32.947  35.668  29.314  1.00  0.00     0.202 C 
BRANCH  35  36
ATOM     36  C   UNL A   1      33.134  36.146  30.765  1.00  0.00     0.261 C 
BRANCH  36  37
ATOM     37  O   UNL A   1      33.430  35.030  31.629  1.00  0.00    -0.460 OA
BRANCH  37  38
ATOM     38  C   UNL A   1      34.291  35.303  32.658  1.00  0.00     0.338 C 
ATOM     39  O   UNL A   1      34.061  35.971  33.637  1.00  0.00    -0.246 OA
BRANCH  38  40
ATOM     40  C   UNL A   1      35.414  34.327  32.546  1.00  0.00     0.060 A 
ATOM     41  C   UNL A   1      36.734  34.762  32.454  1.00  0.00     0.016 A 
ATOM     42  C   UNL A   1      35.083  32.999  32.217  1.00  0.00     0.016 A 
ATOM     43  C   UNL A   1      37.697  33.893  31.945  1.00  0.00     0.010 A 
ATOM     44  C   UNL A   1      36.058  32.128  31.712  1.00  0.00     0.010 A 
ATOM     45  C   UNL A   1      37.369  32.577  31.551  1.00  0.00    -0.014 A 
BRANCH  45  46
ATOM     46  C   UNL A   1      38.502  31.680  31.249  1.00  0.00     0.031 A 
ATOM     47  C   UNL A   1      39.332  31.386  32.452  1.00  0.00     0.074 A 
ATOM     48  C   UNL A   1      38.801  30.976  30.135  1.00  0.00     0.049 A 
ATOM     49  N   UNL A   1      40.594  31.606  32.630  1.00  0.00    -0.248 NA
ATOM     50  C   UNL A   1      38.625  30.862  33.630  1.00  0.00     0.031 C 
ATOM     51  C   UNL A   1      38.004  30.814  28.924  1.00  0.00     0.029 A 
ATOM     52  N   UNL A   1      39.887  30.160  29.905  1.00  0.00    -0.354 N 
ATOM     53  C   UNL A   1      40.878  31.114  33.896  1.00  0.00     0.074 A 
ATOM     54  C   UNL A   1      39.619  30.774  34.511  1.00  0.00     0.031 C 
ATOM     55  C   UNL A   1      38.531  29.819  28.173  1.00  0.00     0.029 A 
ATOM     56  C   UNL A   1      39.752  29.330  28.801  1.00  0.00     0.049 A 
ATOM     57  H   UNL A   1      40.690  30.166  30.474  1.00  0.00     0.167 HD
ATOM     58  C   UNL A   1      42.140  30.843  34.316  1.00  0.00     0.037 A 
ATOM     59  C   UNL A   1      40.537  28.277  28.452  1.00  0.00     0.037 A 
ATOM     60  C   UNL A   1      43.150  31.488  33.530  1.00  0.00     0.049 A 
ATOM     61  C   UNL A   1      41.840  28.387  29.151  1.00  0.00     0.074 A 
ATOM     62  C   UNL A   1      43.425  32.799  33.189  1.00  0.00     0.029 A 
ATOM     63  N   UNL A   1      43.932  30.724  32.702  1.00  0.00    -0.354 N 
ATOM     64  N   UNL A   1      42.807  29.191  28.821  1.00  0.00    -0.248 NA
ATOM     65  C   UNL A   1      41.974  27.764  30.459  1.00  0.00     0.031 C 
ATOM     66  C   UNL A   1      43.976  32.740  31.877  1.00  0.00     0.029 A 
ATOM     67  C   UNL A   1      44.015  31.397  31.508  1.00  0.00     0.049 A 
ATOM     68  H   UNL A   1      44.353  29.861  32.921  1.00  0.00     0.167 HD
ATOM     69  C   UNL A   1      43.408  29.529  30.022  1.00  0.00     0.074 A 
ATOM     70  C   UNL A   1      42.954  28.515  30.964  1.00  0.00     0.031 C 
ATOM     71  C   UNL A   1      43.987  30.751  30.214  1.00  0.00     0.037 A 
BRANCH  58  72
ATOM     72  C   UNL A   1      42.424  29.754  35.301  1.00  0.00     0.057 A 
ATOM     73  C   UNL A   1      43.351  29.944  36.333  1.00  0.00     0.134 A 
ATOM     74  C   UNL A   1      41.958  28.434  35.127  1.00  0.00     0.134 A 
ATOM     75  F   UNL A   1      43.907  31.146  36.541  1.00  0.00    -0.206 F 
ATOM     76  C   UNL A   1      43.775  28.889  37.148  1.00  0.00     0.040 A 
ATOM     77  C   UNL A   1      42.332  27.386  35.966  1.00  0.00     0.040 A 
ATOM     78  F   UNL A   1      41.182  28.095  34.087  1.00  0.00    -0.206 F 
ATOM     79  C   UNL A   1      43.256  27.608  36.974  1.00  0.00     0.006 A 
ENDBRANCH  58  72
BRANCH  59  80
ATOM     80  C   UNL A   1      40.187  27.060  27.677  1.00  0.00     0.057 A 
ATOM     81  C   UNL A   1      40.783  26.778  26.437  1.00  0.00     0.134 A 
ATOM     82  C   UNL A   1      39.447  26.011  28.250  1.00  0.00     0.134 A 
ATOM     83  F   UNL A   1      41.552  27.689  25.823  1.00  0.00    -0.206 F 
ATOM     84  C   UNL A   1      40.656  25.530  25.811  1.00  0.00     0.040 A 
ATOM     85  C   UNL A   1      39.302  24.765  27.631  1.00  0.00     0.040 A 
ATOM     86  F   UNL A   1      38.908  26.131  29.472  1.00  0.00    -0.206 F 
ATOM     87  C   UNL A   1      39.917  24.516  26.412  1.00  0.00     0.006 A 
ENDBRANCH  59  80
BRANCH  71  88
ATOM     88  C   UNL A   1      44.348  31.591  29.015  1.00  0.00     0.057 A 
ATOM     89  C   UNL A   1      43.584  32.653  28.517  1.00  0.00     0.134 A 
ATOM     90  C   UNL A   1      45.582  31.364  28.384  1.00  0.00     0.134 A 
ATOM     91  F   UNL A   1      42.460  33.064  29.120  1.00  0.00    -0.206 F 
ATOM     92  C   UNL A   1      43.987  33.370  27.387  1.00  0.00     0.040 A 
ATOM     93  C   UNL A   1      46.035  32.149  27.318  1.00  0.00     0.040 A 
ATOM     94  F   UNL A   1      46.394  30.384  28.812  1.00  0.00    -0.206 F 
ATOM     95  C   UNL A   1      45.227  33.150  26.804  1.00  0.00     0.006 A 
ENDBRANCH  71  88
ENDBRANCH  45  46
ENDBRANCH  38  40
ENDBRANCH  37  38
ENDBRANCH  36  37
ENDBRANCH  35  36
ENDBRANCH  34  35
ENDBRANCH  33  34
ENDBRANCH  32  33
ENDBRANCH  31  32
ENDBRANCH   1  31
TORSDOF 23
ENDMDL
MODEL 2
REMARK VINA RESULT:     -10.7      4.458      9.841
REMARK SMILES Cc1ccnc(C(=O)c2[nH]c3cc(Cl)c(F)cc3c2CC(=O)OCCOCCOCCOCCOC(=O)c2ccc(-c3c4nc(c(-c5c(F)cccc5F)c5ccc([nH]5)c(-c5c(F)cccc5F)c5nc(c(-c6c(F)cccc6F)c6ccc3[nH]6)C=C5)C=C4)cc2)c1
REMARK SMILES IDX 28 1 27 2 26 3 25 4 24 5 23 6 21 7 22 8 20 9 19 10 9 11
REMARK SMILES IDX 10 12 11 13 18 15 12 16 17 17 13 18 15 19 14 20 16 21 7 22
REMARK SMILES IDX 8 23 6 24 1 25 2 26 3 27 92 28 4 29 5 30 29 31 30 32 31 33
REMARK SMILES IDX 32 34 33 35 34 36 35 37 36 38 37 39 38 40 39 41 91 42 40 43
REMARK SMILES IDX 90 44 41 45 42 46 43 47 84 48 44 49 89 50 83 51 85 52 45 53
REMARK SMILES IDX 88 54 82 55 81 56 46 58 72 59 55 60 71 61 56 62 59 63 70 64
REMARK SMILES IDX 86 65 57 66 58 67 69 69 87 70 60 71 47 72 48 73 53 74 49 75
REMARK SMILES IDX 50 76 52 77 54 78 51 79 73 80 74 81 79 82 75 83 76 84 78 85
REMARK SMILES IDX 80 86 77 87 61 88 62 89 67 90 63 91 64 92 66 93 68 94 65 95
REMARK H PARENT 10 14 85 57 59 68
REMARK Flexibility Score: inf
ROOT
ATOM      1  C   UNL A   1      38.631  20.927  25.739  1.00  0.00     0.188 C 
ENDROOT
BRANCH   1   2
ATOM      2  C   UNL A   1      38.123  22.315  25.342  1.00  0.00     0.188 C 
BRANCH   2   3
ATOM      3  O   UNL A   1      36.720  22.432  25.457  1.00  0.00    -0.376 OA
BRANCH   3   4
ATOM      4  C   UNL A   1      36.052  21.983  24.284  1.00  0.00     0.202 C 
BRANCH   4   5
ATOM      5  C   UNL A   1      35.692  23.167  23.377  1.00  0.00     0.261 C 
BRANCH   5   6
ATOM      6  O   UNL A   1      34.413  23.733  23.778  1.00  0.00    -0.463 OA
BRANCH   6   7
ATOM      7  C   UNL A   1      33.484  23.820  22.791  1.00  0.00     0.310 C 
ATOM      8  O   UNL A   1      33.693  24.415  21.737  1.00  0.00    -0.252 OA
BRANCH   7   9
ATOM      9  C   UNL A   1      32.200  23.029  23.023  1.00  0.00     0.161 C 
BRANCH   9  10
ATOM     10  C   UNL A   1      32.108  22.034  24.164  1.00  0.00     0.000 A 
ATOM     11  C   UNL A   1      32.020  22.286  25.551  1.00  0.00     0.093 A 
ATOM     12  N   UNL A   1      32.253  21.071  26.174  1.00  0.00    -0.351 N 
ATOM     13  C   UNL A   1      32.434  20.054  25.269  1.00  0.00     0.048 A 
ATOM     14  H   UNL A   1      32.285  20.951  27.151  1.00  0.00     0.167 HD
ATOM     15  C   UNL A   1      32.319  20.612  23.998  1.00  0.00     0.007 A 
ATOM     16  C   UNL A   1      32.736  18.698  25.481  1.00  0.00     0.050 A 
ATOM     17  C   UNL A   1      32.492  19.765  22.881  1.00  0.00     0.051 A 
ATOM     18  C   UNL A   1      32.901  17.883  24.356  1.00  0.00     0.078 A 
ATOM     19  C   UNL A   1      32.771  18.409  23.077  1.00  0.00     0.142 A 
ATOM     20  Cl  UNL A   1      33.281  16.216  24.580  1.00  0.00    -0.081 Cl
ATOM     21  F   UNL A   1      32.927  17.628  21.998  1.00  0.00    -0.205 F 
BRANCH  11  22
ATOM     22  C   UNL A   1      32.064  23.522  26.356  1.00  0.00     0.227 C 
ATOM     23  O   UNL A   1      32.426  23.440  27.528  1.00  0.00    -0.285 OA
BRANCH  22  24
ATOM     24  C   UNL A   1      31.581  24.882  25.849  1.00  0.00     0.113 A 
ATOM     25  C   UNL A   1      28.708  26.613  23.981  1.00  0.00     0.044 C 
ATOM     26  C   UNL A   1      29.981  26.352  24.748  1.00  0.00    -0.047 A 
ATOM     27  C   UNL A   1      30.929  27.364  24.783  1.00  0.00     0.023 A 
ATOM     28  C   UNL A   1      30.306  25.120  25.359  1.00  0.00     0.036 A 
ATOM     29  C   UNL A   1      32.148  27.091  25.374  1.00  0.00     0.112 A 
ATOM     30  N   UNL A   1      32.502  25.882  25.876  1.00  0.00    -0.253 NA
ENDBRANCH  22  24
ENDBRANCH  11  22
ENDBRANCH   9  10
ENDBRANCH   7   9
ENDBRANCH   6   7
ENDBRANCH   5   6
ENDBRANCH   4   5
ENDBRANCH   3   4
ENDBRANCH   2   3
ENDBRANCH   1   2
BRANCH   1  31
ATOM     31  O   UNL A   1      40.026  20.993  26.043  1.00  0.00    -0.377 OA
BRANCH  31  32
ATOM     32  C   UNL A   1      40.626  19.718  26.280  1.00  0.00     0.188 C 
BRANCH  32  33
ATOM     33  C   UNL A   1      42.129  19.818  26.012  1.00  0.00     0.188 C 
BRANCH  33  34
ATOM     34  O   UNL A   1      42.635  18.874  25.074  1.00  0.00    -0.376 OA
BRANCH  34  35
ATOM     35  C   UNL A   1      44.054  18.713  25.058  1.00  0.00     0.202 C 
BRANCH  35  36
ATOM     36  C   UNL A   1      44.854  19.732  25.888  1.00  0.00     0.261 C 
BRANCH  36  37
ATOM     37  O   UNL A   1      45.784  20.446  25.049  1.00  0.00    -0.460 OA
BRANCH  37  38
ATOM     38  C   UNL A   1      45.213  21.228  24.080  1.00  0.00     0.338 C 
ATOM     39  O   UNL A   1      44.769  20.860  23.020  1.00  0.00    -0.246 OA
BRANCH  38  40
ATOM     40  C   UNL A   1      44.891  22.536  24.722  1.00  0.00     0.060 A 
ATOM     41  C   UNL A   1      45.680  23.040  25.754  1.00  0.00     0.016 A 
ATOM     42  C   UNL A   1      43.613  23.074  24.482  1.00  0.00     0.016 A 
ATOM     43  C   UNL A   1      45.148  24.015  26.596  1.00  0.00     0.010 A 
ATOM     44  C   UNL A   1      43.087  24.059  25.328  1.00  0.00     0.010 A 
ATOM     45  C   UNL A   1      43.843  24.521  26.406  1.00  0.00    -0.014 A 
BRANCH  45  46
ATOM     46  C   UNL A   1      43.475  25.706  27.207  1.00  0.00     0.031 A 
ATOM     47  C   UNL A   1      44.441  26.829  27.040  1.00  0.00     0.074 A 
ATOM     48  C   UNL A   1      42.357  25.985  27.911  1.00  0.00     0.049 A 
ATOM     49  N   UNL A   1      45.141  27.427  27.948  1.00  0.00    -0.248 NA
ATOM     50  C   UNL A   1      44.715  27.265  25.662  1.00  0.00     0.031 C 
ATOM     51  C   UNL A   1      41.118  25.218  27.988  1.00  0.00     0.029 A 
ATOM     52  N   UNL A   1      42.073  27.109  28.655  1.00  0.00    -0.354 N 
ATOM     53  C   UNL A   1      45.842  28.419  27.277  1.00  0.00     0.074 A 
ATOM     54  C   UNL A   1      45.635  28.205  25.866  1.00  0.00     0.031 C 
ATOM     55  C   UNL A   1      40.160  25.976  28.571  1.00  0.00     0.029 A 
ATOM     56  C   UNL A   1      40.734  27.247  28.992  1.00  0.00     0.049 A 
ATOM     57  H   UNL A   1      42.762  27.759  28.925  1.00  0.00     0.167 HD
ATOM     58  C   UNL A   1      46.415  29.475  27.911  1.00  0.00     0.037 A 
ATOM     59  C   UNL A   1      40.116  28.338  29.516  1.00  0.00     0.037 A 
ATOM     60  C   UNL A   1      46.600  29.261  29.315  1.00  0.00     0.049 A 
ATOM     61  C   UNL A   1      41.134  29.235  30.115  1.00  0.00     0.074 A 
ATOM     62  C   UNL A   1      47.252  28.307  30.075  1.00  0.00     0.029 A 
ATOM     63  N   UNL A   1      45.817  29.957  30.199  1.00  0.00    -0.354 N 
ATOM     64  N   UNL A   1      41.726  29.046  31.258  1.00  0.00    -0.248 NA
ATOM     65  C   UNL A   1      41.733  30.257  29.271  1.00  0.00     0.031 C 
ATOM     66  C   UNL A   1      46.473  28.170  31.259  1.00  0.00     0.029 A 
ATOM     67  C   UNL A   1      45.404  29.059  31.153  1.00  0.00     0.049 A 
ATOM     68  H   UNL A   1      45.593  30.915  30.159  1.00  0.00     0.167 HD
ATOM     69  C   UNL A   1      42.997  29.569  31.085  1.00  0.00     0.074 A 
ATOM     70  C   UNL A   1      42.892  30.424  29.910  1.00  0.00     0.031 C 
ATOM     71  C   UNL A   1      44.080  29.048  31.733  1.00  0.00     0.037 A 
BRANCH  58  72
ATOM     72  C   UNL A   1      46.552  30.809  27.249  1.00  0.00     0.057 A 
ATOM     73  C   UNL A   1      47.800  31.433  27.144  1.00  0.00     0.134 A 
ATOM     74  C   UNL A   1      45.436  31.599  26.900  1.00  0.00     0.134 A 
ATOM     75  F   UNL A   1      48.919  30.793  27.514  1.00  0.00    -0.206 F 
ATOM     76  C   UNL A   1      47.931  32.755  26.705  1.00  0.00     0.040 A 
ATOM     77  C   UNL A   1      45.557  32.899  26.411  1.00  0.00     0.040 A 
ATOM     78  F   UNL A   1      44.181  31.168  27.095  1.00  0.00    -0.206 F 
ATOM     79  C   UNL A   1      46.809  33.488  26.326  1.00  0.00     0.006 A 
ENDBRANCH  58  72
BRANCH  59  80
ATOM     80  C   UNL A   1      38.701  28.769  29.391  1.00  0.00     0.057 A 
ATOM     81  C   UNL A   1      37.836  28.790  30.497  1.00  0.00     0.134 A 
ATOM     82  C   UNL A   1      38.227  29.411  28.233  1.00  0.00     0.134 A 
ATOM     83  F   UNL A   1      38.206  28.251  31.667  1.00  0.00    -0.206 F 
ATOM     84  C   UNL A   1      36.583  29.419  30.455  1.00  0.00     0.040 A 
ATOM     85  C   UNL A   1      36.974  30.030  28.175  1.00  0.00     0.040 A 
ATOM     86  F   UNL A   1      38.999  29.533  27.144  1.00  0.00    -0.206 F 
ATOM     87  C   UNL A   1      36.151  30.046  29.292  1.00  0.00     0.006 A 
ENDBRANCH  59  80
BRANCH  71  88
ATOM     88  C   UNL A   1      43.864  28.176  32.944  1.00  0.00     0.057 A 
ATOM     89  C   UNL A   1      43.701  26.786  32.918  1.00  0.00     0.134 A 
ATOM     90  C   UNL A   1      43.909  28.772  34.216  1.00  0.00     0.134 A 
ATOM     91  F   UNL A   1      43.788  26.083  31.780  1.00  0.00    -0.206 F 
ATOM     92  C   UNL A   1      43.489  26.057  34.091  1.00  0.00     0.040 A 
ATOM     93  C   UNL A   1      43.801  28.029  35.396  1.00  0.00     0.040 A 
ATOM     94  F   UNL A   1      44.088  30.097  34.339  1.00  0.00    -0.206 F 
ATOM     95  C   UNL A   1      43.575  26.663  35.336  1.00  0.00     0.006 A 
ENDBRANCH  71  88
ENDBRANCH  45  46
ENDBRANCH  38  40
ENDBRANCH  37  38
ENDBRANCH  36  37
ENDBRANCH  35  36
ENDBRANCH  34  35
ENDBRANCH  33  34
ENDBRANCH  32  33
ENDBRANCH  31  32
ENDBRANCH   1  31
TORSDOF 23
ENDMDL
MODEL 3
REMARK VINA RESULT:     -10.6      2.179      3.117
REMARK SMILES Cc1ccnc(C(=O)c2[nH]c3cc(Cl)c(F)cc3c2CC(=O)OCCOCCOCCOCCOC(=O)c2ccc(-c3c4nc(c(-c5c(F)cccc5F)c5ccc([nH]5)c(-c5c(F)cccc5F)c5nc(c(-c6c(F)cccc6F)c6ccc3[nH]6)C=C5)C=C4)cc2)c1
REMARK SMILES IDX 28 1 27 2 26 3 25 4 24 5 23 6 21 7 22 8 20 9 19 10 9 11
REMARK SMILES IDX 10 12 11 13 18 15 12 16 17 17 13 18 15 19 14 20 16 21 7 22
REMARK SMILES IDX 8 23 6 24 1 25 2 26 3 27 92 28 4 29 5 30 29 31 30 32 31 33
REMARK SMILES IDX 32 34 33 35 34 36 35 37 36 38 37 39 38 40 39 41 91 42 40 43
REMARK SMILES IDX 90 44 41 45 42 46 43 47 84 48 44 49 89 50 83 51 85 52 45 53
REMARK SMILES IDX 88 54 82 55 81 56 46 58 72 59 55 60 71 61 56 62 59 63 70 64
REMARK SMILES IDX 86 65 57 66 58 67 69 69 87 70 60 71 47 72 48 73 53 74 49 75
REMARK SMILES IDX 50 76 52 77 54 78 51 79 73 80 74 81 79 82 75 83 76 84 78 85
REMARK SMILES IDX 80 86 77 87 61 88 62 89 67 90 63 91 64 92 66 93 68 94 65 95
REMARK H PARENT 10 14 85 57 59 68
REMARK Flexibility Score: inf
ROOT
ATOM      1  C   UNL A   1      35.100  29.609  27.314  1.00  0.00     0.188 C 
ENDROOT
BRANCH   1   2
ATOM      2  C   UNL A   1      33.794  29.586  26.517  1.00  0.00     0.188 C 
BRANCH   2   3
ATOM      3  O   UNL A   1      32.819  28.742  27.096  1.00  0.00    -0.376 OA
BRANCH   3   4
ATOM      4  C   UNL A   1      32.031  28.086  26.111  1.00  0.00     0.202 C 
BRANCH   4   5
ATOM      5  C   UNL A   1      31.743  26.637  26.522  1.00  0.00     0.261 C 
BRANCH   5   6
ATOM      6  O   UNL A   1      30.561  26.147  25.829  1.00  0.00    -0.463 OA
BRANCH   6   7
ATOM      7  C   UNL A   1      30.756  25.042  25.063  1.00  0.00     0.310 C 
ATOM      8  O   UNL A   1      31.038  23.946  25.543  1.00  0.00    -0.252 OA
BRANCH   7   9
ATOM      9  C   UNL A   1      30.487  25.218  23.572  1.00  0.00     0.161 C 
BRANCH   9  10
ATOM     10  C   UNL A   1      30.703  26.564  22.907  1.00  0.00     0.000 A 
ATOM     11  C   UNL A   1      31.896  27.107  22.378  1.00  0.00     0.093 A 
ATOM     12  N   UNL A   1      31.637  28.449  22.157  1.00  0.00    -0.351 N 
ATOM     13  C   UNL A   1      30.340  28.782  22.465  1.00  0.00     0.048 A 
ATOM     14  H   UNL A   1      32.305  29.089  21.819  1.00  0.00     0.167 HD
ATOM     15  C   UNL A   1      29.715  27.620  22.909  1.00  0.00     0.007 A 
ATOM     16  C   UNL A   1      29.694  30.030  22.429  1.00  0.00     0.050 A 
ATOM     17  C   UNL A   1      28.364  27.705  23.316  1.00  0.00     0.051 A 
ATOM     18  C   UNL A   1      28.357  30.083  22.836  1.00  0.00     0.078 A 
ATOM     19  C   UNL A   1      27.702  28.936  23.263  1.00  0.00     0.142 A 
ATOM     20  Cl  UNL A   1      27.536  31.600  22.812  1.00  0.00    -0.081 Cl
ATOM     21  F   UNL A   1      26.419  28.986  23.652  1.00  0.00    -0.205 F 
BRANCH  11  22
ATOM     22  C   UNL A   1      33.293  26.634  22.350  1.00  0.00     0.227 C 
ATOM     23  O   UNL A   1      34.120  27.300  21.731  1.00  0.00    -0.285 OA
BRANCH  22  24
ATOM     24  C   UNL A   1      33.752  25.306  22.955  1.00  0.00     0.113 A 
ATOM     25  C   UNL A   1      35.735  23.791  25.873  1.00  0.00     0.044 C 
ATOM     26  C   UNL A   1      34.886  23.956  24.637  1.00  0.00    -0.047 A 
ATOM     27  C   UNL A   1      34.713  22.847  23.822  1.00  0.00     0.023 A 
ATOM     28  C   UNL A   1      34.327  25.183  24.211  1.00  0.00     0.036 A 
ATOM     29  C   UNL A   1      34.045  23.018  22.625  1.00  0.00     0.112 A 
ATOM     30  N   UNL A   1      33.590  24.211  22.166  1.00  0.00    -0.253 NA
ENDBRANCH  22  24
ENDBRANCH  11  22
ENDBRANCH   9  10
ENDBRANCH   7   9
ENDBRANCH   6   7
ENDBRANCH   5   6
ENDBRANCH   4   5
ENDBRANCH   3   4
ENDBRANCH   2   3
ENDBRANCH   1   2
BRANCH   1  31
ATOM     31  O   UNL A   1      35.029  30.617  28.324  1.00  0.00    -0.377 OA
BRANCH  31  32
ATOM     32  C   UNL A   1      34.670  31.908  27.828  1.00  0.00     0.188 C 
BRANCH  32  33
ATOM     33  C   UNL A   1      35.854  32.859  28.011  1.00  0.00     0.188 C 
BRANCH  33  34
ATOM     34  O   UNL A   1      35.630  33.926  28.928  1.00  0.00    -0.376 OA
BRANCH  34  35
ATOM     35  C   UNL A   1      34.367  33.919  29.593  1.00  0.00     0.202 C 
BRANCH  35  36
ATOM     36  C   UNL A   1      34.401  33.580  31.095  1.00  0.00     0.261 C 
BRANCH  36  37
ATOM     37  O   UNL A   1      34.930  32.254  31.299  1.00  0.00    -0.460 OA
BRANCH  37  38
ATOM     38  C   UNL A   1      35.898  32.155  32.263  1.00  0.00     0.338 C 
ATOM     39  O   UNL A   1      35.782  32.413  33.437  1.00  0.00    -0.246 OA
BRANCH  38  40
ATOM     40  C   UNL A   1      36.991  31.319  31.687  1.00  0.00     0.060 A 
ATOM     41  C   UNL A   1      36.810  29.954  31.471  1.00  0.00     0.016 A 
ATOM     42  C   UNL A   1      38.286  31.872  31.672  1.00  0.00     0.016 A 
ATOM     43  C   UNL A   1      37.931  29.138  31.334  1.00  0.00     0.010 A 
ATOM     44  C   UNL A   1      39.408  31.046  31.527  1.00  0.00     0.010 A 
ATOM     45  C   UNL A   1      39.240  29.668  31.380  1.00  0.00    -0.014 A 
BRANCH  45  46
ATOM     46  C   UNL A   1      40.333  28.754  30.994  1.00  0.00     0.031 A 
ATOM     47  C   UNL A   1      41.207  28.393  32.146  1.00  0.00     0.074 A 
ATOM     48  C   UNL A   1      40.563  28.086  29.843  1.00  0.00     0.049 A 
ATOM     49  N   UNL A   1      42.481  28.575  32.275  1.00  0.00    -0.248 NA
ATOM     50  C   UNL A   1      40.539  27.843  33.335  1.00  0.00     0.031 C 
ATOM     51  C   UNL A   1      39.709  27.991  28.664  1.00  0.00     0.029 A 
ATOM     52  N   UNL A   1      41.615  27.252  29.534  1.00  0.00    -0.354 N 
ATOM     53  C   UNL A   1      42.807  28.027  33.508  1.00  0.00     0.074 A 
ATOM     54  C   UNL A   1      41.568  27.696  34.167  1.00  0.00     0.031 C 
ATOM     55  C   UNL A   1      40.175  27.011  27.853  1.00  0.00     0.029 A 
ATOM     56  C   UNL A   1      41.409  26.468  28.407  1.00  0.00     0.049 A 
ATOM     57  H   UNL A   1      42.442  27.216  30.066  1.00  0.00     0.167 HD
ATOM     58  C   UNL A   1      44.079  27.708  33.860  1.00  0.00     0.037 A 
ATOM     59  C   UNL A   1      42.148  25.410  27.984  1.00  0.00     0.037 A 
ATOM     60  C   UNL A   1      45.070  28.356  33.054  1.00  0.00     0.049 A 
ATOM     61  C   UNL A   1      43.484  25.459  28.627  1.00  0.00     0.074 A 
ATOM     62  C   UNL A   1      45.366  29.672  32.749  1.00  0.00     0.029 A 
ATOM     63  N   UNL A   1      45.794  27.605  32.164  1.00  0.00    -0.354 N 
ATOM     64  N   UNL A   1      44.457  26.251  28.283  1.00  0.00    -0.248 NA
ATOM     65  C   UNL A   1      43.658  24.784  29.904  1.00  0.00     0.031 C 
ATOM     66  C   UNL A   1      45.856  29.649  31.412  1.00  0.00     0.029 A 
ATOM     67  C   UNL A   1      45.842  28.320  30.992  1.00  0.00     0.049 A 
ATOM     68  H   UNL A   1      46.200  26.724  32.331  1.00  0.00     0.167 HD
ATOM     69  C   UNL A   1      45.119  26.527  29.467  1.00  0.00     0.074 A 
ATOM     70  C   UNL A   1      44.680  25.490  30.391  1.00  0.00     0.031 C 
ATOM     71  C   UNL A   1      45.739  27.726  29.679  1.00  0.00     0.037 A 
BRANCH  58  72
ATOM     72  C   UNL A   1      44.377  26.576  34.791  1.00  0.00     0.057 A 
ATOM     73  C   UNL A   1      44.093  25.255  34.426  1.00  0.00     0.134 A 
ATOM     74  C   UNL A   1      44.743  26.778  36.138  1.00  0.00     0.134 A 
ATOM     75  F   UNL A   1      43.670  24.961  33.187  1.00  0.00    -0.206 F 
ATOM     76  C   UNL A   1      44.182  24.200  35.341  1.00  0.00     0.040 A 
ATOM     77  C   UNL A   1      44.888  25.730  37.045  1.00  0.00     0.040 A 
ATOM     78  F   UNL A   1      44.899  28.009  36.646  1.00  0.00    -0.206 F 
ATOM     79  C   UNL A   1      44.592  24.434  36.651  1.00  0.00     0.006 A 
ENDBRANCH  58  72
BRANCH  59  80
ATOM     80  C   UNL A   1      41.732  24.232  27.182  1.00  0.00     0.057 A 
ATOM     81  C   UNL A   1      42.599  23.623  26.260  1.00  0.00     0.134 A 
ATOM     82  C   UNL A   1      40.559  23.517  27.480  1.00  0.00     0.134 A 
ATOM     83  F   UNL A   1      43.770  24.193  25.940  1.00  0.00    -0.206 F 
ATOM     84  C   UNL A   1      42.320  22.377  25.680  1.00  0.00     0.040 A 
ATOM     85  C   UNL A   1      40.262  22.280  26.898  1.00  0.00     0.040 A 
ATOM     86  F   UNL A   1      39.698  23.955  28.410  1.00  0.00    -0.206 F 
ATOM     87  C   UNL A   1      41.150  21.699  26.003  1.00  0.00     0.006 A 
ENDBRANCH  59  80
BRANCH  71  88
ATOM     88  C   UNL A   1      46.069  28.601  28.496  1.00  0.00     0.057 A 
ATOM     89  C   UNL A   1      47.287  28.597  27.806  1.00  0.00     0.134 A 
ATOM     90  C   UNL A   1      45.064  29.433  27.976  1.00  0.00     0.134 A 
ATOM     91  F   UNL A   1      48.274  27.743  28.111  1.00  0.00    -0.206 F 
ATOM     92  C   UNL A   1      47.513  29.457  26.727  1.00  0.00     0.040 A 
ATOM     93  C   UNL A   1      45.254  30.216  26.833  1.00  0.00     0.040 A 
ATOM     94  F   UNL A   1      43.854  29.481  28.557  1.00  0.00    -0.206 F 
ATOM     95  C   UNL A   1      46.492  30.242  26.211  1.00  0.00     0.006 A 
ENDBRANCH  71  88
ENDBRANCH  45  46
ENDBRANCH  38  40
ENDBRANCH  37  38
ENDBRANCH  36  37
ENDBRANCH  35  36
ENDBRANCH  34  35
ENDBRANCH  33  34
ENDBRANCH  32  33
ENDBRANCH  31  32
ENDBRANCH   1  31
TORSDOF 23
ENDMDL
