MODEL 1
REMARK VINA RESULT:      -8.1      0.000      0.000
REMARK SMILES CCCCCCCNC(=O)Oc1cccc(-c2ccc([C@@H](C)C(=O)OCCOCCOCCOCCOC(=O)c3ccc(-c4c5nc(c(-c6c(F)cccc6F)c6ccc([nH]6)c(-c6c(F)cccc6F)c6nc(c(-c7c(F)cccc7F)c7ccc4[nH]7)C=C6)C=C5)cc3)cc2F)c1
REMARK SMILES IDX 27 1 26 2 25 3 23 4 24 5 21 6 22 7 20 8 17 9 18 10 95 11
REMARK SMILES IDX 19 12 94 13 96 14 16 15 12 16 13 17 97 18 14 19 15 20 11 21
REMARK SMILES IDX 9 22 8 23 10 25 7 26 6 27 5 28 4 29 3 30 2 31 1 32 28 33
REMARK SMILES IDX 29 34 30 35 31 36 32 37 33 38 34 39 35 40 36 41 37 42 38 43
REMARK SMILES IDX 39 44 40 45 41 46 93 47 42 48 92 49 43 50 44 51 45 52 86 53
REMARK SMILES IDX 46 54 91 55 85 56 87 57 47 58 90 59 84 60 83 61 48 63 74 64
REMARK SMILES IDX 57 65 73 66 58 67 61 68 72 69 88 70 59 71 60 72 71 74 89 75
REMARK SMILES IDX 62 76 49 77 50 78 55 79 51 80 52 81 54 82 56 83 53 84 75 85
REMARK SMILES IDX 76 86 81 87 77 88 78 89 80 90 82 91 79 92 63 93 64 94 69 95
REMARK SMILES IDX 65 96 66 97 68 98 70 99 67 100
REMARK H PARENT 8 24 87 62 61 73
REMARK Flexibility Score: inf
ROOT
ATOM      1  C   UNL A   1      38.561  32.088  31.299  1.00  0.00     0.202 C 
ENDROOT
BRANCH   1   2
ATOM      2  C   UNL A   1      37.912  33.111  30.349  1.00  0.00     0.261 C 
BRANCH   2   3
ATOM      3  O   UNL A   1      36.508  32.940  30.058  1.00  0.00    -0.463 OA
BRANCH   3   4
ATOM      4  C   UNL A   1      36.201  32.565  28.795  1.00  0.00     0.313 C 
ATOM      5  O   UNL A   1      35.954  33.366  27.895  1.00  0.00    -0.252 OA
BRANCH   4   6
ATOM      6  C   UNL A   1      36.142  31.060  28.535  1.00  0.00     0.126 C 
ATOM      7  C   UNL A   1      37.484  30.619  27.960  1.00  0.00     0.025 C 
BRANCH   6   8
ATOM      8  C   UNL A   1      34.981  30.423  27.771  1.00  0.00    -0.031 A 
ATOM      9  C   UNL A   1      32.881  29.113  26.306  1.00  0.00     0.018 A 
ATOM     10  C   UNL A   1      32.683  30.359  26.931  1.00  0.00     0.012 A 
ATOM     11  C   UNL A   1      34.150  28.542  26.437  1.00  0.00     0.131 A 
ATOM     12  C   UNL A   1      33.712  31.005  27.649  1.00  0.00     0.005 A 
ATOM     13  C   UNL A   1      35.181  29.180  27.135  1.00  0.00     0.044 A 
ATOM     14  F   UNL A   1      34.416  27.351  25.873  1.00  0.00    -0.206 F 
BRANCH   9  15
ATOM     15  C   UNL A   1      31.816  28.468  25.511  1.00  0.00    -0.012 A 
ATOM     16  C   UNL A   1      30.407  26.561  24.954  1.00  0.00     0.133 A 
ATOM     17  C   UNL A   1      29.834  27.254  23.890  1.00  0.00     0.047 A 
ATOM     18  C   UNL A   1      31.398  27.146  25.752  1.00  0.00     0.056 A 
ATOM     19  C   UNL A   1      30.236  28.561  23.637  1.00  0.00     0.004 A 
ATOM     20  C   UNL A   1      31.214  29.160  24.441  1.00  0.00     0.009 A 
BRANCH  16  21
ATOM     21  O   UNL A   1      30.040  25.212  25.103  1.00  0.00    -0.410 OA
BRANCH  21  22
ATOM     22  C   UNL A   1      29.769  24.770  26.388  1.00  0.00     0.412 C 
ATOM     23  N   UNL A   1      30.810  24.092  26.963  1.00  0.00    -0.321 N 
ATOM     24  H   UNL A   1      30.683  23.806  27.896  1.00  0.00     0.167 HD
ATOM     25  O   UNL A   1      28.716  24.928  26.998  1.00  0.00    -0.224 OA
BRANCH  23  26
ATOM     26  C   UNL A   1      32.082  23.750  26.352  1.00  0.00     0.119 C 
BRANCH  26  27
ATOM     27  C   UNL A   1      33.089  23.209  27.368  1.00  0.00     0.021 C 
BRANCH  27  28
ATOM     28  C   UNL A   1      34.497  22.955  26.812  1.00  0.00     0.002 C 
BRANCH  28  29
ATOM     29  C   UNL A   1      34.961  23.926  25.722  1.00  0.00     0.000 C 
BRANCH  29  30
ATOM     30  C   UNL A   1      35.555  23.272  24.470  1.00  0.00    -0.000 C 
BRANCH  30  31
ATOM     31  C   UNL A   1      35.037  21.864  24.158  1.00  0.00    -0.003 C 
ATOM     32  C   UNL A   1      33.583  21.840  23.712  1.00  0.00     0.004 C 
ENDBRANCH  30  31
ENDBRANCH  29  30
ENDBRANCH  28  29
ENDBRANCH  27  28
ENDBRANCH  26  27
ENDBRANCH  23  26
ENDBRANCH  21  22
ENDBRANCH  16  21
ENDBRANCH   9  15
ENDBRANCH   6   8
ENDBRANCH   4   6
ENDBRANCH   3   4
ENDBRANCH   2   3
ENDBRANCH   1   2
BRANCH   1  33
ATOM     33  O   UNL A   1      39.524  31.154  30.832  1.00  0.00    -0.376 OA
BRANCH  33  34
ATOM     34  C   UNL A   1      39.725  29.917  31.502  1.00  0.00     0.188 C 
BRANCH  34  35
ATOM     35  C   UNL A   1      39.478  28.581  30.788  1.00  0.00     0.188 C 
BRANCH  35  36
ATOM     36  O   UNL A   1      39.901  28.531  29.442  1.00  0.00    -0.377 OA
BRANCH  36  37
ATOM     37  C   UNL A   1      39.830  27.269  28.800  1.00  0.00     0.188 C 
BRANCH  37  38
ATOM     38  C   UNL A   1      38.856  26.231  29.388  1.00  0.00     0.188 C 
BRANCH  38  39
ATOM     39  O   UNL A   1      39.029  24.915  28.874  1.00  0.00    -0.376 OA
BRANCH  39  40
ATOM     40  C   UNL A   1      39.239  24.755  27.476  1.00  0.00     0.202 C 
BRANCH  40  41
ATOM     41  C   UNL A   1      40.494  23.995  27.015  1.00  0.00     0.261 C 
BRANCH  41  42
ATOM     42  O   UNL A   1      41.755  24.535  27.436  1.00  0.00    -0.460 OA
BRANCH  42  43
ATOM     43  C   UNL A   1      42.887  23.937  27.007  1.00  0.00     0.338 C 
ATOM     44  O   UNL A   1      43.021  22.791  26.640  1.00  0.00    -0.246 OA
BRANCH  43  45
ATOM     45  C   UNL A   1      43.905  25.001  26.838  1.00  0.00     0.060 A 
ATOM     46  C   UNL A   1      44.445  25.606  27.981  1.00  0.00     0.016 A 
ATOM     47  C   UNL A   1      44.332  25.392  25.568  1.00  0.00     0.016 A 
ATOM     48  C   UNL A   1      45.391  26.625  27.857  1.00  0.00     0.010 A 
ATOM     49  C   UNL A   1      45.259  26.434  25.444  1.00  0.00     0.010 A 
ATOM     50  C   UNL A   1      45.770  27.076  26.587  1.00  0.00    -0.014 A 
BRANCH  50  51
ATOM     51  C   UNL A   1      46.560  28.328  26.455  1.00  0.00     0.031 A 
ATOM     52  C   UNL A   1      48.043  28.220  26.229  1.00  0.00     0.074 A 
ATOM     53  C   UNL A   1      45.975  29.538  26.509  1.00  0.00     0.049 A 
ATOM     54  N   UNL A   1      48.942  29.167  26.135  1.00  0.00    -0.248 NA
ATOM     55  C   UNL A   1      48.584  26.859  26.090  1.00  0.00     0.031 C 
ATOM     56  C   UNL A   1      44.544  29.780  26.671  1.00  0.00     0.029 A 
ATOM     57  N   UNL A   1      46.525  30.795  26.439  1.00  0.00    -0.354 N 
ATOM     58  C   UNL A   1      50.154  28.516  25.934  1.00  0.00     0.074 A 
ATOM     59  C   UNL A   1      49.879  27.095  25.948  1.00  0.00     0.031 C 
ATOM     60  C   UNL A   1      44.328  31.106  26.707  1.00  0.00     0.029 A 
ATOM     61  C   UNL A   1      45.609  31.806  26.606  1.00  0.00     0.049 A 
ATOM     62  H   UNL A   1      47.483  30.956  26.284  1.00  0.00     0.167 HD
ATOM     63  C   UNL A   1      51.383  29.052  25.750  1.00  0.00     0.037 A 
ATOM     64  C   UNL A   1      45.790  33.138  26.696  1.00  0.00     0.037 A 
ATOM     65  C   UNL A   1      51.658  30.466  25.743  1.00  0.00     0.049 A 
ATOM     66  C   UNL A   1      47.180  33.709  26.579  1.00  0.00     0.074 A 
ATOM     67  C   UNL A   1      52.867  31.107  25.545  1.00  0.00     0.029 A 
ATOM     68  N   UNL A   1      50.711  31.456  25.959  1.00  0.00    -0.354 N 
ATOM     69  N   UNL A   1      48.316  33.089  26.362  1.00  0.00    -0.248 NA
ATOM     70  C   UNL A   1      47.315  35.167  26.721  1.00  0.00     0.031 C 
ATOM     71  C   UNL A   1      52.663  32.482  25.704  1.00  0.00     0.029 A 
ATOM     72  C   UNL A   1      51.316  32.702  25.936  1.00  0.00     0.049 A 
ATOM     73  H   UNL A   1      49.750  31.296  26.107  1.00  0.00     0.167 HD
ATOM     74  C   UNL A   1      49.291  34.080  26.315  1.00  0.00     0.074 A 
ATOM     75  C   UNL A   1      48.612  35.343  26.509  1.00  0.00     0.031 C 
ATOM     76  C   UNL A   1      50.629  33.954  26.129  1.00  0.00     0.037 A 
BRANCH  63  77
ATOM     77  C   UNL A   1      52.534  28.103  25.578  1.00  0.00     0.057 A 
ATOM     78  C   UNL A   1      53.347  27.716  26.651  1.00  0.00     0.134 A 
ATOM     79  C   UNL A   1      52.814  27.546  24.324  1.00  0.00     0.134 A 
ATOM     80  F   UNL A   1      53.143  28.221  27.876  1.00  0.00    -0.206 F 
ATOM     81  C   UNL A   1      54.411  26.829  26.477  1.00  0.00     0.040 A 
ATOM     82  C   UNL A   1      53.856  26.636  24.143  1.00  0.00     0.040 A 
ATOM     83  F   UNL A   1      52.072  27.870  23.254  1.00  0.00    -0.206 F 
ATOM     84  C   UNL A   1      54.664  26.280  25.221  1.00  0.00     0.006 A 
ENDBRANCH  63  77
BRANCH  64  85
ATOM     85  C   UNL A   1      44.629  34.034  26.937  1.00  0.00     0.057 A 
ATOM     86  C   UNL A   1      43.968  34.673  25.881  1.00  0.00     0.134 A 
ATOM     87  C   UNL A   1      44.171  34.300  28.235  1.00  0.00     0.134 A 
ATOM     88  F   UNL A   1      44.376  34.484  24.617  1.00  0.00    -0.206 F 
ATOM     89  C   UNL A   1      42.909  35.555  26.106  1.00  0.00     0.040 A 
ATOM     90  C   UNL A   1      43.094  35.156  28.472  1.00  0.00     0.040 A 
ATOM     91  F   UNL A   1      44.761  33.724  29.292  1.00  0.00    -0.206 F 
ATOM     92  C   UNL A   1      42.466  35.793  27.405  1.00  0.00     0.006 A 
ENDBRANCH  64  85
BRANCH  76  93
ATOM     93  C   UNL A   1      51.445  35.216  26.093  1.00  0.00     0.057 A 
ATOM     94  C   UNL A   1      51.923  35.825  27.260  1.00  0.00     0.134 A 
ATOM     95  C   UNL A   1      51.794  35.806  24.871  1.00  0.00     0.134 A 
ATOM     96  F   UNL A   1      51.618  35.320  28.466  1.00  0.00    -0.206 F 
ATOM     97  C   UNL A   1      52.694  36.989  27.215  1.00  0.00     0.040 A 
ATOM     98  C   UNL A   1      52.590  36.951  24.810  1.00  0.00     0.040 A 
ATOM     99  F   UNL A   1      51.381  35.269  23.712  1.00  0.00    -0.206 F 
ATOM    100  C   UNL A   1      53.036  37.550  25.986  1.00  0.00     0.006 A 
ENDBRANCH  76  93
ENDBRANCH  50  51
ENDBRANCH  43  45
ENDBRANCH  42  43
ENDBRANCH  41  42
ENDBRANCH  40  41
ENDBRANCH  39  40
ENDBRANCH  38  39
ENDBRANCH  37  38
ENDBRANCH  36  37
ENDBRANCH  35  36
ENDBRANCH  34  35
ENDBRANCH  33  34
ENDBRANCH   1  33
TORSDOF 30
ENDMDL
MODEL 2
REMARK VINA RESULT:      -7.8      5.734     13.976
REMARK SMILES CCCCCCCNC(=O)Oc1cccc(-c2ccc([C@@H](C)C(=O)OCCOCCOCCOCCOC(=O)c3ccc(-c4c5nc(c(-c6c(F)cccc6F)c6ccc([nH]6)c(-c6c(F)cccc6F)c6nc(c(-c7c(F)cccc7F)c7ccc4[nH]7)C=C6)C=C5)cc3)cc2F)c1
REMARK SMILES IDX 27 1 26 2 25 3 23 4 24 5 21 6 22 7 20 8 17 9 18 10 95 11
REMARK SMILES IDX 19 12 94 13 96 14 16 15 12 16 13 17 97 18 14 19 15 20 11 21
REMARK SMILES IDX 9 22 8 23 10 25 7 26 6 27 5 28 4 29 3 30 2 31 1 32 28 33
REMARK SMILES IDX 29 34 30 35 31 36 32 37 33 38 34 39 35 40 36 41 37 42 38 43
REMARK SMILES IDX 39 44 40 45 41 46 93 47 42 48 92 49 43 50 44 51 45 52 86 53
REMARK SMILES IDX 46 54 91 55 85 56 87 57 47 58 90 59 84 60 83 61 48 63 74 64
REMARK SMILES IDX 57 65 73 66 58 67 61 68 72 69 88 70 59 71 60 72 71 74 89 75
REMARK SMILES IDX 62 76 49 77 50 78 55 79 51 80 52 81 54 82 56 83 53 84 75 85
REMARK SMILES IDX 76 86 81 87 77 88 78 89 80 90 82 91 79 92 63 93 64 94 69 95
REMARK SMILES IDX 65 96 66 97 68 98 70 99 67 100
REMARK H PARENT 8 24 87 62 61 73
REMARK Flexibility Score: inf
ROOT
ATOM      1  C   UNL A   1      44.449  38.492  33.352  1.00  0.00     0.202 C 
ENDROOT
BRANCH   1   2
ATOM      2  C   UNL A   1      44.615  39.504  32.203  1.00  0.00     0.261 C 
BRANCH   2   3
ATOM      3  O   UNL A   1      44.491  40.903  32.536  1.00  0.00    -0.463 OA
BRANCH   3   4
ATOM      4  C   UNL A   1      43.230  41.375  32.672  1.00  0.00     0.313 C 
ATOM      5  O   UNL A   1      42.523  41.136  33.650  1.00  0.00    -0.252 OA
BRANCH   4   6
ATOM      6  C   UNL A   1      42.696  42.215  31.512  1.00  0.00     0.126 C 
ATOM      7  C   UNL A   1      41.474  41.512  30.931  1.00  0.00     0.025 C 
BRANCH   6   8
ATOM      8  C   UNL A   1      43.616  42.726  30.403  1.00  0.00    -0.031 A 
ATOM      9  C   UNL A   1      45.328  43.818  28.366  1.00  0.00     0.018 A 
ATOM     10  C   UNL A   1      45.086  42.435  28.468  1.00  0.00     0.012 A 
ATOM     11  C   UNL A   1      44.696  44.635  29.309  1.00  0.00     0.131 A 
ATOM     12  C   UNL A   1      44.245  41.897  29.465  1.00  0.00     0.005 A 
ATOM     13  C   UNL A   1      43.850  44.112  30.293  1.00  0.00     0.044 A 
ATOM     14  F   UNL A   1      44.881  45.966  29.282  1.00  0.00    -0.206 F 
BRANCH   9  15
ATOM     15  C   UNL A   1      46.165  44.381  27.287  1.00  0.00    -0.012 A 
ATOM     16  C   UNL A   1      46.763  44.628  24.939  1.00  0.00     0.133 A 
ATOM     17  C   UNL A   1      47.863  45.415  25.268  1.00  0.00     0.047 A 
ATOM     18  C   UNL A   1      45.925  44.100  25.929  1.00  0.00     0.056 A 
ATOM     19  C   UNL A   1      48.115  45.702  26.605  1.00  0.00     0.004 A 
ATOM     20  C   UNL A   1      47.274  45.192  27.602  1.00  0.00     0.009 A 
BRANCH  16  21
ATOM     21  O   UNL A   1      46.611  44.284  23.584  1.00  0.00    -0.410 OA
BRANCH  21  22
ATOM     22  C   UNL A   1      47.649  43.584  22.990  1.00  0.00     0.412 C 
ATOM     23  N   UNL A   1      47.497  42.225  23.053  1.00  0.00    -0.321 N 
ATOM     24  H   UNL A   1      48.183  41.687  22.597  1.00  0.00     0.167 HD
ATOM     25  O   UNL A   1      48.638  44.076  22.456  1.00  0.00    -0.224 OA
BRANCH  23  26
ATOM     26  C   UNL A   1      46.437  41.488  23.716  1.00  0.00     0.119 C 
BRANCH  26  27
ATOM     27  C   UNL A   1      46.899  40.862  25.033  1.00  0.00     0.021 C 
BRANCH  27  28
ATOM     28  C   UNL A   1      46.893  39.327  25.057  1.00  0.00     0.002 C 
BRANCH  28  29
ATOM     29  C   UNL A   1      46.046  38.687  26.162  1.00  0.00     0.000 C 
BRANCH  29  30
ATOM     30  C   UNL A   1      44.751  39.430  26.508  1.00  0.00    -0.000 C 
BRANCH  30  31
ATOM     31  C   UNL A   1      43.565  38.537  26.889  1.00  0.00    -0.003 C 
ATOM     32  C   UNL A   1      42.388  39.311  27.464  1.00  0.00     0.004 C 
ENDBRANCH  30  31
ENDBRANCH  29  30
ENDBRANCH  28  29
ENDBRANCH  27  28
ENDBRANCH  26  27
ENDBRANCH  23  26
ENDBRANCH  21  22
ENDBRANCH  16  21
ENDBRANCH   9  15
ENDBRANCH   6   8
ENDBRANCH   4   6
ENDBRANCH   3   4
ENDBRANCH   2   3
ENDBRANCH   1   2
BRANCH   1  33
ATOM     33  O   UNL A   1      43.368  37.572  33.375  1.00  0.00    -0.376 OA
BRANCH  33  34
ATOM     34  C   UNL A   1      42.910  37.016  34.601  1.00  0.00     0.188 C 
BRANCH  34  35
ATOM     35  C   UNL A   1      43.117  35.528  34.921  1.00  0.00     0.188 C 
BRANCH  35  36
ATOM     36  O   UNL A   1      41.993  34.703  34.698  1.00  0.00    -0.377 OA
BRANCH  36  37
ATOM     37  C   UNL A   1      40.729  35.346  34.667  1.00  0.00     0.188 C 
BRANCH  37  38
ATOM     38  C   UNL A   1      39.481  34.447  34.585  1.00  0.00     0.188 C 
BRANCH  38  39
ATOM     39  O   UNL A   1      38.253  35.163  34.518  1.00  0.00    -0.376 OA
BRANCH  39  40
ATOM     40  C   UNL A   1      37.083  34.467  34.104  1.00  0.00     0.202 C 
BRANCH  40  41
ATOM     41  C   UNL A   1      37.191  32.953  33.857  1.00  0.00     0.261 C 
BRANCH  41  42
ATOM     42  O   UNL A   1      35.954  32.236  33.753  1.00  0.00    -0.460 OA
BRANCH  42  43
ATOM     43  C   UNL A   1      35.478  31.948  32.522  1.00  0.00     0.338 C 
ATOM     44  O   UNL A   1      34.445  32.335  32.022  1.00  0.00    -0.246 OA
BRANCH  43  45
ATOM     45  C   UNL A   1      36.564  31.256  31.786  1.00  0.00     0.060 A 
ATOM     46  C   UNL A   1      37.374  30.346  32.479  1.00  0.00     0.016 A 
ATOM     47  C   UNL A   1      36.774  31.491  30.426  1.00  0.00     0.016 A 
ATOM     48  C   UNL A   1      38.418  29.693  31.822  1.00  0.00     0.010 A 
ATOM     49  C   UNL A   1      37.839  30.857  29.775  1.00  0.00     0.010 A 
ATOM     50  C   UNL A   1      38.684  29.978  30.476  1.00  0.00    -0.014 A 
BRANCH  50  51
ATOM     51  C   UNL A   1      39.946  29.495  29.858  1.00  0.00     0.031 A 
ATOM     52  C   UNL A   1      41.092  30.460  29.719  1.00  0.00     0.074 A 
ATOM     53  C   UNL A   1      40.088  28.222  29.449  1.00  0.00     0.049 A 
ATOM     54  N   UNL A   1      42.267  30.284  29.170  1.00  0.00    -0.248 NA
ATOM     55  C   UNL A   1      40.882  31.805  30.277  1.00  0.00     0.031 C 
ATOM     56  C   UNL A   1      39.076  27.175  29.573  1.00  0.00     0.029 A 
ATOM     57  N   UNL A   1      41.147  27.597  28.837  1.00  0.00    -0.354 N 
ATOM     58  C   UNL A   1      42.932  31.497  29.309  1.00  0.00     0.074 A 
ATOM     59  C   UNL A   1      42.020  32.407  29.968  1.00  0.00     0.031 C 
ATOM     60  C   UNL A   1      39.556  26.040  29.036  1.00  0.00     0.029 A 
ATOM     61  C   UNL A   1      40.894  26.289  28.499  1.00  0.00     0.049 A 
ATOM     62  H   UNL A   1      42.005  28.043  28.657  1.00  0.00     0.167 HD
ATOM     63  C   UNL A   1      44.190  31.822  28.926  1.00  0.00     0.037 A 
ATOM     64  C   UNL A   1      41.644  25.407  27.810  1.00  0.00     0.037 A 
ATOM     65  C   UNL A   1      45.094  30.918  28.264  1.00  0.00     0.049 A 
ATOM     66  C   UNL A   1      43.007  25.819  27.314  1.00  0.00     0.074 A 
ATOM     67  C   UNL A   1      46.396  31.149  27.854  1.00  0.00     0.029 A 
ATOM     68  N   UNL A   1      44.785  29.616  27.900  1.00  0.00    -0.354 N 
ATOM     69  N   UNL A   1      43.639  26.958  27.473  1.00  0.00    -0.248 NA
ATOM     70  C   UNL A   1      43.762  24.822  26.539  1.00  0.00     0.031 C 
ATOM     71  C   UNL A   1      46.851  30.007  27.186  1.00  0.00     0.029 A 
ATOM     72  C   UNL A   1      45.858  29.043  27.238  1.00  0.00     0.049 A 
ATOM     73  H   UNL A   1      43.929  29.166  28.086  1.00  0.00     0.167 HD
ATOM     74  C   UNL A   1      44.870  26.804  26.845  1.00  0.00     0.074 A 
ATOM     75  C   UNL A   1      44.904  25.457  26.316  1.00  0.00     0.031 C 
ATOM     76  C   UNL A   1      45.881  27.699  26.717  1.00  0.00     0.037 A 
BRANCH  63  77
ATOM     77  C   UNL A   1      44.649  33.229  29.182  1.00  0.00     0.057 A 
ATOM     78  C   UNL A   1      44.388  34.272  28.286  1.00  0.00     0.134 A 
ATOM     79  C   UNL A   1      45.340  33.548  30.359  1.00  0.00     0.134 A 
ATOM     80  F   UNL A   1      43.743  34.035  27.134  1.00  0.00    -0.206 F 
ATOM     81  C   UNL A   1      44.817  35.576  28.539  1.00  0.00     0.040 A 
ATOM     82  C   UNL A   1      45.749  34.852  30.637  1.00  0.00     0.040 A 
ATOM     83  F   UNL A   1      45.619  32.596  31.263  1.00  0.00    -0.206 F 
ATOM     84  C   UNL A   1      45.494  35.871  29.721  1.00  0.00     0.006 A 
ENDBRANCH  63  77
BRANCH  64  85
ATOM     85  C   UNL A   1      41.119  24.047  27.520  1.00  0.00     0.057 A 
ATOM     86  C   UNL A   1      40.123  23.840  26.558  1.00  0.00     0.134 A 
ATOM     87  C   UNL A   1      41.579  22.924  28.220  1.00  0.00     0.134 A 
ATOM     88  F   UNL A   1      39.619  24.877  25.874  1.00  0.00    -0.206 F 
ATOM     89  C   UNL A   1      39.590  22.572  26.317  1.00  0.00     0.040 A 
ATOM     90  C   UNL A   1      41.077  21.646  27.968  1.00  0.00     0.040 A 
ATOM     91  F   UNL A   1      42.530  23.052  29.157  1.00  0.00    -0.206 F 
ATOM     92  C   UNL A   1      40.073  21.469  27.019  1.00  0.00     0.006 A 
ENDBRANCH  64  85
BRANCH  76  93
ATOM     93  C   UNL A   1      47.124  27.244  26.004  1.00  0.00     0.057 A 
ATOM     94  C   UNL A   1      47.319  27.464  24.634  1.00  0.00     0.134 A 
ATOM     95  C   UNL A   1      48.159  26.613  26.707  1.00  0.00     0.134 A 
ATOM     96  F   UNL A   1      46.364  28.053  23.898  1.00  0.00    -0.206 F 
ATOM     97  C   UNL A   1      48.485  27.050  23.986  1.00  0.00     0.040 A 
ATOM     98  C   UNL A   1      49.342  26.223  26.077  1.00  0.00     0.040 A 
ATOM     99  F   UNL A   1      48.046  26.380  28.024  1.00  0.00    -0.206 F 
ATOM    100  C   UNL A   1      49.503  26.435  24.710  1.00  0.00     0.006 A 
ENDBRANCH  76  93
ENDBRANCH  50  51
ENDBRANCH  43  45
ENDBRANCH  42  43
ENDBRANCH  41  42
ENDBRANCH  40  41
ENDBRANCH  39  40
ENDBRANCH  38  39
ENDBRANCH  37  38
ENDBRANCH  36  37
ENDBRANCH  35  36
ENDBRANCH  34  35
ENDBRANCH  33  34
ENDBRANCH   1  33
TORSDOF 30
ENDMDL
MODEL 3
REMARK VINA RESULT:      -7.6      5.545      9.985
REMARK SMILES CCCCCCCNC(=O)Oc1cccc(-c2ccc([C@@H](C)C(=O)OCCOCCOCCOCCOC(=O)c3ccc(-c4c5nc(c(-c6c(F)cccc6F)c6ccc([nH]6)c(-c6c(F)cccc6F)c6nc(c(-c7c(F)cccc7F)c7ccc4[nH]7)C=C6)C=C5)cc3)cc2F)c1
REMARK SMILES IDX 27 1 26 2 25 3 23 4 24 5 21 6 22 7 20 8 17 9 18 10 95 11
REMARK SMILES IDX 19 12 94 13 96 14 16 15 12 16 13 17 97 18 14 19 15 20 11 21
REMARK SMILES IDX 9 22 8 23 10 25 7 26 6 27 5 28 4 29 3 30 2 31 1 32 28 33
REMARK SMILES IDX 29 34 30 35 31 36 32 37 33 38 34 39 35 40 36 41 37 42 38 43
REMARK SMILES IDX 39 44 40 45 41 46 93 47 42 48 92 49 43 50 44 51 45 52 86 53
REMARK SMILES IDX 46 54 91 55 85 56 87 57 47 58 90 59 84 60 83 61 48 63 74 64
REMARK SMILES IDX 57 65 73 66 58 67 61 68 72 69 88 70 59 71 60 72 71 74 89 75
REMARK SMILES IDX 62 76 49 77 50 78 55 79 51 80 52 81 54 82 56 83 53 84 75 85
REMARK SMILES IDX 76 86 81 87 77 88 78 89 80 90 82 91 79 92 63 93 64 94 69 95
REMARK SMILES IDX 65 96 66 97 68 98 70 99 67 100
REMARK H PARENT 8 24 87 62 61 73
REMARK Flexibility Score: inf
ROOT
ATOM      1  C   UNL A   1      32.584  36.478  30.507  1.00  0.00     0.202 C 
ENDROOT
BRANCH   1   2
ATOM      2  C   UNL A   1      32.202  36.003  31.921  1.00  0.00     0.261 C 
BRANCH   2   3
ATOM      3  O   UNL A   1      33.015  34.964  32.508  1.00  0.00    -0.463 OA
BRANCH   3   4
ATOM      4  C   UNL A   1      34.311  35.278  32.738  1.00  0.00     0.313 C 
ATOM      5  O   UNL A   1      34.662  36.278  33.361  1.00  0.00    -0.252 OA
BRANCH   4   6
ATOM      6  C   UNL A   1      35.349  34.325  32.147  1.00  0.00     0.126 C 
ATOM      7  C   UNL A   1      34.756  32.921  32.123  1.00  0.00     0.025 C 
BRANCH   6   8
ATOM      8  C   UNL A   1      36.794  34.303  32.648  1.00  0.00    -0.031 A 
ATOM      9  C   UNL A   1      39.554  34.252  33.454  1.00  0.00     0.018 A 
ATOM     10  C   UNL A   1      38.511  34.382  34.390  1.00  0.00     0.012 A 
ATOM     11  C   UNL A   1      39.181  34.153  32.110  1.00  0.00     0.131 A 
ATOM     12  C   UNL A   1      37.155  34.406  33.997  1.00  0.00     0.005 A 
ATOM     13  C   UNL A   1      37.839  34.162  31.712  1.00  0.00     0.044 A 
ATOM     14  F   UNL A   1      40.119  34.032  31.156  1.00  0.00    -0.206 F 
BRANCH   9  15
ATOM     15  C   UNL A   1      40.968  34.173  33.876  1.00  0.00    -0.012 A 
ATOM     16  C   UNL A   1      42.705  33.533  35.459  1.00  0.00     0.133 A 
ATOM     17  C   UNL A   1      43.686  34.136  34.676  1.00  0.00     0.047 A 
ATOM     18  C   UNL A   1      41.357  33.558  35.081  1.00  0.00     0.056 A 
ATOM     19  C   UNL A   1      43.319  34.749  33.483  1.00  0.00     0.004 A 
ATOM     20  C   UNL A   1      41.976  34.765  33.088  1.00  0.00     0.009 A 
BRANCH  16  21
ATOM     21  O   UNL A   1      43.113  33.017  36.701  1.00  0.00    -0.410 OA
BRANCH  21  22
ATOM     22  C   UNL A   1      42.167  32.325  37.440  1.00  0.00     0.412 C 
ATOM     23  N   UNL A   1      42.338  30.967  37.411  1.00  0.00    -0.321 N 
ATOM     24  H   UNL A   1      41.721  30.437  37.966  1.00  0.00     0.167 HD
ATOM     25  O   UNL A   1      41.238  32.823  38.068  1.00  0.00    -0.224 OA
BRANCH  23  26
ATOM     26  C   UNL A   1      43.327  30.221  36.656  1.00  0.00     0.119 C 
BRANCH  26  27
ATOM     27  C   UNL A   1      42.746  29.609  35.381  1.00  0.00     0.021 C 
BRANCH  27  28
ATOM     28  C   UNL A   1      43.648  28.579  34.686  1.00  0.00     0.002 C 
BRANCH  28  29
ATOM     29  C   UNL A   1      42.918  27.427  33.987  1.00  0.00     0.000 C 
BRANCH  29  30
ATOM     30  C   UNL A   1      43.809  26.485  33.171  1.00  0.00    -0.000 C 
BRANCH  30  31
ATOM     31  C   UNL A   1      44.507  25.382  33.974  1.00  0.00    -0.003 C 
ATOM     32  C   UNL A   1      43.617  24.177  34.243  1.00  0.00     0.004 C 
ENDBRANCH  30  31
ENDBRANCH  29  30
ENDBRANCH  28  29
ENDBRANCH  27  28
ENDBRANCH  26  27
ENDBRANCH  23  26
ENDBRANCH  21  22
ENDBRANCH  16  21
ENDBRANCH   9  15
ENDBRANCH   6   8
ENDBRANCH   4   6
ENDBRANCH   3   4
ENDBRANCH   2   3
ENDBRANCH   1   2
BRANCH   1  33
ATOM     33  O   UNL A   1      33.563  35.794  29.738  1.00  0.00    -0.376 OA
BRANCH  33  34
ATOM     34  C   UNL A   1      33.207  34.684  28.926  1.00  0.00     0.188 C 
BRANCH  34  35
ATOM     35  C   UNL A   1      34.236  33.602  28.569  1.00  0.00     0.188 C 
BRANCH  35  36
ATOM     36  O   UNL A   1      34.033  32.966  27.324  1.00  0.00    -0.377 OA
BRANCH  36  37
ATOM     37  C   UNL A   1      32.952  32.051  27.247  1.00  0.00     0.188 C 
BRANCH  37  38
ATOM     38  C   UNL A   1      33.278  30.556  27.425  1.00  0.00     0.188 C 
BRANCH  38  39
ATOM     39  O   UNL A   1      34.635  30.221  27.156  1.00  0.00    -0.376 OA
BRANCH  39  40
ATOM     40  C   UNL A   1      35.274  29.258  27.984  1.00  0.00     0.202 C 
BRANCH  40  41
ATOM     41  C   UNL A   1      36.519  29.696  28.775  1.00  0.00     0.261 C 
BRANCH  41  42
ATOM     42  O   UNL A   1      36.282  30.488  29.946  1.00  0.00    -0.460 OA
BRANCH  42  43
ATOM     43  C   UNL A   1      36.867  30.113  31.105  1.00  0.00     0.338 C 
ATOM     44  O   UNL A   1      36.327  29.909  32.170  1.00  0.00    -0.246 OA
BRANCH  43  45
ATOM     45  C   UNL A   1      38.272  29.762  30.790  1.00  0.00     0.060 A 
ATOM     46  C   UNL A   1      38.820  28.602  31.356  1.00  0.00     0.016 A 
ATOM     47  C   UNL A   1      39.040  30.558  29.938  1.00  0.00     0.016 A 
ATOM     48  C   UNL A   1      40.147  28.253  31.098  1.00  0.00     0.010 A 
ATOM     49  C   UNL A   1      40.378  30.222  29.702  1.00  0.00     0.010 A 
ATOM     50  C   UNL A   1      40.947  29.085  30.304  1.00  0.00    -0.014 A 
BRANCH  50  51
ATOM     51  C   UNL A   1      42.415  28.862  30.252  1.00  0.00     0.031 A 
ATOM     52  C   UNL A   1      42.942  27.762  29.371  1.00  0.00     0.074 A 
ATOM     53  C   UNL A   1      43.270  29.632  30.948  1.00  0.00     0.049 A 
ATOM     54  N   UNL A   1      44.172  27.348  29.201  1.00  0.00    -0.248 NA
ATOM     55  C   UNL A   1      41.944  27.031  28.574  1.00  0.00     0.031 C 
ATOM     56  C   UNL A   1      42.894  30.761  31.796  1.00  0.00     0.029 A 
ATOM     57  N   UNL A   1      44.638  29.570  31.054  1.00  0.00    -0.354 N 
ATOM     58  C   UNL A   1      44.095  26.305  28.286  1.00  0.00     0.074 A 
ATOM     59  C   UNL A   1      42.696  26.131  27.958  1.00  0.00     0.031 C 
ATOM     60  C   UNL A   1      44.004  31.275  32.351  1.00  0.00     0.029 A 
ATOM     61  C   UNL A   1      45.164  30.491  31.927  1.00  0.00     0.049 A 
ATOM     62  H   UNL A   1      45.189  28.926  30.553  1.00  0.00     0.167 HD
ATOM     63  C   UNL A   1      45.098  25.562  27.762  1.00  0.00     0.037 A 
ATOM     64  C   UNL A   1      46.431  30.661  32.355  1.00  0.00     0.037 A 
ATOM     65  C   UNL A   1      46.489  25.730  28.094  1.00  0.00     0.049 A 
ATOM     66  C   UNL A   1      47.520  29.762  31.827  1.00  0.00     0.074 A 
ATOM     67  C   UNL A   1      47.582  25.039  27.600  1.00  0.00     0.029 A 
ATOM     68  N   UNL A   1      46.977  26.645  29.015  1.00  0.00    -0.354 N 
ATOM     69  N   UNL A   1      47.443  28.797  30.942  1.00  0.00    -0.248 NA
ATOM     70  C   UNL A   1      48.875  29.976  32.359  1.00  0.00     0.031 C 
ATOM     71  C   UNL A   1      48.723  25.492  28.270  1.00  0.00     0.029 A 
ATOM     72  C   UNL A   1      48.351  26.510  29.132  1.00  0.00     0.049 A 
ATOM     73  H   UNL A   1      46.428  27.293  29.512  1.00  0.00     0.167 HD
ATOM     74  C   UNL A   1      48.736  28.309  30.793  1.00  0.00     0.074 A 
ATOM     75  C   UNL A   1      49.583  29.095  31.665  1.00  0.00     0.031 C 
ATOM     76  C   UNL A   1      49.184  27.300  30.004  1.00  0.00     0.037 A 
BRANCH  63  77
ATOM     77  C   UNL A   1      44.722  24.470  26.800  1.00  0.00     0.057 A 
ATOM     78  C   UNL A   1      44.558  24.709  25.430  1.00  0.00     0.134 A 
ATOM     79  C   UNL A   1      44.551  23.155  27.251  1.00  0.00     0.134 A 
ATOM     80  F   UNL A   1      44.695  25.948  24.934  1.00  0.00    -0.206 F 
ATOM     81  C   UNL A   1      44.213  23.684  24.547  1.00  0.00     0.040 A 
ATOM     82  C   UNL A   1      44.234  22.117  26.374  1.00  0.00     0.040 A 
ATOM     83  F   UNL A   1      44.697  22.856  28.551  1.00  0.00    -0.206 F 
ATOM     84  C   UNL A   1      44.057  22.381  25.018  1.00  0.00     0.006 A 
ENDBRANCH  63  77
BRANCH  64  85
ATOM     85  C   UNL A   1      46.745  31.709  33.362  1.00  0.00     0.057 A 
ATOM     86  C   UNL A   1      46.749  31.426  34.733  1.00  0.00     0.134 A 
ATOM     87  C   UNL A   1      47.017  33.028  32.977  1.00  0.00     0.134 A 
ATOM     88  F   UNL A   1      46.467  30.189  35.167  1.00  0.00    -0.206 F 
ATOM     89  C   UNL A   1      46.992  32.418  35.685  1.00  0.00     0.040 A 
ATOM     90  C   UNL A   1      47.293  34.024  33.917  1.00  0.00     0.040 A 
ATOM     91  F   UNL A   1      47.026  33.369  31.681  1.00  0.00    -0.206 F 
ATOM     92  C   UNL A   1      47.272  33.721  35.276  1.00  0.00     0.006 A 
ENDBRANCH  64  85
BRANCH  76  93
ATOM     93  C   UNL A   1      50.658  27.007  30.022  1.00  0.00     0.057 A 
ATOM     94  C   UNL A   1      51.539  27.570  29.089  1.00  0.00     0.134 A 
ATOM     95  C   UNL A   1      51.211  26.183  31.011  1.00  0.00     0.134 A 
ATOM     96  F   UNL A   1      51.077  28.361  28.107  1.00  0.00    -0.206 F 
ATOM     97  C   UNL A   1      52.910  27.304  29.124  1.00  0.00     0.040 A 
ATOM     98  C   UNL A   1      52.582  25.934  31.076  1.00  0.00     0.040 A 
ATOM     99  F   UNL A   1      50.428  25.619  31.944  1.00  0.00    -0.206 F 
ATOM    100  C   UNL A   1      53.435  26.490  30.125  1.00  0.00     0.006 A 
ENDBRANCH  76  93
ENDBRANCH  50  51
ENDBRANCH  43  45
ENDBRANCH  42  43
ENDBRANCH  41  42
ENDBRANCH  40  41
ENDBRANCH  39  40
ENDBRANCH  38  39
ENDBRANCH  37  38
ENDBRANCH  36  37
ENDBRANCH  35  36
ENDBRANCH  34  35
ENDBRANCH  33  34
ENDBRANCH   1  33
TORSDOF 30
ENDMDL
