MODEL 1
REMARK VINA RESULT:      -9.8      0.000      0.000
REMARK SMILES CC[NH2+][C@]1(C(=O)OCCOCCOCCOCCOC(=O)c2ccc(-c3c4nc(c(-c5c(F)cccc5F)c5ccc([nH]5)c(-c5c(F)cccc5F)c5nc(c(-c6c(F)cccc6F)c6ccc3[nH]6)C=C5)C=C4)cc2)CCC[C@@H](n2cccn2)C1
REMARK SMILES IDX 13 1 12 2 11 3 10 4 9 5 8 6 7 7 5 8 6 9 4 10 76 11 85 12
REMARK SMILES IDX 77 13 79 14 78 15 3 16 2 19 1 20 80 21 81 22 84 23 82 24
REMARK SMILES IDX 83 25 14 26 15 27 16 28 17 29 18 30 19 31 20 32 21 33 22 34
REMARK SMILES IDX 23 35 75 36 24 37 74 38 25 39 26 40 27 41 68 42 28 43 73 44
REMARK SMILES IDX 67 45 69 46 29 47 72 48 66 49 65 50 30 52 56 53 39 54 55 55
REMARK SMILES IDX 40 56 43 57 54 58 70 59 41 60 42 61 53 63 71 64 44 65 31 66
REMARK SMILES IDX 32 67 37 68 33 69 34 70 36 71 38 72 35 73 57 74 58 75 63 76
REMARK SMILES IDX 59 77 60 78 62 79 64 80 61 81 45 82 46 83 51 84 47 85 48 86
REMARK SMILES IDX 50 87 52 88 49 89
REMARK H PARENT 3 17 3 18 69 51 43 62
REMARK Flexibility Score: inf
ROOT
ATOM      1  O   UNL A   1      34.255  33.167  28.001  1.00  0.00    -0.377 OA
ENDROOT
BRANCH   1   2
ATOM      2  C   UNL A   1      33.725  31.889  27.697  1.00  0.00     0.188 C 
BRANCH   2   3
ATOM      3  C   UNL A   1      34.816  30.794  27.710  1.00  0.00     0.188 C 
BRANCH   3   4
ATOM      4  O   UNL A   1      34.333  29.476  27.499  1.00  0.00    -0.376 OA
BRANCH   4   5
ATOM      5  C   UNL A   1      32.935  29.245  27.358  1.00  0.00     0.202 C 
BRANCH   5   6
ATOM      6  C   UNL A   1      32.217  27.957  27.821  1.00  0.00     0.261 C 
BRANCH   6   7
ATOM      7  O   UNL A   1      31.137  27.489  26.998  1.00  0.00    -0.459 OA
BRANCH   7   8
ATOM      8  C   UNL A   1      31.325  26.341  26.313  1.00  0.00     0.368 C 
ATOM      9  O   UNL A   1      31.296  25.236  26.848  1.00  0.00    -0.245 OA
BRANCH   8  10
ATOM     10  C   UNL A   1      31.653  26.596  24.773  1.00  0.00     0.196 C 
ATOM     11  C   UNL A   1      31.277  25.512  23.724  1.00  0.00     0.081 C 
ATOM     12  C   UNL A   1      30.854  27.866  24.391  1.00  0.00     0.108 C 
ATOM     13  C   UNL A   1      31.621  25.947  22.295  1.00  0.00     0.009 C 
ATOM     14  C   UNL A   1      31.016  28.345  22.937  1.00  0.00     0.114 C 
ATOM     15  C   UNL A   1      30.832  27.194  21.925  1.00  0.00     0.028 C 
BRANCH  10  16
ATOM     16  N   UNL A   1      33.139  26.814  24.707  1.00  0.00    -0.332 N 
ATOM     17  H   UNL A   1      33.343  27.515  23.995  1.00  0.00     0.347 HD
ATOM     18  H   UNL A   1      33.463  27.130  25.621  1.00  0.00     0.347 HD
BRANCH  16  19
ATOM     19  C   UNL A   1      33.842  25.551  24.362  1.00  0.00     0.257 C 
ATOM     20  C   UNL A   1      34.617  24.998  25.541  1.00  0.00     0.071 C 
ENDBRANCH  16  19
ENDBRANCH  10  16
BRANCH  14  21
ATOM     21  N   UNL A   1      30.099  29.467  22.672  1.00  0.00    -0.269 N 
ATOM     22  C   UNL A   1      29.612  30.357  23.594  1.00  0.00     0.109 A 
ATOM     23  N   UNL A   1      29.619  29.700  21.431  1.00  0.00    -0.181 NA
ATOM     24  C   UNL A   1      28.765  31.199  22.914  1.00  0.00     0.042 A 
ATOM     25  C   UNL A   1      28.815  30.754  21.584  1.00  0.00     0.135 A 
ENDBRANCH  14  21
ENDBRANCH   8  10
ENDBRANCH   7   8
ENDBRANCH   6   7
ENDBRANCH   5   6
ENDBRANCH   4   5
ENDBRANCH   3   4
ENDBRANCH   2   3
ENDBRANCH   1   2
BRANCH   1  26
ATOM     26  C   UNL A   1      33.346  34.116  28.527  1.00  0.00     0.188 C 
BRANCH  26  27
ATOM     27  C   UNL A   1      33.751  35.005  29.723  1.00  0.00     0.188 C 
BRANCH  27  28
ATOM     28  O   UNL A   1      33.542  34.413  30.998  1.00  0.00    -0.376 OA
BRANCH  28  29
ATOM     29  C   UNL A   1      33.891  35.116  32.173  1.00  0.00     0.202 C 
BRANCH  29  30
ATOM     30  C   UNL A   1      35.186  34.656  32.856  1.00  0.00     0.261 C 
BRANCH  30  31
ATOM     31  O   UNL A   1      35.847  33.558  32.218  1.00  0.00    -0.460 OA
BRANCH  31  32
ATOM     32  C   UNL A   1      36.471  32.691  33.050  1.00  0.00     0.338 C 
ATOM     33  O   UNL A   1      36.265  32.533  34.232  1.00  0.00    -0.246 OA
BRANCH  32  34
ATOM     34  C   UNL A   1      37.322  31.806  32.227  1.00  0.00     0.060 A 
ATOM     35  C   UNL A   1      38.376  31.139  32.864  1.00  0.00     0.016 A 
ATOM     36  C   UNL A   1      37.074  31.617  30.865  1.00  0.00     0.016 A 
ATOM     37  C   UNL A   1      39.226  30.325  32.125  1.00  0.00     0.010 A 
ATOM     38  C   UNL A   1      37.948  30.827  30.116  1.00  0.00     0.010 A 
ATOM     39  C   UNL A   1      39.057  30.226  30.738  1.00  0.00    -0.014 A 
BRANCH  39  40
ATOM     40  C   UNL A   1      40.207  29.749  29.940  1.00  0.00     0.031 A 
ATOM     41  C   UNL A   1      41.342  30.711  29.714  1.00  0.00     0.074 A 
ATOM     42  C   UNL A   1      40.294  28.479  29.515  1.00  0.00     0.049 A 
ATOM     43  N   UNL A   1      42.488  30.523  29.116  1.00  0.00    -0.248 NA
ATOM     44  C   UNL A   1      41.153  32.073  30.240  1.00  0.00     0.031 C 
ATOM     45  C   UNL A   1      39.277  27.450  29.709  1.00  0.00     0.029 A 
ATOM     46  N   UNL A   1      41.299  27.843  28.831  1.00  0.00    -0.354 N 
ATOM     47  C   UNL A   1      43.158  31.737  29.203  1.00  0.00     0.074 A 
ATOM     48  C   UNL A   1      42.270  32.668  29.860  1.00  0.00     0.031 C 
ATOM     49  C   UNL A   1      39.706  26.307  29.146  1.00  0.00     0.029 A 
ATOM     50  C   UNL A   1      41.017  26.533  28.539  1.00  0.00     0.049 A 
ATOM     51  H   UNL A   1      42.141  28.284  28.578  1.00  0.00     0.167 HD
ATOM     52  C   UNL A   1      44.409  32.047  28.787  1.00  0.00     0.037 A 
ATOM     53  C   UNL A   1      41.734  25.629  27.845  1.00  0.00     0.037 A 
ATOM     54  C   UNL A   1      45.279  31.124  28.112  1.00  0.00     0.049 A 
ATOM     55  C   UNL A   1      43.097  26.011  27.326  1.00  0.00     0.074 A 
ATOM     56  C   UNL A   1      46.562  31.332  27.641  1.00  0.00     0.029 A 
ATOM     57  N   UNL A   1      44.944  29.813  27.800  1.00  0.00    -0.354 N 
ATOM     58  N   UNL A   1      43.735  27.153  27.433  1.00  0.00    -0.248 NA
ATOM     59  C   UNL A   1      43.845  24.973  26.606  1.00  0.00     0.031 C 
ATOM     60  C   UNL A   1      46.981  30.166  26.989  1.00  0.00     0.029 A 
ATOM     61  C   UNL A   1      45.987  29.208  27.118  1.00  0.00     0.049 A 
ATOM     62  H   UNL A   1      44.091  29.378  28.027  1.00  0.00     0.167 HD
ATOM     63  C   UNL A   1      44.969  26.962  26.821  1.00  0.00     0.074 A 
ATOM     64  C   UNL A   1      44.992  25.590  26.359  1.00  0.00     0.031 C 
ATOM     65  C   UNL A   1      45.992  27.840  26.660  1.00  0.00     0.037 A 
BRANCH  52  66
ATOM     66  C   UNL A   1      44.871  33.458  29.019  1.00  0.00     0.057 A 
ATOM     67  C   UNL A   1      45.572  33.832  30.176  1.00  0.00     0.134 A 
ATOM     68  C   UNL A   1      44.583  34.463  28.089  1.00  0.00     0.134 A 
ATOM     69  F   UNL A   1      45.861  32.924  31.121  1.00  0.00    -0.206 F 
ATOM     70  C   UNL A   1      45.930  35.160  30.416  1.00  0.00     0.040 A 
ATOM     71  C   UNL A   1      44.967  35.788  28.301  1.00  0.00     0.040 A 
ATOM     72  F   UNL A   1      43.917  34.178  26.961  1.00  0.00    -0.206 F 
ATOM     73  C   UNL A   1      45.631  36.142  29.475  1.00  0.00     0.006 A 
ENDBRANCH  52  66
BRANCH  53  74
ATOM     74  C   UNL A   1      41.169  24.279  27.594  1.00  0.00     0.057 A 
ATOM     75  C   UNL A   1      41.633  23.150  28.278  1.00  0.00     0.134 A 
ATOM     76  C   UNL A   1      40.140  24.092  26.663  1.00  0.00     0.134 A 
ATOM     77  F   UNL A   1      42.630  23.260  29.166  1.00  0.00    -0.206 F 
ATOM     78  C   UNL A   1      41.103  21.880  28.034  1.00  0.00     0.040 A 
ATOM     79  C   UNL A   1      39.582  22.835  26.430  1.00  0.00     0.040 A 
ATOM     80  F   UNL A   1      39.651  25.135  25.976  1.00  0.00    -0.206 F 
ATOM     81  C   UNL A   1      40.068  21.723  27.114  1.00  0.00     0.006 A 
ENDBRANCH  53  74
BRANCH  65  82
ATOM     82  C   UNL A   1      47.239  27.329  25.993  1.00  0.00     0.057 A 
ATOM     83  C   UNL A   1      47.447  27.441  24.612  1.00  0.00     0.134 A 
ATOM     84  C   UNL A   1      48.257  26.737  26.751  1.00  0.00     0.134 A 
ATOM     85  F   UNL A   1      46.510  27.991  23.825  1.00  0.00    -0.206 F 
ATOM     86  C   UNL A   1      48.606  26.950  24.007  1.00  0.00     0.040 A 
ATOM     87  C   UNL A   1      49.433  26.273  26.162  1.00  0.00     0.040 A 
ATOM     88  F   UNL A   1      48.132  26.609  28.081  1.00  0.00    -0.206 F 
ATOM     89  C   UNL A   1      49.606  26.369  24.784  1.00  0.00     0.006 A 
ENDBRANCH  65  82
ENDBRANCH  39  40
ENDBRANCH  32  34
ENDBRANCH  31  32
ENDBRANCH  30  31
ENDBRANCH  29  30
ENDBRANCH  28  29
ENDBRANCH  27  28
ENDBRANCH  26  27
ENDBRANCH   1  26
TORSDOF 23
ENDMDL
MODEL 2
REMARK VINA RESULT:      -9.7      4.280      7.308
REMARK SMILES CC[NH2+][C@]1(C(=O)OCCOCCOCCOCCOC(=O)c2ccc(-c3c4nc(c(-c5c(F)cccc5F)c5ccc([nH]5)c(-c5c(F)cccc5F)c5nc(c(-c6c(F)cccc6F)c6ccc3[nH]6)C=C5)C=C4)cc2)CCC[C@@H](n2cccn2)C1
REMARK SMILES IDX 13 1 12 2 11 3 10 4 9 5 8 6 7 7 5 8 6 9 4 10 76 11 85 12
REMARK SMILES IDX 77 13 79 14 78 15 3 16 2 19 1 20 80 21 81 22 84 23 82 24
REMARK SMILES IDX 83 25 14 26 15 27 16 28 17 29 18 30 19 31 20 32 21 33 22 34
REMARK SMILES IDX 23 35 75 36 24 37 74 38 25 39 26 40 27 41 68 42 28 43 73 44
REMARK SMILES IDX 67 45 69 46 29 47 72 48 66 49 65 50 30 52 56 53 39 54 55 55
REMARK SMILES IDX 40 56 43 57 54 58 70 59 41 60 42 61 53 63 71 64 44 65 31 66
REMARK SMILES IDX 32 67 37 68 33 69 34 70 36 71 38 72 35 73 57 74 58 75 63 76
REMARK SMILES IDX 59 77 60 78 62 79 64 80 61 81 45 82 46 83 51 84 47 85 48 86
REMARK SMILES IDX 50 87 52 88 49 89
REMARK H PARENT 3 17 3 18 69 51 43 62
REMARK Flexibility Score: inf
ROOT
ATOM      1  O   UNL A   1      30.761  26.884  25.851  1.00  0.00    -0.377 OA
ENDROOT
BRANCH   1   2
ATOM      2  C   UNL A   1      30.168  26.689  24.579  1.00  0.00     0.188 C 
BRANCH   2   3
ATOM      3  C   UNL A   1      30.274  27.952  23.693  1.00  0.00     0.188 C 
BRANCH   3   4
ATOM      4  O   UNL A   1      30.924  27.746  22.448  1.00  0.00    -0.376 OA
BRANCH   4   5
ATOM      5  C   UNL A   1      32.221  27.159  22.411  1.00  0.00     0.202 C 
BRANCH   5   6
ATOM      6  C   UNL A   1      32.583  25.908  21.579  1.00  0.00     0.261 C 
BRANCH   6   7
ATOM      7  O   UNL A   1      33.710  25.139  22.028  1.00  0.00    -0.459 OA
BRANCH   7   8
ATOM      8  C   UNL A   1      33.527  23.815  22.221  1.00  0.00     0.368 C 
ATOM      9  O   UNL A   1      33.279  23.039  21.302  1.00  0.00    -0.245 OA
BRANCH   8  10
ATOM     10  C   UNL A   1      33.601  23.408  23.761  1.00  0.00     0.196 C 
ATOM     11  C   UNL A   1      32.470  23.866  24.726  1.00  0.00     0.081 C 
ATOM     12  C   UNL A   1      33.581  21.860  23.775  1.00  0.00     0.108 C 
ATOM     13  C   UNL A   1      32.680  23.344  26.151  1.00  0.00     0.009 C 
ATOM     14  C   UNL A   1      33.664  21.203  25.164  1.00  0.00     0.114 C 
ATOM     15  C   UNL A   1      32.659  21.823  26.158  1.00  0.00     0.028 C 
BRANCH  10  16
ATOM     16  N   UNL A   1      34.900  23.968  24.266  1.00  0.00    -0.332 N 
ATOM     17  H   UNL A   1      34.946  24.962  24.041  1.00  0.00     0.347 HD
ATOM     18  H   UNL A   1      34.945  23.829  25.275  1.00  0.00     0.347 HD
BRANCH  16  19
ATOM     19  C   UNL A   1      36.054  23.274  23.637  1.00  0.00     0.257 C 
ATOM     20  C   UNL A   1      37.051  22.789  24.671  1.00  0.00     0.071 C 
ENDBRANCH  16  19
ENDBRANCH  10  16
BRANCH  14  21
ATOM     21  N   UNL A   1      33.494  19.745  25.042  1.00  0.00    -0.269 N 
ATOM     22  C   UNL A   1      34.441  18.845  24.627  1.00  0.00     0.109 A 
ATOM     23  N   UNL A   1      32.312  19.153  25.322  1.00  0.00    -0.181 NA
ATOM     24  C   UNL A   1      33.835  17.612  24.627  1.00  0.00     0.042 A 
ATOM     25  C   UNL A   1      32.527  17.860  25.072  1.00  0.00     0.135 A 
ENDBRANCH  14  21
ENDBRANCH   8  10
ENDBRANCH   7   8
ENDBRANCH   6   7
ENDBRANCH   5   6
ENDBRANCH   4   5
ENDBRANCH   3   4
ENDBRANCH   2   3
ENDBRANCH   1   2
BRANCH   1  26
ATOM     26  C   UNL A   1      31.888  27.739  25.896  1.00  0.00     0.188 C 
BRANCH  26  27
ATOM     27  C   UNL A   1      32.170  28.594  27.152  1.00  0.00     0.188 C 
BRANCH  27  28
ATOM     28  O   UNL A   1      31.784  29.957  27.039  1.00  0.00    -0.376 OA
BRANCH  28  29
ATOM     29  C   UNL A   1      32.768  30.968  26.964  1.00  0.00     0.202 C 
BRANCH  29  30
ATOM     30  C   UNL A   1      32.276  32.390  27.268  1.00  0.00     0.261 C 
BRANCH  30  31
ATOM     31  O   UNL A   1      33.293  33.397  27.253  1.00  0.00    -0.460 OA
BRANCH  31  32
ATOM     32  C   UNL A   1      33.341  34.194  28.347  1.00  0.00     0.338 C 
ATOM     33  O   UNL A   1      32.529  35.026  28.682  1.00  0.00    -0.246 OA
BRANCH  32  34
ATOM     34  C   UNL A   1      34.464  33.738  29.192  1.00  0.00     0.060 A 
ATOM     35  C   UNL A   1      35.747  34.202  28.877  1.00  0.00     0.016 A 
ATOM     36  C   UNL A   1      34.256  32.892  30.285  1.00  0.00     0.016 A 
ATOM     37  C   UNL A   1      36.840  33.772  29.621  1.00  0.00     0.010 A 
ATOM     38  C   UNL A   1      35.358  32.433  31.011  1.00  0.00     0.010 A 
ATOM     39  C   UNL A   1      36.655  32.831  30.642  1.00  0.00    -0.014 A 
BRANCH  39  40
ATOM     40  C   UNL A   1      37.839  32.066  31.091  1.00  0.00     0.031 A 
ATOM     41  C   UNL A   1      38.351  32.332  32.480  1.00  0.00     0.074 A 
ATOM     42  C   UNL A   1      38.381  31.098  30.337  1.00  0.00     0.049 A 
ATOM     43  N   UNL A   1      39.320  31.752  33.137  1.00  0.00    -0.248 NA
ATOM     44  C   UNL A   1      37.671  33.401  33.229  1.00  0.00     0.031 C 
ATOM     45  C   UNL A   1      37.944  30.725  28.995  1.00  0.00     0.029 A 
ATOM     46  N   UNL A   1      39.421  30.246  30.607  1.00  0.00    -0.354 N 
ATOM     47  C   UNL A   1      39.358  32.378  34.377  1.00  0.00     0.074 A 
ATOM     48  C   UNL A   1      38.354  33.418  34.360  1.00  0.00     0.031 C 
ATOM     49  C   UNL A   1      38.721  29.722  28.550  1.00  0.00     0.029 A 
ATOM     50  C   UNL A   1      39.717  29.398  29.571  1.00  0.00     0.049 A 
ATOM     51  H   UNL A   1      39.907  30.243  31.464  1.00  0.00     0.167 HD
ATOM     52  C   UNL A   1      40.147  32.103  35.442  1.00  0.00     0.037 A 
ATOM     53  C   UNL A   1      40.694  28.477  29.460  1.00  0.00     0.037 A 
ATOM     54  C   UNL A   1      41.159  31.083  35.445  1.00  0.00     0.049 A 
ATOM     55  C   UNL A   1      41.610  28.231  30.630  1.00  0.00     0.074 A 
ATOM     56  C   UNL A   1      42.020  30.722  36.465  1.00  0.00     0.029 A 
ATOM     57  N   UNL A   1      41.456  30.266  34.361  1.00  0.00    -0.354 N 
ATOM     58  N   UNL A   1      41.625  28.809  31.808  1.00  0.00    -0.248 NA
ATOM     59  C   UNL A   1      42.634  27.191  30.461  1.00  0.00     0.031 C 
ATOM     60  C   UNL A   1      42.879  29.729  35.979  1.00  0.00     0.029 A 
ATOM     61  C   UNL A   1      42.505  29.420  34.680  1.00  0.00     0.049 A 
ATOM     62  H   UNL A   1      40.991  30.287  33.495  1.00  0.00     0.167 HD
ATOM     63  C   UNL A   1      42.638  28.185  32.529  1.00  0.00     0.074 A 
ATOM     64  C   UNL A   1      43.202  27.175  31.658  1.00  0.00     0.031 C 
ATOM     65  C   UNL A   1      43.058  28.422  33.798  1.00  0.00     0.037 A 
BRANCH  52  66
ATOM     66  C   UNL A   1      39.960  32.957  36.664  1.00  0.00     0.057 A 
ATOM     67  C   UNL A   1      38.951  32.702  37.605  1.00  0.00     0.134 A 
ATOM     68  C   UNL A   1      40.780  34.069  36.886  1.00  0.00     0.134 A 
ATOM     69  F   UNL A   1      38.113  31.666  37.442  1.00  0.00    -0.206 F 
ATOM     70  C   UNL A   1      38.738  33.547  38.696  1.00  0.00     0.040 A 
ATOM     71  C   UNL A   1      40.600  34.901  37.993  1.00  0.00     0.040 A 
ATOM     72  F   UNL A   1      41.765  34.373  36.029  1.00  0.00    -0.206 F 
ATOM     73  C   UNL A   1      39.568  34.648  38.894  1.00  0.00     0.006 A 
ENDBRANCH  52  66
BRANCH  53  74
ATOM     74  C   UNL A   1      40.857  27.730  28.187  1.00  0.00     0.057 A 
ATOM     75  C   UNL A   1      40.234  26.495  27.975  1.00  0.00     0.134 A 
ATOM     76  C   UNL A   1      41.640  28.244  27.146  1.00  0.00     0.134 A 
ATOM     77  F   UNL A   1      39.489  25.939  28.941  1.00  0.00    -0.206 F 
ATOM     78  C   UNL A   1      40.396  25.792  26.778  1.00  0.00     0.040 A 
ATOM     79  C   UNL A   1      41.788  27.567  25.936  1.00  0.00     0.040 A 
ATOM     80  F   UNL A   1      42.262  29.425  27.287  1.00  0.00    -0.206 F 
ATOM     81  C   UNL A   1      41.168  26.333  25.752  1.00  0.00     0.006 A 
ENDBRANCH  53  74
BRANCH  65  82
ATOM     82  C   UNL A   1      44.156  27.544  34.334  1.00  0.00     0.057 A 
ATOM     83  C   UNL A   1      43.896  26.308  34.940  1.00  0.00     0.134 A 
ATOM     84  C   UNL A   1      45.497  27.934  34.217  1.00  0.00     0.134 A 
ATOM     85  F   UNL A   1      42.635  25.876  35.091  1.00  0.00    -0.206 F 
ATOM     86  C   UNL A   1      44.926  25.511  35.443  1.00  0.00     0.040 A 
ATOM     87  C   UNL A   1      46.536  27.131  34.685  1.00  0.00     0.040 A 
ATOM     88  F   UNL A   1      45.820  29.099  33.634  1.00  0.00    -0.206 F 
ATOM     89  C   UNL A   1      46.252  25.920  35.311  1.00  0.00     0.006 A 
ENDBRANCH  65  82
ENDBRANCH  39  40
ENDBRANCH  32  34
ENDBRANCH  31  32
ENDBRANCH  30  31
ENDBRANCH  29  30
ENDBRANCH  28  29
ENDBRANCH  27  28
ENDBRANCH  26  27
ENDBRANCH   1  26
TORSDOF 23
ENDMDL
MODEL 3
REMARK VINA RESULT:      -9.0      4.445      9.003
REMARK SMILES CC[NH2+][C@]1(C(=O)OCCOCCOCCOCCOC(=O)c2ccc(-c3c4nc(c(-c5c(F)cccc5F)c5ccc([nH]5)c(-c5c(F)cccc5F)c5nc(c(-c6c(F)cccc6F)c6ccc3[nH]6)C=C5)C=C4)cc2)CCC[C@@H](n2cccn2)C1
REMARK SMILES IDX 13 1 12 2 11 3 10 4 9 5 8 6 7 7 5 8 6 9 4 10 76 11 85 12
REMARK SMILES IDX 77 13 79 14 78 15 3 16 2 19 1 20 80 21 81 22 84 23 82 24
REMARK SMILES IDX 83 25 14 26 15 27 16 28 17 29 18 30 19 31 20 32 21 33 22 34
REMARK SMILES IDX 23 35 75 36 24 37 74 38 25 39 26 40 27 41 68 42 28 43 73 44
REMARK SMILES IDX 67 45 69 46 29 47 72 48 66 49 65 50 30 52 56 53 39 54 55 55
REMARK SMILES IDX 40 56 43 57 54 58 70 59 41 60 42 61 53 63 71 64 44 65 31 66
REMARK SMILES IDX 32 67 37 68 33 69 34 70 36 71 38 72 35 73 57 74 58 75 63 76
REMARK SMILES IDX 59 77 60 78 62 79 64 80 61 81 45 82 46 83 51 84 47 85 48 86
REMARK SMILES IDX 50 87 52 88 49 89
REMARK H PARENT 3 17 3 18 69 51 43 62
REMARK Flexibility Score: inf
ROOT
ATOM      1  O   UNL A   1      31.221  27.408  25.235  1.00  0.00    -0.377 OA
ENDROOT
BRANCH   1   2
ATOM      2  C   UNL A   1      31.172  28.171  24.042  1.00  0.00     0.188 C 
BRANCH   2   3
ATOM      3  C   UNL A   1      32.584  28.463  23.485  1.00  0.00     0.188 C 
BRANCH   3   4
ATOM      4  O   UNL A   1      33.012  27.574  22.465  1.00  0.00    -0.376 OA
BRANCH   4   5
ATOM      5  C   UNL A   1      33.199  26.193  22.758  1.00  0.00     0.202 C 
BRANCH   5   6
ATOM      6  C   UNL A   1      32.576  25.040  21.939  1.00  0.00     0.261 C 
BRANCH   6   7
ATOM      7  O   UNL A   1      32.780  23.709  22.438  1.00  0.00    -0.459 OA
BRANCH   7   8
ATOM      8  C   UNL A   1      31.791  23.159  23.174  1.00  0.00     0.368 C 
ATOM      9  O   UNL A   1      30.654  23.620  23.209  1.00  0.00    -0.245 OA
BRANCH   8  10
ATOM     10  C   UNL A   1      32.290  21.907  24.026  1.00  0.00     0.196 C 
ATOM     11  C   UNL A   1      32.248  20.487  23.393  1.00  0.00     0.081 C 
ATOM     12  C   UNL A   1      33.778  22.196  24.342  1.00  0.00     0.108 C 
ATOM     13  C   UNL A   1      32.809  19.417  24.335  1.00  0.00     0.009 C 
ATOM     14  C   UNL A   1      34.501  21.131  25.187  1.00  0.00     0.114 C 
ATOM     15  C   UNL A   1      34.271  19.706  24.641  1.00  0.00     0.028 C 
BRANCH  10  16
ATOM     16  N   UNL A   1      31.436  21.892  25.262  1.00  0.00    -0.332 N 
ATOM     17  H   UNL A   1      30.561  22.381  25.070  1.00  0.00     0.347 HD
ATOM     18  H   UNL A   1      31.252  20.922  25.519  1.00  0.00     0.347 HD
BRANCH  16  19
ATOM     19  C   UNL A   1      32.130  22.561  26.392  1.00  0.00     0.257 C 
ATOM     20  C   UNL A   1      31.827  24.046  26.439  1.00  0.00     0.071 C 
ENDBRANCH  16  19
ENDBRANCH  10  16
BRANCH  14  21
ATOM     21  N   UNL A   1      35.933  21.459  25.292  1.00  0.00    -0.269 N 
ATOM     22  C   UNL A   1      36.984  20.609  25.061  1.00  0.00     0.109 A 
ATOM     23  N   UNL A   1      36.343  22.689  25.671  1.00  0.00    -0.181 NA
ATOM     24  C   UNL A   1      38.129  21.323  25.318  1.00  0.00     0.042 A 
ATOM     25  C   UNL A   1      37.675  22.601  25.681  1.00  0.00     0.135 A 
ENDBRANCH  14  21
ENDBRANCH   8  10
ENDBRANCH   7   8
ENDBRANCH   6   7
ENDBRANCH   5   6
ENDBRANCH   4   5
ENDBRANCH   3   4
ENDBRANCH   2   3
ENDBRANCH   1   2
BRANCH   1  26
ATOM     26  C   UNL A   1      32.257  27.727  26.144  1.00  0.00     0.188 C 
BRANCH  26  27
ATOM     27  C   UNL A   1      31.953  28.542  27.421  1.00  0.00     0.188 C 
BRANCH  27  28
ATOM     28  O   UNL A   1      31.618  29.903  27.188  1.00  0.00    -0.376 OA
BRANCH  28  29
ATOM     29  C   UNL A   1      32.630  30.839  26.880  1.00  0.00     0.202 C 
BRANCH  29  30
ATOM     30  C   UNL A   1      32.314  32.296  27.247  1.00  0.00     0.261 C 
BRANCH  30  31
ATOM     31  O   UNL A   1      33.456  33.154  27.348  1.00  0.00    -0.460 OA
BRANCH  31  32
ATOM     32  C   UNL A   1      33.376  34.122  28.292  1.00  0.00     0.338 C 
ATOM     33  O   UNL A   1      32.534  34.985  28.386  1.00  0.00    -0.246 OA
BRANCH  32  34
ATOM     34  C   UNL A   1      34.388  33.829  29.328  1.00  0.00     0.060 A 
ATOM     35  C   UNL A   1      35.716  34.188  29.063  1.00  0.00     0.016 A 
ATOM     36  C   UNL A   1      34.035  33.237  30.544  1.00  0.00     0.016 A 
ATOM     37  C   UNL A   1      36.708  33.899  29.992  1.00  0.00     0.010 A 
ATOM     38  C   UNL A   1      35.037  32.917  31.463  1.00  0.00     0.010 A 
ATOM     39  C   UNL A   1      36.381  33.199  31.160  1.00  0.00    -0.014 A 
BRANCH  39  40
ATOM     40  C   UNL A   1      37.479  32.519  31.882  1.00  0.00     0.031 A 
ATOM     41  C   UNL A   1      38.167  31.378  31.183  1.00  0.00     0.074 A 
ATOM     42  C   UNL A   1      37.921  32.958  33.070  1.00  0.00     0.049 A 
ATOM     43  N   UNL A   1      39.196  30.667  31.561  1.00  0.00    -0.248 NA
ATOM     44  C   UNL A   1      37.615  30.990  29.874  1.00  0.00     0.031 C 
ATOM     45  C   UNL A   1      37.360  34.077  33.821  1.00  0.00     0.029 A 
ATOM     46  N   UNL A   1      38.957  32.508  33.848  1.00  0.00    -0.354 N 
ATOM     47  C   UNL A   1      39.418  29.757  30.534  1.00  0.00     0.074 A 
ATOM     48  C   UNL A   1      38.386  29.969  29.545  1.00  0.00     0.031 C 
ATOM     49  C   UNL A   1      38.054  34.221  34.964  1.00  0.00     0.029 A 
ATOM     50  C   UNL A   1      39.093  33.194  35.028  1.00  0.00     0.049 A 
ATOM     51  H   UNL A   1      39.547  31.765  33.584  1.00  0.00     0.167 HD
ATOM     52  C   UNL A   1      40.404  28.837  30.416  1.00  0.00     0.037 A 
ATOM     53  C   UNL A   1      39.952  32.999  36.047  1.00  0.00     0.037 A 
ATOM     54  C   UNL A   1      41.414  28.614  31.414  1.00  0.00     0.049 A 
ATOM     55  C   UNL A   1      41.000  31.923  35.931  1.00  0.00     0.074 A 
ATOM     56  C   UNL A   1      42.456  27.705  31.402  1.00  0.00     0.029 A 
ATOM     57  N   UNL A   1      41.498  29.305  32.616  1.00  0.00    -0.354 N 
ATOM     58  N   UNL A   1      41.221  31.083  34.948  1.00  0.00    -0.248 NA
ATOM     59  C   UNL A   1      41.929  31.780  37.059  1.00  0.00     0.031 C 
ATOM     60  C   UNL A   1      43.133  27.803  32.623  1.00  0.00     0.029 A 
ATOM     61  C   UNL A   1      42.558  28.824  33.365  1.00  0.00     0.049 A 
ATOM     62  H   UNL A   1      40.892  30.028  32.895  1.00  0.00     0.167 HD
ATOM     63  C   UNL A   1      42.329  30.333  35.325  1.00  0.00     0.074 A 
ATOM     64  C   UNL A   1      42.741  30.830  36.622  1.00  0.00     0.031 C 
ATOM     65  C   UNL A   1      42.953  29.328  34.658  1.00  0.00     0.037 A 
BRANCH  52  66
ATOM     66  C   UNL A   1      40.391  27.983  29.179  1.00  0.00     0.057 A 
ATOM     67  C   UNL A   1      39.608  26.823  29.082  1.00  0.00     0.134 A 
ATOM     68  C   UNL A   1      41.196  28.309  28.082  1.00  0.00     0.134 A 
ATOM     69  F   UNL A   1      38.830  26.439  30.107  1.00  0.00    -0.206 F 
ATOM     70  C   UNL A   1      39.662  25.997  27.958  1.00  0.00     0.040 A 
ATOM     71  C   UNL A   1      41.231  27.510  26.938  1.00  0.00     0.040 A 
ATOM     72  F   UNL A   1      41.970  29.404  28.105  1.00  0.00    -0.206 F 
ATOM     73  C   UNL A   1      40.472  26.343  26.880  1.00  0.00     0.006 A 
ENDBRANCH  52  66
BRANCH  53  74
ATOM     74  C   UNL A   1      39.845  33.838  37.267  1.00  0.00     0.057 A 
ATOM     75  C   UNL A   1      40.571  35.026  37.407  1.00  0.00     0.134 A 
ATOM     76  C   UNL A   1      39.003  33.468  38.323  1.00  0.00     0.134 A 
ATOM     77  F   UNL A   1      41.410  35.424  36.441  1.00  0.00    -0.206 F 
ATOM     78  C   UNL A   1      40.473  35.810  38.560  1.00  0.00     0.040 A 
ATOM     79  C   UNL A   1      38.875  34.255  39.469  1.00  0.00     0.040 A 
ATOM     80  F   UNL A   1      38.280  32.341  38.249  1.00  0.00    -0.206 F 
ATOM     81  C   UNL A   1      39.616  35.428  39.591  1.00  0.00     0.006 A 
ENDBRANCH  53  74
BRANCH  65  82
ATOM     82  C   UNL A   1      44.173  28.729  35.301  1.00  0.00     0.057 A 
ATOM     83  C   UNL A   1      45.457  29.256  35.106  1.00  0.00     0.134 A 
ATOM     84  C   UNL A   1      44.056  27.621  36.151  1.00  0.00     0.134 A 
ATOM     85  F   UNL A   1      45.643  30.312  34.300  1.00  0.00    -0.206 F 
ATOM     86  C   UNL A   1      46.581  28.680  35.702  1.00  0.00     0.040 A 
ATOM     87  C   UNL A   1      45.166  27.057  36.778  1.00  0.00     0.040 A 
ATOM     88  F   UNL A   1      42.855  27.073  36.395  1.00  0.00    -0.206 F 
ATOM     89  C   UNL A   1      46.436  27.580  36.546  1.00  0.00     0.006 A 
ENDBRANCH  65  82
ENDBRANCH  39  40
ENDBRANCH  32  34
ENDBRANCH  31  32
ENDBRANCH  30  31
ENDBRANCH  29  30
ENDBRANCH  28  29
ENDBRANCH  27  28
ENDBRANCH  26  27
ENDBRANCH   1  26
TORSDOF 23
ENDMDL
