MODEL 1
REMARK VINA RESULT:     -10.1      0.000      0.000
REMARK SMILES C[C@](NC(=O)Cc1cccc(F)c1F)(C(=O)OCCOCCOCCOCCOC(=O)c1ccc(-c2c3nc(c(-c4c(F)cccc4F)c4ccc([nH]4)c(-c4c(F)cccc4F)c4nc(c(-c5c(F)cccc5F)c5ccc2[nH]5)C=C4)C=C3)cc1)C1CC1
REMARK SMILES IDX 22 1 21 2 20 3 19 4 18 5 17 6 15 7 16 8 2 9 1 10 86 11 87 12
REMARK SMILES IDX 88 13 3 14 4 15 5 17 6 18 7 19 8 20 13 21 9 22 11 23 14 24
REMARK SMILES IDX 10 25 12 26 23 27 24 28 25 29 26 30 27 31 28 32 29 33 30 34
REMARK SMILES IDX 31 35 32 36 33 37 85 38 34 39 84 40 35 41 36 42 37 43 78 44
REMARK SMILES IDX 38 45 83 46 77 47 79 48 39 49 82 50 76 51 75 52 40 54 66 55
REMARK SMILES IDX 49 56 65 57 50 58 53 59 64 60 80 61 51 62 52 63 63 65 81 66
REMARK SMILES IDX 54 67 41 68 42 69 47 70 43 71 44 72 46 73 48 74 45 75 67 76
REMARK SMILES IDX 68 77 73 78 69 79 70 80 72 81 74 82 71 83 55 84 56 85 61 86
REMARK SMILES IDX 57 87 58 88 60 89 62 90 59 91
REMARK H PARENT 3 16 79 53 53 64
REMARK Flexibility Score: inf
ROOT
ATOM      1  C   UNL A   1      38.045  21.975  25.679  1.00  0.00     0.188 C 
ENDROOT
BRANCH   1   2
ATOM      2  C   UNL A   1      37.184  21.288  24.598  1.00  0.00     0.188 C 
BRANCH   2   3
ATOM      3  O   UNL A   1      35.794  21.567  24.509  1.00  0.00    -0.376 OA
BRANCH   3   4
ATOM      4  C   UNL A   1      34.871  20.561  24.894  1.00  0.00     0.202 C 
BRANCH   4   5
ATOM      5  C   UNL A   1      33.400  20.623  24.440  1.00  0.00     0.261 C 
BRANCH   5   6
ATOM      6  O   UNL A   1      32.995  21.767  23.658  1.00  0.00    -0.461 OA
BRANCH   6   7
ATOM      7  C   UNL A   1      32.140  22.652  24.242  1.00  0.00     0.331 C 
ATOM      8  O   UNL A   1      31.273  22.322  25.046  1.00  0.00    -0.249 OA
BRANCH   7   9
ATOM      9  C   UNL A   1      32.456  24.171  23.902  1.00  0.00     0.138 C 
ATOM     10  C   UNL A   1      31.344  25.054  24.493  1.00  0.00     0.048 C 
BRANCH   9  11
ATOM     11  C   UNL A   1      33.729  24.530  24.734  1.00  0.00     0.026 C 
ATOM     12  C   UNL A   1      33.862  25.570  25.835  1.00  0.00     0.007 C 
ATOM     13  C   UNL A   1      33.893  24.112  26.182  1.00  0.00     0.007 C 
ENDBRANCH   9  11
BRANCH   9  14
ATOM     14  N   UNL A   1      32.700  24.510  22.479  1.00  0.00    -0.340 N 
ATOM     15  C   UNL A   1      33.048  25.618  21.780  1.00  0.00     0.225 C 
ATOM     16  H   UNL A   1      32.575  23.730  21.890  1.00  0.00     0.164 HD
ATOM     17  O   UNL A   1      33.089  25.491  20.548  1.00  0.00    -0.275 OA
BRANCH  15  18
ATOM     18  C   UNL A   1      33.443  26.940  22.404  1.00  0.00     0.138 C 
BRANCH  18  19
ATOM     19  C   UNL A   1      32.309  27.807  22.878  1.00  0.00     0.000 A 
ATOM     20  C   UNL A   1      31.063  27.792  22.230  1.00  0.00     0.007 A 
ATOM     21  C   UNL A   1      32.474  28.660  23.973  1.00  0.00     0.162 A 
ATOM     22  C   UNL A   1      30.013  28.596  22.689  1.00  0.00     0.004 A 
ATOM     23  C   UNL A   1      31.423  29.443  24.438  1.00  0.00     0.159 A 
ATOM     24  F   UNL A   1      33.648  28.708  24.614  1.00  0.00    -0.203 F 
ATOM     25  C   UNL A   1      30.191  29.420  23.800  1.00  0.00     0.042 A 
ATOM     26  F   UNL A   1      31.579  30.187  25.542  1.00  0.00    -0.204 F 
ENDBRANCH  18  19
ENDBRANCH  15  18
ENDBRANCH   9  14
ENDBRANCH   7   9
ENDBRANCH   6   7
ENDBRANCH   5   6
ENDBRANCH   4   5
ENDBRANCH   3   4
ENDBRANCH   2   3
ENDBRANCH   1   2
BRANCH   1  27
ATOM     27  O   UNL A   1      39.305  21.375  25.912  1.00  0.00    -0.377 OA
BRANCH  27  28
ATOM     28  C   UNL A   1      40.108  22.023  26.885  1.00  0.00     0.188 C 
BRANCH  28  29
ATOM     29  C   UNL A   1      41.328  21.231  27.395  1.00  0.00     0.188 C 
BRANCH  29  30
ATOM     30  O   UNL A   1      41.988  20.488  26.375  1.00  0.00    -0.376 OA
BRANCH  30  31
ATOM     31  C   UNL A   1      43.345  20.782  26.082  1.00  0.00     0.202 C 
BRANCH  31  32
ATOM     32  C   UNL A   1      43.642  21.698  24.883  1.00  0.00     0.261 C 
BRANCH  32  33
ATOM     33  O   UNL A   1      43.177  23.054  24.969  1.00  0.00    -0.460 OA
BRANCH  33  34
ATOM     34  C   UNL A   1      44.089  24.039  25.129  1.00  0.00     0.338 C 
ATOM     35  O   UNL A   1      45.089  24.230  24.474  1.00  0.00    -0.246 OA
BRANCH  34  36
ATOM     36  C   UNL A   1      43.532  24.984  26.128  1.00  0.00     0.060 A 
ATOM     37  C   UNL A   1      43.694  26.362  25.929  1.00  0.00     0.016 A 
ATOM     38  C   UNL A   1      42.817  24.513  27.232  1.00  0.00     0.016 A 
ATOM     39  C   UNL A   1      43.138  27.272  26.830  1.00  0.00     0.010 A 
ATOM     40  C   UNL A   1      42.293  25.425  28.152  1.00  0.00     0.010 A 
ATOM     41  C   UNL A   1      42.461  26.809  27.965  1.00  0.00    -0.014 A 
BRANCH  41  42
ATOM     42  C   UNL A   1      42.044  27.752  29.031  1.00  0.00     0.031 A 
ATOM     43  C   UNL A   1      42.788  27.735  30.336  1.00  0.00     0.074 A 
ATOM     44  C   UNL A   1      41.007  28.591  28.855  1.00  0.00     0.049 A 
ATOM     45  N   UNL A   1      42.525  28.369  31.448  1.00  0.00    -0.248 NA
ATOM     46  C   UNL A   1      43.989  26.886  30.394  1.00  0.00     0.031 C 
ATOM     47  C   UNL A   1      40.233  28.732  27.623  1.00  0.00     0.029 A 
ATOM     48  N   UNL A   1      40.408  29.465  29.730  1.00  0.00    -0.354 N 
ATOM     49  C   UNL A   1      43.513  27.983  32.345  1.00  0.00     0.074 A 
ATOM     50  C   UNL A   1      44.378  27.054  31.651  1.00  0.00     0.031 C 
ATOM     51  C   UNL A   1      39.241  29.616  27.832  1.00  0.00     0.029 A 
ATOM     52  C   UNL A   1      39.283  30.067  29.221  1.00  0.00     0.049 A 
ATOM     53  H   UNL A   1      40.754  29.643  30.634  1.00  0.00     0.167 HD
ATOM     54  C   UNL A   1      43.680  28.368  33.631  1.00  0.00     0.037 A 
ATOM     55  C   UNL A   1      38.366  30.854  29.821  1.00  0.00     0.037 A 
ATOM     56  C   UNL A   1      42.821  29.297  34.315  1.00  0.00     0.049 A 
ATOM     57  C   UNL A   1      38.531  31.198  31.281  1.00  0.00     0.074 A 
ATOM     58  C   UNL A   1      42.937  29.782  35.606  1.00  0.00     0.029 A 
ATOM     59  N   UNL A   1      41.681  29.868  33.773  1.00  0.00    -0.354 N 
ATOM     60  N   UNL A   1      39.495  30.867  32.106  1.00  0.00    -0.248 NA
ATOM     61  C   UNL A   1      37.475  32.018  31.895  1.00  0.00     0.031 C 
ATOM     62  C   UNL A   1      41.831  30.594  35.869  1.00  0.00     0.029 A 
ATOM     63  C   UNL A   1      41.059  30.664  34.720  1.00  0.00     0.049 A 
ATOM     64  H   UNL A   1      41.361  29.728  32.854  1.00  0.00     0.167 HD
ATOM     65  C   UNL A   1      39.174  31.455  33.325  1.00  0.00     0.074 A 
ATOM     66  C   UNL A   1      37.940  32.184  33.125  1.00  0.00     0.031 C 
ATOM     67  C   UNL A   1      39.835  31.391  34.506  1.00  0.00     0.037 A 
BRANCH  54  68
ATOM     68  C   UNL A   1      44.814  27.765  34.405  1.00  0.00     0.057 A 
ATOM     69  C   UNL A   1      46.092  28.334  34.417  1.00  0.00     0.134 A 
ATOM     70  C   UNL A   1      44.595  26.646  35.221  1.00  0.00     0.134 A 
ATOM     71  F   UNL A   1      46.370  29.398  33.649  1.00  0.00    -0.206 F 
ATOM     72  C   UNL A   1      47.115  27.811  35.209  1.00  0.00     0.040 A 
ATOM     73  C   UNL A   1      45.602  26.129  36.035  1.00  0.00     0.040 A 
ATOM     74  F   UNL A   1      43.390  26.056  35.257  1.00  0.00    -0.206 F 
ATOM     75  C   UNL A   1      46.867  26.711  36.031  1.00  0.00     0.006 A 
ENDBRANCH  54  68
BRANCH  55  76
ATOM     76  C   UNL A   1      37.169  31.327  29.074  1.00  0.00     0.057 A 
ATOM     77  C   UNL A   1      37.081  32.639  28.594  1.00  0.00     0.134 A 
ATOM     78  C   UNL A   1      36.055  30.500  28.886  1.00  0.00     0.134 A 
ATOM     79  F   UNL A   1      38.103  33.491  28.765  1.00  0.00    -0.206 F 
ATOM     80  C   UNL A   1      35.920  33.121  27.985  1.00  0.00     0.040 A 
ATOM     81  C   UNL A   1      34.899  30.958  28.249  1.00  0.00     0.040 A 
ATOM     82  F   UNL A   1      36.069  29.232  29.322  1.00  0.00    -0.206 F 
ATOM     83  C   UNL A   1      34.824  32.277  27.809  1.00  0.00     0.006 A 
ENDBRANCH  55  76
BRANCH  67  84
ATOM     84  C   UNL A   1      39.257  32.147  35.667  1.00  0.00     0.057 A 
ATOM     85  C   UNL A   1      39.600  33.481  35.924  1.00  0.00     0.134 A 
ATOM     86  C   UNL A   1      38.306  31.553  36.506  1.00  0.00     0.134 A 
ATOM     87  F   UNL A   1      40.515  34.107  35.167  1.00  0.00    -0.206 F 
ATOM     88  C   UNL A   1      39.034  34.189  36.986  1.00  0.00     0.040 A 
ATOM     89  C   UNL A   1      37.709  32.259  37.551  1.00  0.00     0.040 A 
ATOM     90  F   UNL A   1      37.922  30.283  36.309  1.00  0.00    -0.206 F 
ATOM     91  C   UNL A   1      38.078  33.580  37.796  1.00  0.00     0.006 A 
ENDBRANCH  67  84
ENDBRANCH  41  42
ENDBRANCH  34  36
ENDBRANCH  33  34
ENDBRANCH  32  33
ENDBRANCH  31  32
ENDBRANCH  30  31
ENDBRANCH  29  30
ENDBRANCH  28  29
ENDBRANCH  27  28
ENDBRANCH   1  27
TORSDOF 24
ENDMDL
MODEL 2
REMARK VINA RESULT:     -10.0      1.889      6.966
REMARK SMILES C[C@](NC(=O)Cc1cccc(F)c1F)(C(=O)OCCOCCOCCOCCOC(=O)c1ccc(-c2c3nc(c(-c4c(F)cccc4F)c4ccc([nH]4)c(-c4c(F)cccc4F)c4nc(c(-c5c(F)cccc5F)c5ccc2[nH]5)C=C4)C=C3)cc1)C1CC1
REMARK SMILES IDX 22 1 21 2 20 3 19 4 18 5 17 6 15 7 16 8 2 9 1 10 86 11 87 12
REMARK SMILES IDX 88 13 3 14 4 15 5 17 6 18 7 19 8 20 13 21 9 22 11 23 14 24
REMARK SMILES IDX 10 25 12 26 23 27 24 28 25 29 26 30 27 31 28 32 29 33 30 34
REMARK SMILES IDX 31 35 32 36 33 37 85 38 34 39 84 40 35 41 36 42 37 43 78 44
REMARK SMILES IDX 38 45 83 46 77 47 79 48 39 49 82 50 76 51 75 52 40 54 66 55
REMARK SMILES IDX 49 56 65 57 50 58 53 59 64 60 80 61 51 62 52 63 63 65 81 66
REMARK SMILES IDX 54 67 41 68 42 69 47 70 43 71 44 72 46 73 48 74 45 75 67 76
REMARK SMILES IDX 68 77 73 78 69 79 70 80 72 81 74 82 71 83 55 84 56 85 61 86
REMARK SMILES IDX 57 87 58 88 60 89 62 90 59 91
REMARK H PARENT 3 16 79 53 53 64
REMARK Flexibility Score: inf
ROOT
ATOM      1  C   UNL A   1      40.685  21.391  26.576  1.00  0.00     0.188 C 
ENDROOT
BRANCH   1   2
ATOM      2  C   UNL A   1      39.318  22.024  26.236  1.00  0.00     0.188 C 
BRANCH   2   3
ATOM      3  O   UNL A   1      38.332  21.267  25.549  1.00  0.00    -0.376 OA
BRANCH   3   4
ATOM      4  C   UNL A   1      37.082  21.874  25.265  1.00  0.00     0.202 C 
BRANCH   4   5
ATOM      5  C   UNL A   1      36.995  23.369  24.906  1.00  0.00     0.261 C 
BRANCH   5   6
ATOM      6  O   UNL A   1      35.751  24.047  25.187  1.00  0.00    -0.461 OA
BRANCH   6   7
ATOM      7  C   UNL A   1      34.942  24.334  24.129  1.00  0.00     0.331 C 
ATOM      8  O   UNL A   1      35.123  23.885  23.001  1.00  0.00    -0.249 OA
BRANCH   7   9
ATOM      9  C   UNL A   1      33.660  25.187  24.514  1.00  0.00     0.138 C 
ATOM     10  C   UNL A   1      34.069  26.266  25.532  1.00  0.00     0.048 C 
BRANCH   9  11
ATOM     11  C   UNL A   1      33.286  25.986  23.224  1.00  0.00     0.026 C 
ATOM     12  C   UNL A   1      32.226  25.643  22.189  1.00  0.00     0.007 C 
ATOM     13  C   UNL A   1      32.010  26.799  23.119  1.00  0.00     0.007 C 
ENDBRANCH   9  11
BRANCH   9  14
ATOM     14  N   UNL A   1      32.466  24.444  24.984  1.00  0.00    -0.340 N 
ATOM     15  C   UNL A   1      31.744  23.378  24.560  1.00  0.00     0.225 C 
ATOM     16  H   UNL A   1      32.104  24.823  25.818  1.00  0.00     0.164 HD
ATOM     17  O   UNL A   1      30.740  23.102  25.232  1.00  0.00    -0.275 OA
BRANCH  15  18
ATOM     18  C   UNL A   1      32.120  22.495  23.390  1.00  0.00     0.138 C 
BRANCH  18  19
ATOM     19  C   UNL A   1      32.314  21.036  23.703  1.00  0.00     0.000 A 
ATOM     20  C   UNL A   1      32.606  20.607  25.009  1.00  0.00     0.007 A 
ATOM     21  C   UNL A   1      32.220  20.071  22.697  1.00  0.00     0.162 A 
ATOM     22  C   UNL A   1      32.773  19.246  25.289  1.00  0.00     0.004 A 
ATOM     23  C   UNL A   1      32.369  18.719  22.982  1.00  0.00     0.159 A 
ATOM     24  F   UNL A   1      31.950  20.441  21.439  1.00  0.00    -0.203 F 
ATOM     25  C   UNL A   1      32.649  18.298  24.274  1.00  0.00     0.042 A 
ATOM     26  F   UNL A   1      32.188  17.807  22.016  1.00  0.00    -0.204 F 
ENDBRANCH  18  19
ENDBRANCH  15  18
ENDBRANCH   9  14
ENDBRANCH   7   9
ENDBRANCH   6   7
ENDBRANCH   5   6
ENDBRANCH   4   5
ENDBRANCH   3   4
ENDBRANCH   2   3
ENDBRANCH   1   2
BRANCH   1  27
ATOM     27  O   UNL A   1      40.760  19.991  26.389  1.00  0.00    -0.377 OA
BRANCH  27  28
ATOM     28  C   UNL A   1      42.030  19.506  25.983  1.00  0.00     0.188 C 
BRANCH  28  29
ATOM     29  C   UNL A   1      43.183  20.529  25.997  1.00  0.00     0.188 C 
BRANCH  29  30
ATOM     30  O   UNL A   1      43.948  20.538  24.796  1.00  0.00    -0.376 OA
BRANCH  30  31
ATOM     31  C   UNL A   1      44.858  21.603  24.571  1.00  0.00     0.202 C 
BRANCH  31  32
ATOM     32  C   UNL A   1      44.300  22.926  24.020  1.00  0.00     0.261 C 
BRANCH  32  33
ATOM     33  O   UNL A   1      43.793  23.867  24.979  1.00  0.00    -0.460 OA
BRANCH  33  34
ATOM     34  C   UNL A   1      44.550  24.944  25.289  1.00  0.00     0.338 C 
ATOM     35  O   UNL A   1      45.505  25.372  24.680  1.00  0.00    -0.246 OA
BRANCH  34  36
ATOM     36  C   UNL A   1      43.869  25.644  26.405  1.00  0.00     0.060 A 
ATOM     37  C   UNL A   1      44.223  26.969  26.697  1.00  0.00     0.016 A 
ATOM     38  C   UNL A   1      42.858  25.011  27.131  1.00  0.00     0.016 A 
ATOM     39  C   UNL A   1      43.563  27.665  27.712  1.00  0.00     0.010 A 
ATOM     40  C   UNL A   1      42.225  25.697  28.171  1.00  0.00     0.010 A 
ATOM     41  C   UNL A   1      42.581  27.023  28.477  1.00  0.00    -0.014 A 
BRANCH  41  42
ATOM     42  C   UNL A   1      42.019  27.677  29.683  1.00  0.00     0.031 A 
ATOM     43  C   UNL A   1      40.780  28.514  29.534  1.00  0.00     0.074 A 
ATOM     44  C   UNL A   1      42.611  27.554  30.885  1.00  0.00     0.049 A 
ATOM     45  N   UNL A   1      40.186  29.280  30.411  1.00  0.00    -0.248 NA
ATOM     46  C   UNL A   1      40.124  28.485  28.216  1.00  0.00     0.031 C 
ATOM     47  C   UNL A   1      43.790  26.738  31.167  1.00  0.00     0.029 A 
ATOM     48  N   UNL A   1      42.312  28.142  32.090  1.00  0.00    -0.354 N 
ATOM     49  C   UNL A   1      39.100  29.839  29.750  1.00  0.00     0.074 A 
ATOM     50  C   UNL A   1      39.119  29.332  28.395  1.00  0.00     0.031 C 
ATOM     51  C   UNL A   1      44.135  26.904  32.456  1.00  0.00     0.029 A 
ATOM     52  C   UNL A   1      43.229  27.868  33.076  1.00  0.00     0.049 A 
ATOM     53  H   UNL A   1      41.517  28.704  32.233  1.00  0.00     0.167 HD
ATOM     54  C   UNL A   1      38.174  30.701  30.231  1.00  0.00     0.037 A 
ATOM     55  C   UNL A   1      43.351  28.375  34.321  1.00  0.00     0.037 A 
ATOM     56  C   UNL A   1      38.155  31.198  31.580  1.00  0.00     0.049 A 
ATOM     57  C   UNL A   1      42.352  29.399  34.801  1.00  0.00     0.074 A 
ATOM     58  C   UNL A   1      37.230  32.040  32.171  1.00  0.00     0.029 A 
ATOM     59  N   UNL A   1      39.112  30.915  32.541  1.00  0.00    -0.354 N 
ATOM     60  N   UNL A   1      41.301  29.884  34.186  1.00  0.00    -0.248 NA
ATOM     61  C   UNL A   1      42.563  29.954  36.148  1.00  0.00     0.031 C 
ATOM     62  C   UNL A   1      37.662  32.320  33.470  1.00  0.00     0.029 A 
ATOM     63  C   UNL A   1      38.823  31.603  33.708  1.00  0.00     0.049 A 
ATOM     64  H   UNL A   1      39.881  30.315  32.414  1.00  0.00     0.167 HD
ATOM     65  C   UNL A   1      40.716  30.779  35.074  1.00  0.00     0.074 A 
ATOM     66  C   UNL A   1      41.513  30.751  36.281  1.00  0.00     0.031 C 
ATOM     67  C   UNL A   1      39.621  31.560  34.905  1.00  0.00     0.037 A 
BRANCH  54  68
ATOM     68  C   UNL A   1      37.116  31.194  29.290  1.00  0.00     0.057 A 
ATOM     69  C   UNL A   1      36.001  30.418  28.951  1.00  0.00     0.134 A 
ATOM     70  C   UNL A   1      37.173  32.500  28.786  1.00  0.00     0.134 A 
ATOM     71  F   UNL A   1      35.893  29.155  29.390  1.00  0.00    -0.206 F 
ATOM     72  C   UNL A   1      34.982  30.922  28.142  1.00  0.00     0.040 A 
ATOM     73  C   UNL A   1      36.149  33.024  27.997  1.00  0.00     0.040 A 
ATOM     74  F   UNL A   1      38.214  33.296  29.076  1.00  0.00    -0.206 F 
ATOM     75  C   UNL A   1      35.049  32.234  27.672  1.00  0.00     0.006 A 
ENDBRANCH  54  68
BRANCH  55  76
ATOM     76  C   UNL A   1      44.491  27.981  35.191  1.00  0.00     0.057 A 
ATOM     77  C   UNL A   1      44.384  26.919  36.097  1.00  0.00     0.134 A 
ATOM     78  C   UNL A   1      45.692  28.701  35.188  1.00  0.00     0.134 A 
ATOM     79  F   UNL A   1      43.251  26.204  36.169  1.00  0.00    -0.206 F 
ATOM     80  C   UNL A   1      45.413  26.610  36.990  1.00  0.00     0.040 A 
ATOM     81  C   UNL A   1      46.742  28.383  36.053  1.00  0.00     0.040 A 
ATOM     82  F   UNL A   1      45.863  29.731  34.347  1.00  0.00    -0.206 F 
ATOM     83  C   UNL A   1      46.598  27.342  36.967  1.00  0.00     0.006 A 
ENDBRANCH  55  76
BRANCH  67  84
ATOM     84  C   UNL A   1      39.204  32.429  36.056  1.00  0.00     0.057 A 
ATOM     85  C   UNL A   1      38.338  31.966  37.055  1.00  0.00     0.134 A 
ATOM     86  C   UNL A   1      39.716  33.726  36.197  1.00  0.00     0.134 A 
ATOM     87  F   UNL A   1      37.802  30.738  36.975  1.00  0.00    -0.206 F 
ATOM     88  C   UNL A   1      37.981  32.768  38.141  1.00  0.00     0.040 A 
ATOM     89  C   UNL A   1      39.391  34.526  37.293  1.00  0.00     0.040 A 
ATOM     90  F   UNL A   1      40.560  34.228  35.283  1.00  0.00    -0.206 F 
ATOM     91  C   UNL A   1      38.515  34.048  38.266  1.00  0.00     0.006 A 
ENDBRANCH  67  84
ENDBRANCH  41  42
ENDBRANCH  34  36
ENDBRANCH  33  34
ENDBRANCH  32  33
ENDBRANCH  31  32
ENDBRANCH  30  31
ENDBRANCH  29  30
ENDBRANCH  28  29
ENDBRANCH  27  28
ENDBRANCH   1  27
TORSDOF 24
ENDMDL
MODEL 3
REMARK VINA RESULT:      -9.9      5.000      9.925
REMARK SMILES C[C@](NC(=O)Cc1cccc(F)c1F)(C(=O)OCCOCCOCCOCCOC(=O)c1ccc(-c2c3nc(c(-c4c(F)cccc4F)c4ccc([nH]4)c(-c4c(F)cccc4F)c4nc(c(-c5c(F)cccc5F)c5ccc2[nH]5)C=C4)C=C3)cc1)C1CC1
REMARK SMILES IDX 22 1 21 2 20 3 19 4 18 5 17 6 15 7 16 8 2 9 1 10 86 11 87 12
REMARK SMILES IDX 88 13 3 14 4 15 5 17 6 18 7 19 8 20 13 21 9 22 11 23 14 24
REMARK SMILES IDX 10 25 12 26 23 27 24 28 25 29 26 30 27 31 28 32 29 33 30 34
REMARK SMILES IDX 31 35 32 36 33 37 85 38 34 39 84 40 35 41 36 42 37 43 78 44
REMARK SMILES IDX 38 45 83 46 77 47 79 48 39 49 82 50 76 51 75 52 40 54 66 55
REMARK SMILES IDX 49 56 65 57 50 58 53 59 64 60 80 61 51 62 52 63 63 65 81 66
REMARK SMILES IDX 54 67 41 68 42 69 47 70 43 71 44 72 46 73 48 74 45 75 67 76
REMARK SMILES IDX 68 77 73 78 69 79 70 80 72 81 74 82 71 83 55 84 56 85 61 86
REMARK SMILES IDX 57 87 58 88 60 89 62 90 59 91
REMARK H PARENT 3 16 79 53 53 64
REMARK Flexibility Score: inf
ROOT
ATOM      1  C   UNL A   1      35.139  31.799  28.175  1.00  0.00     0.188 C 
ENDROOT
BRANCH   1   2
ATOM      2  C   UNL A   1      34.188  30.764  27.537  1.00  0.00     0.188 C 
BRANCH   2   3
ATOM      3  O   UNL A   1      33.055  31.195  26.798  1.00  0.00    -0.376 OA
BRANCH   3   4
ATOM      4  C   UNL A   1      31.983  30.287  26.600  1.00  0.00     0.202 C 
BRANCH   4   5
ATOM      5  C   UNL A   1      31.973  28.914  27.299  1.00  0.00     0.261 C 
BRANCH   5   6
ATOM      6  O   UNL A   1      31.390  27.807  26.578  1.00  0.00    -0.461 OA
BRANCH   6   7
ATOM      7  C   UNL A   1      32.212  27.086  25.767  1.00  0.00     0.331 C 
ATOM      8  O   UNL A   1      33.333  26.714  26.101  1.00  0.00    -0.249 OA
BRANCH   7   9
ATOM      9  C   UNL A   1      31.539  26.644  24.399  1.00  0.00     0.138 C 
ATOM     10  C   UNL A   1      30.408  25.645  24.701  1.00  0.00     0.048 C 
BRANCH   9  11
ATOM     11  C   UNL A   1      30.806  27.916  23.862  1.00  0.00     0.026 C 
ATOM     12  C   UNL A   1      30.403  28.227  22.430  1.00  0.00     0.007 C 
ATOM     13  C   UNL A   1      29.349  27.893  23.442  1.00  0.00     0.007 C 
ENDBRANCH   9  11
BRANCH   9  14
ATOM     14  N   UNL A   1      32.434  26.122  23.339  1.00  0.00    -0.340 N 
ATOM     15  C   UNL A   1      33.111  24.971  23.104  1.00  0.00     0.225 C 
ATOM     16  H   UNL A   1      32.574  26.782  22.620  1.00  0.00     0.164 HD
ATOM     17  O   UNL A   1      33.824  24.959  22.091  1.00  0.00    -0.275 OA
BRANCH  15  18
ATOM     18  C   UNL A   1      32.996  23.718  23.946  1.00  0.00     0.138 C 
BRANCH  18  19
ATOM     19  C   UNL A   1      34.286  23.182  24.505  1.00  0.00     0.000 A 
ATOM     20  C   UNL A   1      35.248  24.040  25.062  1.00  0.00     0.007 A 
ATOM     21  C   UNL A   1      34.563  21.813  24.471  1.00  0.00     0.162 A 
ATOM     22  C   UNL A   1      36.439  23.527  25.589  1.00  0.00     0.004 A 
ATOM     23  C   UNL A   1      35.739  21.304  25.011  1.00  0.00     0.159 A 
ATOM     24  F   UNL A   1      33.675  20.963  23.941  1.00  0.00    -0.203 F 
ATOM     25  C   UNL A   1      36.684  22.154  25.569  1.00  0.00     0.042 A 
ATOM     26  F   UNL A   1      35.943  19.979  25.045  1.00  0.00    -0.204 F 
ENDBRANCH  18  19
ENDBRANCH  15  18
ENDBRANCH   9  14
ENDBRANCH   7   9
ENDBRANCH   6   7
ENDBRANCH   5   6
ENDBRANCH   4   5
ENDBRANCH   3   4
ENDBRANCH   2   3
ENDBRANCH   1   2
BRANCH   1  27
ATOM     27  O   UNL A   1      35.095  33.089  27.596  1.00  0.00    -0.377 OA
BRANCH  27  28
ATOM     28  C   UNL A   1      35.016  34.161  28.523  1.00  0.00     0.188 C 
BRANCH  28  29
ATOM     29  C   UNL A   1      33.602  34.692  28.828  1.00  0.00     0.188 C 
BRANCH  29  30
ATOM     30  O   UNL A   1      33.247  34.601  30.204  1.00  0.00    -0.376 OA
BRANCH  30  31
ATOM     31  C   UNL A   1      34.277  34.444  31.168  1.00  0.00     0.202 C 
BRANCH  31  32
ATOM     32  C   UNL A   1      34.277  33.164  32.022  1.00  0.00     0.261 C 
BRANCH  32  33
ATOM     33  O   UNL A   1      35.384  32.267  31.847  1.00  0.00    -0.460 OA
BRANCH  33  34
ATOM     34  C   UNL A   1      36.332  32.217  32.811  1.00  0.00     0.338 C 
ATOM     35  O   UNL A   1      36.178  32.360  34.003  1.00  0.00    -0.246 OA
BRANCH  34  36
ATOM     36  C   UNL A   1      37.579  31.742  32.165  1.00  0.00     0.060 A 
ATOM     37  C   UNL A   1      37.684  31.786  30.767  1.00  0.00     0.016 A 
ATOM     38  C   UNL A   1      38.655  31.295  32.936  1.00  0.00     0.016 A 
ATOM     39  C   UNL A   1      38.866  31.388  30.138  1.00  0.00     0.010 A 
ATOM     40  C   UNL A   1      39.823  30.863  32.302  1.00  0.00     0.010 A 
ATOM     41  C   UNL A   1      39.932  30.894  30.900  1.00  0.00    -0.014 A 
BRANCH  41  42
ATOM     42  C   UNL A   1      41.109  30.281  30.238  1.00  0.00     0.031 A 
ATOM     43  C   UNL A   1      42.304  31.146  29.951  1.00  0.00     0.074 A 
ATOM     44  C   UNL A   1      41.109  28.986  29.873  1.00  0.00     0.049 A 
ATOM     45  N   UNL A   1      43.385  30.867  29.273  1.00  0.00    -0.248 NA
ATOM     46  C   UNL A   1      42.272  32.510  30.503  1.00  0.00     0.031 C 
ATOM     47  C   UNL A   1      40.031  28.034  30.133  1.00  0.00     0.029 A 
ATOM     48  N   UNL A   1      42.043  28.255  29.179  1.00  0.00    -0.354 N 
ATOM     49  C   UNL A   1      44.154  32.024  29.298  1.00  0.00     0.074 A 
ATOM     50  C   UNL A   1      43.414  33.011  30.052  1.00  0.00     0.031 C 
ATOM     51  C   UNL A   1      40.350  26.853  29.574  1.00  0.00     0.029 A 
ATOM     52  C   UNL A   1      41.631  26.978  28.883  1.00  0.00     0.049 A 
ATOM     53  H   UNL A   1      42.923  28.613  28.919  1.00  0.00     0.167 HD
ATOM     54  C   UNL A   1      45.367  32.241  28.738  1.00  0.00     0.037 A 
ATOM     55  C   UNL A   1      42.201  26.035  28.104  1.00  0.00     0.037 A 
ATOM     56  C   UNL A   1      46.103  31.254  27.994  1.00  0.00     0.049 A 
ATOM     57  C   UNL A   1      43.513  26.335  27.422  1.00  0.00     0.074 A 
ATOM     58  C   UNL A   1      47.360  31.368  27.428  1.00  0.00     0.029 A 
ATOM     59  N   UNL A   1      45.643  29.981  27.698  1.00  0.00    -0.354 N 
ATOM     60  N   UNL A   1      44.255  27.414  27.492  1.00  0.00    -0.248 NA
ATOM     61  C   UNL A   1      44.063  25.289  26.546  1.00  0.00     0.031 C 
ATOM     62  C   UNL A   1      47.634  30.187  26.732  1.00  0.00     0.029 A 
ATOM     63  C   UNL A   1      46.574  29.316  26.918  1.00  0.00     0.049 A 
ATOM     64  H   UNL A   1      44.785  29.605  27.998  1.00  0.00     0.167 HD
ATOM     65  C   UNL A   1      45.364  27.168  26.690  1.00  0.00     0.074 A 
ATOM     66  C   UNL A   1      45.212  25.828  26.165  1.00  0.00     0.031 C 
ATOM     67  C   UNL A   1      46.412  27.979  26.408  1.00  0.00     0.037 A 
BRANCH  54  68
ATOM     68  C   UNL A   1      45.971  33.606  28.875  1.00  0.00     0.057 A 
ATOM     69  C   UNL A   1      46.863  33.925  29.905  1.00  0.00     0.134 A 
ATOM     70  C   UNL A   1      45.722  34.588  27.906  1.00  0.00     0.134 A 
ATOM     71  F   UNL A   1      47.134  33.034  30.871  1.00  0.00    -0.206 F 
ATOM     72  C   UNL A   1      47.484  35.174  29.970  1.00  0.00     0.040 A 
ATOM     73  C   UNL A   1      46.354  35.830  27.947  1.00  0.00     0.040 A 
ATOM     74  F   UNL A   1      44.879  34.343  26.891  1.00  0.00    -0.206 F 
ATOM     75  C   UNL A   1      47.238  36.127  28.982  1.00  0.00     0.006 A 
ENDBRANCH  54  68
BRANCH  55  76
ATOM     76  C   UNL A   1      41.516  24.736  27.864  1.00  0.00     0.057 A 
ATOM     77  C   UNL A   1      41.900  23.573  28.542  1.00  0.00     0.134 A 
ATOM     78  C   UNL A   1      40.509  24.611  26.898  1.00  0.00     0.134 A 
ATOM     79  F   UNL A   1      42.877  23.618  29.461  1.00  0.00    -0.206 F 
ATOM     80  C   UNL A   1      41.334  22.331  28.247  1.00  0.00     0.040 A 
ATOM     81  C   UNL A   1      39.910  23.381  26.616  1.00  0.00     0.040 A 
ATOM     82  F   UNL A   1      40.093  25.684  26.210  1.00  0.00    -0.206 F 
ATOM     83  C   UNL A   1      40.333  22.233  27.282  1.00  0.00     0.006 A 
ENDBRANCH  55  76
BRANCH  67  84
ATOM     84  C   UNL A   1      47.489  27.437  25.512  1.00  0.00     0.057 A 
ATOM     85  C   UNL A   1      47.497  27.686  24.134  1.00  0.00     0.134 A 
ATOM     86  C   UNL A   1      48.558  26.703  26.041  1.00  0.00     0.134 A 
ATOM     87  F   UNL A   1      46.496  28.372  23.560  1.00  0.00    -0.206 F 
ATOM     88  C   UNL A   1      48.519  27.207  23.312  1.00  0.00     0.040 A 
ATOM     89  C   UNL A   1      49.602  26.246  25.236  1.00  0.00     0.040 A 
ATOM     90  F   UNL A   1      48.619  26.438  27.355  1.00  0.00    -0.206 F 
ATOM     91  C   UNL A   1      49.580  26.493  23.864  1.00  0.00     0.006 A 
ENDBRANCH  67  84
ENDBRANCH  41  42
ENDBRANCH  34  36
ENDBRANCH  33  34
ENDBRANCH  32  33
ENDBRANCH  31  32
ENDBRANCH  30  31
ENDBRANCH  29  30
ENDBRANCH  28  29
ENDBRANCH  27  28
ENDBRANCH   1  27
TORSDOF 24
ENDMDL
