MODEL 1
REMARK VINA RESULT:      -9.9      0.000      0.000
REMARK SMILES [NH3+][C@H](C(=O)OCCOCCOCCOCCOC(=O)c1ccc(-c2c3nc(c(-c4c(F)cccc4F)c4ccc([nH]4)c(-c4c(F)cccc4F)c4nc(c(-c5c(F)cccc5F)c5ccc2[nH]5)C=C4)C=C3)cc1)c1cc2[nH]ccc2cc1O
REMARK SMILES IDX 11 1 10 2 9 3 8 4 7 5 6 6 5 7 3 8 4 9 2 10 1 11 74 15 75 16
REMARK SMILES IDX 82 17 76 18 81 19 77 20 80 21 78 22 79 24 83 25 12 27 13 28
REMARK SMILES IDX 14 29 15 30 16 31 17 32 18 33 19 34 20 35 21 36 73 37 22 38
REMARK SMILES IDX 72 39 23 40 24 41 25 42 66 43 26 44 71 45 65 46 67 47 27 48
REMARK SMILES IDX 70 49 64 50 63 51 28 53 54 54 37 55 53 56 38 57 41 58 52 59
REMARK SMILES IDX 68 60 39 61 40 62 51 64 69 65 42 66 29 67 30 68 35 69 31 70
REMARK SMILES IDX 32 71 34 72 36 73 33 74 55 75 56 76 61 77 57 78 58 79 60 80
REMARK SMILES IDX 62 81 59 82 43 83 44 84 49 85 45 86 46 87 48 88 50 89 47 90
REMARK H PARENT 1 12 1 13 1 14 77 23 83 26 67 52 41 63
REMARK Flexibility Score: inf
ROOT
ATOM      1  O   UNL A   1      33.298  25.948  24.432  1.00  0.00    -0.377 OA
ENDROOT
BRANCH   1   2
ATOM      2  C   UNL A   1      33.238  26.700  25.641  1.00  0.00     0.188 C 
BRANCH   2   3
ATOM      3  C   UNL A   1      33.275  28.217  25.347  1.00  0.00     0.188 C 
BRANCH   3   4
ATOM      4  O   UNL A   1      34.407  28.844  25.940  1.00  0.00    -0.376 OA
BRANCH   4   5
ATOM      5  C   UNL A   1      34.267  29.265  27.291  1.00  0.00     0.202 C 
BRANCH   5   6
ATOM      6  C   UNL A   1      34.999  30.535  27.758  1.00  0.00     0.261 C 
BRANCH   6   7
ATOM      7  O   UNL A   1      34.199  31.734  27.864  1.00  0.00    -0.459 OA
BRANCH   7   8
ATOM      8  C   UNL A   1      34.798  32.950  27.899  1.00  0.00     0.369 C 
ATOM      9  O   UNL A   1      35.983  33.124  27.639  1.00  0.00    -0.245 OA
BRANCH   8  10
ATOM     10  C   UNL A   1      33.794  34.109  28.138  1.00  0.00     0.327 C 
BRANCH  10  11
ATOM     11  N   UNL A   1      32.476  33.908  27.471  1.00  0.00    -0.342 N 
ATOM     12  H   UNL A   1      31.980  33.139  27.921  1.00  0.00     0.345 HD
ATOM     13  H   UNL A   1      32.624  33.688  26.486  1.00  0.00     0.345 HD
ATOM     14  H   UNL A   1      31.922  34.761  27.549  1.00  0.00     0.345 HD
ENDBRANCH  10  11
BRANCH  10  15
ATOM     15  C   UNL A   1      33.583  34.617  29.557  1.00  0.00     0.065 A 
ATOM     16  C   UNL A   1      34.083  33.965  30.696  1.00  0.00     0.041 A 
ATOM     17  C   UNL A   1      32.969  35.872  29.724  1.00  0.00     0.126 A 
ATOM     18  C   UNL A   1      34.162  34.697  31.886  1.00  0.00     0.046 A 
ATOM     19  C   UNL A   1      33.041  36.591  30.917  1.00  0.00     0.057 A 
ATOM     20  N   UNL A   1      34.694  34.344  33.105  1.00  0.00    -0.361 N 
ATOM     21  C   UNL A   1      33.720  36.014  31.999  1.00  0.00     0.003 A 
ATOM     22  C   UNL A   1      34.767  35.443  33.919  1.00  0.00     0.083 A 
ATOM     23  H   UNL A   1      34.980  33.436  33.356  1.00  0.00     0.166 HD
ATOM     24  C   UNL A   1      34.138  36.483  33.273  1.00  0.00     0.028 A 
BRANCH  17  25
ATOM     25  O   UNL A   1      32.284  36.466  28.693  1.00  0.00    -0.507 OA
ATOM     26  H   UNL A   1      32.675  36.526  27.844  1.00  0.00     0.293 HD
ENDBRANCH  17  25
ENDBRANCH  10  15
ENDBRANCH   8  10
ENDBRANCH   7   8
ENDBRANCH   6   7
ENDBRANCH   5   6
ENDBRANCH   4   5
ENDBRANCH   3   4
ENDBRANCH   2   3
ENDBRANCH   1   2
BRANCH   1  27
ATOM     27  C   UNL A   1      34.177  24.830  24.480  1.00  0.00     0.188 C 
BRANCH  27  28
ATOM     28  C   UNL A   1      33.698  23.581  25.249  1.00  0.00     0.188 C 
BRANCH  28  29
ATOM     29  O   UNL A   1      34.774  22.719  25.615  1.00  0.00    -0.376 OA
BRANCH  29  30
ATOM     30  C   UNL A   1      35.021  21.553  24.851  1.00  0.00     0.202 C 
BRANCH  30  31
ATOM     31  C   UNL A   1      36.326  20.821  25.188  1.00  0.00     0.261 C 
BRANCH  31  32
ATOM     32  O   UNL A   1      37.519  21.607  25.084  1.00  0.00    -0.460 OA
BRANCH  32  33
ATOM     33  C   UNL A   1      38.618  21.169  25.733  1.00  0.00     0.338 C 
ATOM     34  O   UNL A   1      39.110  20.055  25.688  1.00  0.00    -0.246 OA
BRANCH  33  35
ATOM     35  C   UNL A   1      39.268  22.351  26.336  1.00  0.00     0.060 A 
ATOM     36  C   UNL A   1      38.723  23.617  26.086  1.00  0.00     0.016 A 
ATOM     37  C   UNL A   1      40.366  22.205  27.189  1.00  0.00     0.016 A 
ATOM     38  C   UNL A   1      39.293  24.747  26.669  1.00  0.00     0.010 A 
ATOM     39  C   UNL A   1      40.958  23.338  27.745  1.00  0.00     0.010 A 
ATOM     40  C   UNL A   1      40.444  24.613  27.457  1.00  0.00    -0.014 A 
BRANCH  40  41
ATOM     41  C   UNL A   1      41.260  25.813  27.741  1.00  0.00     0.031 A 
ATOM     42  C   UNL A   1      40.613  26.912  28.538  1.00  0.00     0.074 A 
ATOM     43  C   UNL A   1      42.535  25.917  27.333  1.00  0.00     0.049 A 
ATOM     44  N   UNL A   1      41.096  28.068  28.906  1.00  0.00    -0.248 NA
ATOM     45  C   UNL A   1      39.228  26.667  28.980  1.00  0.00     0.031 C 
ATOM     46  C   UNL A   1      43.274  24.899  26.590  1.00  0.00     0.029 A 
ATOM     47  N   UNL A   1      43.431  26.944  27.487  1.00  0.00    -0.354 N 
ATOM     48  C   UNL A   1      40.081  28.682  29.629  1.00  0.00     0.074 A 
ATOM     49  C   UNL A   1      38.943  27.790  29.617  1.00  0.00     0.031 C 
ATOM     50  C   UNL A   1      44.513  25.361  26.338  1.00  0.00     0.029 A 
ATOM     51  C   UNL A   1      44.641  26.713  26.880  1.00  0.00     0.049 A 
ATOM     52  H   UNL A   1      43.225  27.768  27.984  1.00  0.00     0.167 HD
ATOM     53  C   UNL A   1      40.096  29.881  30.255  1.00  0.00     0.037 A 
ATOM     54  C   UNL A   1      45.715  27.517  26.765  1.00  0.00     0.037 A 
ATOM     55  C   UNL A   1      41.221  30.774  30.242  1.00  0.00     0.049 A 
ATOM     56  C   UNL A   1      45.682  28.884  27.399  1.00  0.00     0.074 A 
ATOM     57  C   UNL A   1      41.341  32.018  30.836  1.00  0.00     0.029 A 
ATOM     58  N   UNL A   1      42.418  30.520  29.590  1.00  0.00    -0.354 N 
ATOM     59  N   UNL A   1      44.726  29.450  28.100  1.00  0.00    -0.248 NA
ATOM     60  C   UNL A   1      46.876  29.725  27.230  1.00  0.00     0.031 C 
ATOM     61  C   UNL A   1      42.597  32.536  30.502  1.00  0.00     0.029 A 
ATOM     62  C   UNL A   1      43.276  31.593  29.745  1.00  0.00     0.049 A 
ATOM     63  H   UNL A   1      42.625  29.698  29.089  1.00  0.00     0.167 HD
ATOM     64  C   UNL A   1      45.213  30.696  28.476  1.00  0.00     0.074 A 
ATOM     65  C   UNL A   1      46.553  30.800  27.936  1.00  0.00     0.031 C 
ATOM     66  C   UNL A   1      44.609  31.668  29.203  1.00  0.00     0.037 A 
BRANCH  53  67
ATOM     67  C   UNL A   1      38.846  30.293  30.971  1.00  0.00     0.057 A 
ATOM     68  C   UNL A   1      37.842  31.037  30.338  1.00  0.00     0.134 A 
ATOM     69  C   UNL A   1      38.645  29.946  32.312  1.00  0.00     0.134 A 
ATOM     70  F   UNL A   1      37.985  31.424  29.061  1.00  0.00    -0.206 F 
ATOM     71  C   UNL A   1      36.693  31.442  31.020  1.00  0.00     0.040 A 
ATOM     72  C   UNL A   1      37.490  30.323  32.998  1.00  0.00     0.040 A 
ATOM     73  F   UNL A   1      39.570  29.240  32.980  1.00  0.00    -0.206 F 
ATOM     74  C   UNL A   1      36.513  31.079  32.353  1.00  0.00     0.006 A 
ENDBRANCH  53  67
BRANCH  54  75
ATOM     75  C   UNL A   1      46.910  27.063  26.008  1.00  0.00     0.057 A 
ATOM     76  C   UNL A   1      47.067  27.355  24.648  1.00  0.00     0.134 A 
ATOM     77  C   UNL A   1      47.914  26.303  26.622  1.00  0.00     0.134 A 
ATOM     78  F   UNL A   1      46.128  28.057  23.996  1.00  0.00    -0.206 F 
ATOM     79  C   UNL A   1      48.167  26.893  23.922  1.00  0.00     0.040 A 
ATOM     80  C   UNL A   1      49.031  25.856  25.915  1.00  0.00     0.040 A 
ATOM     81  F   UNL A   1      47.824  25.987  27.922  1.00  0.00    -0.206 F 
ATOM     82  C   UNL A   1      49.156  26.145  24.558  1.00  0.00     0.006 A 
ENDBRANCH  54  75
BRANCH  66  83
ATOM     83  C   UNL A   1      45.403  32.909  29.488  1.00  0.00     0.057 A 
ATOM     84  C   UNL A   1      45.342  34.035  28.657  1.00  0.00     0.134 A 
ATOM     85  C   UNL A   1      46.194  32.997  30.641  1.00  0.00     0.134 A 
ATOM     86  F   UNL A   1      44.608  34.010  27.533  1.00  0.00    -0.206 F 
ATOM     87  C   UNL A   1      46.057  35.196  28.950  1.00  0.00     0.040 A 
ATOM     88  C   UNL A   1      46.892  34.162  30.959  1.00  0.00     0.040 A 
ATOM     89  F   UNL A   1      46.286  31.960  31.486  1.00  0.00    -0.206 F 
ATOM     90  C   UNL A   1      46.830  35.265  30.108  1.00  0.00     0.006 A 
ENDBRANCH  66  83
ENDBRANCH  40  41
ENDBRANCH  33  35
ENDBRANCH  32  33
ENDBRANCH  31  32
ENDBRANCH  30  31
ENDBRANCH  29  30
ENDBRANCH  28  29
ENDBRANCH  27  28
ENDBRANCH   1  27
TORSDOF 23
ENDMDL
MODEL 2
REMARK VINA RESULT:      -9.8      3.988      8.598
REMARK SMILES [NH3+][C@H](C(=O)OCCOCCOCCOCCOC(=O)c1ccc(-c2c3nc(c(-c4c(F)cccc4F)c4ccc([nH]4)c(-c4c(F)cccc4F)c4nc(c(-c5c(F)cccc5F)c5ccc2[nH]5)C=C4)C=C3)cc1)c1cc2[nH]ccc2cc1O
REMARK SMILES IDX 11 1 10 2 9 3 8 4 7 5 6 6 5 7 3 8 4 9 2 10 1 11 74 15 75 16
REMARK SMILES IDX 82 17 76 18 81 19 77 20 80 21 78 22 79 24 83 25 12 27 13 28
REMARK SMILES IDX 14 29 15 30 16 31 17 32 18 33 19 34 20 35 21 36 73 37 22 38
REMARK SMILES IDX 72 39 23 40 24 41 25 42 66 43 26 44 71 45 65 46 67 47 27 48
REMARK SMILES IDX 70 49 64 50 63 51 28 53 54 54 37 55 53 56 38 57 41 58 52 59
REMARK SMILES IDX 68 60 39 61 40 62 51 64 69 65 42 66 29 67 30 68 35 69 31 70
REMARK SMILES IDX 32 71 34 72 36 73 33 74 55 75 56 76 61 77 57 78 58 79 60 80
REMARK SMILES IDX 62 81 59 82 43 83 44 84 49 85 45 86 46 87 48 88 50 89 47 90
REMARK H PARENT 1 12 1 13 1 14 77 23 83 26 67 52 41 63
REMARK Flexibility Score: inf
ROOT
ATOM      1  O   UNL A   1      33.215  28.064  24.308  1.00  0.00    -0.377 OA
ENDROOT
BRANCH   1   2
ATOM      2  C   UNL A   1      32.870  27.799  22.952  1.00  0.00     0.188 C 
BRANCH   2   3
ATOM      3  C   UNL A   1      31.707  28.707  22.493  1.00  0.00     0.188 C 
BRANCH   3   4
ATOM      4  O   UNL A   1      30.554  27.954  22.139  1.00  0.00    -0.376 OA
BRANCH   4   5
ATOM      5  C   UNL A   1      29.472  27.972  23.063  1.00  0.00     0.202 C 
BRANCH   5   6
ATOM      6  C   UNL A   1      29.187  26.717  23.906  1.00  0.00     0.261 C 
BRANCH   6   7
ATOM      7  O   UNL A   1      30.324  25.885  24.223  1.00  0.00    -0.459 OA
BRANCH   7   8
ATOM      8  C   UNL A   1      30.535  25.477  25.498  1.00  0.00     0.369 C 
ATOM      9  O   UNL A   1      29.999  26.001  26.469  1.00  0.00    -0.245 OA
BRANCH   8  10
ATOM     10  C   UNL A   1      31.388  24.184  25.585  1.00  0.00     0.327 C 
BRANCH  10  11
ATOM     11  N   UNL A   1      30.615  22.937  25.317  1.00  0.00    -0.342 N 
ATOM     12  H   UNL A   1      30.996  22.471  24.494  1.00  0.00     0.345 HD
ATOM     13  H   UNL A   1      29.637  23.173  25.153  1.00  0.00     0.345 HD
ATOM     14  H   UNL A   1      30.685  22.315  26.123  1.00  0.00     0.345 HD
ENDBRANCH  10  11
BRANCH  10  15
ATOM     15  C   UNL A   1      32.721  24.133  24.854  1.00  0.00     0.065 A 
ATOM     16  C   UNL A   1      33.958  24.354  25.481  1.00  0.00     0.041 A 
ATOM     17  C   UNL A   1      32.722  23.711  23.511  1.00  0.00     0.126 A 
ATOM     18  C   UNL A   1      35.113  23.915  24.822  1.00  0.00     0.046 A 
ATOM     19  C   UNL A   1      33.878  23.285  22.857  1.00  0.00     0.057 A 
ATOM     20  N   UNL A   1      36.422  23.915  25.245  1.00  0.00    -0.361 N 
ATOM     21  C   UNL A   1      35.090  23.323  23.562  1.00  0.00     0.003 A 
ATOM     22  C   UNL A   1      37.191  23.184  24.379  1.00  0.00     0.083 A 
ATOM     23  H   UNL A   1      36.758  24.372  26.050  1.00  0.00     0.166 HD
ATOM     24  C   UNL A   1      36.400  22.836  23.309  1.00  0.00     0.028 A 
BRANCH  17  25
ATOM     25  O   UNL A   1      31.559  23.672  22.782  1.00  0.00    -0.507 OA
ATOM     26  H   UNL A   1      30.794  24.113  23.098  1.00  0.00     0.293 HD
ENDBRANCH  17  25
ENDBRANCH  10  15
ENDBRANCH   8  10
ENDBRANCH   7   8
ENDBRANCH   6   7
ENDBRANCH   5   6
ENDBRANCH   4   5
ENDBRANCH   3   4
ENDBRANCH   2   3
ENDBRANCH   1   2
BRANCH   1  27
ATOM     27  C   UNL A   1      32.784  29.333  24.787  1.00  0.00     0.188 C 
BRANCH  27  28
ATOM     28  C   UNL A   1      32.222  29.397  26.223  1.00  0.00     0.188 C 
BRANCH  28  29
ATOM     29  O   UNL A   1      32.321  30.703  26.789  1.00  0.00    -0.376 OA
BRANCH  29  30
ATOM     30  C   UNL A   1      31.338  31.673  26.474  1.00  0.00     0.202 C 
BRANCH  30  31
ATOM     31  C   UNL A   1      31.672  33.103  26.918  1.00  0.00     0.261 C 
BRANCH  31  32
ATOM     32  O   UNL A   1      33.069  33.406  27.022  1.00  0.00    -0.460 OA
BRANCH  32  33
ATOM     33  C   UNL A   1      33.525  33.863  28.207  1.00  0.00     0.338 C 
ATOM     34  O   UNL A   1      32.965  34.631  28.969  1.00  0.00    -0.246 OA
BRANCH  33  35
ATOM     35  C   UNL A   1      34.734  33.082  28.538  1.00  0.00     0.060 A 
ATOM     36  C   UNL A   1      34.585  31.745  28.928  1.00  0.00     0.016 A 
ATOM     37  C   UNL A   1      36.007  33.647  28.405  1.00  0.00     0.016 A 
ATOM     38  C   UNL A   1      35.709  30.974  29.213  1.00  0.00     0.010 A 
ATOM     39  C   UNL A   1      37.131  32.886  28.723  1.00  0.00     0.010 A 
ATOM     40  C   UNL A   1      36.981  31.560  29.162  1.00  0.00    -0.014 A 
BRANCH  40  41
ATOM     41  C   UNL A   1      38.110  30.877  29.829  1.00  0.00     0.031 A 
ATOM     42  C   UNL A   1      38.364  31.217  31.272  1.00  0.00     0.074 A 
ATOM     43  C   UNL A   1      38.868  29.970  29.192  1.00  0.00     0.049 A 
ATOM     44  N   UNL A   1      39.293  30.779  32.080  1.00  0.00    -0.248 NA
ATOM     45  C   UNL A   1      37.437  32.184  31.885  1.00  0.00     0.031 C 
ATOM     46  C   UNL A   1      38.689  29.535  27.809  1.00  0.00     0.029 A 
ATOM     47  N   UNL A   1      39.952  29.255  29.635  1.00  0.00    -0.354 N 
ATOM     48  C   UNL A   1      39.056  31.410  33.295  1.00  0.00     0.074 A 
ATOM     49  C   UNL A   1      37.922  32.286  33.111  1.00  0.00     0.031 C 
ATOM     50  C   UNL A   1      39.643  28.635  27.510  1.00  0.00     0.029 A 
ATOM     51  C   UNL A   1      40.512  28.453  28.672  1.00  0.00     0.049 A 
ATOM     52  H   UNL A   1      40.295  29.313  30.556  1.00  0.00     0.167 HD
ATOM     53  C   UNL A   1      39.720  31.265  34.464  1.00  0.00     0.037 A 
ATOM     54  C   UNL A   1      41.612  27.678  28.728  1.00  0.00     0.037 A 
ATOM     55  C   UNL A   1      40.863  30.410  34.634  1.00  0.00     0.049 A 
ATOM     56  C   UNL A   1      42.388  27.596  30.017  1.00  0.00     0.074 A 
ATOM     57  C   UNL A   1      41.618  30.195  35.772  1.00  0.00     0.029 A 
ATOM     58  N   UNL A   1      41.421  29.638  33.627  1.00  0.00    -0.354 N 
ATOM     59  N   UNL A   1      42.146  28.178  31.169  1.00  0.00    -0.248 NA
ATOM     60  C   UNL A   1      43.588  26.747  30.018  1.00  0.00     0.031 C 
ATOM     61  C   UNL A   1      42.663  29.327  35.440  1.00  0.00     0.029 A 
ATOM     62  C   UNL A   1      42.526  28.961  34.110  1.00  0.00     0.049 A 
ATOM     63  H   UNL A   1      41.081  29.581  32.704  1.00  0.00     0.167 HD
ATOM     64  C   UNL A   1      43.144  27.745  32.034  1.00  0.00     0.074 A 
ATOM     65  C   UNL A   1      43.989  26.843  31.278  1.00  0.00     0.031 C 
ATOM     66  C   UNL A   1      43.346  28.063  33.337  1.00  0.00     0.037 A 
BRANCH  53  67
ATOM     67  C   UNL A   1      39.237  32.075  35.628  1.00  0.00     0.057 A 
ATOM     68  C   UNL A   1      38.311  31.569  36.549  1.00  0.00     0.134 A 
ATOM     69  C   UNL A   1      39.700  33.382  35.828  1.00  0.00     0.134 A 
ATOM     70  F   UNL A   1      37.810  30.333  36.398  1.00  0.00    -0.206 F 
ATOM     71  C   UNL A   1      37.844  32.339  37.615  1.00  0.00     0.040 A 
ATOM     72  C   UNL A   1      39.260  34.154  36.904  1.00  0.00     0.040 A 
ATOM     73  F   UNL A   1      40.582  33.930  34.980  1.00  0.00    -0.206 F 
ATOM     74  C   UNL A   1      38.325  33.635  37.797  1.00  0.00     0.006 A 
ENDBRANCH  53  67
BRANCH  54  75
ATOM     75  C   UNL A   1      42.061  26.930  27.525  1.00  0.00     0.057 A 
ATOM     76  C   UNL A   1      41.631  25.622  27.277  1.00  0.00     0.134 A 
ATOM     77  C   UNL A   1      42.953  27.499  26.607  1.00  0.00     0.134 A 
ATOM     78  F   UNL A   1      40.796  25.012  28.132  1.00  0.00    -0.206 F 
ATOM     79  C   UNL A   1      42.083  24.900  26.170  1.00  0.00     0.040 A 
ATOM     80  C   UNL A   1      43.394  26.798  25.484  1.00  0.00     0.040 A 
ATOM     81  F   UNL A   1      43.405  28.749  26.787  1.00  0.00    -0.206 F 
ATOM     82  C   UNL A   1      42.965  25.491  25.267  1.00  0.00     0.006 A 
ENDBRANCH  54  75
BRANCH  66  83
ATOM     83  C   UNL A   1      44.499  27.405  34.036  1.00  0.00     0.057 A 
ATOM     84  C   UNL A   1      45.754  28.019  34.134  1.00  0.00     0.134 A 
ATOM     85  C   UNL A   1      44.333  26.165  34.668  1.00  0.00     0.134 A 
ATOM     86  F   UNL A   1      45.980  29.203  33.542  1.00  0.00    -0.206 F 
ATOM     87  C   UNL A   1      46.810  27.414  34.816  1.00  0.00     0.040 A 
ATOM     88  C   UNL A   1      45.373  25.563  35.376  1.00  0.00     0.040 A 
ATOM     89  F   UNL A   1      43.153  25.530  34.624  1.00  0.00    -0.206 F 
ATOM     90  C   UNL A   1      46.619  26.185  35.447  1.00  0.00     0.006 A 
ENDBRANCH  66  83
ENDBRANCH  40  41
ENDBRANCH  33  35
ENDBRANCH  32  33
ENDBRANCH  31  32
ENDBRANCH  30  31
ENDBRANCH  29  30
ENDBRANCH  28  29
ENDBRANCH  27  28
ENDBRANCH   1  27
TORSDOF 23
ENDMDL
MODEL 3
REMARK VINA RESULT:      -9.7      4.046      8.934
REMARK SMILES [NH3+][C@H](C(=O)OCCOCCOCCOCCOC(=O)c1ccc(-c2c3nc(c(-c4c(F)cccc4F)c4ccc([nH]4)c(-c4c(F)cccc4F)c4nc(c(-c5c(F)cccc5F)c5ccc2[nH]5)C=C4)C=C3)cc1)c1cc2[nH]ccc2cc1O
REMARK SMILES IDX 11 1 10 2 9 3 8 4 7 5 6 6 5 7 3 8 4 9 2 10 1 11 74 15 75 16
REMARK SMILES IDX 82 17 76 18 81 19 77 20 80 21 78 22 79 24 83 25 12 27 13 28
REMARK SMILES IDX 14 29 15 30 16 31 17 32 18 33 19 34 20 35 21 36 73 37 22 38
REMARK SMILES IDX 72 39 23 40 24 41 25 42 66 43 26 44 71 45 65 46 67 47 27 48
REMARK SMILES IDX 70 49 64 50 63 51 28 53 54 54 37 55 53 56 38 57 41 58 52 59
REMARK SMILES IDX 68 60 39 61 40 62 51 64 69 65 42 66 29 67 30 68 35 69 31 70
REMARK SMILES IDX 32 71 34 72 36 73 33 74 55 75 56 76 61 77 57 78 58 79 60 80
REMARK SMILES IDX 62 81 59 82 43 83 44 84 49 85 45 86 46 87 48 88 50 89 47 90
REMARK H PARENT 1 12 1 13 1 14 77 23 83 26 67 52 41 63
REMARK Flexibility Score: inf
ROOT
ATOM      1  O   UNL A   1      33.524  27.972  25.875  1.00  0.00    -0.377 OA
ENDROOT
BRANCH   1   2
ATOM      2  C   UNL A   1      32.259  27.522  26.350  1.00  0.00     0.188 C 
BRANCH   2   3
ATOM      3  C   UNL A   1      31.244  27.413  25.190  1.00  0.00     0.188 C 
BRANCH   3   4
ATOM      4  O   UNL A   1      31.277  28.558  24.347  1.00  0.00    -0.376 OA
BRANCH   4   5
ATOM      5  C   UNL A   1      31.307  28.316  22.945  1.00  0.00     0.202 C 
BRANCH   5   6
ATOM      6  C   UNL A   1      30.842  26.950  22.411  1.00  0.00     0.261 C 
BRANCH   6   7
ATOM      7  O   UNL A   1      31.691  26.325  21.423  1.00  0.00    -0.459 OA
BRANCH   7   8
ATOM      8  C   UNL A   1      32.846  25.725  21.800  1.00  0.00     0.369 C 
ATOM      9  O   UNL A   1      33.934  26.290  21.786  1.00  0.00    -0.245 OA
BRANCH   8  10
ATOM     10  C   UNL A   1      32.623  24.313  22.403  1.00  0.00     0.327 C 
BRANCH  10  11
ATOM     11  N   UNL A   1      32.906  23.202  21.448  1.00  0.00    -0.342 N 
ATOM     12  H   UNL A   1      33.612  22.583  21.846  1.00  0.00     0.345 HD
ATOM     13  H   UNL A   1      33.248  23.589  20.569  1.00  0.00     0.345 HD
ATOM     14  H   UNL A   1      32.049  22.675  21.277  1.00  0.00     0.345 HD
ENDBRANCH  10  11
BRANCH  10  15
ATOM     15  C   UNL A   1      33.224  23.990  23.763  1.00  0.00     0.065 A 
ATOM     16  C   UNL A   1      32.485  23.990  24.956  1.00  0.00     0.041 A 
ATOM     17  C   UNL A   1      34.557  23.539  23.805  1.00  0.00     0.126 A 
ATOM     18  C   UNL A   1      33.027  23.324  26.062  1.00  0.00     0.046 A 
ATOM     19  C   UNL A   1      35.094  22.885  24.914  1.00  0.00     0.057 A 
ATOM     20  N   UNL A   1      32.482  23.088  27.303  1.00  0.00    -0.361 N 
ATOM     21  C   UNL A   1      34.278  22.712  26.041  1.00  0.00     0.003 A 
ATOM     22  C   UNL A   1      33.264  22.201  27.995  1.00  0.00     0.083 A 
ATOM     23  H   UNL A   1      31.653  23.495  27.645  1.00  0.00     0.166 HD
ATOM     24  C   UNL A   1      34.401  21.980  27.252  1.00  0.00     0.028 A 
BRANCH  17  25
ATOM     25  O   UNL A   1      35.392  23.700  22.728  1.00  0.00    -0.507 OA
ATOM     26  H   UNL A   1      35.090  24.154  21.966  1.00  0.00     0.293 HD
ENDBRANCH  17  25
ENDBRANCH  10  15
ENDBRANCH   8  10
ENDBRANCH   7   8
ENDBRANCH   6   7
ENDBRANCH   5   6
ENDBRANCH   4   5
ENDBRANCH   3   4
ENDBRANCH   2   3
ENDBRANCH   1   2
BRANCH   1  27
ATOM     27  C   UNL A   1      34.331  28.607  26.862  1.00  0.00     0.188 C 
BRANCH  27  28
ATOM     28  C   UNL A   1      33.978  30.060  27.240  1.00  0.00     0.188 C 
BRANCH  28  29
ATOM     29  O   UNL A   1      33.049  30.650  26.332  1.00  0.00    -0.376 OA
BRANCH  29  30
ATOM     30  C   UNL A   1      31.836  31.186  26.830  1.00  0.00     0.202 C 
BRANCH  30  31
ATOM     31  C   UNL A   1      31.775  32.718  26.877  1.00  0.00     0.261 C 
BRANCH  31  32
ATOM     32  O   UNL A   1      33.040  33.383  26.982  1.00  0.00    -0.460 OA
BRANCH  32  33
ATOM     33  C   UNL A   1      33.241  34.182  28.051  1.00  0.00     0.338 C 
ATOM     34  O   UNL A   1      32.528  35.091  28.441  1.00  0.00    -0.246 OA
BRANCH  33  35
ATOM     35  C   UNL A   1      34.367  33.610  28.816  1.00  0.00     0.060 A 
ATOM     36  C   UNL A   1      35.674  33.933  28.430  1.00  0.00     0.016 A 
ATOM     37  C   UNL A   1      34.134  32.814  29.942  1.00  0.00     0.016 A 
ATOM     38  C   UNL A   1      36.756  33.436  29.153  1.00  0.00     0.010 A 
ATOM     39  C   UNL A   1      35.217  32.289  30.646  1.00  0.00     0.010 A 
ATOM     40  C   UNL A   1      36.529  32.570  30.231  1.00  0.00    -0.014 A 
BRANCH  40  41
ATOM     41  C   UNL A   1      37.650  31.749  30.737  1.00  0.00     0.031 A 
ATOM     42  C   UNL A   1      38.070  31.963  32.165  1.00  0.00     0.074 A 
ATOM     43  C   UNL A   1      38.257  30.828  29.971  1.00  0.00     0.049 A 
ATOM     44  N   UNL A   1      39.028  31.393  32.845  1.00  0.00    -0.248 NA
ATOM     45  C   UNL A   1      37.298  32.960  32.927  1.00  0.00     0.031 C 
ATOM     46  C   UNL A   1      37.907  30.509  28.589  1.00  0.00     0.029 A 
ATOM     47  N   UNL A   1      39.308  29.994  30.257  1.00  0.00    -0.354 N 
ATOM     48  C   UNL A   1      38.968  31.953  34.114  1.00  0.00     0.074 A 
ATOM     49  C   UNL A   1      37.906  32.934  34.101  1.00  0.00     0.031 C 
ATOM     50  C   UNL A   1      38.742  29.554  28.140  1.00  0.00     0.029 A 
ATOM     51  C   UNL A   1      39.697  29.217  29.194  1.00  0.00     0.049 A 
ATOM     52  H   UNL A   1      39.742  29.958  31.140  1.00  0.00     0.167 HD
ATOM     53  C   UNL A   1      39.724  31.671  35.199  1.00  0.00     0.037 A 
ATOM     54  C   UNL A   1      40.723  28.350  29.090  1.00  0.00     0.037 A 
ATOM     55  C   UNL A   1      40.795  30.712  35.199  1.00  0.00     0.049 A 
ATOM     56  C   UNL A   1      41.608  28.111  30.287  1.00  0.00     0.074 A 
ATOM     57  C   UNL A   1      41.632  30.354  36.239  1.00  0.00     0.029 A 
ATOM     58  N   UNL A   1      41.181  29.968  34.095  1.00  0.00    -0.354 N 
ATOM     59  N   UNL A   1      41.531  28.629  31.491  1.00  0.00    -0.248 NA
ATOM     60  C   UNL A   1      42.720  27.166  30.113  1.00  0.00     0.031 C 
ATOM     61  C   UNL A   1      42.557  29.426  35.750  1.00  0.00     0.029 A 
ATOM     62  C   UNL A   1      42.260  29.168  34.420  1.00  0.00     0.049 A 
ATOM     63  H   UNL A   1      40.751  30.005  33.210  1.00  0.00     0.167 HD
ATOM     64  C   UNL A   1      42.564  28.053  32.222  1.00  0.00     0.074 A 
ATOM     65  C   UNL A   1      43.246  27.138  31.330  1.00  0.00     0.031 C 
ATOM     66  C   UNL A   1      42.917  28.260  33.515  1.00  0.00     0.037 A 
BRANCH  53  67
ATOM     67  C   UNL A   1      39.431  32.435  36.454  1.00  0.00     0.057 A 
ATOM     68  C   UNL A   1      40.137  33.596  36.795  1.00  0.00     0.134 A 
ATOM     69  C   UNL A   1      38.433  32.003  37.336  1.00  0.00     0.134 A 
ATOM     70  F   UNL A   1      41.123  34.048  36.005  1.00  0.00    -0.206 F 
ATOM     71  C   UNL A   1      39.878  34.287  37.980  1.00  0.00     0.040 A 
ATOM     72  C   UNL A   1      38.147  32.699  38.511  1.00  0.00     0.040 A 
ATOM     73  F   UNL A   1      37.723  30.895  37.072  1.00  0.00    -0.206 F 
ATOM     74  C   UNL A   1      38.875  33.841  38.838  1.00  0.00     0.006 A 
ENDBRANCH  53  67
BRANCH  54  75
ATOM     75  C   UNL A   1      40.984  27.653  27.804  1.00  0.00     0.057 A 
ATOM     76  C   UNL A   1      40.466  26.378  27.546  1.00  0.00     0.134 A 
ATOM     77  C   UNL A   1      41.780  28.236  26.811  1.00  0.00     0.134 A 
ATOM     78  F   UNL A   1      39.717  25.755  28.468  1.00  0.00    -0.206 F 
ATOM     79  C   UNL A   1      40.745  25.702  26.357  1.00  0.00     0.040 A 
ATOM     80  C   UNL A   1      42.047  27.583  25.607  1.00  0.00     0.040 A 
ATOM     81  F   UNL A   1      42.308  29.455  26.996  1.00  0.00    -0.206 F 
ATOM     82  C   UNL A   1      41.534  26.307  25.380  1.00  0.00     0.006 A 
ENDBRANCH  54  75
BRANCH  66  83
ATOM     83  C   UNL A   1      44.067  27.459  34.051  1.00  0.00     0.057 A 
ATOM     84  C   UNL A   1      45.379  27.950  34.045  1.00  0.00     0.134 A 
ATOM     85  C   UNL A   1      43.848  26.202  34.632  1.00  0.00     0.134 A 
ATOM     86  F   UNL A   1      45.655  29.143  33.496  1.00  0.00    -0.206 F 
ATOM     87  C   UNL A   1      46.435  27.211  34.579  1.00  0.00     0.040 A 
ATOM     88  C   UNL A   1      44.892  25.466  35.192  1.00  0.00     0.040 A 
ATOM     89  F   UNL A   1      42.614  25.680  34.681  1.00  0.00    -0.206 F 
ATOM     90  C   UNL A   1      46.192  25.968  35.161  1.00  0.00     0.006 A 
ENDBRANCH  66  83
ENDBRANCH  40  41
ENDBRANCH  33  35
ENDBRANCH  32  33
ENDBRANCH  31  32
ENDBRANCH  30  31
ENDBRANCH  29  30
ENDBRANCH  28  29
ENDBRANCH  27  28
ENDBRANCH   1  27
TORSDOF 23
ENDMDL
