MODEL 1
REMARK VINA RESULT:     -10.0      0.000      0.000
REMARK SMILES CC(C)C[C@H](C(=O)OCCOCCOCCOCCOC(=O)c1ccc(-c2c3nc(c(-c4c(F)cccc4F)c4ccc([nH]4)c(-c4c(F)cccc4F)c4nc(c(-c5c(F)cccc5F)c5ccc2[nH]5)C=C4)C=C3)cc1)[C@@H]1CCO[C@]2(CCOC2)C1
REMARK SMILES IDX 14 1 13 2 12 3 11 4 10 5 9 6 8 7 6 8 7 9 5 10 4 11 2 12 1 13
REMARK SMILES IDX 3 14 77 15 78 16 86 17 79 18 81 19 80 20 82 21 85 22 83 23
REMARK SMILES IDX 84 24 15 25 16 26 17 27 18 28 19 29 20 30 21 31 22 32 23 33
REMARK SMILES IDX 24 34 76 35 25 36 75 37 26 38 27 39 28 40 69 41 29 42 74 43
REMARK SMILES IDX 68 44 70 45 30 46 73 47 67 48 66 49 31 51 57 52 40 53 56 54
REMARK SMILES IDX 41 55 44 56 55 57 71 58 42 59 43 60 54 62 72 63 45 64 32 65
REMARK SMILES IDX 33 66 38 67 34 68 35 69 37 70 39 71 36 72 58 73 59 74 64 75
REMARK SMILES IDX 60 76 61 77 63 78 65 79 62 80 46 81 47 82 52 83 48 84 49 85
REMARK SMILES IDX 51 86 53 87 50 88
REMARK H PARENT 70 50 44 61
REMARK Flexibility Score: inf
ROOT
ATOM      1  O   UNL A   1      33.234  34.900  30.829  1.00  0.00    -0.377 OA
ENDROOT
BRANCH   1   2
ATOM      2  C   UNL A   1      33.527  35.207  29.465  1.00  0.00     0.188 C 
BRANCH   2   3
ATOM      3  C   UNL A   1      34.761  34.545  28.813  1.00  0.00     0.188 C 
BRANCH   3   4
ATOM      4  O   UNL A   1      34.506  33.562  27.812  1.00  0.00    -0.376 OA
BRANCH   4   5
ATOM      5  C   UNL A   1      33.719  32.443  28.206  1.00  0.00     0.202 C 
BRANCH   5   6
ATOM      6  C   UNL A   1      33.858  31.251  27.260  1.00  0.00     0.261 C 
BRANCH   6   7
ATOM      7  O   UNL A   1      32.673  30.425  27.339  1.00  0.00    -0.463 OA
BRANCH   7   8
ATOM      8  C   UNL A   1      31.839  30.409  26.279  1.00  0.00     0.309 C 
ATOM      9  O   UNL A   1      31.259  31.390  25.834  1.00  0.00    -0.252 OA
BRANCH   8  10
ATOM     10  C   UNL A   1      31.750  29.028  25.638  1.00  0.00     0.103 C 
BRANCH  10  11
ATOM     11  C   UNL A   1      31.795  29.135  24.096  1.00  0.00     0.018 C 
BRANCH  11  12
ATOM     12  C   UNL A   1      30.461  28.808  23.392  1.00  0.00    -0.017 C 
ATOM     13  C   UNL A   1      29.781  27.585  24.017  1.00  0.00     0.007 C 
ATOM     14  C   UNL A   1      29.514  30.009  23.489  1.00  0.00     0.007 C 
ENDBRANCH  11  12
ENDBRANCH  10  11
BRANCH  10  15
ATOM     15  C   UNL A   1      32.625  27.890  26.261  1.00  0.00     0.008 C 
ATOM     16  C   UNL A   1      33.867  27.584  25.413  1.00  0.00     0.033 C 
ATOM     17  C   UNL A   1      31.969  26.597  26.820  1.00  0.00     0.042 C 
ATOM     18  C   UNL A   1      33.696  26.357  24.541  1.00  0.00     0.161 C 
ATOM     19  C   UNL A   1      32.205  25.257  26.066  1.00  0.00     0.094 C 
ATOM     20  O   UNL A   1      33.439  25.227  25.355  1.00  0.00    -0.372 OA
ATOM     21  C   UNL A   1      31.023  24.829  25.210  1.00  0.00     0.066 C 
ATOM     22  C   UNL A   1      32.216  24.057  27.035  1.00  0.00     0.195 C 
ATOM     23  C   UNL A   1      30.071  24.160  26.182  1.00  0.00     0.163 C 
ATOM     24  O   UNL A   1      30.864  23.639  27.251  1.00  0.00    -0.378 OA
ENDBRANCH  10  15
ENDBRANCH   8  10
ENDBRANCH   7   8
ENDBRANCH   6   7
ENDBRANCH   5   6
ENDBRANCH   4   5
ENDBRANCH   3   4
ENDBRANCH   2   3
ENDBRANCH   1   2
BRANCH   1  25
ATOM     25  C   UNL A   1      32.811  35.980  31.651  1.00  0.00     0.188 C 
BRANCH  25  26
ATOM     26  C   UNL A   1      33.878  36.657  32.523  1.00  0.00     0.188 C 
BRANCH  26  27
ATOM     27  O   UNL A   1      34.991  35.810  32.778  1.00  0.00    -0.376 OA
BRANCH  27  28
ATOM     28  C   UNL A   1      34.966  35.120  34.017  1.00  0.00     0.202 C 
BRANCH  28  29
ATOM     29  C   UNL A   1      35.332  33.624  34.000  1.00  0.00     0.261 C 
BRANCH  29  30
ATOM     30  O   UNL A   1      36.123  33.154  32.898  1.00  0.00    -0.460 OA
BRANCH  30  31
ATOM     31  C   UNL A   1      35.538  32.283  32.054  1.00  0.00     0.338 C 
ATOM     32  O   UNL A   1      34.347  32.218  31.772  1.00  0.00    -0.246 OA
BRANCH  31  33
ATOM     33  C   UNL A   1      36.576  31.446  31.426  1.00  0.00     0.060 A 
ATOM     34  C   UNL A   1      37.504  30.784  32.240  1.00  0.00     0.016 A 
ATOM     35  C   UNL A   1      36.685  31.382  30.034  1.00  0.00     0.016 A 
ATOM     36  C   UNL A   1      38.549  30.061  31.662  1.00  0.00     0.010 A 
ATOM     37  C   UNL A   1      37.754  30.689  29.457  1.00  0.00     0.010 A 
ATOM     38  C   UNL A   1      38.705  30.050  30.269  1.00  0.00    -0.014 A 
BRANCH  38  39
ATOM     39  C   UNL A   1      39.974  29.549  29.687  1.00  0.00     0.031 A 
ATOM     40  C   UNL A   1      41.129  30.505  29.567  1.00  0.00     0.074 A 
ATOM     41  C   UNL A   1      40.114  28.269  29.303  1.00  0.00     0.049 A 
ATOM     42  N   UNL A   1      42.335  30.301  29.103  1.00  0.00    -0.248 NA
ATOM     43  C   UNL A   1      40.889  31.879  30.042  1.00  0.00     0.031 C 
ATOM     44  C   UNL A   1      39.083  27.239  29.401  1.00  0.00     0.029 A 
ATOM     45  N   UNL A   1      41.190  27.622  28.747  1.00  0.00    -0.354 N 
ATOM     46  C   UNL A   1      43.000  31.512  29.242  1.00  0.00     0.074 A 
ATOM     47  C   UNL A   1      42.057  32.455  29.804  1.00  0.00     0.031 C 
ATOM     48  C   UNL A   1      39.572  26.088  28.905  1.00  0.00     0.029 A 
ATOM     49  C   UNL A   1      40.940  26.309  28.435  1.00  0.00     0.049 A 
ATOM     50  H   UNL A   1      42.057  28.059  28.586  1.00  0.00     0.167 HD
ATOM     51  C   UNL A   1      44.285  31.813  28.936  1.00  0.00     0.037 A 
ATOM     52  C   UNL A   1      41.722  25.399  27.821  1.00  0.00     0.037 A 
ATOM     53  C   UNL A   1      45.212  30.887  28.346  1.00  0.00     0.049 A 
ATOM     54  C   UNL A   1      43.120  25.782  27.406  1.00  0.00     0.074 A 
ATOM     55  C   UNL A   1      46.532  31.098  27.988  1.00  0.00     0.029 A 
ATOM     56  N   UNL A   1      44.910  29.576  28.008  1.00  0.00    -0.354 N 
ATOM     57  N   UNL A   1      43.752  26.919  27.571  1.00  0.00    -0.248 NA
ATOM     58  C   UNL A   1      43.914  24.751  26.719  1.00  0.00     0.031 C 
ATOM     59  C   UNL A   1      47.015  29.929  27.391  1.00  0.00     0.029 A 
ATOM     60  C   UNL A   1      46.011  28.973  27.425  1.00  0.00     0.049 A 
ATOM     61  H   UNL A   1      44.041  29.140  28.161  1.00  0.00     0.167 HD
ATOM     62  C   UNL A   1      45.021  26.734  27.036  1.00  0.00     0.074 A 
ATOM     63  C   UNL A   1      45.075  25.370  26.551  1.00  0.00     0.031 C 
ATOM     64  C   UNL A   1      46.051  27.612  26.954  1.00  0.00     0.037 A 
BRANCH  51  65
ATOM     65  C   UNL A   1      44.743  33.215  29.210  1.00  0.00     0.057 A 
ATOM     66  C   UNL A   1      44.600  34.236  28.261  1.00  0.00     0.134 A 
ATOM     67  C   UNL A   1      45.324  33.550  30.439  1.00  0.00     0.134 A 
ATOM     68  F   UNL A   1      44.068  33.976  27.057  1.00  0.00    -0.206 F 
ATOM     69  C   UNL A   1      45.040  35.535  28.516  1.00  0.00     0.040 A 
ATOM     70  C   UNL A   1      45.745  34.852  30.715  1.00  0.00     0.040 A 
ATOM     71  F   UNL A   1      45.489  32.620  31.390  1.00  0.00    -0.206 F 
ATOM     72  C   UNL A   1      45.610  35.848  29.749  1.00  0.00     0.006 A 
ENDBRANCH  51  65
BRANCH  52  73
ATOM     73  C   UNL A   1      41.201  24.036  27.542  1.00  0.00     0.057 A 
ATOM     74  C   UNL A   1      40.200  23.817  26.590  1.00  0.00     0.134 A 
ATOM     75  C   UNL A   1      41.675  22.921  28.247  1.00  0.00     0.134 A 
ATOM     76  F   UNL A   1      39.685  24.848  25.903  1.00  0.00    -0.206 F 
ATOM     77  C   UNL A   1      39.675  22.543  26.358  1.00  0.00     0.040 A 
ATOM     78  C   UNL A   1      41.179  21.639  28.008  1.00  0.00     0.040 A 
ATOM     79  F   UNL A   1      42.630  23.064  29.177  1.00  0.00    -0.206 F 
ATOM     80  C   UNL A   1      40.169  21.449  27.066  1.00  0.00     0.006 A 
ENDBRANCH  52  73
BRANCH  64  81
ATOM     81  C   UNL A   1      47.334  27.119  26.351  1.00  0.00     0.057 A 
ATOM     82  C   UNL A   1      47.621  27.275  24.989  1.00  0.00     0.134 A 
ATOM     83  C   UNL A   1      48.316  26.525  27.155  1.00  0.00     0.134 A 
ATOM     84  F   UNL A   1      46.719  27.826  24.163  1.00  0.00    -0.206 F 
ATOM     85  C   UNL A   1      48.831  26.841  24.445  1.00  0.00     0.040 A 
ATOM     86  C   UNL A   1      49.540  26.111  26.627  1.00  0.00     0.040 A 
ATOM     87  F   UNL A   1      48.109  26.356  28.469  1.00  0.00    -0.206 F 
ATOM     88  C   UNL A   1      49.798  26.263  25.267  1.00  0.00     0.006 A 
ENDBRANCH  64  81
ENDBRANCH  38  39
ENDBRANCH  31  33
ENDBRANCH  30  31
ENDBRANCH  29  30
ENDBRANCH  28  29
ENDBRANCH  27  28
ENDBRANCH  26  27
ENDBRANCH  25  26
ENDBRANCH   1  25
TORSDOF 23
ENDMDL
MODEL 2
REMARK VINA RESULT:     -10.0      0.556      6.014
REMARK SMILES CC(C)C[C@H](C(=O)OCCOCCOCCOCCOC(=O)c1ccc(-c2c3nc(c(-c4c(F)cccc4F)c4ccc([nH]4)c(-c4c(F)cccc4F)c4nc(c(-c5c(F)cccc5F)c5ccc2[nH]5)C=C4)C=C3)cc1)[C@@H]1CCO[C@]2(CCOC2)C1
REMARK SMILES IDX 14 1 13 2 12 3 11 4 10 5 9 6 8 7 6 8 7 9 5 10 4 11 2 12 1 13
REMARK SMILES IDX 3 14 77 15 78 16 86 17 79 18 81 19 80 20 82 21 85 22 83 23
REMARK SMILES IDX 84 24 15 25 16 26 17 27 18 28 19 29 20 30 21 31 22 32 23 33
REMARK SMILES IDX 24 34 76 35 25 36 75 37 26 38 27 39 28 40 69 41 29 42 74 43
REMARK SMILES IDX 68 44 70 45 30 46 73 47 67 48 66 49 31 51 57 52 40 53 56 54
REMARK SMILES IDX 41 55 44 56 55 57 71 58 42 59 43 60 54 62 72 63 45 64 32 65
REMARK SMILES IDX 33 66 38 67 34 68 35 69 37 70 39 71 36 72 58 73 59 74 64 75
REMARK SMILES IDX 60 76 61 77 63 78 65 79 62 80 46 81 47 82 52 83 48 84 49 85
REMARK SMILES IDX 51 86 53 87 50 88
REMARK H PARENT 70 50 44 61
REMARK Flexibility Score: inf
ROOT
ATOM      1  O   UNL A   1      33.544  34.694  31.208  1.00  0.00    -0.377 OA
ENDROOT
BRANCH   1   2
ATOM      2  C   UNL A   1      33.753  34.893  29.809  1.00  0.00     0.188 C 
BRANCH   2   3
ATOM      3  C   UNL A   1      34.983  34.231  29.151  1.00  0.00     0.188 C 
BRANCH   3   4
ATOM      4  O   UNL A   1      34.729  33.358  28.052  1.00  0.00    -0.376 OA
BRANCH   4   5
ATOM      5  C   UNL A   1      33.978  32.183  28.335  1.00  0.00     0.202 C 
BRANCH   5   6
ATOM      6  C   UNL A   1      34.109  31.113  27.251  1.00  0.00     0.261 C 
BRANCH   6   7
ATOM      7  O   UNL A   1      32.985  30.206  27.324  1.00  0.00    -0.463 OA
BRANCH   7   8
ATOM      8  C   UNL A   1      32.010  30.330  26.400  1.00  0.00     0.309 C 
ATOM      9  O   UNL A   1      31.428  31.373  26.136  1.00  0.00    -0.252 OA
BRANCH   8  10
ATOM     10  C   UNL A   1      31.754  29.023  25.656  1.00  0.00     0.103 C 
BRANCH  10  11
ATOM     11  C   UNL A   1      31.492  29.289  24.155  1.00  0.00     0.018 C 
BRANCH  11  12
ATOM     12  C   UNL A   1      30.104  28.832  23.656  1.00  0.00    -0.017 C 
ATOM     13  C   UNL A   1      29.316  29.995  23.043  1.00  0.00     0.007 C 
ATOM     14  C   UNL A   1      30.267  27.730  22.603  1.00  0.00     0.007 C 
ENDBRANCH  11  12
ENDBRANCH  10  11
BRANCH  10  15
ATOM     15  C   UNL A   1      32.703  27.820  25.971  1.00  0.00     0.008 C 
ATOM     16  C   UNL A   1      33.649  27.505  24.805  1.00  0.00     0.033 C 
ATOM     17  C   UNL A   1      32.155  26.528  26.641  1.00  0.00     0.042 C 
ATOM     18  C   UNL A   1      33.181  26.332  23.968  1.00  0.00     0.161 C 
ATOM     19  C   UNL A   1      32.104  25.219  25.802  1.00  0.00     0.094 C 
ATOM     20  O   UNL A   1      33.095  25.174  24.779  1.00  0.00    -0.372 OA
ATOM     21  C   UNL A   1      30.712  24.885  25.287  1.00  0.00     0.066 C 
ATOM     22  C   UNL A   1      32.314  23.973  26.685  1.00  0.00     0.195 C 
ATOM     23  C   UNL A   1      30.026  24.208  26.457  1.00  0.00     0.163 C 
ATOM     24  O   UNL A   1      31.051  23.600  27.247  1.00  0.00    -0.378 OA
ENDBRANCH  10  15
ENDBRANCH   8  10
ENDBRANCH   7   8
ENDBRANCH   6   7
ENDBRANCH   5   6
ENDBRANCH   4   5
ENDBRANCH   3   4
ENDBRANCH   2   3
ENDBRANCH   1   2
BRANCH   1  25
ATOM     25  C   UNL A   1      33.117  35.823  31.959  1.00  0.00     0.188 C 
BRANCH  25  26
ATOM     26  C   UNL A   1      34.163  36.510  32.848  1.00  0.00     0.188 C 
BRANCH  26  27
ATOM     27  O   UNL A   1      35.306  35.694  33.074  1.00  0.00    -0.376 OA
BRANCH  27  28
ATOM     28  C   UNL A   1      35.287  34.927  34.267  1.00  0.00     0.202 C 
BRANCH  28  29
ATOM     29  C   UNL A   1      35.630  33.431  34.150  1.00  0.00     0.261 C 
BRANCH  29  30
ATOM     30  O   UNL A   1      36.440  33.028  33.035  1.00  0.00    -0.460 OA
BRANCH  30  31
ATOM     31  C   UNL A   1      35.913  32.118  32.195  1.00  0.00     0.338 C 
ATOM     32  O   UNL A   1      34.725  31.950  31.942  1.00  0.00    -0.246 OA
BRANCH  31  33
ATOM     33  C   UNL A   1      37.005  31.384  31.529  1.00  0.00     0.060 A 
ATOM     34  C   UNL A   1      38.064  30.889  32.299  1.00  0.00     0.016 A 
ATOM     35  C   UNL A   1      37.024  31.258  30.136  1.00  0.00     0.016 A 
ATOM     36  C   UNL A   1      39.150  30.272  31.678  1.00  0.00     0.010 A 
ATOM     37  C   UNL A   1      38.131  30.674  29.512  1.00  0.00     0.010 A 
ATOM     38  C   UNL A   1      39.211  30.204  30.279  1.00  0.00    -0.014 A 
BRANCH  38  39
ATOM     39  C   UNL A   1      40.490  29.835  29.626  1.00  0.00     0.031 A 
ATOM     40  C   UNL A   1      40.653  28.427  29.123  1.00  0.00     0.074 A 
ATOM     41  C   UNL A   1      41.474  30.733  29.452  1.00  0.00     0.049 A 
ATOM     42  N   UNL A   1      41.668  27.872  28.514  1.00  0.00    -0.248 NA
ATOM     43  C   UNL A   1      39.508  27.524  29.334  1.00  0.00     0.031 C 
ATOM     44  C   UNL A   1      41.424  32.133  29.862  1.00  0.00     0.029 A 
ATOM     45  N   UNL A   1      42.716  30.589  28.883  1.00  0.00    -0.354 N 
ATOM     46  C   UNL A   1      41.281  26.563  28.256  1.00  0.00     0.074 A 
ATOM     47  C   UNL A   1      39.952  26.396  28.802  1.00  0.00     0.031 C 
ATOM     48  C   UNL A   1      42.592  32.720  29.545  1.00  0.00     0.029 A 
ATOM     49  C   UNL A   1      43.478  31.730  28.931  1.00  0.00     0.049 A 
ATOM     50  H   UNL A   1      43.030  29.748  28.480  1.00  0.00     0.167 HD
ATOM     51  C   UNL A   1      41.968  25.588  27.615  1.00  0.00     0.037 A 
ATOM     52  C   UNL A   1      44.751  31.940  28.543  1.00  0.00     0.037 A 
ATOM     53  C   UNL A   1      43.303  25.742  27.103  1.00  0.00     0.049 A 
ATOM     54  C   UNL A   1      45.530  30.813  27.914  1.00  0.00     0.074 A 
ATOM     55  C   UNL A   1      44.089  24.811  26.448  1.00  0.00     0.029 A 
ATOM     56  N   UNL A   1      44.057  26.902  27.207  1.00  0.00    -0.354 N 
ATOM     57  N   UNL A   1      45.145  29.589  27.644  1.00  0.00    -0.248 NA
ATOM     58  C   UNL A   1      46.922  31.099  27.533  1.00  0.00     0.031 C 
ATOM     59  C   UNL A   1      45.336  25.392  26.197  1.00  0.00     0.029 A 
ATOM     60  C   UNL A   1      45.308  26.702  26.648  1.00  0.00     0.049 A 
ATOM     61  H   UNL A   1      43.748  27.742  27.616  1.00  0.00     0.167 HD
ATOM     62  C   UNL A   1      46.233  28.969  27.040  1.00  0.00     0.074 A 
ATOM     63  C   UNL A   1      47.291  29.956  26.971  1.00  0.00     0.031 C 
ATOM     64  C   UNL A   1      46.347  27.698  26.581  1.00  0.00     0.037 A 
BRANCH  51  65
ATOM     65  C   UNL A   1      41.290  24.258  27.466  1.00  0.00     0.057 A 
ATOM     66  C   UNL A   1      40.262  24.056  26.535  1.00  0.00     0.134 A 
ATOM     67  C   UNL A   1      41.674  23.167  28.254  1.00  0.00     0.134 A 
ATOM     68  F   UNL A   1      39.835  25.066  25.763  1.00  0.00    -0.206 F 
ATOM     69  C   UNL A   1      39.626  22.820  26.410  1.00  0.00     0.040 A 
ATOM     70  C   UNL A   1      41.062  21.920  28.120  1.00  0.00     0.040 A 
ATOM     71  F   UNL A   1      42.651  23.294  29.164  1.00  0.00    -0.206 F 
ATOM     72  C   UNL A   1      40.029  21.746  27.200  1.00  0.00     0.006 A 
ENDBRANCH  51  65
BRANCH  52  73
ATOM     73  C   UNL A   1      45.384  33.268  28.750  1.00  0.00     0.057 A 
ATOM     74  C   UNL A   1      45.315  34.270  27.776  1.00  0.00     0.134 A 
ATOM     75  C   UNL A   1      46.100  33.554  29.920  1.00  0.00     0.134 A 
ATOM     76  F   UNL A   1      44.669  34.046  26.622  1.00  0.00    -0.206 F 
ATOM     77  C   UNL A   1      45.949  35.503  27.948  1.00  0.00     0.040 A 
ATOM     78  C   UNL A   1      46.716  34.791  30.117  1.00  0.00     0.040 A 
ATOM     79  F   UNL A   1      46.208  32.635  30.891  1.00  0.00    -0.206 F 
ATOM     80  C   UNL A   1      46.647  35.767  29.124  1.00  0.00     0.006 A 
ENDBRANCH  52  73
BRANCH  64  81
ATOM     81  C   UNL A   1      47.645  27.310  25.935  1.00  0.00     0.057 A 
ATOM     82  C   UNL A   1      48.704  26.760  26.668  1.00  0.00     0.134 A 
ATOM     83  C   UNL A   1      47.817  27.442  24.550  1.00  0.00     0.134 A 
ATOM     84  F   UNL A   1      48.608  26.616  27.998  1.00  0.00    -0.206 F 
ATOM     85  C   UNL A   1      49.895  26.374  26.050  1.00  0.00     0.040 A 
ATOM     86  C   UNL A   1      48.993  27.036  23.918  1.00  0.00     0.040 A 
ATOM     87  F   UNL A   1      46.838  27.952  23.788  1.00  0.00    -0.206 F 
ATOM     88  C   UNL A   1      50.039  26.505  24.669  1.00  0.00     0.006 A 
ENDBRANCH  64  81
ENDBRANCH  38  39
ENDBRANCH  31  33
ENDBRANCH  30  31
ENDBRANCH  29  30
ENDBRANCH  28  29
ENDBRANCH  27  28
ENDBRANCH  26  27
ENDBRANCH  25  26
ENDBRANCH   1  25
TORSDOF 23
ENDMDL
MODEL 3
REMARK VINA RESULT:      -9.9      4.725      7.454
REMARK SMILES CC(C)C[C@H](C(=O)OCCOCCOCCOCCOC(=O)c1ccc(-c2c3nc(c(-c4c(F)cccc4F)c4ccc([nH]4)c(-c4c(F)cccc4F)c4nc(c(-c5c(F)cccc5F)c5ccc2[nH]5)C=C4)C=C3)cc1)[C@@H]1CCO[C@]2(CCOC2)C1
REMARK SMILES IDX 14 1 13 2 12 3 11 4 10 5 9 6 8 7 6 8 7 9 5 10 4 11 2 12 1 13
REMARK SMILES IDX 3 14 77 15 78 16 86 17 79 18 81 19 80 20 82 21 85 22 83 23
REMARK SMILES IDX 84 24 15 25 16 26 17 27 18 28 19 29 20 30 21 31 22 32 23 33
REMARK SMILES IDX 24 34 76 35 25 36 75 37 26 38 27 39 28 40 69 41 29 42 74 43
REMARK SMILES IDX 68 44 70 45 30 46 73 47 67 48 66 49 31 51 57 52 40 53 56 54
REMARK SMILES IDX 41 55 44 56 55 57 71 58 42 59 43 60 54 62 72 63 45 64 32 65
REMARK SMILES IDX 33 66 38 67 34 68 35 69 37 70 39 71 36 72 58 73 59 74 64 75
REMARK SMILES IDX 60 76 61 77 63 78 65 79 62 80 46 81 47 82 52 83 48 84 49 85
REMARK SMILES IDX 51 86 53 87 50 88
REMARK H PARENT 70 50 44 61
REMARK Flexibility Score: inf
ROOT
ATOM      1  O   UNL A   1      33.631  31.485  27.920  1.00  0.00    -0.377 OA
ENDROOT
BRANCH   1   2
ATOM      2  C   UNL A   1      33.539  30.297  27.133  1.00  0.00     0.188 C 
BRANCH   2   3
ATOM      3  C   UNL A   1      32.147  29.659  26.931  1.00  0.00     0.188 C 
BRANCH   3   4
ATOM      4  O   UNL A   1      31.931  28.969  25.701  1.00  0.00    -0.376 OA
BRANCH   4   5
ATOM      5  C   UNL A   1      33.094  28.523  25.011  1.00  0.00     0.202 C 
BRANCH   5   6
ATOM      6  C   UNL A   1      32.784  27.509  23.909  1.00  0.00     0.261 C 
BRANCH   6   7
ATOM      7  O   UNL A   1      33.774  26.457  23.922  1.00  0.00    -0.463 OA
BRANCH   7   8
ATOM      8  C   UNL A   1      33.775  25.574  22.902  1.00  0.00     0.309 C 
ATOM      9  O   UNL A   1      33.642  25.872  21.723  1.00  0.00    -0.252 OA
BRANCH   8  10
ATOM     10  C   UNL A   1      34.035  24.148  23.376  1.00  0.00     0.103 C 
BRANCH  10  11
ATOM     11  C   UNL A   1      34.838  24.146  24.697  1.00  0.00     0.018 C 
BRANCH  11  12
ATOM     12  C   UNL A   1      36.033  23.169  24.719  1.00  0.00    -0.017 C 
ATOM     13  C   UNL A   1      36.628  22.978  23.319  1.00  0.00     0.007 C 
ATOM     14  C   UNL A   1      37.124  23.703  25.654  1.00  0.00     0.007 C 
ENDBRANCH  11  12
ENDBRANCH  10  11
BRANCH  10  15
ATOM     15  C   UNL A   1      32.838  23.142  23.314  1.00  0.00     0.008 C 
ATOM     16  C   UNL A   1      31.721  23.509  24.300  1.00  0.00     0.033 C 
ATOM     17  C   UNL A   1      33.088  21.608  23.261  1.00  0.00     0.042 C 
ATOM     18  C   UNL A   1      31.761  22.682  25.569  1.00  0.00     0.161 C 
ATOM     19  C   UNL A   1      32.693  20.748  24.495  1.00  0.00     0.094 C 
ATOM     20  O   UNL A   1      31.621  21.310  25.247  1.00  0.00    -0.372 OA
ATOM     21  C   UNL A   1      33.879  20.357  25.364  1.00  0.00     0.066 C 
ATOM     22  C   UNL A   1      32.253  19.330  24.079  1.00  0.00     0.195 C 
ATOM     23  C   UNL A   1      34.481  19.153  24.668  1.00  0.00     0.163 C 
ATOM     24  O   UNL A   1      33.423  18.514  23.949  1.00  0.00    -0.378 OA
ENDBRANCH  10  15
ENDBRANCH   8  10
ENDBRANCH   7   8
ENDBRANCH   6   7
ENDBRANCH   5   6
ENDBRANCH   4   5
ENDBRANCH   3   4
ENDBRANCH   2   3
ENDBRANCH   1   2
BRANCH   1  25
ATOM     25  C   UNL A   1      34.932  31.870  28.348  1.00  0.00     0.188 C 
BRANCH  25  26
ATOM     26  C   UNL A   1      35.167  33.362  28.622  1.00  0.00     0.188 C 
BRANCH  26  27
ATOM     27  O   UNL A   1      34.167  34.187  28.037  1.00  0.00    -0.376 OA
BRANCH  27  28
ATOM     28  C   UNL A   1      34.132  35.528  28.497  1.00  0.00     0.202 C 
BRANCH  28  29
ATOM     29  C   UNL A   1      32.937  35.942  29.377  1.00  0.00     0.261 C 
BRANCH  29  30
ATOM     30  O   UNL A   1      32.602  35.080  30.475  1.00  0.00    -0.460 OA
BRANCH  30  31
ATOM     31  C   UNL A   1      32.759  35.583  31.715  1.00  0.00     0.338 C 
ATOM     32  O   UNL A   1      32.024  36.381  32.284  1.00  0.00    -0.246 OA
BRANCH  31  33
ATOM     33  C   UNL A   1      33.930  34.949  32.348  1.00  0.00     0.060 A 
ATOM     34  C   UNL A   1      35.185  35.558  32.225  1.00  0.00     0.016 A 
ATOM     35  C   UNL A   1      33.803  33.714  32.991  1.00  0.00     0.016 A 
ATOM     36  C   UNL A   1      36.320  34.927  32.738  1.00  0.00     0.010 A 
ATOM     37  C   UNL A   1      34.946  33.066  33.471  1.00  0.00     0.010 A 
ATOM     38  C   UNL A   1      36.211  33.658  33.322  1.00  0.00    -0.014 A 
BRANCH  38  39
ATOM     39  C   UNL A   1      37.442  32.872  33.579  1.00  0.00     0.031 A 
ATOM     40  C   UNL A   1      38.217  33.153  34.838  1.00  0.00     0.074 A 
ATOM     41  C   UNL A   1      37.850  31.908  32.736  1.00  0.00     0.049 A 
ATOM     42  N   UNL A   1      39.312  32.594  35.284  1.00  0.00    -0.248 NA
ATOM     43  C   UNL A   1      37.676  34.206  35.714  1.00  0.00     0.031 C 
ATOM     44  C   UNL A   1      37.168  31.518  31.505  1.00  0.00     0.029 A 
ATOM     45  N   UNL A   1      38.946  31.084  32.794  1.00  0.00    -0.354 N 
ATOM     46  C   UNL A   1      39.583  33.216  36.496  1.00  0.00     0.074 A 
ATOM     47  C   UNL A   1      38.557  34.215  36.701  1.00  0.00     0.031 C 
ATOM     48  C   UNL A   1      37.872  30.537  30.912  1.00  0.00     0.029 A 
ATOM     49  C   UNL A   1      39.064  30.248  31.711  1.00  0.00     0.049 A 
ATOM     50  H   UNL A   1      39.588  31.092  33.540  1.00  0.00     0.167 HD
ATOM     51  C   UNL A   1      40.592  32.972  37.366  1.00  0.00     0.037 A 
ATOM     52  C   UNL A   1      40.034  29.369  31.395  1.00  0.00     0.037 A 
ATOM     53  C   UNL A   1      41.631  32.003  37.147  1.00  0.00     0.049 A 
ATOM     54  C   UNL A   1      41.197  29.178  32.334  1.00  0.00     0.074 A 
ATOM     55  C   UNL A   1      42.704  31.689  37.963  1.00  0.00     0.029 A 
ATOM     56  N   UNL A   1      41.737  31.203  36.019  1.00  0.00    -0.354 N 
ATOM     57  N   UNL A   1      41.428  29.746  33.494  1.00  0.00    -0.248 NA
ATOM     58  C   UNL A   1      42.235  28.221  31.921  1.00  0.00     0.031 C 
ATOM     59  C   UNL A   1      43.485  30.732  37.307  1.00  0.00     0.029 A 
ATOM     60  C   UNL A   1      42.871  30.413  36.106  1.00  0.00     0.049 A 
ATOM     61  H   UNL A   1      41.101  31.199  35.268  1.00  0.00     0.167 HD
ATOM     62  C   UNL A   1      42.618  29.198  33.959  1.00  0.00     0.074 A 
ATOM     63  C   UNL A   1      43.056  28.243  32.963  1.00  0.00     0.031 C 
ATOM     64  C   UNL A   1      43.288  29.461  35.109  1.00  0.00     0.037 A 
BRANCH  51  65
ATOM     65  C   UNL A   1      40.629  33.796  38.619  1.00  0.00     0.057 A 
ATOM     66  C   UNL A   1      39.865  33.461  39.745  1.00  0.00     0.134 A 
ATOM     67  C   UNL A   1      41.445  34.931  38.704  1.00  0.00     0.134 A 
ATOM     68  F   UNL A   1      39.050  32.396  39.721  1.00  0.00    -0.206 F 
ATOM     69  C   UNL A   1      39.894  34.240  40.903  1.00  0.00     0.040 A 
ATOM     70  C   UNL A   1      41.501  35.703  39.866  1.00  0.00     0.040 A 
ATOM     71  F   UNL A   1      42.201  35.306  37.662  1.00  0.00    -0.206 F 
ATOM     72  C   UNL A   1      40.718  35.361  40.967  1.00  0.00     0.006 A 
ENDBRANCH  51  65
BRANCH  52  73
ATOM     73  C   UNL A   1      39.963  28.607  30.121  1.00  0.00     0.057 A 
ATOM     74  C   UNL A   1      40.575  29.076  28.954  1.00  0.00     0.134 A 
ATOM     75  C   UNL A   1      39.252  27.402  30.037  1.00  0.00     0.134 A 
ATOM     76  F   UNL A   1      41.246  30.238  28.965  1.00  0.00    -0.206 F 
ATOM     77  C   UNL A   1      40.472  28.386  27.744  1.00  0.00     0.040 A 
ATOM     78  C   UNL A   1      39.162  26.688  28.841  1.00  0.00     0.040 A 
ATOM     79  F   UNL A   1      38.638  26.900  31.118  1.00  0.00    -0.206 F 
ATOM     80  C   UNL A   1      39.767  27.185  27.688  1.00  0.00     0.006 A 
ENDBRANCH  52  73
BRANCH  64  81
ATOM     81  C   UNL A   1      44.545  28.682  35.369  1.00  0.00     0.057 A 
ATOM     82  C   UNL A   1      45.793  29.108  34.899  1.00  0.00     0.134 A 
ATOM     83  C   UNL A   1      44.511  27.516  36.146  1.00  0.00     0.134 A 
ATOM     84  F   UNL A   1      45.893  30.211  34.141  1.00  0.00    -0.206 F 
ATOM     85  C   UNL A   1      46.959  28.392  35.174  1.00  0.00     0.040 A 
ATOM     86  C   UNL A   1      45.673  26.806  36.450  1.00  0.00     0.040 A 
ATOM     87  F   UNL A   1      43.349  27.059  36.637  1.00  0.00    -0.206 F 
ATOM     88  C   UNL A   1      46.901  27.241  35.959  1.00  0.00     0.006 A 
ENDBRANCH  64  81
ENDBRANCH  38  39
ENDBRANCH  31  33
ENDBRANCH  30  31
ENDBRANCH  29  30
ENDBRANCH  28  29
ENDBRANCH  27  28
ENDBRANCH  26  27
ENDBRANCH  25  26
ENDBRANCH   1  25
TORSDOF 23
ENDMDL
