MODEL 1
REMARK VINA RESULT:      -9.6      0.000      0.000
REMARK SMILES CNC(=O)C[N@@H+](C)CCn1cc(C(=O)OCCOCCOCCOCCOC(=O)c2ccc(-c3c4nc(c(-c5c(F)cccc5F)c5ccc([nH]5)c(-c5c(F)cccc5F)c5nc(c(-c6c(F)cccc6F)c6ccc3[nH]6)C=C5)C=C4)cc2)nn1
REMARK SMILES IDX 19 1 18 2 17 3 16 4 15 5 13 6 14 7 12 8 10 9 11 10 85 11
REMARK SMILES IDX 84 12 9 13 8 14 6 15 7 16 5 18 3 19 1 20 2 21 4 23 20 24
REMARK SMILES IDX 21 25 22 26 23 27 24 28 25 29 26 30 27 31 28 32 29 33 30 34
REMARK SMILES IDX 31 35 83 36 32 37 82 38 33 39 34 40 35 41 76 42 36 43 81 44
REMARK SMILES IDX 75 45 77 46 37 47 80 48 74 49 73 50 38 52 64 53 47 54 63 55
REMARK SMILES IDX 48 56 51 57 62 58 78 59 49 60 50 61 61 63 79 64 52 65 39 66
REMARK SMILES IDX 40 67 45 68 41 69 42 70 44 71 46 72 43 73 65 74 66 75 71 76
REMARK SMILES IDX 67 77 68 78 70 79 72 80 69 81 53 82 54 83 59 84 55 85 56 86
REMARK SMILES IDX 58 87 60 88 57 89
REMARK H PARENT 6 17 2 22 77 51 51 62
REMARK Flexibility Score: inf
ROOT
ATOM      1  C   UNL A   1      32.670  29.244  27.544  1.00  0.00     0.188 C 
ENDROOT
BRANCH   1   2
ATOM      2  O   UNL A   1      31.630  29.372  26.594  1.00  0.00    -0.376 OA
BRANCH   2   3
ATOM      3  C   UNL A   1      31.780  29.912  25.297  1.00  0.00     0.202 C 
BRANCH   3   4
ATOM      4  C   UNL A   1      31.818  29.156  23.956  1.00  0.00     0.261 C 
BRANCH   4   5
ATOM      5  O   UNL A   1      31.359  27.813  23.932  1.00  0.00    -0.458 OA
BRANCH   5   6
ATOM      6  C   UNL A   1      31.141  27.308  22.687  1.00  0.00     0.360 C 
ATOM      7  O   UNL A   1      30.428  27.844  21.835  1.00  0.00    -0.244 OA
BRANCH   6   8
ATOM      8  C   UNL A   1      32.034  26.204  22.412  1.00  0.00     0.190 A 
ATOM      9  N   UNL A   1      33.309  24.488  22.519  1.00  0.00    -0.246 N 
ATOM     10  C   UNL A   1      32.811  25.483  23.301  1.00  0.00     0.147 A 
ATOM     11  N   UNL A   1      33.169  24.766  21.212  1.00  0.00    -0.066 NA
ATOM     12  N   UNL A   1      32.299  25.762  21.133  1.00  0.00    -0.123 NA
BRANCH   9  13
ATOM     13  C   UNL A   1      33.690  23.162  22.936  1.00  0.00     0.207 C 
BRANCH  13  14
ATOM     14  C   UNL A   1      33.497  22.934  24.453  1.00  0.00     0.286 C 
BRANCH  14  15
ATOM     15  N   UNL A   1      32.744  21.770  24.971  1.00  0.00    -0.328 N 
ATOM     16  C   UNL A   1      32.414  20.816  23.913  1.00  0.00     0.333 C 
ATOM     17  H   UNL A   1      33.394  21.344  25.632  1.00  0.00     0.348 HD
BRANCH  15  18
ATOM     18  C   UNL A   1      31.526  22.092  25.754  1.00  0.00     0.363 C 
BRANCH  18  19
ATOM     19  C   UNL A   1      31.813  23.035  26.930  1.00  0.00     0.274 C 
ATOM     20  C   UNL A   1      30.415  24.905  25.988  1.00  0.00     0.143 C 
ATOM     21  N   UNL A   1      31.338  24.309  26.914  1.00  0.00    -0.354 N 
ATOM     22  H   UNL A   1      31.671  24.900  27.628  1.00  0.00     0.163 HD
ATOM     23  O   UNL A   1      32.445  22.690  27.930  1.00  0.00    -0.269 OA
ENDBRANCH  18  19
ENDBRANCH  15  18
ENDBRANCH  14  15
ENDBRANCH  13  14
ENDBRANCH   9  13
ENDBRANCH   6   8
ENDBRANCH   5   6
ENDBRANCH   4   5
ENDBRANCH   3   4
ENDBRANCH   2   3
ENDBRANCH   1   2
BRANCH   1  24
ATOM     24  C   UNL A   1      34.120  29.545  27.102  1.00  0.00     0.188 C 
BRANCH  24  25
ATOM     25  O   UNL A   1      34.761  30.601  27.786  1.00  0.00    -0.377 OA
BRANCH  25  26
ATOM     26  C   UNL A   1      34.166  31.895  27.735  1.00  0.00     0.188 C 
BRANCH  26  27
ATOM     27  C   UNL A   1      34.944  33.203  28.049  1.00  0.00     0.188 C 
BRANCH  27  28
ATOM     28  O   UNL A   1      34.222  34.417  27.916  1.00  0.00    -0.376 OA
BRANCH  28  29
ATOM     29  C   UNL A   1      33.046  34.688  28.654  1.00  0.00     0.202 C 
BRANCH  29  30
ATOM     30  C   UNL A   1      33.225  35.426  29.977  1.00  0.00     0.261 C 
BRANCH  30  31
ATOM     31  O   UNL A   1      33.196  34.559  31.096  1.00  0.00    -0.460 OA
BRANCH  31  32
ATOM     32  C   UNL A   1      33.326  35.175  32.278  1.00  0.00     0.338 C 
ATOM     33  O   UNL A   1      32.725  36.174  32.673  1.00  0.00    -0.246 OA
BRANCH  32  34
ATOM     34  C   UNL A   1      34.425  34.549  33.001  1.00  0.00     0.060 A 
ATOM     35  C   UNL A   1      35.586  35.312  33.111  1.00  0.00     0.016 A 
ATOM     36  C   UNL A   1      34.412  33.151  33.131  1.00  0.00     0.016 A 
ATOM     37  C   UNL A   1      36.779  34.648  33.028  1.00  0.00     0.010 A 
ATOM     38  C   UNL A   1      35.602  32.492  33.015  1.00  0.00     0.010 A 
ATOM     39  C   UNL A   1      36.751  33.260  32.857  1.00  0.00    -0.014 A 
BRANCH  39  40
ATOM     40  C   UNL A   1      37.996  32.603  32.558  1.00  0.00     0.031 A 
ATOM     41  C   UNL A   1      38.892  32.578  33.724  1.00  0.00     0.074 A 
ATOM     42  C   UNL A   1      38.230  32.032  31.363  1.00  0.00     0.049 A 
ATOM     43  N   UNL A   1      39.982  33.247  33.889  1.00  0.00    -0.248 NA
ATOM     44  C   UNL A   1      38.407  31.896  34.934  1.00  0.00     0.031 C 
ATOM     45  C   UNL A   1      37.281  31.787  30.273  1.00  0.00     0.029 A 
ATOM     46  N   UNL A   1      39.375  31.460  30.912  1.00  0.00    -0.354 N 
ATOM     47  C   UNL A   1      40.437  32.885  35.149  1.00  0.00     0.074 A 
ATOM     48  C   UNL A   1      39.337  32.247  35.819  1.00  0.00     0.031 C 
ATOM     49  C   UNL A   1      37.835  30.927  29.388  1.00  0.00     0.029 A 
ATOM     50  C   UNL A   1      39.211  30.673  29.782  1.00  0.00     0.049 A 
ATOM     51  H   UNL A   1      40.247  31.592  31.349  1.00  0.00     0.167 HD
ATOM     52  C   UNL A   1      41.768  32.853  35.414  1.00  0.00     0.037 A 
ATOM     53  C   UNL A   1      40.137  29.827  29.269  1.00  0.00     0.037 A 
ATOM     54  C   UNL A   1      42.506  33.626  34.446  1.00  0.00     0.049 A 
ATOM     55  C   UNL A   1      41.453  30.221  29.825  1.00  0.00     0.074 A 
ATOM     56  C   UNL A   1      42.575  34.958  34.096  1.00  0.00     0.029 A 
ATOM     57  N   UNL A   1      43.058  32.917  33.409  1.00  0.00    -0.354 N 
ATOM     58  N   UNL A   1      42.077  31.321  29.510  1.00  0.00    -0.248 NA
ATOM     59  C   UNL A   1      41.913  29.579  31.049  1.00  0.00     0.031 C 
ATOM     60  C   UNL A   1      42.847  34.972  32.696  1.00  0.00     0.029 A 
ATOM     61  C   UNL A   1      42.969  33.652  32.257  1.00  0.00     0.049 A 
ATOM     62  H   UNL A   1      43.456  32.020  33.482  1.00  0.00     0.167 HD
ATOM     63  C   UNL A   1      42.687  31.731  30.685  1.00  0.00     0.074 A 
ATOM     64  C   UNL A   1      42.679  30.554  31.545  1.00  0.00     0.031 C 
ATOM     65  C   UNL A   1      42.865  33.060  30.942  1.00  0.00     0.037 A 
BRANCH  52  66
ATOM     66  C   UNL A   1      42.417  31.763  36.234  1.00  0.00     0.057 A 
ATOM     67  C   UNL A   1      43.305  32.132  37.257  1.00  0.00     0.134 A 
ATOM     68  C   UNL A   1      42.451  30.397  35.878  1.00  0.00     0.134 A 
ATOM     69  F   UNL A   1      43.383  33.404  37.675  1.00  0.00    -0.206 F 
ATOM     70  C   UNL A   1      44.210  31.228  37.827  1.00  0.00     0.040 A 
ATOM     71  C   UNL A   1      43.310  29.476  36.478  1.00  0.00     0.040 A 
ATOM     72  F   UNL A   1      41.739  29.891  34.864  1.00  0.00    -0.206 F 
ATOM     73  C   UNL A   1      44.218  29.896  37.432  1.00  0.00     0.006 A 
ENDBRANCH  52  66
BRANCH  53  74
ATOM     74  C   UNL A   1      39.944  28.543  28.562  1.00  0.00     0.057 A 
ATOM     75  C   UNL A   1      40.514  28.323  27.300  1.00  0.00     0.134 A 
ATOM     76  C   UNL A   1      39.447  27.407  29.223  1.00  0.00     0.134 A 
ATOM     77  F   UNL A   1      41.046  29.340  26.607  1.00  0.00    -0.206 F 
ATOM     78  C   UNL A   1      40.618  27.042  26.743  1.00  0.00     0.040 A 
ATOM     79  C   UNL A   1      39.538  26.123  28.676  1.00  0.00     0.040 A 
ATOM     80  F   UNL A   1      38.943  27.493  30.464  1.00  0.00    -0.206 F 
ATOM     81  C   UNL A   1      40.141  25.935  27.438  1.00  0.00     0.006 A 
ENDBRANCH  53  74
BRANCH  65  82
ATOM     82  C   UNL A   1      42.730  33.999  29.776  1.00  0.00     0.057 A 
ATOM     83  C   UNL A   1      43.733  34.226  28.822  1.00  0.00     0.134 A 
ATOM     84  C   UNL A   1      41.497  34.622  29.560  1.00  0.00     0.134 A 
ATOM     85  F   UNL A   1      44.916  33.602  28.898  1.00  0.00    -0.206 F 
ATOM     86  C   UNL A   1      43.531  35.075  27.730  1.00  0.00     0.040 A 
ATOM     87  C   UNL A   1      41.270  35.444  28.455  1.00  0.00     0.040 A 
ATOM     88  F   UNL A   1      40.475  34.408  30.405  1.00  0.00    -0.206 F 
ATOM     89  C   UNL A   1      42.293  35.684  27.542  1.00  0.00     0.006 A 
ENDBRANCH  65  82
ENDBRANCH  39  40
ENDBRANCH  32  34
ENDBRANCH  31  32
ENDBRANCH  30  31
ENDBRANCH  29  30
ENDBRANCH  28  29
ENDBRANCH  27  28
ENDBRANCH  26  27
ENDBRANCH  25  26
ENDBRANCH  24  25
ENDBRANCH   1  24
TORSDOF 25
ENDMDL
MODEL 2
REMARK VINA RESULT:      -9.3      1.169      1.967
REMARK SMILES CNC(=O)C[N@@H+](C)CCn1cc(C(=O)OCCOCCOCCOCCOC(=O)c2ccc(-c3c4nc(c(-c5c(F)cccc5F)c5ccc([nH]5)c(-c5c(F)cccc5F)c5nc(c(-c6c(F)cccc6F)c6ccc3[nH]6)C=C5)C=C4)cc2)nn1
REMARK SMILES IDX 19 1 18 2 17 3 16 4 15 5 13 6 14 7 12 8 10 9 11 10 85 11
REMARK SMILES IDX 84 12 9 13 8 14 6 15 7 16 5 18 3 19 1 20 2 21 4 23 20 24
REMARK SMILES IDX 21 25 22 26 23 27 24 28 25 29 26 30 27 31 28 32 29 33 30 34
REMARK SMILES IDX 31 35 83 36 32 37 82 38 33 39 34 40 35 41 76 42 36 43 81 44
REMARK SMILES IDX 75 45 77 46 37 47 80 48 74 49 73 50 38 52 64 53 47 54 63 55
REMARK SMILES IDX 48 56 51 57 62 58 78 59 49 60 50 61 61 63 79 64 52 65 39 66
REMARK SMILES IDX 40 67 45 68 41 69 42 70 44 71 46 72 43 73 65 74 66 75 71 76
REMARK SMILES IDX 67 77 68 78 70 79 72 80 69 81 53 82 54 83 59 84 55 85 56 86
REMARK SMILES IDX 58 87 60 88 57 89
REMARK H PARENT 6 17 2 22 77 51 51 62
REMARK Flexibility Score: inf
ROOT
ATOM      1  C   UNL A   1      32.501  30.569  27.199  1.00  0.00     0.188 C 
ENDROOT
BRANCH   1   2
ATOM      2  O   UNL A   1      31.621  30.127  26.185  1.00  0.00    -0.376 OA
BRANCH   2   3
ATOM      3  C   UNL A   1      32.021  29.498  24.984  1.00  0.00     0.202 C 
BRANCH   3   4
ATOM      4  C   UNL A   1      31.313  28.355  24.233  1.00  0.00     0.261 C 
BRANCH   4   5
ATOM      5  O   UNL A   1      31.129  27.122  24.913  1.00  0.00    -0.458 OA
BRANCH   5   6
ATOM      6  C   UNL A   1      31.004  26.037  24.101  1.00  0.00     0.360 C 
ATOM      7  O   UNL A   1      29.969  25.733  23.504  1.00  0.00    -0.244 OA
BRANCH   6   8
ATOM      8  C   UNL A   1      32.292  25.434  23.840  1.00  0.00     0.190 A 
ATOM      9  N   UNL A   1      34.172  24.416  23.960  1.00  0.00    -0.246 N 
ATOM     10  C   UNL A   1      33.267  25.059  24.746  1.00  0.00     0.147 A 
ATOM     11  N   UNL A   1      33.977  24.683  22.658  1.00  0.00    -0.066 NA
ATOM     12  N   UNL A   1      32.769  25.220  22.564  1.00  0.00    -0.123 NA
BRANCH   9  13
ATOM     13  C   UNL A   1      35.064  23.355  24.351  1.00  0.00     0.207 C 
BRANCH  13  14
ATOM     14  C   UNL A   1      34.551  21.958  23.934  1.00  0.00     0.286 C 
BRANCH  14  15
ATOM     15  N   UNL A   1      33.996  21.008  24.925  1.00  0.00    -0.328 N 
ATOM     16  C   UNL A   1      34.324  21.395  26.297  1.00  0.00     0.333 C 
ATOM     17  H   UNL A   1      32.989  21.075  24.777  1.00  0.00     0.348 HD
BRANCH  15  18
ATOM     18  C   UNL A   1      34.342  19.583  24.709  1.00  0.00     0.363 C 
BRANCH  18  19
ATOM     19  C   UNL A   1      33.117  18.661  24.773  1.00  0.00     0.274 C 
ATOM     20  C   UNL A   1      34.109  16.958  23.205  1.00  0.00     0.143 C 
ATOM     21  N   UNL A   1      33.064  17.542  24.002  1.00  0.00    -0.354 N 
ATOM     22  H   UNL A   1      32.199  17.072  23.986  1.00  0.00     0.163 HD
ATOM     23  O   UNL A   1      32.159  18.867  25.520  1.00  0.00    -0.269 OA
ENDBRANCH  18  19
ENDBRANCH  15  18
ENDBRANCH  14  15
ENDBRANCH  13  14
ENDBRANCH   9  13
ENDBRANCH   6   8
ENDBRANCH   5   6
ENDBRANCH   4   5
ENDBRANCH   3   4
ENDBRANCH   2   3
ENDBRANCH   1   2
BRANCH   1  24
ATOM     24  C   UNL A   1      34.010  30.269  27.056  1.00  0.00     0.188 C 
BRANCH  24  25
ATOM     25  O   UNL A   1      34.878  31.178  27.701  1.00  0.00    -0.377 OA
BRANCH  25  26
ATOM     26  C   UNL A   1      34.400  32.494  27.964  1.00  0.00     0.188 C 
BRANCH  26  27
ATOM     27  C   UNL A   1      35.314  33.751  27.947  1.00  0.00     0.188 C 
BRANCH  27  28
ATOM     28  O   UNL A   1      34.765  34.941  28.491  1.00  0.00    -0.376 OA
BRANCH  28  29
ATOM     29  C   UNL A   1      33.383  35.090  28.755  1.00  0.00     0.202 C 
BRANCH  29  30
ATOM     30  C   UNL A   1      33.007  35.716  30.095  1.00  0.00     0.261 C 
BRANCH  30  31
ATOM     31  O   UNL A   1      33.049  34.789  31.163  1.00  0.00    -0.460 OA
BRANCH  31  32
ATOM     32  C   UNL A   1      33.117  35.346  32.379  1.00  0.00     0.338 C 
ATOM     33  O   UNL A   1      32.469  36.304  32.802  1.00  0.00    -0.246 OA
BRANCH  32  34
ATOM     34  C   UNL A   1      34.211  34.720  33.108  1.00  0.00     0.060 A 
ATOM     35  C   UNL A   1      35.367  35.487  33.235  1.00  0.00     0.016 A 
ATOM     36  C   UNL A   1      34.203  33.321  33.227  1.00  0.00     0.016 A 
ATOM     37  C   UNL A   1      36.564  34.829  33.159  1.00  0.00     0.010 A 
ATOM     38  C   UNL A   1      35.398  32.668  33.118  1.00  0.00     0.010 A 
ATOM     39  C   UNL A   1      36.544  33.442  32.977  1.00  0.00    -0.014 A 
BRANCH  39  40
ATOM     40  C   UNL A   1      37.796  32.793  32.686  1.00  0.00     0.031 A 
ATOM     41  C   UNL A   1      38.705  32.820  33.841  1.00  0.00     0.074 A 
ATOM     42  C   UNL A   1      38.024  32.186  31.508  1.00  0.00     0.049 A 
ATOM     43  N   UNL A   1      39.786  33.509  33.971  1.00  0.00    -0.248 NA
ATOM     44  C   UNL A   1      38.243  32.172  35.078  1.00  0.00     0.031 C 
ATOM     45  C   UNL A   1      37.066  31.891  30.438  1.00  0.00     0.029 A 
ATOM     46  N   UNL A   1      39.171  31.614  31.063  1.00  0.00    -0.354 N 
ATOM     47  C   UNL A   1      40.261  33.196  35.237  1.00  0.00     0.074 A 
ATOM     48  C   UNL A   1      39.179  32.566  35.941  1.00  0.00     0.031 C 
ATOM     49  C   UNL A   1      37.622  31.009  29.576  1.00  0.00     0.029 A 
ATOM     50  C   UNL A   1      39.006  30.787  29.962  1.00  0.00     0.049 A 
ATOM     51  H   UNL A   1      40.046  31.774  31.485  1.00  0.00     0.167 HD
ATOM     52  C   UNL A   1      41.595  33.192  35.486  1.00  0.00     0.037 A 
ATOM     53  C   UNL A   1      39.938  29.938  29.467  1.00  0.00     0.037 A 
ATOM     54  C   UNL A   1      42.311  33.942  34.484  1.00  0.00     0.049 A 
ATOM     55  C   UNL A   1      41.255  30.369  29.993  1.00  0.00     0.074 A 
ATOM     56  C   UNL A   1      42.357  35.262  34.089  1.00  0.00     0.029 A 
ATOM     57  N   UNL A   1      42.862  33.206  33.466  1.00  0.00    -0.354 N 
ATOM     58  N   UNL A   1      41.859  31.466  29.634  1.00  0.00    -0.248 NA
ATOM     59  C   UNL A   1      41.737  29.774  31.232  1.00  0.00     0.031 C 
ATOM     60  C   UNL A   1      42.613  35.233  32.686  1.00  0.00     0.029 A 
ATOM     61  C   UNL A   1      42.748  33.901  32.291  1.00  0.00     0.049 A 
ATOM     62  H   UNL A   1      43.273  32.318  33.563  1.00  0.00     0.167 HD
ATOM     63  C   UNL A   1      42.476  31.924  30.787  1.00  0.00     0.074 A 
ATOM     64  C   UNL A   1      42.495  30.776  31.686  1.00  0.00     0.031 C 
ATOM     65  C   UNL A   1      42.639  33.263  30.997  1.00  0.00     0.037 A 
BRANCH  52  66
ATOM     66  C   UNL A   1      42.269  32.139  36.335  1.00  0.00     0.057 A 
ATOM     67  C   UNL A   1      43.085  32.557  37.399  1.00  0.00     0.134 A 
ATOM     68  C   UNL A   1      42.401  30.779  35.980  1.00  0.00     0.134 A 
ATOM     69  F   UNL A   1      43.069  33.830  37.821  1.00  0.00    -0.206 F 
ATOM     70  C   UNL A   1      44.015  31.706  38.009  1.00  0.00     0.040 A 
ATOM     71  C   UNL A   1      43.285  29.908  36.618  1.00  0.00     0.040 A 
ATOM     72  F   UNL A   1      41.768  30.236  34.934  1.00  0.00    -0.206 F 
ATOM     73  C   UNL A   1      44.121  30.378  37.614  1.00  0.00     0.006 A 
ENDBRANCH  52  66
BRANCH  53  74
ATOM     74  C   UNL A   1      39.755  28.628  28.805  1.00  0.00     0.057 A 
ATOM     75  C   UNL A   1      40.281  28.387  27.528  1.00  0.00     0.134 A 
ATOM     76  C   UNL A   1      39.319  27.499  29.519  1.00  0.00     0.134 A 
ATOM     77  F   UNL A   1      40.756  29.397  26.785  1.00  0.00    -0.206 F 
ATOM     78  C   UNL A   1      40.401  27.093  27.005  1.00  0.00     0.040 A 
ATOM     79  C   UNL A   1      39.426  26.202  29.005  1.00  0.00     0.040 A 
ATOM     80  F   UNL A   1      38.862  27.608  30.775  1.00  0.00    -0.206 F 
ATOM     81  C   UNL A   1      39.985  25.994  27.750  1.00  0.00     0.006 A 
ENDBRANCH  53  74
BRANCH  65  82
ATOM     82  C   UNL A   1      42.476  34.161  29.802  1.00  0.00     0.057 A 
ATOM     83  C   UNL A   1      41.273  34.785  29.440  1.00  0.00     0.134 A 
ATOM     84  C   UNL A   1      43.610  34.481  29.048  1.00  0.00     0.134 A 
ATOM     85  F   UNL A   1      40.157  34.608  30.158  1.00  0.00    -0.206 F 
ATOM     86  C   UNL A   1      41.195  35.651  28.345  1.00  0.00     0.040 A 
ATOM     87  C   UNL A   1      43.553  35.371  27.975  1.00  0.00     0.040 A 
ATOM     88  F   UNL A   1      44.805  33.960  29.372  1.00  0.00    -0.206 F 
ATOM     89  C   UNL A   1      42.340  35.949  27.611  1.00  0.00     0.006 A 
ENDBRANCH  65  82
ENDBRANCH  39  40
ENDBRANCH  32  34
ENDBRANCH  31  32
ENDBRANCH  30  31
ENDBRANCH  29  30
ENDBRANCH  28  29
ENDBRANCH  27  28
ENDBRANCH  26  27
ENDBRANCH  25  26
ENDBRANCH  24  25
ENDBRANCH   1  24
TORSDOF 25
ENDMDL
MODEL 3
REMARK VINA RESULT:      -8.8      3.279      8.275
REMARK SMILES CNC(=O)C[N@@H+](C)CCn1cc(C(=O)OCCOCCOCCOCCOC(=O)c2ccc(-c3c4nc(c(-c5c(F)cccc5F)c5ccc([nH]5)c(-c5c(F)cccc5F)c5nc(c(-c6c(F)cccc6F)c6ccc3[nH]6)C=C5)C=C4)cc2)nn1
REMARK SMILES IDX 19 1 18 2 17 3 16 4 15 5 13 6 14 7 12 8 10 9 11 10 85 11
REMARK SMILES IDX 84 12 9 13 8 14 6 15 7 16 5 18 3 19 1 20 2 21 4 23 20 24
REMARK SMILES IDX 21 25 22 26 23 27 24 28 25 29 26 30 27 31 28 32 29 33 30 34
REMARK SMILES IDX 31 35 83 36 32 37 82 38 33 39 34 40 35 41 76 42 36 43 81 44
REMARK SMILES IDX 75 45 77 46 37 47 80 48 74 49 73 50 38 52 64 53 47 54 63 55
REMARK SMILES IDX 48 56 51 57 62 58 78 59 49 60 50 61 61 63 79 64 52 65 39 66
REMARK SMILES IDX 40 67 45 68 41 69 42 70 44 71 46 72 43 73 65 74 66 75 71 76
REMARK SMILES IDX 67 77 68 78 70 79 72 80 69 81 53 82 54 83 59 84 55 85 56 86
REMARK SMILES IDX 58 87 60 88 57 89
REMARK H PARENT 6 17 2 22 77 51 51 62
REMARK Flexibility Score: inf
ROOT
ATOM      1  C   UNL A   1      38.866  21.150  25.676  1.00  0.00     0.188 C 
ENDROOT
BRANCH   1   2
ATOM      2  O   UNL A   1      37.879  20.393  25.003  1.00  0.00    -0.376 OA
BRANCH   2   3
ATOM      3  C   UNL A   1      36.486  20.610  25.102  1.00  0.00     0.202 C 
BRANCH   3   4
ATOM      4  C   UNL A   1      35.727  21.946  24.999  1.00  0.00     0.261 C 
BRANCH   4   5
ATOM      5  O   UNL A   1      35.443  22.648  26.200  1.00  0.00    -0.458 OA
BRANCH   5   6
ATOM      6  C   UNL A   1      34.341  22.210  26.868  1.00  0.00     0.360 C 
ATOM      7  O   UNL A   1      34.325  21.227  27.612  1.00  0.00    -0.244 OA
BRANCH   6   8
ATOM      8  C   UNL A   1      33.268  23.177  26.786  1.00  0.00     0.190 A 
ATOM      9  N   UNL A   1      31.936  24.759  26.236  1.00  0.00    -0.246 N 
ATOM     10  C   UNL A   1      33.221  24.352  26.060  1.00  0.00     0.147 A 
ATOM     11  N   UNL A   1      31.348  24.118  27.261  1.00  0.00    -0.066 NA
ATOM     12  N   UNL A   1      32.116  23.075  27.538  1.00  0.00    -0.123 NA
BRANCH   9  13
ATOM     13  C   UNL A   1      31.140  25.547  25.329  1.00  0.00     0.207 C 
BRANCH  13  14
ATOM     14  C   UNL A   1      31.459  27.058  25.412  1.00  0.00     0.286 C 
BRANCH  14  15
ATOM     15  N   UNL A   1      31.960  27.809  24.238  1.00  0.00    -0.328 N 
ATOM     16  C   UNL A   1      32.894  27.016  23.439  1.00  0.00     0.333 C 
ATOM     17  H   UNL A   1      31.114  27.995  23.699  1.00  0.00     0.348 HD
BRANCH  15  18
ATOM     18  C   UNL A   1      32.552  29.136  24.533  1.00  0.00     0.363 C 
BRANCH  18  19
ATOM     19  C   UNL A   1      31.524  30.131  25.087  1.00  0.00     0.274 C 
ATOM     20  C   UNL A   1      29.924  29.797  23.171  1.00  0.00     0.143 C 
ATOM     21  N   UNL A   1      30.408  30.429  24.368  1.00  0.00    -0.354 N 
ATOM     22  H   UNL A   1      29.862  31.173  24.712  1.00  0.00     0.163 HD
ATOM     23  O   UNL A   1      31.639  30.677  26.186  1.00  0.00    -0.269 OA
ENDBRANCH  18  19
ENDBRANCH  15  18
ENDBRANCH  14  15
ENDBRANCH  13  14
ENDBRANCH   9  13
ENDBRANCH   6   8
ENDBRANCH   5   6
ENDBRANCH   4   5
ENDBRANCH   3   4
ENDBRANCH   2   3
ENDBRANCH   1   2
BRANCH   1  24
ATOM     24  C   UNL A   1      39.971  20.402  26.456  1.00  0.00     0.188 C 
BRANCH  24  25
ATOM     25  O   UNL A   1      40.671  19.414  25.729  1.00  0.00    -0.377 OA
BRANCH  25  26
ATOM     26  C   UNL A   1      42.094  19.417  25.787  1.00  0.00     0.188 C 
BRANCH  26  27
ATOM     27  C   UNL A   1      42.930  20.685  26.119  1.00  0.00     0.188 C 
BRANCH  27  28
ATOM     28  O   UNL A   1      42.907  21.729  25.159  1.00  0.00    -0.376 OA
BRANCH  28  29
ATOM     29  C   UNL A   1      42.918  23.097  25.521  1.00  0.00     0.202 C 
BRANCH  29  30
ATOM     30  C   UNL A   1      41.653  23.639  26.179  1.00  0.00     0.261 C 
BRANCH  30  31
ATOM     31  O   UNL A   1      41.839  24.919  26.753  1.00  0.00    -0.460 OA
BRANCH  31  32
ATOM     32  C   UNL A   1      41.485  25.939  25.961  1.00  0.00     0.338 C 
ATOM     33  O   UNL A   1      41.933  26.214  24.847  1.00  0.00    -0.246 OA
BRANCH  32  34
ATOM     34  C   UNL A   1      40.558  26.788  26.696  1.00  0.00     0.060 A 
ATOM     35  C   UNL A   1      40.652  28.153  26.431  1.00  0.00     0.016 A 
ATOM     36  C   UNL A   1      39.989  26.274  27.872  1.00  0.00     0.016 A 
ATOM     37  C   UNL A   1      40.473  29.007  27.485  1.00  0.00     0.010 A 
ATOM     38  C   UNL A   1      39.842  27.124  28.930  1.00  0.00     0.010 A 
ATOM     39  C   UNL A   1      40.192  28.456  28.740  1.00  0.00    -0.014 A 
BRANCH  39  40
ATOM     40  C   UNL A   1      40.217  29.342  29.874  1.00  0.00     0.031 A 
ATOM     41  C   UNL A   1      38.991  30.150  29.960  1.00  0.00     0.074 A 
ATOM     42  C   UNL A   1      41.230  29.337  30.758  1.00  0.00     0.049 A 
ATOM     43  N   UNL A   1      38.869  31.414  29.741  1.00  0.00    -0.248 NA
ATOM     44  C   UNL A   1      37.716  29.428  30.095  1.00  0.00     0.031 C 
ATOM     45  C   UNL A   1      42.329  28.373  30.874  1.00  0.00     0.029 A 
ATOM     46  N   UNL A   1      41.431  30.165  31.814  1.00  0.00    -0.354 N 
ATOM     47  C   UNL A   1      37.522  31.683  29.938  1.00  0.00     0.074 A 
ATOM     48  C   UNL A   1      36.841  30.418  29.926  1.00  0.00     0.031 C 
ATOM     49  C   UNL A   1      42.947  28.547  32.065  1.00  0.00     0.029 A 
ATOM     50  C   UNL A   1      42.373  29.708  32.724  1.00  0.00     0.049 A 
ATOM     51  H   UNL A   1      40.949  31.016  31.925  1.00  0.00     0.167 HD
ATOM     52  C   UNL A   1      37.127  32.892  30.412  1.00  0.00     0.037 A 
ATOM     53  C   UNL A   1      42.596  30.227  33.956  1.00  0.00     0.037 A 
ATOM     54  C   UNL A   1      38.162  33.880  30.235  1.00  0.00     0.049 A 
ATOM     55  C   UNL A   1      42.012  31.590  33.975  1.00  0.00     0.074 A 
ATOM     56  C   UNL A   1      38.785  34.471  29.156  1.00  0.00     0.029 A 
ATOM     57  N   UNL A   1      38.960  34.112  31.327  1.00  0.00    -0.354 N 
ATOM     58  N   UNL A   1      42.496  32.598  33.307  1.00  0.00    -0.248 NA
ATOM     59  C   UNL A   1      40.639  31.752  34.432  1.00  0.00     0.031 C 
ATOM     60  C   UNL A   1      40.121  34.734  29.582  1.00  0.00     0.029 A 
ATOM     61  C   UNL A   1      40.247  34.326  30.911  1.00  0.00     0.049 A 
ATOM     62  H   UNL A   1      38.656  34.123  32.262  1.00  0.00     0.167 HD
ATOM     63  C   UNL A   1      41.385  33.315  32.893  1.00  0.00     0.074 A 
ATOM     64  C   UNL A   1      40.294  32.839  33.736  1.00  0.00     0.031 C 
ATOM     65  C   UNL A   1      41.407  34.003  31.715  1.00  0.00     0.037 A 
BRANCH  52  66
ATOM     66  C   UNL A   1      36.029  33.054  31.437  1.00  0.00     0.057 A 
ATOM     67  C   UNL A   1      34.968  33.928  31.152  1.00  0.00     0.134 A 
ATOM     68  C   UNL A   1      36.117  32.641  32.785  1.00  0.00     0.134 A 
ATOM     69  F   UNL A   1      34.786  34.408  29.913  1.00  0.00    -0.206 F 
ATOM     70  C   UNL A   1      34.109  34.414  32.145  1.00  0.00     0.040 A 
ATOM     71  C   UNL A   1      35.232  33.076  33.772  1.00  0.00     0.040 A 
ATOM     72  F   UNL A   1      37.116  31.884  33.250  1.00  0.00    -0.206 F 
ATOM     73  C   UNL A   1      34.244  33.993  33.462  1.00  0.00     0.006 A 
ENDBRANCH  52  66
BRANCH  53  74
ATOM     74  C   UNL A   1      43.023  29.546  35.197  1.00  0.00     0.057 A 
ATOM     75  C   UNL A   1      42.402  28.362  35.619  1.00  0.00     0.134 A 
ATOM     76  C   UNL A   1      44.229  29.876  35.837  1.00  0.00     0.134 A 
ATOM     77  F   UNL A   1      41.266  27.946  35.042  1.00  0.00    -0.206 F 
ATOM     78  C   UNL A   1      42.968  27.533  36.596  1.00  0.00     0.040 A 
ATOM     79  C   UNL A   1      44.801  29.060  36.819  1.00  0.00     0.040 A 
ATOM     80  F   UNL A   1      44.940  30.950  35.464  1.00  0.00    -0.206 F 
ATOM     81  C   UNL A   1      44.178  27.875  37.190  1.00  0.00     0.006 A 
ENDBRANCH  53  74
BRANCH  65  82
ATOM     82  C   UNL A   1      42.756  34.255  31.102  1.00  0.00     0.057 A 
ATOM     83  C   UNL A   1      43.598  35.321  31.455  1.00  0.00     0.134 A 
ATOM     84  C   UNL A   1      43.261  33.323  30.191  1.00  0.00     0.134 A 
ATOM     85  F   UNL A   1      43.235  36.212  32.386  1.00  0.00    -0.206 F 
ATOM     86  C   UNL A   1      44.865  35.476  30.886  1.00  0.00     0.040 A 
ATOM     87  C   UNL A   1      44.538  33.446  29.642  1.00  0.00     0.040 A 
ATOM     88  F   UNL A   1      42.529  32.250  29.848  1.00  0.00    -0.206 F 
ATOM     89  C   UNL A   1      45.341  34.532  29.979  1.00  0.00     0.006 A 
ENDBRANCH  65  82
ENDBRANCH  39  40
ENDBRANCH  32  34
ENDBRANCH  31  32
ENDBRANCH  30  31
ENDBRANCH  29  30
ENDBRANCH  28  29
ENDBRANCH  27  28
ENDBRANCH  26  27
ENDBRANCH  25  26
ENDBRANCH  24  25
ENDBRANCH   1  24
TORSDOF 25
ENDMDL
