MODEL 1
REMARK VINA RESULT:     -10.2      0.000      0.000
REMARK SMILES CC(=O)Nc1sc(-c2ccccc2)cc1C(=O)OCCOCCOCCOCCOC(=O)c1ccc(-c2c3nc(c(-c4c(F)cccc4F)c4ccc([nH]4)c(-c4c(F)cccc4F)c4nc(c(-c5c(F)cccc5F)c5ccc2[nH]5)C=C4)C=C3)cc1
REMARK SMILES IDX 25 1 24 2 23 3 22 4 21 5 20 6 19 7 18 8 16 9 17 10 15 11
REMARK SMILES IDX 5 12 6 13 7 14 14 15 4 16 1 17 2 18 3 19 8 21 9 22 13 23
REMARK SMILES IDX 10 24 12 25 11 26 26 27 27 28 28 29 29 30 30 31 31 32 32 33
REMARK SMILES IDX 33 34 34 35 86 36 35 37 85 38 36 39 37 40 38 41 79 42 39 43
REMARK SMILES IDX 84 44 78 45 80 46 40 47 83 48 77 49 76 50 41 52 67 53 50 54
REMARK SMILES IDX 66 55 51 56 54 57 65 58 81 59 52 60 53 61 64 63 82 64 55 65
REMARK SMILES IDX 42 66 43 67 48 68 44 69 45 70 47 71 49 72 46 73 68 74 69 75
REMARK SMILES IDX 74 76 70 77 71 78 73 79 75 80 72 81 56 82 57 83 62 84 58 85
REMARK SMILES IDX 59 86 61 87 63 88 60 89
REMARK H PARENT 4 20 80 51 54 62
REMARK Flexibility Score: inf
ROOT
ATOM      1  C   UNL A   1      32.102  29.463  26.635  1.00  0.00     0.188 C 
ENDROOT
BRANCH   1   2
ATOM      2  O   UNL A   1      31.170  29.100  25.621  1.00  0.00    -0.377 OA
BRANCH   2   3
ATOM      3  C   UNL A   1      31.698  28.657  24.382  1.00  0.00     0.188 C 
BRANCH   3   4
ATOM      4  C   UNL A   1      30.815  29.059  23.187  1.00  0.00     0.188 C 
BRANCH   4   5
ATOM      5  O   UNL A   1      30.801  28.089  22.140  1.00  0.00    -0.376 OA
BRANCH   5   6
ATOM      6  C   UNL A   1      30.803  26.724  22.547  1.00  0.00     0.202 C 
BRANCH   6   7
ATOM      7  C   UNL A   1      31.909  25.853  21.941  1.00  0.00     0.261 C 
BRANCH   7   8
ATOM      8  O   UNL A   1      32.450  24.869  22.833  1.00  0.00    -0.460 OA
BRANCH   8   9
ATOM      9  C   UNL A   1      32.748  23.640  22.345  1.00  0.00     0.341 C 
ATOM     10  O   UNL A   1      33.347  23.434  21.297  1.00  0.00    -0.246 OA
BRANCH   9  11
ATOM     11  C   UNL A   1      32.407  22.593  23.299  1.00  0.00     0.095 A 
ATOM     12  C   UNL A   1      31.910  22.765  24.579  1.00  0.00     0.110 A 
ATOM     13  S   UNL A   1      32.000  21.338  25.514  1.00  0.00    -0.117 S 
ATOM     14  C   UNL A   1      32.525  20.413  24.181  1.00  0.00     0.037 A 
ATOM     15  C   UNL A   1      32.695  21.200  23.061  1.00  0.00     0.038 A 
BRANCH  12  16
ATOM     16  N   UNL A   1      31.415  23.816  25.315  1.00  0.00    -0.317 N 
ATOM     17  C   UNL A   1      33.563  24.834  26.078  1.00  0.00     0.114 C 
ATOM     18  C   UNL A   1      32.066  24.687  26.137  1.00  0.00     0.221 C 
ATOM     19  O   UNL A   1      31.403  25.429  26.869  1.00  0.00    -0.275 OA
ATOM     20  H   UNL A   1      30.445  23.961  25.236  1.00  0.00     0.170 HD
ENDBRANCH  12  16
BRANCH  14  21
ATOM     21  C   UNL A   1      32.763  18.982  24.331  1.00  0.00    -0.008 A 
ATOM     22  C   UNL A   1      33.263  18.239  23.255  1.00  0.00     0.009 A 
ATOM     23  C   UNL A   1      32.533  18.344  25.557  1.00  0.00     0.009 A 
ATOM     24  C   UNL A   1      33.539  16.878  23.405  1.00  0.00     0.001 A 
ATOM     25  C   UNL A   1      32.806  16.982  25.704  1.00  0.00     0.001 A 
ATOM     26  C   UNL A   1      33.312  16.251  24.629  1.00  0.00     0.000 A 
ENDBRANCH  14  21
ENDBRANCH   9  11
ENDBRANCH   8   9
ENDBRANCH   7   8
ENDBRANCH   6   7
ENDBRANCH   5   6
ENDBRANCH   4   5
ENDBRANCH   3   4
ENDBRANCH   2   3
ENDBRANCH   1   2
BRANCH   1  27
ATOM     27  C   UNL A   1      32.382  30.949  26.937  1.00  0.00     0.188 C 
BRANCH  27  28
ATOM     28  O   UNL A   1      33.753  31.221  27.234  1.00  0.00    -0.376 OA
BRANCH  28  29
ATOM     29  C   UNL A   1      34.011  32.389  28.006  1.00  0.00     0.202 C 
BRANCH  29  30
ATOM     30  C   UNL A   1      34.787  32.105  29.299  1.00  0.00     0.261 C 
BRANCH  30  31
ATOM     31  O   UNL A   1      35.525  30.873  29.289  1.00  0.00    -0.460 OA
BRANCH  31  32
ATOM     32  C   UNL A   1      36.290  30.613  30.370  1.00  0.00     0.338 C 
ATOM     33  O   UNL A   1      35.995  30.764  31.540  1.00  0.00    -0.246 OA
BRANCH  32  34
ATOM     34  C   UNL A   1      37.514  29.937  29.904  1.00  0.00     0.060 A 
ATOM     35  C   UNL A   1      38.385  29.396  30.857  1.00  0.00     0.016 A 
ATOM     36  C   UNL A   1      37.809  29.861  28.540  1.00  0.00     0.016 A 
ATOM     37  C   UNL A   1      39.585  28.816  30.446  1.00  0.00     0.010 A 
ATOM     38  C   UNL A   1      39.016  29.295  28.132  1.00  0.00     0.010 A 
ATOM     39  C   UNL A   1      39.924  28.805  29.087  1.00  0.00    -0.014 A 
BRANCH  39  40
ATOM     40  C   UNL A   1      41.303  28.465  28.673  1.00  0.00     0.031 A 
ATOM     41  C   UNL A   1      41.600  27.045  28.284  1.00  0.00     0.074 A 
ATOM     42  C   UNL A   1      42.272  29.394  28.655  1.00  0.00     0.049 A 
ATOM     43  N   UNL A   1      42.732  26.503  27.919  1.00  0.00    -0.248 NA
ATOM     44  C   UNL A   1      40.465  26.107  28.318  1.00  0.00     0.031 C 
ATOM     45  C   UNL A   1      42.103  30.802  29.002  1.00  0.00     0.029 A 
ATOM     46  N   UNL A   1      43.603  29.276  28.344  1.00  0.00    -0.354 N 
ATOM     47  C   UNL A   1      42.448  25.165  27.680  1.00  0.00     0.074 A 
ATOM     48  C   UNL A   1      41.044  24.970  27.968  1.00  0.00     0.031 C 
ATOM     49  C   UNL A   1      43.295  31.419  28.901  1.00  0.00     0.029 A 
ATOM     50  C   UNL A   1      44.308  30.444  28.502  1.00  0.00     0.049 A 
ATOM     51  H   UNL A   1      44.013  28.435  28.037  1.00  0.00     0.167 HD
ATOM     52  C   UNL A   1      43.280  24.188  27.252  1.00  0.00     0.037 A 
ATOM     53  C   UNL A   1      45.624  30.686  28.356  1.00  0.00     0.037 A 
ATOM     54  C   UNL A   1      44.678  24.377  26.978  1.00  0.00     0.049 A 
ATOM     55  C   UNL A   1      46.542  29.570  27.933  1.00  0.00     0.074 A 
ATOM     56  C   UNL A   1      45.599  23.458  26.512  1.00  0.00     0.029 A 
ATOM     57  N   UNL A   1      45.359  25.571  27.164  1.00  0.00    -0.354 N 
ATOM     58  N   UNL A   1      46.255  28.320  27.659  1.00  0.00    -0.248 NA
ATOM     59  C   UNL A   1      47.969  29.901  27.799  1.00  0.00     0.031 C 
ATOM     60  C   UNL A   1      46.848  24.085  26.453  1.00  0.00     0.029 A 
ATOM     61  C   UNL A   1      46.696  25.405  26.846  1.00  0.00     0.049 A 
ATOM     62  H   UNL A   1      44.952  26.412  27.475  1.00  0.00     0.167 HD
ATOM     63  C   UNL A   1      47.456  27.722  27.300  1.00  0.00     0.074 A 
ATOM     64  C   UNL A   1      48.475  28.748  27.381  1.00  0.00     0.031 C 
ATOM     65  C   UNL A   1      47.695  26.439  26.933  1.00  0.00     0.037 A 
BRANCH  52  66
ATOM     66  C   UNL A   1      42.692  22.821  27.078  1.00  0.00     0.057 A 
ATOM     67  C   UNL A   1      42.400  21.999  28.174  1.00  0.00     0.134 A 
ATOM     68  C   UNL A   1      42.415  22.321  25.800  1.00  0.00     0.134 A 
ATOM     69  F   UNL A   1      42.661  22.415  29.423  1.00  0.00    -0.206 F 
ATOM     70  C   UNL A   1      41.873  20.718  28.005  1.00  0.00     0.040 A 
ATOM     71  C   UNL A   1      41.869  21.050  25.619  1.00  0.00     0.040 A 
ATOM     72  F   UNL A   1      42.674  23.057  24.709  1.00  0.00    -0.206 F 
ATOM     73  C   UNL A   1      41.602  20.242  26.724  1.00  0.00     0.006 A 
ENDBRANCH  52  66
BRANCH  53  74
ATOM     74  C   UNL A   1      46.157  32.043  28.620  1.00  0.00     0.057 A 
ATOM     75  C   UNL A   1      46.559  32.428  29.904  1.00  0.00     0.134 A 
ATOM     76  C   UNL A   1      46.269  32.991  27.595  1.00  0.00     0.134 A 
ATOM     77  F   UNL A   1      46.450  31.570  30.930  1.00  0.00    -0.206 F 
ATOM     78  C   UNL A   1      47.043  33.711  30.163  1.00  0.00     0.040 A 
ATOM     79  C   UNL A   1      46.771  34.270  27.837  1.00  0.00     0.040 A 
ATOM     80  F   UNL A   1      45.895  32.683  26.345  1.00  0.00    -0.206 F 
ATOM     81  C   UNL A   1      47.155  34.635  29.126  1.00  0.00     0.006 A 
ENDBRANCH  53  74
BRANCH  65  82
ATOM     82  C   UNL A   1      49.105  26.078  26.573  1.00  0.00     0.057 A 
ATOM     83  C   UNL A   1      49.605  26.265  25.279  1.00  0.00     0.134 A 
ATOM     84  C   UNL A   1      49.985  25.585  27.545  1.00  0.00     0.134 A 
ATOM     85  F   UNL A   1      48.809  26.723  24.301  1.00  0.00    -0.206 F 
ATOM     86  C   UNL A   1      50.929  25.958  24.959  1.00  0.00     0.040 A 
ATOM     87  C   UNL A   1      51.316  25.296  27.243  1.00  0.00     0.040 A 
ATOM     88  F   UNL A   1      49.569  25.393  28.806  1.00  0.00    -0.206 F 
ATOM     89  C   UNL A   1      51.790  25.479  25.945  1.00  0.00     0.006 A 
ENDBRANCH  65  82
ENDBRANCH  39  40
ENDBRANCH  32  34
ENDBRANCH  31  32
ENDBRANCH  30  31
ENDBRANCH  29  30
ENDBRANCH  28  29
ENDBRANCH  27  28
ENDBRANCH   1  27
TORSDOF 22
ENDMDL
MODEL 2
REMARK VINA RESULT:     -10.0      2.798      7.959
REMARK SMILES CC(=O)Nc1sc(-c2ccccc2)cc1C(=O)OCCOCCOCCOCCOC(=O)c1ccc(-c2c3nc(c(-c4c(F)cccc4F)c4ccc([nH]4)c(-c4c(F)cccc4F)c4nc(c(-c5c(F)cccc5F)c5ccc2[nH]5)C=C4)C=C3)cc1
REMARK SMILES IDX 25 1 24 2 23 3 22 4 21 5 20 6 19 7 18 8 16 9 17 10 15 11
REMARK SMILES IDX 5 12 6 13 7 14 14 15 4 16 1 17 2 18 3 19 8 21 9 22 13 23
REMARK SMILES IDX 10 24 12 25 11 26 26 27 27 28 28 29 29 30 30 31 31 32 32 33
REMARK SMILES IDX 33 34 34 35 86 36 35 37 85 38 36 39 37 40 38 41 79 42 39 43
REMARK SMILES IDX 84 44 78 45 80 46 40 47 83 48 77 49 76 50 41 52 67 53 50 54
REMARK SMILES IDX 66 55 51 56 54 57 65 58 81 59 52 60 53 61 64 63 82 64 55 65
REMARK SMILES IDX 42 66 43 67 48 68 44 69 45 70 47 71 49 72 46 73 68 74 69 75
REMARK SMILES IDX 74 76 70 77 71 78 73 79 75 80 72 81 56 82 57 83 62 84 58 85
REMARK SMILES IDX 59 86 61 87 63 88 60 89
REMARK H PARENT 4 20 80 51 54 62
REMARK Flexibility Score: inf
ROOT
ATOM      1  C   UNL A   1      34.400  33.629  29.981  1.00  0.00     0.188 C 
ENDROOT
BRANCH   1   2
ATOM      2  O   UNL A   1      34.626  33.823  28.588  1.00  0.00    -0.377 OA
BRANCH   2   3
ATOM      3  C   UNL A   1      35.509  32.920  27.942  1.00  0.00     0.188 C 
BRANCH   3   4
ATOM      4  C   UNL A   1      34.986  31.472  27.959  1.00  0.00     0.188 C 
BRANCH   4   5
ATOM      5  O   UNL A   1      33.568  31.380  27.814  1.00  0.00    -0.376 OA
BRANCH   5   6
ATOM      6  C   UNL A   1      33.086  30.295  27.026  1.00  0.00     0.202 C 
BRANCH   6   7
ATOM      7  C   UNL A   1      34.157  29.341  26.485  1.00  0.00     0.261 C 
BRANCH   7   8
ATOM      8  O   UNL A   1      33.804  28.679  25.262  1.00  0.00    -0.460 OA
BRANCH   8   9
ATOM      9  C   UNL A   1      33.061  27.548  25.325  1.00  0.00     0.341 C 
ATOM     10  O   UNL A   1      33.401  26.522  25.903  1.00  0.00    -0.246 OA
BRANCH   9  11
ATOM     11  C   UNL A   1      31.735  27.750  24.756  1.00  0.00     0.095 A 
ATOM     12  C   UNL A   1      30.820  26.770  24.414  1.00  0.00     0.110 A 
ATOM     13  S   UNL A   1      29.556  27.369  23.433  1.00  0.00    -0.117 S 
ATOM     14  C   UNL A   1      30.094  28.978  23.598  1.00  0.00     0.037 A 
ATOM     15  C   UNL A   1      31.260  29.043  24.331  1.00  0.00     0.038 A 
BRANCH  12  16
ATOM     16  N   UNL A   1      30.701  25.415  24.614  1.00  0.00    -0.317 N 
ATOM     17  C   UNL A   1      32.453  24.608  23.029  1.00  0.00     0.114 C 
ATOM     18  C   UNL A   1      31.271  24.380  23.933  1.00  0.00     0.221 C 
ATOM     19  O   UNL A   1      30.867  23.232  24.142  1.00  0.00    -0.275 OA
ATOM     20  H   UNL A   1      30.115  25.153  25.360  1.00  0.00     0.170 HD
ENDBRANCH  12  16
BRANCH  14  21
ATOM     21  C   UNL A   1      29.352  30.066  22.971  1.00  0.00    -0.008 A 
ATOM     22  C   UNL A   1      28.583  30.933  23.757  1.00  0.00     0.009 A 
ATOM     23  C   UNL A   1      29.430  30.282  21.588  1.00  0.00     0.009 A 
ATOM     24  C   UNL A   1      27.908  32.006  23.170  1.00  0.00     0.001 A 
ATOM     25  C   UNL A   1      28.752  31.353  21.003  1.00  0.00     0.001 A 
ATOM     26  C   UNL A   1      27.994  32.217  21.795  1.00  0.00     0.000 A 
ENDBRANCH  14  21
ENDBRANCH   9  11
ENDBRANCH   8   9
ENDBRANCH   7   8
ENDBRANCH   6   7
ENDBRANCH   5   6
ENDBRANCH   4   5
ENDBRANCH   3   4
ENDBRANCH   2   3
ENDBRANCH   1   2
BRANCH   1  27
ATOM     27  C   UNL A   1      34.056  34.830  30.887  1.00  0.00     0.188 C 
BRANCH  27  28
ATOM     28  O   UNL A   1      33.291  34.473  32.040  1.00  0.00    -0.376 OA
BRANCH  28  29
ATOM     29  C   UNL A   1      34.028  34.002  33.163  1.00  0.00     0.202 C 
BRANCH  29  30
ATOM     30  C   UNL A   1      34.783  32.695  32.891  1.00  0.00     0.261 C 
BRANCH  30  31
ATOM     31  O   UNL A   1      36.123  32.665  33.407  1.00  0.00    -0.460 OA
BRANCH  31  32
ATOM     32  C   UNL A   1      37.033  33.441  32.782  1.00  0.00     0.338 C 
ATOM     33  O   UNL A   1      37.189  34.642  32.900  1.00  0.00    -0.246 OA
BRANCH  32  34
ATOM     34  C   UNL A   1      37.948  32.555  32.039  1.00  0.00     0.060 A 
ATOM     35  C   UNL A   1      38.879  31.798  32.760  1.00  0.00     0.016 A 
ATOM     36  C   UNL A   1      37.902  32.493  30.645  1.00  0.00     0.016 A 
ATOM     37  C   UNL A   1      39.804  31.008  32.079  1.00  0.00     0.010 A 
ATOM     38  C   UNL A   1      38.837  31.715  29.964  1.00  0.00     0.010 A 
ATOM     39  C   UNL A   1      39.814  31.000  30.678  1.00  0.00    -0.014 A 
BRANCH  39  40
ATOM     40  C   UNL A   1      40.959  30.409  29.951  1.00  0.00     0.031 A 
ATOM     41  C   UNL A   1      42.135  31.290  29.639  1.00  0.00     0.074 A 
ATOM     42  C   UNL A   1      40.949  29.123  29.566  1.00  0.00     0.049 A 
ATOM     43  N   UNL A   1      43.234  31.009  28.988  1.00  0.00    -0.248 NA
ATOM     44  C   UNL A   1      42.057  32.679  30.120  1.00  0.00     0.031 C 
ATOM     45  C   UNL A   1      39.871  28.171  29.819  1.00  0.00     0.029 A 
ATOM     46  N   UNL A   1      41.881  28.405  28.861  1.00  0.00    -0.354 N 
ATOM     47  C   UNL A   1      43.977  32.181  28.983  1.00  0.00     0.074 A 
ATOM     48  C   UNL A   1      43.193  33.186  29.669  1.00  0.00     0.031 C 
ATOM     49  C   UNL A   1      40.196  26.991  29.260  1.00  0.00     0.029 A 
ATOM     50  C   UNL A   1      41.492  27.115  28.596  1.00  0.00     0.049 A 
ATOM     51  H   UNL A   1      42.745  28.777  28.573  1.00  0.00     0.167 HD
ATOM     52  C   UNL A   1      45.205  32.402  28.460  1.00  0.00     0.037 A 
ATOM     53  C   UNL A   1      42.110  26.154  27.883  1.00  0.00     0.037 A 
ATOM     54  C   UNL A   1      45.979  31.409  27.766  1.00  0.00     0.049 A 
ATOM     55  C   UNL A   1      43.451  26.438  27.261  1.00  0.00     0.074 A 
ATOM     56  C   UNL A   1      47.246  31.524  27.225  1.00  0.00     0.029 A 
ATOM     57  N   UNL A   1      45.545  30.118  27.505  1.00  0.00    -0.354 N 
ATOM     58  N   UNL A   1      44.170  27.535  27.306  1.00  0.00    -0.248 NA
ATOM     59  C   UNL A   1      44.069  25.348  26.490  1.00  0.00     0.031 C 
ATOM     60  C   UNL A   1      47.564  30.313  26.600  1.00  0.00     0.029 A 
ATOM     61  C   UNL A   1      46.511  29.433  26.787  1.00  0.00     0.049 A 
ATOM     62  H   UNL A   1      44.680  29.743  27.788  1.00  0.00     0.167 HD
ATOM     63  C   UNL A   1      45.329  27.261  26.590  1.00  0.00     0.074 A 
ATOM     64  C   UNL A   1      45.224  25.892  26.130  1.00  0.00     0.031 C 
ATOM     65  C   UNL A   1      46.387  28.070  26.338  1.00  0.00     0.037 A 
BRANCH  52  66
ATOM     66  C   UNL A   1      45.769  33.782  28.604  1.00  0.00     0.057 A 
ATOM     67  C   UNL A   1      45.547  34.773  27.640  1.00  0.00     0.134 A 
ATOM     68  C   UNL A   1      46.544  34.123  29.719  1.00  0.00     0.134 A 
ATOM     69  F   UNL A   1      44.829  34.501  26.539  1.00  0.00    -0.206 F 
ATOM     70  C   UNL A   1      46.094  36.051  27.769  1.00  0.00     0.040 A 
ATOM     71  C   UNL A   1      47.079  35.403  29.869  1.00  0.00     0.040 A 
ATOM     72  F   UNL A   1      46.795  33.218  30.677  1.00  0.00    -0.206 F 
ATOM     73  C   UNL A   1      46.860  36.369  28.889  1.00  0.00     0.006 A 
ENDBRANCH  52  66
BRANCH  53  74
ATOM     74  C   UNL A   1      41.462  24.832  27.711  1.00  0.00     0.057 A 
ATOM     75  C   UNL A   1      41.836  23.735  28.495  1.00  0.00     0.134 A 
ATOM     76  C   UNL A   1      40.461  24.633  26.752  1.00  0.00     0.134 A 
ATOM     77  F   UNL A   1      42.808  23.860  29.411  1.00  0.00    -0.206 F 
ATOM     78  C   UNL A   1      41.245  22.482  28.325  1.00  0.00     0.040 A 
ATOM     79  C   UNL A   1      39.847  23.391  26.587  1.00  0.00     0.040 A 
ATOM     80  F   UNL A   1      40.065  25.645  25.968  1.00  0.00    -0.206 F 
ATOM     81  C   UNL A   1      40.243  22.309  27.372  1.00  0.00     0.006 A 
ENDBRANCH  53  74
BRANCH  65  82
ATOM     82  C   UNL A   1      47.523  27.491  25.548  1.00  0.00     0.057 A 
ATOM     83  C   UNL A   1      47.577  27.595  24.154  1.00  0.00     0.134 A 
ATOM     84  C   UNL A   1      48.597  26.867  26.196  1.00  0.00     0.134 A 
ATOM     85  F   UNL A   1      46.575  28.172  23.474  1.00  0.00    -0.206 F 
ATOM     86  C   UNL A   1      48.654  27.083  23.428  1.00  0.00     0.040 A 
ATOM     87  C   UNL A   1      49.689  26.371  25.483  1.00  0.00     0.040 A 
ATOM     88  F   UNL A   1      48.608  26.744  27.532  1.00  0.00    -0.206 F 
ATOM     89  C   UNL A   1      49.717  26.475  24.094  1.00  0.00     0.006 A 
ENDBRANCH  65  82
ENDBRANCH  39  40
ENDBRANCH  32  34
ENDBRANCH  31  32
ENDBRANCH  30  31
ENDBRANCH  29  30
ENDBRANCH  28  29
ENDBRANCH  27  28
ENDBRANCH   1  27
TORSDOF 22
ENDMDL
MODEL 3
REMARK VINA RESULT:      -9.8      1.006      2.007
REMARK SMILES CC(=O)Nc1sc(-c2ccccc2)cc1C(=O)OCCOCCOCCOCCOC(=O)c1ccc(-c2c3nc(c(-c4c(F)cccc4F)c4ccc([nH]4)c(-c4c(F)cccc4F)c4nc(c(-c5c(F)cccc5F)c5ccc2[nH]5)C=C4)C=C3)cc1
REMARK SMILES IDX 25 1 24 2 23 3 22 4 21 5 20 6 19 7 18 8 16 9 17 10 15 11
REMARK SMILES IDX 5 12 6 13 7 14 14 15 4 16 1 17 2 18 3 19 8 21 9 22 13 23
REMARK SMILES IDX 10 24 12 25 11 26 26 27 27 28 28 29 29 30 30 31 31 32 32 33
REMARK SMILES IDX 33 34 34 35 86 36 35 37 85 38 36 39 37 40 38 41 79 42 39 43
REMARK SMILES IDX 84 44 78 45 80 46 40 47 83 48 77 49 76 50 41 52 67 53 50 54
REMARK SMILES IDX 66 55 51 56 54 57 65 58 81 59 52 60 53 61 64 63 82 64 55 65
REMARK SMILES IDX 42 66 43 67 48 68 44 69 45 70 47 71 49 72 46 73 68 74 69 75
REMARK SMILES IDX 74 76 70 77 71 78 73 79 75 80 72 81 56 82 57 83 62 84 58 85
REMARK SMILES IDX 59 86 61 87 63 88 60 89
REMARK H PARENT 4 20 80 51 54 62
REMARK Flexibility Score: inf
ROOT
ATOM      1  C   UNL A   1      32.687  29.759  26.695  1.00  0.00     0.188 C 
ENDROOT
BRANCH   1   2
ATOM      2  O   UNL A   1      31.558  29.386  25.911  1.00  0.00    -0.377 OA
BRANCH   2   3
ATOM      3  C   UNL A   1      31.799  28.591  24.761  1.00  0.00     0.188 C 
BRANCH   3   4
ATOM      4  C   UNL A   1      30.688  28.731  23.706  1.00  0.00     0.188 C 
BRANCH   4   5
ATOM      5  O   UNL A   1      29.958  27.523  23.487  1.00  0.00    -0.376 OA
BRANCH   5   6
ATOM      6  C   UNL A   1      29.529  26.827  24.654  1.00  0.00     0.202 C 
BRANCH   6   7
ATOM      7  C   UNL A   1      30.032  25.386  24.789  1.00  0.00     0.261 C 
BRANCH   7   8
ATOM      8  O   UNL A   1      31.034  25.194  25.798  1.00  0.00    -0.460 OA
BRANCH   8   9
ATOM      9  C   UNL A   1      31.223  23.950  26.300  1.00  0.00     0.341 C 
ATOM     10  O   UNL A   1      30.598  23.477  27.242  1.00  0.00    -0.246 OA
BRANCH   9  11
ATOM     11  C   UNL A   1      32.153  23.183  25.482  1.00  0.00     0.095 A 
ATOM     12  C   UNL A   1      33.042  23.682  24.547  1.00  0.00     0.110 A 
ATOM     13  S   UNL A   1      33.677  22.463  23.532  1.00  0.00    -0.117 S 
ATOM     14  C   UNL A   1      32.930  21.224  24.433  1.00  0.00     0.037 A 
ATOM     15  C   UNL A   1      32.153  21.742  25.448  1.00  0.00     0.038 A 
BRANCH  12  16
ATOM     16  N   UNL A   1      33.503  24.926  24.185  1.00  0.00    -0.317 N 
ATOM     17  C   UNL A   1      32.306  25.193  22.011  1.00  0.00     0.114 C 
ATOM     18  C   UNL A   1      33.354  25.603  23.011  1.00  0.00     0.221 C 
ATOM     19  O   UNL A   1      34.024  26.622  22.818  1.00  0.00    -0.275 OA
ATOM     20  H   UNL A   1      34.018  25.399  24.878  1.00  0.00     0.170 HD
ENDBRANCH  12  16
BRANCH  14  21
ATOM     21  C   UNL A   1      33.132  19.827  24.066  1.00  0.00    -0.008 A 
ATOM     22  C   UNL A   1      32.314  19.231  23.098  1.00  0.00     0.009 A 
ATOM     23  C   UNL A   1      34.168  19.079  24.643  1.00  0.00     0.009 A 
ATOM     24  C   UNL A   1      32.533  17.909  22.707  1.00  0.00     0.001 A 
ATOM     25  C   UNL A   1      34.383  17.756  24.251  1.00  0.00     0.001 A 
ATOM     26  C   UNL A   1      33.567  17.173  23.281  1.00  0.00     0.000 A 
ENDBRANCH  14  21
ENDBRANCH   9  11
ENDBRANCH   8   9
ENDBRANCH   7   8
ENDBRANCH   6   7
ENDBRANCH   5   6
ENDBRANCH   4   5
ENDBRANCH   3   4
ENDBRANCH   2   3
ENDBRANCH   1   2
BRANCH   1  27
ATOM     27  C   UNL A   1      32.905  31.233  27.092  1.00  0.00     0.188 C 
BRANCH  27  28
ATOM     28  O   UNL A   1      34.239  31.516  27.519  1.00  0.00    -0.376 OA
BRANCH  28  29
ATOM     29  C   UNL A   1      34.403  32.656  28.357  1.00  0.00     0.202 C 
BRANCH  29  30
ATOM     30  C   UNL A   1      34.818  32.301  29.791  1.00  0.00     0.261 C 
BRANCH  30  31
ATOM     31  O   UNL A   1      35.527  31.058  29.913  1.00  0.00    -0.460 OA
BRANCH  31  32
ATOM     32  C   UNL A   1      36.422  30.964  30.920  1.00  0.00     0.338 C 
ATOM     33  O   UNL A   1      36.250  31.241  32.092  1.00  0.00    -0.246 OA
BRANCH  32  34
ATOM     34  C   UNL A   1      37.624  30.292  30.394  1.00  0.00     0.060 A 
ATOM     35  C   UNL A   1      38.484  29.655  31.297  1.00  0.00     0.016 A 
ATOM     36  C   UNL A   1      37.909  30.313  29.027  1.00  0.00     0.016 A 
ATOM     37  C   UNL A   1      39.665  29.075  30.834  1.00  0.00     0.010 A 
ATOM     38  C   UNL A   1      39.098  29.747  28.568  1.00  0.00     0.010 A 
ATOM     39  C   UNL A   1      39.996  29.160  29.475  1.00  0.00    -0.014 A 
BRANCH  39  40
ATOM     40  C   UNL A   1      41.363  28.815  29.027  1.00  0.00     0.031 A 
ATOM     41  C   UNL A   1      41.632  27.405  28.585  1.00  0.00     0.074 A 
ATOM     42  C   UNL A   1      42.346  29.730  29.023  1.00  0.00     0.049 A 
ATOM     43  N   UNL A   1      42.750  26.859  28.183  1.00  0.00    -0.248 NA
ATOM     44  C   UNL A   1      40.485  26.482  28.608  1.00  0.00     0.031 C 
ATOM     45  C   UNL A   1      42.203  31.128  29.420  1.00  0.00     0.029 A 
ATOM     46  N   UNL A   1      43.669  29.604  28.686  1.00  0.00    -0.354 N 
ATOM     47  C   UNL A   1      42.443  25.535  27.904  1.00  0.00     0.074 A 
ATOM     48  C   UNL A   1      41.041  25.349  28.209  1.00  0.00     0.031 C 
ATOM     49  C   UNL A   1      43.402  31.731  29.320  1.00  0.00     0.029 A 
ATOM     50  C   UNL A   1      44.393  30.756  28.870  1.00  0.00     0.049 A 
ATOM     51  H   UNL A   1      44.062  28.769  28.343  1.00  0.00     0.167 HD
ATOM     52  C   UNL A   1      43.253  24.561  27.429  1.00  0.00     0.037 A 
ATOM     53  C   UNL A   1      45.711  30.984  28.711  1.00  0.00     0.037 A 
ATOM     54  C   UNL A   1      44.649  24.740  27.138  1.00  0.00     0.049 A 
ATOM     55  C   UNL A   1      46.605  29.871  28.235  1.00  0.00     0.074 A 
ATOM     56  C   UNL A   1      45.549  23.823  26.625  1.00  0.00     0.029 A 
ATOM     57  N   UNL A   1      45.350  25.917  27.352  1.00  0.00    -0.354 N 
ATOM     58  N   UNL A   1      46.294  28.634  27.923  1.00  0.00    -0.248 NA
ATOM     59  C   UNL A   1      48.034  30.185  28.087  1.00  0.00     0.031 C 
ATOM     60  C   UNL A   1      46.806  24.435  26.566  1.00  0.00     0.029 A 
ATOM     61  C   UNL A   1      46.679  25.743  27.006  1.00  0.00     0.049 A 
ATOM     62  H   UNL A   1      44.961  26.752  27.698  1.00  0.00     0.167 HD
ATOM     63  C   UNL A   1      47.481  28.032  27.524  1.00  0.00     0.074 A 
ATOM     64  C   UNL A   1      48.516  29.040  27.622  1.00  0.00     0.031 C 
ATOM     65  C   UNL A   1      47.695  26.759  27.110  1.00  0.00     0.037 A 
BRANCH  52  66
ATOM     66  C   UNL A   1      42.642  23.209  27.219  1.00  0.00     0.057 A 
ATOM     67  C   UNL A   1      42.322  22.735  25.941  1.00  0.00     0.134 A 
ATOM     68  C   UNL A   1      42.370  22.373  28.308  1.00  0.00     0.134 A 
ATOM     69  F   UNL A   1      42.540  23.499  24.859  1.00  0.00    -0.206 F 
ATOM     70  C   UNL A   1      41.732  21.484  25.754  1.00  0.00     0.040 A 
ATOM     71  C   UNL A   1      41.799  21.112  28.132  1.00  0.00     0.040 A 
ATOM     72  F   UNL A   1      42.650  22.769  29.559  1.00  0.00    -0.206 F 
ATOM     73  C   UNL A   1      41.473  20.667  26.852  1.00  0.00     0.006 A 
ENDBRANCH  52  66
BRANCH  53  74
ATOM     74  C   UNL A   1      46.268  32.324  29.010  1.00  0.00     0.057 A 
ATOM     75  C   UNL A   1      46.703  32.657  30.298  1.00  0.00     0.134 A 
ATOM     76  C   UNL A   1      46.369  33.307  28.018  1.00  0.00     0.134 A 
ATOM     77  F   UNL A   1      46.607  31.764  31.294  1.00  0.00    -0.206 F 
ATOM     78  C   UNL A   1      47.210  33.923  30.592  1.00  0.00     0.040 A 
ATOM     79  C   UNL A   1      46.894  34.570  28.293  1.00  0.00     0.040 A 
ATOM     80  F   UNL A   1      45.963  33.049  26.767  1.00  0.00    -0.206 F 
ATOM     81  C   UNL A   1      47.312  34.883  29.586  1.00  0.00     0.006 A 
ENDBRANCH  53  74
BRANCH  65  82
ATOM     82  C   UNL A   1      49.093  26.390  26.714  1.00  0.00     0.057 A 
ATOM     83  C   UNL A   1      49.989  25.817  27.623  1.00  0.00     0.134 A 
ATOM     84  C   UNL A   1      49.529  26.565  25.394  1.00  0.00     0.134 A 
ATOM     85  F   UNL A   1      49.634  25.633  28.904  1.00  0.00    -0.206 F 
ATOM     86  C   UNL A   1      51.278  25.445  27.238  1.00  0.00     0.040 A 
ATOM     87  C   UNL A   1      50.808  26.177  24.992  1.00  0.00     0.040 A 
ATOM     88  F   UNL A   1      48.714  27.101  24.472  1.00  0.00    -0.206 F 
ATOM     89  C   UNL A   1      51.688  25.618  25.917  1.00  0.00     0.006 A 
ENDBRANCH  65  82
ENDBRANCH  39  40
ENDBRANCH  32  34
ENDBRANCH  31  32
ENDBRANCH  30  31
ENDBRANCH  29  30
ENDBRANCH  28  29
ENDBRANCH  27  28
ENDBRANCH   1  27
TORSDOF 22
ENDMDL
