MODEL 1
REMARK VINA RESULT:     -10.3      0.000      0.000
REMARK SMILES CC1(C)C(=O)N([C@H]2COC[C@@H]2C(=O)OCCOCCOCCOCCOC(=O)c2ccc(-c3c4nc(c(-c5c(F)cccc5F)c5ccc([nH]5)c(-c5c(F)cccc5F)c5nc(c(-c6c(F)cccc6F)c6ccc3[nH]6)C=C5)C=C4)cc2)S1(=O)=O
REMARK SMILES IDX 21 1 20 2 19 3 18 4 17 5 16 6 15 7 14 8 12 9 13 10 11 11
REMARK SMILES IDX 7 12 8 13 9 14 10 15 6 16 1 17 2 18 3 19 4 20 83 21 5 22
REMARK SMILES IDX 84 23 85 24 22 25 23 26 24 27 25 28 26 29 27 30 28 31 29 32
REMARK SMILES IDX 30 33 82 34 31 35 81 36 32 37 33 38 34 39 75 40 35 41 80 42
REMARK SMILES IDX 74 43 76 44 36 45 79 46 73 47 72 48 37 50 63 51 46 52 62 53
REMARK SMILES IDX 47 54 50 55 61 56 77 57 48 58 49 59 60 61 78 62 51 63 38 64
REMARK SMILES IDX 39 65 44 66 40 67 41 68 43 69 45 70 42 71 64 72 65 73 70 74
REMARK SMILES IDX 66 75 67 76 69 77 71 78 68 79 52 80 53 81 58 82 54 83 55 84
REMARK SMILES IDX 57 85 59 86 56 87
REMARK H PARENT 76 49 50 60
REMARK Flexibility Score: inf
ROOT
ATOM      1  C   UNL A   1      40.754  20.395  26.579  1.00  0.00     0.188 C 
ENDROOT
BRANCH   1   2
ATOM      2  O   UNL A   1      40.034  21.441  27.215  1.00  0.00    -0.377 OA
BRANCH   2   3
ATOM      3  C   UNL A   1      39.263  22.259  26.359  1.00  0.00     0.188 C 
BRANCH   3   4
ATOM      4  C   UNL A   1      38.312  21.493  25.426  1.00  0.00     0.188 C 
BRANCH   4   5
ATOM      5  O   UNL A   1      36.925  21.500  25.700  1.00  0.00    -0.376 OA
BRANCH   5   6
ATOM      6  C   UNL A   1      36.098  20.504  25.123  1.00  0.00     0.202 C 
BRANCH   6   7
ATOM      7  C   UNL A   1      34.551  20.595  25.062  1.00  0.00     0.261 C 
BRANCH   7   8
ATOM      8  O   UNL A   1      33.833  21.368  26.055  1.00  0.00    -0.463 OA
BRANCH   8   9
ATOM      9  C   UNL A   1      32.725  22.026  25.614  1.00  0.00     0.313 C 
ATOM     10  O   UNL A   1      31.848  21.479  24.957  1.00  0.00    -0.252 OA
BRANCH   9  11
ATOM     11  C   UNL A   1      32.729  23.537  25.917  1.00  0.00     0.151 C 
ATOM     12  C   UNL A   1      32.559  24.461  24.726  1.00  0.00     0.145 C 
ATOM     13  C   UNL A   1      33.968  24.465  24.113  1.00  0.00     0.187 C 
ATOM     14  O   UNL A   1      34.888  24.170  25.174  1.00  0.00    -0.378 OA
ATOM     15  C   UNL A   1      34.129  23.909  26.366  1.00  0.00     0.177 C 
BRANCH  12  16
ATOM     16  N   UNL A   1      32.245  25.889  24.995  1.00  0.00    -0.231 N 
ATOM     17  C   UNL A   1      31.260  29.064  24.773  1.00  0.00     0.041 C 
ATOM     18  C   UNL A   1      30.897  27.607  24.496  1.00  0.00     0.165 C 
ATOM     19  C   UNL A   1      29.648  27.513  23.613  1.00  0.00     0.041 C 
ATOM     20  C   UNL A   1      32.066  26.795  23.923  1.00  0.00     0.259 C 
ATOM     21  S   UNL A   1      30.946  26.462  25.839  1.00  0.00     0.252 S 
ATOM     22  O   UNL A   1      32.641  26.767  22.860  1.00  0.00    -0.272 OA
ATOM     23  O   UNL A   1      31.430  27.045  27.066  1.00  0.00    -0.205 OA
ATOM     24  O   UNL A   1      29.883  25.487  25.787  1.00  0.00    -0.205 OA
ENDBRANCH  12  16
ENDBRANCH   9  11
ENDBRANCH   8   9
ENDBRANCH   7   8
ENDBRANCH   6   7
ENDBRANCH   5   6
ENDBRANCH   4   5
ENDBRANCH   3   4
ENDBRANCH   2   3
ENDBRANCH   1   2
BRANCH   1  25
ATOM     25  C   UNL A   1      42.216  20.158  27.012  1.00  0.00     0.188 C 
BRANCH  25  26
ATOM     26  O   UNL A   1      43.030  19.510  26.039  1.00  0.00    -0.376 OA
BRANCH  26  27
ATOM     27  C   UNL A   1      43.719  20.291  25.070  1.00  0.00     0.202 C 
BRANCH  27  28
ATOM     28  C   UNL A   1      44.334  21.629  25.520  1.00  0.00     0.261 C 
BRANCH  28  29
ATOM     29  O   UNL A   1      43.548  22.805  25.273  1.00  0.00    -0.460 OA
BRANCH  29  30
ATOM     30  C   UNL A   1      44.182  23.996  25.294  1.00  0.00     0.338 C 
ATOM     31  O   UNL A   1      45.104  24.353  24.587  1.00  0.00    -0.246 OA
BRANCH  30  32
ATOM     32  C   UNL A   1      43.420  24.894  26.187  1.00  0.00     0.060 A 
ATOM     33  C   UNL A   1      43.701  26.267  26.152  1.00  0.00     0.016 A 
ATOM     34  C   UNL A   1      42.432  24.396  27.041  1.00  0.00     0.016 A 
ATOM     35  C   UNL A   1      43.024  27.141  27.000  1.00  0.00     0.010 A 
ATOM     36  C   UNL A   1      41.776  25.269  27.912  1.00  0.00     0.010 A 
ATOM     37  C   UNL A   1      42.099  26.638  27.921  1.00  0.00    -0.014 A 
BRANCH  37  38
ATOM     38  C   UNL A   1      41.650  27.502  29.038  1.00  0.00     0.031 A 
ATOM     39  C   UNL A   1      42.406  27.426  30.336  1.00  0.00     0.074 A 
ATOM     40  C   UNL A   1      40.630  28.365  28.896  1.00  0.00     0.049 A 
ATOM     41  N   UNL A   1      42.183  28.043  31.468  1.00  0.00    -0.248 NA
ATOM     42  C   UNL A   1      43.573  26.528  30.359  1.00  0.00     0.031 C 
ATOM     43  C   UNL A   1      39.858  28.570  27.673  1.00  0.00     0.029 A 
ATOM     44  N   UNL A   1      40.065  29.227  29.802  1.00  0.00    -0.354 N 
ATOM     45  C   UNL A   1      43.175  27.604  32.336  1.00  0.00     0.074 A 
ATOM     46  C   UNL A   1      43.981  26.646  31.613  1.00  0.00     0.031 C 
ATOM     47  C   UNL A   1      38.905  29.489  27.911  1.00  0.00     0.029 A 
ATOM     48  C   UNL A   1      38.980  29.909  29.309  1.00  0.00     0.049 A 
ATOM     49  H   UNL A   1      40.406  29.345  30.718  1.00  0.00     0.167 HD
ATOM     50  C   UNL A   1      43.400  27.974  33.617  1.00  0.00     0.037 A 
ATOM     51  C   UNL A   1      38.132  30.753  29.928  1.00  0.00     0.037 A 
ATOM     52  C   UNL A   1      42.592  28.923  34.334  1.00  0.00     0.049 A 
ATOM     53  C   UNL A   1      38.351  31.087  31.382  1.00  0.00     0.074 A 
ATOM     54  C   UNL A   1      42.738  29.370  35.635  1.00  0.00     0.029 A 
ATOM     55  N   UNL A   1      41.480  29.567  33.811  1.00  0.00    -0.354 N 
ATOM     56  N   UNL A   1      39.297  30.678  32.194  1.00  0.00    -0.248 NA
ATOM     57  C   UNL A   1      37.385  32.003  32.006  1.00  0.00     0.031 C 
ATOM     58  C   UNL A   1      41.681  30.240  35.918  1.00  0.00     0.029 A 
ATOM     59  C   UNL A   1      40.914  30.387  34.774  1.00  0.00     0.049 A 
ATOM     60  H   UNL A   1      41.143  29.457  32.893  1.00  0.00     0.167 HD
ATOM     61  C   UNL A   1      39.060  31.308  33.409  1.00  0.00     0.074 A 
ATOM     62  C   UNL A   1      37.888  32.138  33.225  1.00  0.00     0.031 C 
ATOM     63  C   UNL A   1      39.750  31.212  34.572  1.00  0.00     0.037 A 
BRANCH  50  64
ATOM     64  C   UNL A   1      44.547  27.322  34.334  1.00  0.00     0.057 A 
ATOM     65  C   UNL A   1      45.828  27.890  34.357  1.00  0.00     0.134 A 
ATOM     66  C   UNL A   1      44.359  26.124  35.034  1.00  0.00     0.134 A 
ATOM     67  F   UNL A   1      46.081  29.026  33.690  1.00  0.00    -0.206 F 
ATOM     68  C   UNL A   1      46.885  27.276  35.032  1.00  0.00     0.040 A 
ATOM     69  C   UNL A   1      45.400  25.517  35.736  1.00  0.00     0.040 A 
ATOM     70  F   UNL A   1      43.157  25.527  35.053  1.00  0.00    -0.206 F 
ATOM     71  C   UNL A   1      46.670  26.090  35.731  1.00  0.00     0.006 A 
ENDBRANCH  50  64
BRANCH  51  72
ATOM     72  C   UNL A   1      36.977  31.325  29.187  1.00  0.00     0.057 A 
ATOM     73  C   UNL A   1      35.835  30.565  28.915  1.00  0.00     0.134 A 
ATOM     74  C   UNL A   1      37.002  32.643  28.710  1.00  0.00     0.134 A 
ATOM     75  F   UNL A   1      35.760  29.289  29.322  1.00  0.00    -0.206 F 
ATOM     76  C   UNL A   1      34.767  31.085  28.181  1.00  0.00     0.040 A 
ATOM     77  C   UNL A   1      35.930  33.185  28.001  1.00  0.00     0.040 A 
ATOM     78  F   UNL A   1      38.068  33.425  28.936  1.00  0.00    -0.206 F 
ATOM     79  C   UNL A   1      34.811  32.401  27.726  1.00  0.00     0.006 A 
ENDBRANCH  51  72
BRANCH  63  80
ATOM     80  C   UNL A   1      39.286  32.056  35.726  1.00  0.00     0.057 A 
ATOM     81  C   UNL A   1      39.721  33.374  35.906  1.00  0.00     0.134 A 
ATOM     82  C   UNL A   1      38.350  31.554  36.641  1.00  0.00     0.134 A 
ATOM     83  F   UNL A   1      40.623  33.913  35.072  1.00  0.00    -0.206 F 
ATOM     84  C   UNL A   1      39.262  34.155  36.970  1.00  0.00     0.040 A 
ATOM     85  C   UNL A   1      37.861  32.335  37.689  1.00  0.00     0.040 A 
ATOM     86  F   UNL A   1      37.881  30.303  36.519  1.00  0.00    -0.206 F 
ATOM     87  C   UNL A   1      38.324  33.637  37.860  1.00  0.00     0.006 A 
ENDBRANCH  63  80
ENDBRANCH  37  38
ENDBRANCH  30  32
ENDBRANCH  29  30
ENDBRANCH  28  29
ENDBRANCH  27  28
ENDBRANCH  26  27
ENDBRANCH  25  26
ENDBRANCH   1  25
TORSDOF 21
ENDMDL
MODEL 2
REMARK VINA RESULT:      -9.8      5.052     11.559
REMARK SMILES CC1(C)C(=O)N([C@H]2COC[C@@H]2C(=O)OCCOCCOCCOCCOC(=O)c2ccc(-c3c4nc(c(-c5c(F)cccc5F)c5ccc([nH]5)c(-c5c(F)cccc5F)c5nc(c(-c6c(F)cccc6F)c6ccc3[nH]6)C=C5)C=C4)cc2)S1(=O)=O
REMARK SMILES IDX 21 1 20 2 19 3 18 4 17 5 16 6 15 7 14 8 12 9 13 10 11 11
REMARK SMILES IDX 7 12 8 13 9 14 10 15 6 16 1 17 2 18 3 19 4 20 83 21 5 22
REMARK SMILES IDX 84 23 85 24 22 25 23 26 24 27 25 28 26 29 27 30 28 31 29 32
REMARK SMILES IDX 30 33 82 34 31 35 81 36 32 37 33 38 34 39 75 40 35 41 80 42
REMARK SMILES IDX 74 43 76 44 36 45 79 46 73 47 72 48 37 50 63 51 46 52 62 53
REMARK SMILES IDX 47 54 50 55 61 56 77 57 48 58 49 59 60 61 78 62 51 63 38 64
REMARK SMILES IDX 39 65 44 66 40 67 41 68 43 69 45 70 42 71 64 72 65 73 70 74
REMARK SMILES IDX 66 75 67 76 69 77 71 78 68 79 52 80 53 81 58 82 54 83 55 84
REMARK SMILES IDX 57 85 59 86 56 87
REMARK H PARENT 76 49 50 60
REMARK Flexibility Score: inf
ROOT
ATOM      1  C   UNL A   1      34.386  33.107  32.937  1.00  0.00     0.188 C 
ENDROOT
BRANCH   1   2
ATOM      2  O   UNL A   1      35.587  32.494  32.492  1.00  0.00    -0.377 OA
BRANCH   2   3
ATOM      3  C   UNL A   1      36.704  33.352  32.380  1.00  0.00     0.188 C 
BRANCH   3   4
ATOM      4  C   UNL A   1      38.046  32.711  32.765  1.00  0.00     0.188 C 
BRANCH   4   5
ATOM      5  O   UNL A   1      38.548  32.897  34.074  1.00  0.00    -0.376 OA
BRANCH   5   6
ATOM      6  C   UNL A   1      39.667  32.140  34.503  1.00  0.00     0.202 C 
BRANCH   6   7
ATOM      7  C   UNL A   1      39.755  30.595  34.401  1.00  0.00     0.261 C 
BRANCH   7   8
ATOM      8  O   UNL A   1      40.988  29.969  33.971  1.00  0.00    -0.463 OA
BRANCH   8   9
ATOM      9  C   UNL A   1      40.939  28.621  33.779  1.00  0.00     0.313 C 
ATOM     10  O   UNL A   1      39.935  28.046  33.375  1.00  0.00    -0.252 OA
BRANCH   9  11
ATOM     11  C   UNL A   1      42.214  27.876  34.218  1.00  0.00     0.151 C 
ATOM     12  C   UNL A   1      42.015  26.486  34.791  1.00  0.00     0.145 C 
ATOM     13  C   UNL A   1      41.560  26.787  36.227  1.00  0.00     0.187 C 
ATOM     14  O   UNL A   1      42.096  28.072  36.576  1.00  0.00    -0.378 OA
ATOM     15  C   UNL A   1      42.773  28.603  35.426  1.00  0.00     0.177 C 
BRANCH  12  16
ATOM     16  N   UNL A   1      43.214  25.617  34.934  1.00  0.00    -0.231 N 
ATOM     17  C   UNL A   1      45.402  23.107  34.809  1.00  0.00     0.041 C 
ATOM     18  C   UNL A   1      44.409  23.958  34.019  1.00  0.00     0.165 C 
ATOM     19  C   UNL A   1      44.156  23.358  32.633  1.00  0.00     0.041 C 
ATOM     20  C   UNL A   1      43.101  24.215  34.779  1.00  0.00     0.259 C 
ATOM     21  S   UNL A   1      44.603  25.713  34.047  1.00  0.00     0.252 S 
ATOM     22  O   UNL A   1      42.149  23.536  35.086  1.00  0.00    -0.272 OA
ATOM     23  O   UNL A   1      45.662  26.155  34.919  1.00  0.00    -0.205 OA
ATOM     24  O   UNL A   1      44.308  26.332  32.776  1.00  0.00    -0.205 OA
ENDBRANCH  12  16
ENDBRANCH   9  11
ENDBRANCH   8   9
ENDBRANCH   7   8
ENDBRANCH   6   7
ENDBRANCH   5   6
ENDBRANCH   4   5
ENDBRANCH   3   4
ENDBRANCH   2   3
ENDBRANCH   1   2
BRANCH   1  25
ATOM     25  C   UNL A   1      34.004  34.473  32.330  1.00  0.00     0.188 C 
BRANCH  25  26
ATOM     26  O   UNL A   1      33.404  34.408  31.040  1.00  0.00    -0.376 OA
BRANCH  26  27
ATOM     27  C   UNL A   1      34.183  34.708  29.889  1.00  0.00     0.202 C 
BRANCH  27  28
ATOM     28  C   UNL A   1      34.462  33.575  28.885  1.00  0.00     0.261 C 
BRANCH  28  29
ATOM     29  O   UNL A   1      34.811  32.300  29.444  1.00  0.00    -0.460 OA
BRANCH  29  30
ATOM     30  C   UNL A   1      34.678  31.213  28.655  1.00  0.00     0.338 C 
ATOM     31  O   UNL A   1      33.768  30.968  27.886  1.00  0.00    -0.246 OA
BRANCH  30  32
ATOM     32  C   UNL A   1      35.945  30.455  28.717  1.00  0.00     0.060 A 
ATOM     33  C   UNL A   1      36.304  29.852  29.930  1.00  0.00     0.016 A 
ATOM     34  C   UNL A   1      36.767  30.330  27.594  1.00  0.00     0.016 A 
ATOM     35  C   UNL A   1      37.505  29.154  30.036  1.00  0.00     0.010 A 
ATOM     36  C   UNL A   1      37.986  29.656  27.709  1.00  0.00     0.010 A 
ATOM     37  C   UNL A   1      38.375  29.100  28.942  1.00  0.00    -0.014 A 
BRANCH  37  38
ATOM     38  C   UNL A   1      39.777  28.672  29.155  1.00  0.00     0.031 A 
ATOM     39  C   UNL A   1      40.708  29.626  29.853  1.00  0.00     0.074 A 
ATOM     40  C   UNL A   1      40.207  27.454  28.784  1.00  0.00     0.049 A 
ATOM     41  N   UNL A   1      41.983  29.503  30.116  1.00  0.00    -0.248 NA
ATOM     42  C   UNL A   1      40.116  30.893  30.315  1.00  0.00     0.031 C 
ATOM     43  C   UNL A   1      39.387  26.423  28.152  1.00  0.00     0.029 A 
ATOM     44  N   UNL A   1      41.452  26.885  28.882  1.00  0.00    -0.354 N 
ATOM     45  C   UNL A   1      42.346  30.676  30.767  1.00  0.00     0.074 A 
ATOM     46  C   UNL A   1      41.167  31.511  30.830  1.00  0.00     0.031 C 
ATOM     47  C   UNL A   1      40.158  25.350  27.901  1.00  0.00     0.029 A 
ATOM     48  C   UNL A   1      41.529  25.632  28.325  1.00  0.00     0.049 A 
ATOM     49  H   UNL A   1      42.216  27.332  29.312  1.00  0.00     0.167 HD
ATOM     50  C   UNL A   1      43.551  31.022  31.275  1.00  0.00     0.037 A 
ATOM     51  C   UNL A   1      42.592  24.823  28.152  1.00  0.00     0.037 A 
ATOM     52  C   UNL A   1      44.722  30.191  31.204  1.00  0.00     0.049 A 
ATOM     53  C   UNL A   1      43.946  25.265  28.651  1.00  0.00     0.074 A 
ATOM     54  C   UNL A   1      45.992  30.447  31.692  1.00  0.00     0.029 A 
ATOM     55  N   UNL A   1      44.769  28.943  30.600  1.00  0.00    -0.354 N 
ATOM     56  N   UNL A   1      44.279  26.370  29.275  1.00  0.00    -0.248 NA
ATOM     57  C   UNL A   1      45.070  24.346  28.423  1.00  0.00     0.031 C 
ATOM     58  C   UNL A   1      46.820  29.380  31.332  1.00  0.00     0.029 A 
ATOM     59  C   UNL A   1      46.053  28.429  30.678  1.00  0.00     0.049 A 
ATOM     60  H   UNL A   1      44.003  28.490  30.178  1.00  0.00     0.167 HD
ATOM     61  C   UNL A   1      45.639  26.264  29.542  1.00  0.00     0.074 A 
ATOM     62  C   UNL A   1      46.066  24.982  29.022  1.00  0.00     0.031 C 
ATOM     63  C   UNL A   1      46.460  27.147  30.162  1.00  0.00     0.037 A 
BRANCH  50  64
ATOM     64  C   UNL A   1      43.668  32.372  31.920  1.00  0.00     0.057 A 
ATOM     65  C   UNL A   1      43.836  33.542  31.168  1.00  0.00     0.134 A 
ATOM     66  C   UNL A   1      43.584  32.506  33.312  1.00  0.00     0.134 A 
ATOM     67  F   UNL A   1      43.944  33.484  29.832  1.00  0.00    -0.206 F 
ATOM     68  C   UNL A   1      43.938  34.794  31.780  1.00  0.00     0.040 A 
ATOM     69  C   UNL A   1      43.655  33.753  33.932  1.00  0.00     0.040 A 
ATOM     70  F   UNL A   1      43.423  31.425  34.091  1.00  0.00    -0.206 F 
ATOM     71  C   UNL A   1      43.839  34.902  33.166  1.00  0.00     0.006 A 
ENDBRANCH  50  64
BRANCH  51  72
ATOM     72  C   UNL A   1      42.433  23.522  27.454  1.00  0.00     0.057 A 
ATOM     73  C   UNL A   1      42.528  23.423  26.061  1.00  0.00     0.134 A 
ATOM     74  C   UNL A   1      42.154  22.346  28.164  1.00  0.00     0.134 A 
ATOM     75  F   UNL A   1      42.767  24.517  25.322  1.00  0.00    -0.206 F 
ATOM     76  C   UNL A   1      42.335  22.210  25.398  1.00  0.00     0.040 A 
ATOM     77  C   UNL A   1      41.988  21.122  27.517  1.00  0.00     0.040 A 
ATOM     78  F   UNL A   1      42.048  22.371  29.501  1.00  0.00    -0.206 F 
ATOM     79  C   UNL A   1      42.069  21.053  26.128  1.00  0.00     0.006 A 
ENDBRANCH  51  72
BRANCH  63  80
ATOM     80  C   UNL A   1      47.895  26.742  30.355  1.00  0.00     0.057 A 
ATOM     81  C   UNL A   1      48.307  25.955  31.437  1.00  0.00     0.134 A 
ATOM     82  C   UNL A   1      48.868  27.104  29.413  1.00  0.00     0.134 A 
ATOM     83  F   UNL A   1      47.428  25.581  32.380  1.00  0.00    -0.206 F 
ATOM     84  C   UNL A   1      49.639  25.566  31.591  1.00  0.00     0.040 A 
ATOM     85  C   UNL A   1      50.196  26.695  29.539  1.00  0.00     0.040 A 
ATOM     86  F   UNL A   1      48.539  27.845  28.344  1.00  0.00    -0.206 F 
ATOM     87  C   UNL A   1      50.586  25.930  30.635  1.00  0.00     0.006 A 
ENDBRANCH  63  80
ENDBRANCH  37  38
ENDBRANCH  30  32
ENDBRANCH  29  30
ENDBRANCH  28  29
ENDBRANCH  27  28
ENDBRANCH  26  27
ENDBRANCH  25  26
ENDBRANCH   1  25
TORSDOF 21
ENDMDL
MODEL 3
REMARK VINA RESULT:      -9.7      4.244      9.997
REMARK SMILES CC1(C)C(=O)N([C@H]2COC[C@@H]2C(=O)OCCOCCOCCOCCOC(=O)c2ccc(-c3c4nc(c(-c5c(F)cccc5F)c5ccc([nH]5)c(-c5c(F)cccc5F)c5nc(c(-c6c(F)cccc6F)c6ccc3[nH]6)C=C5)C=C4)cc2)S1(=O)=O
REMARK SMILES IDX 21 1 20 2 19 3 18 4 17 5 16 6 15 7 14 8 12 9 13 10 11 11
REMARK SMILES IDX 7 12 8 13 9 14 10 15 6 16 1 17 2 18 3 19 4 20 83 21 5 22
REMARK SMILES IDX 84 23 85 24 22 25 23 26 24 27 25 28 26 29 27 30 28 31 29 32
REMARK SMILES IDX 30 33 82 34 31 35 81 36 32 37 33 38 34 39 75 40 35 41 80 42
REMARK SMILES IDX 74 43 76 44 36 45 79 46 73 47 72 48 37 50 63 51 46 52 62 53
REMARK SMILES IDX 47 54 50 55 61 56 77 57 48 58 49 59 60 61 78 62 51 63 38 64
REMARK SMILES IDX 39 65 44 66 40 67 41 68 43 69 45 70 42 71 64 72 65 73 70 74
REMARK SMILES IDX 66 75 67 76 69 77 71 78 68 79 52 80 53 81 58 82 54 83 55 84
REMARK SMILES IDX 57 85 59 86 56 87
REMARK H PARENT 76 49 50 60
REMARK Flexibility Score: inf
ROOT
ATOM      1  C   UNL A   1      34.322  32.075  28.515  1.00  0.00     0.188 C 
ENDROOT
BRANCH   1   2
ATOM      2  O   UNL A   1      33.921  31.076  27.589  1.00  0.00    -0.377 OA
BRANCH   2   3
ATOM      3  C   UNL A   1      32.559  31.103  27.215  1.00  0.00     0.188 C 
BRANCH   3   4
ATOM      4  C   UNL A   1      32.067  29.837  26.495  1.00  0.00     0.188 C 
BRANCH   4   5
ATOM      5  O   UNL A   1      31.392  29.966  25.259  1.00  0.00    -0.376 OA
BRANCH   5   6
ATOM      6  C   UNL A   1      31.536  28.952  24.280  1.00  0.00     0.202 C 
BRANCH   6   7
ATOM      7  C   UNL A   1      31.118  27.475  24.498  1.00  0.00     0.261 C 
BRANCH   7   8
ATOM      8  O   UNL A   1      31.736  26.697  25.552  1.00  0.00    -0.463 OA
BRANCH   8   9
ATOM      9  C   UNL A   1      31.034  25.614  25.987  1.00  0.00     0.313 C 
ATOM     10  O   UNL A   1      29.923  25.707  26.495  1.00  0.00    -0.252 OA
BRANCH   9  11
ATOM     11  C   UNL A   1      31.803  24.283  25.886  1.00  0.00     0.151 C 
ATOM     12  C   UNL A   1      32.762  24.147  24.718  1.00  0.00     0.145 C 
ATOM     13  C   UNL A   1      31.814  23.818  23.556  1.00  0.00     0.187 C 
ATOM     14  O   UNL A   1      30.653  23.195  24.124  1.00  0.00    -0.378 OA
ATOM     15  C   UNL A   1      30.797  23.198  25.553  1.00  0.00     0.177 C 
BRANCH  12  16
ATOM     16  N   UNL A   1      33.743  23.031  24.753  1.00  0.00    -0.231 N 
ATOM     17  C   UNL A   1      36.502  21.167  24.626  1.00  0.00     0.041 C 
ATOM     18  C   UNL A   1      35.873  22.459  25.144  1.00  0.00     0.165 C 
ATOM     19  C   UNL A   1      36.941  23.398  25.714  1.00  0.00     0.041 C 
ATOM     20  C   UNL A   1      34.993  23.159  24.101  1.00  0.00     0.259 C 
ATOM     21  S   UNL A   1      34.396  22.344  26.105  1.00  0.00     0.252 S 
ATOM     22  O   UNL A   1      35.207  23.771  23.081  1.00  0.00    -0.272 OA
ATOM     23  O   UNL A   1      33.891  20.998  26.213  1.00  0.00    -0.205 OA
ATOM     24  O   UNL A   1      34.352  23.299  27.187  1.00  0.00    -0.205 OA
ENDBRANCH  12  16
ENDBRANCH   9  11
ENDBRANCH   8   9
ENDBRANCH   7   8
ENDBRANCH   6   7
ENDBRANCH   5   6
ENDBRANCH   4   5
ENDBRANCH   3   4
ENDBRANCH   2   3
ENDBRANCH   1   2
BRANCH   1  25
ATOM     25  C   UNL A   1      33.679  33.473  28.393  1.00  0.00     0.188 C 
BRANCH  25  26
ATOM     26  O   UNL A   1      34.292  34.483  29.187  1.00  0.00    -0.376 OA
BRANCH  26  27
ATOM     27  C   UNL A   1      33.747  34.799  30.462  1.00  0.00     0.202 C 
BRANCH  27  28
ATOM     28  C   UNL A   1      34.498  34.311  31.714  1.00  0.00     0.261 C 
BRANCH  28  29
ATOM     29  O   UNL A   1      35.759  33.665  31.488  1.00  0.00    -0.460 OA
BRANCH  29  30
ATOM     30  C   UNL A   1      36.111  32.668  32.327  1.00  0.00     0.338 C 
ATOM     31  O   UNL A   1      35.588  32.377  33.385  1.00  0.00    -0.246 OA
BRANCH  30  32
ATOM     32  C   UNL A   1      37.120  31.836  31.638  1.00  0.00     0.060 A 
ATOM     33  C   UNL A   1      38.064  31.152  32.415  1.00  0.00     0.016 A 
ATOM     34  C   UNL A   1      37.131  31.720  30.246  1.00  0.00     0.016 A 
ATOM     35  C   UNL A   1      39.049  30.381  31.799  1.00  0.00     0.010 A 
ATOM     36  C   UNL A   1      38.136  30.972  29.628  1.00  0.00     0.010 A 
ATOM     37  C   UNL A   1      39.121  30.332  30.403  1.00  0.00    -0.014 A 
BRANCH  37  38
ATOM     38  C   UNL A   1      40.352  29.813  29.762  1.00  0.00     0.031 A 
ATOM     39  C   UNL A   1      41.492  30.770  29.545  1.00  0.00     0.074 A 
ATOM     40  C   UNL A   1      40.478  28.520  29.421  1.00  0.00     0.049 A 
ATOM     41  N   UNL A   1      42.649  30.571  28.968  1.00  0.00    -0.248 NA
ATOM     42  C   UNL A   1      41.297  32.140  30.048  1.00  0.00     0.031 C 
ATOM     43  C   UNL A   1      39.466  27.487  29.631  1.00  0.00     0.029 A 
ATOM     44  N   UNL A   1      41.517  27.859  28.815  1.00  0.00    -0.354 N 
ATOM     45  C   UNL A   1      43.315  31.789  29.034  1.00  0.00     0.074 A 
ATOM     46  C   UNL A   1      42.424  32.729  29.676  1.00  0.00     0.031 C 
ATOM     47  C   UNL A   1      39.929  26.322  29.143  1.00  0.00     0.029 A 
ATOM     48  C   UNL A   1      41.252  26.536  28.559  1.00  0.00     0.049 A 
ATOM     49  H   UNL A   1      42.370  28.293  28.586  1.00  0.00     0.167 HD
ATOM     50  C   UNL A   1      44.562  32.093  28.607  1.00  0.00     0.037 A 
ATOM     51  C   UNL A   1      41.985  25.616  27.902  1.00  0.00     0.037 A 
ATOM     52  C   UNL A   1      45.443  31.157  27.963  1.00  0.00     0.049 A 
ATOM     53  C   UNL A   1      43.338  26.000  27.358  1.00  0.00     0.074 A 
ATOM     54  C   UNL A   1      46.728  31.365  27.495  1.00  0.00     0.029 A 
ATOM     55  N   UNL A   1      45.126  29.834  27.690  1.00  0.00    -0.354 N 
ATOM     56  N   UNL A   1      43.966  27.150  27.433  1.00  0.00    -0.248 NA
ATOM     57  C   UNL A   1      44.086  24.958  26.640  1.00  0.00     0.031 C 
ATOM     58  C   UNL A   1      47.167  30.184  26.888  1.00  0.00     0.029 A 
ATOM     59  C   UNL A   1      46.181  29.222  27.035  1.00  0.00     0.049 A 
ATOM     60  H   UNL A   1      44.276  29.396  27.927  1.00  0.00     0.167 HD
ATOM     61  C   UNL A   1      45.191  26.960  26.803  1.00  0.00     0.074 A 
ATOM     62  C   UNL A   1      45.222  25.582  26.362  1.00  0.00     0.031 C 
ATOM     63  C   UNL A   1      46.199  27.845  26.609  1.00  0.00     0.037 A 
BRANCH  50  64
ATOM     64  C   UNL A   1      45.030  33.508  28.791  1.00  0.00     0.057 A 
ATOM     65  C   UNL A   1      45.745  33.911  29.926  1.00  0.00     0.134 A 
ATOM     66  C   UNL A   1      44.784  34.473  27.806  1.00  0.00     0.134 A 
ATOM     67  F   UNL A   1      45.998  33.042  30.917  1.00  0.00    -0.206 F 
ATOM     68  C   UNL A   1      46.180  35.229  30.084  1.00  0.00     0.040 A 
ATOM     69  C   UNL A   1      45.238  35.785  27.940  1.00  0.00     0.040 A 
ATOM     70  F   UNL A   1      44.104  34.153  26.695  1.00  0.00    -0.206 F 
ATOM     71  C   UNL A   1      45.933  36.168  29.084  1.00  0.00     0.006 A 
ENDBRANCH  50  64
BRANCH  51  72
ATOM     72  C   UNL A   1      41.449  24.246  27.695  1.00  0.00     0.057 A 
ATOM     73  C   UNL A   1      41.886  23.165  28.469  1.00  0.00     0.134 A 
ATOM     74  C   UNL A   1      40.501  23.980  26.697  1.00  0.00     0.134 A 
ATOM     75  F   UNL A   1      42.810  23.349  29.423  1.00  0.00    -0.206 F 
ATOM     76  C   UNL A   1      41.416  21.869  28.247  1.00  0.00     0.040 A 
ATOM     77  C   UNL A   1      40.002  22.696  26.484  1.00  0.00     0.040 A 
ATOM     78  F   UNL A   1      40.041  24.972  25.918  1.00  0.00    -0.206 F 
ATOM     79  C   UNL A   1      40.467  21.633  27.255  1.00  0.00     0.006 A 
ENDBRANCH  51  72
BRANCH  63  80
ATOM     80  C   UNL A   1      47.441  27.343  25.928  1.00  0.00     0.057 A 
ATOM     81  C   UNL A   1      48.496  26.759  26.639  1.00  0.00     0.134 A 
ATOM     82  C   UNL A   1      47.558  27.400  24.532  1.00  0.00     0.134 A 
ATOM     83  F   UNL A   1      48.452  26.680  27.978  1.00  0.00    -0.206 F 
ATOM     84  C   UNL A   1      49.633  26.274  25.991  1.00  0.00     0.040 A 
ATOM     85  C   UNL A   1      48.676  26.892  23.870  1.00  0.00     0.040 A 
ATOM     86  F   UNL A   1      46.579  27.934  23.787  1.00  0.00    -0.206 F 
ATOM     87  C   UNL A   1      49.722  26.333  24.601  1.00  0.00     0.006 A 
ENDBRANCH  63  80
ENDBRANCH  37  38
ENDBRANCH  30  32
ENDBRANCH  29  30
ENDBRANCH  28  29
ENDBRANCH  27  28
ENDBRANCH  26  27
ENDBRANCH  25  26
ENDBRANCH   1  25
TORSDOF 21
ENDMDL
