MODEL 1
REMARK VINA RESULT:     -11.6      0.000      0.000
REMARK SMILES O=C(OCCOCCOCCOCCOC(=O)c1ccc(-c2c3nc(c(-c4c(F)cccc4F)c4ccc([nH]4)c(-c4c(F)cccc4F)c4nc(c(-c5c(F)cccc5F)c5ccc2[nH]5)C=C4)C=C3)cc1)C1=Cc2cc(Cl)c(Cl)cc2O[C@@H]1C(F)(F)F
REMARK SMILES IDX 10 1 9 2 8 3 7 4 6 5 5 6 4 7 3 8 2 9 1 10 72 11 73 12 83 13
REMARK SMILES IDX 74 14 82 15 75 16 81 17 76 18 80 19 77 20 78 21 79 22 84 23
REMARK SMILES IDX 85 24 86 25 87 26 11 27 12 28 13 29 14 30 15 31 16 32 17 33
REMARK SMILES IDX 18 34 19 35 71 36 20 37 70 38 21 39 22 40 23 41 64 42 24 43
REMARK SMILES IDX 69 44 63 45 65 46 25 47 68 48 62 49 61 50 26 52 52 53 35 54
REMARK SMILES IDX 51 55 36 56 39 57 50 58 66 59 37 60 38 61 49 63 67 64 40 65
REMARK SMILES IDX 27 66 28 67 33 68 29 69 30 70 32 71 34 72 31 73 53 74 54 75
REMARK SMILES IDX 59 76 55 77 56 78 58 79 60 80 57 81 41 82 42 83 47 84 43 85
REMARK SMILES IDX 44 86 46 87 48 88 45 89
REMARK H PARENT 65 51 39 62
REMARK Flexibility Score: inf
ROOT
ATOM      1  C   UNL A   1      32.488  36.244  31.000  1.00  0.00     0.188 C 
ENDROOT
BRANCH   1   2
ATOM      2  O   UNL A   1      32.627  36.581  29.641  1.00  0.00    -0.377 OA
BRANCH   2   3
ATOM      3  C   UNL A   1      33.620  35.807  29.008  1.00  0.00     0.188 C 
BRANCH   3   4
ATOM      4  C   UNL A   1      33.168  34.435  28.478  1.00  0.00     0.188 C 
BRANCH   4   5
ATOM      5  O   UNL A   1      34.076  33.395  27.968  1.00  0.00    -0.376 OA
BRANCH   5   6
ATOM      6  C   UNL A   1      34.033  31.732  27.988  1.00  0.00     0.202 C 
BRANCH   6   7
ATOM      7  C   UNL A   1      32.564  30.451  27.002  1.00  0.00     0.261 C 
BRANCH   7   8
ATOM      8  O   UNL A   1      32.831  29.483  25.872  1.00  0.00    -0.460 OA
BRANCH   8   9
ATOM      9  C   UNL A   1      32.498  28.226  26.192  1.00  0.00     0.338 C 
ATOM     10  O   UNL A   1      32.523  27.705  27.278  1.00  0.00    -0.246 OA
BRANCH   9  11
ATOM     11  C   UNL A   1      32.616  27.658  24.856  1.00  0.00     0.087 C 
ATOM     12  C   UNL A   1      33.804  26.813  24.660  1.00  0.00     0.027 C 
ATOM     13  C   UNL A   1      30.807  27.012  24.870  1.00  0.00     0.316 C 
ATOM     14  C   UNL A   1      33.780  25.012  24.631  1.00  0.00     0.019 A 
ATOM     15  O   UNL A   1      30.755  25.066  24.991  1.00  0.00    -0.475 OA
ATOM     16  C   UNL A   1      34.947  24.318  24.458  1.00  0.00     0.034 A 
ATOM     17  C   UNL A   1      32.326  24.112  24.886  1.00  0.00     0.129 A 
ATOM     18  C   UNL A   1      34.830  22.910  24.475  1.00  0.00     0.060 A 
ATOM     19  C   UNL A   1      32.299  22.742  24.920  1.00  0.00     0.069 A 
ATOM     20  Cl  UNL A   1      36.335  22.063  24.217  1.00  0.00    -0.083 Cl
ATOM     21  C   UNL A   1      33.581  22.166  24.690  1.00  0.00     0.063 A 
ATOM     22  Cl  UNL A   1      33.621  20.421  24.647  1.00  0.00    -0.083 Cl
BRANCH  13  23
ATOM     23  C   UNL A   1      30.318  28.073  23.671  1.00  0.00     0.430 C 
ATOM     24  F   UNL A   1      30.935  28.011  22.477  1.00  0.00    -0.167 F 
ATOM     25  F   UNL A   1      29.017  27.759  23.387  1.00  0.00    -0.167 F 
ATOM     26  F   UNL A   1      30.273  29.377  24.039  1.00  0.00    -0.167 F 
ENDBRANCH  13  23
ENDBRANCH   9  11
ENDBRANCH   8   9
ENDBRANCH   7   8
ENDBRANCH   6   7
ENDBRANCH   5   6
ENDBRANCH   4   5
ENDBRANCH   3   4
ENDBRANCH   2   3
ENDBRANCH   1   2
BRANCH   1  27
ATOM     27  C   UNL A   1      33.771  36.237  31.839  1.00  0.00     0.188 C 
BRANCH  27  28
ATOM     28  O   UNL A   1      34.066  35.246  32.808  1.00  0.00    -0.376 OA
BRANCH  28  29
ATOM     29  C   UNL A   1      35.369  34.722  32.977  1.00  0.00     0.202 C 
BRANCH  29  30
ATOM     30  C   UNL A   1      35.640  33.457  33.801  1.00  0.00     0.261 C 
BRANCH  30  31
ATOM     31  O   UNL A   1      36.079  32.309  33.066  1.00  0.00    -0.460 OA
BRANCH  31  32
ATOM     32  C   UNL A   1      37.131  31.665  33.606  1.00  0.00     0.338 C 
ATOM     33  O   UNL A   1      37.401  31.562  34.792  1.00  0.00    -0.246 OA
BRANCH  32  34
ATOM     34  C   UNL A   1      37.858  30.916  32.560  1.00  0.00     0.060 A 
ATOM     35  C   UNL A   1      38.692  29.868  32.980  1.00  0.00     0.016 A 
ATOM     36  C   UNL A   1      37.774  31.257  31.208  1.00  0.00     0.016 A 
ATOM     37  C   UNL A   1      39.514  29.220  32.072  1.00  0.00     0.010 A 
ATOM     38  C   UNL A   1      38.637  30.638  30.300  1.00  0.00     0.010 A 
ATOM     39  C   UNL A   1      39.558  29.674  30.751  1.00  0.00    -0.014 A 
BRANCH  39  40
ATOM     40  C   UNL A   1      40.769  29.359  29.963  1.00  0.00     0.031 A 
ATOM     41  C   UNL A   1      40.846  28.007  29.305  1.00  0.00     0.074 A 
ATOM     42  C   UNL A   1      41.718  30.283  29.747  1.00  0.00     0.049 A 
ATOM     43  N   UNL A   1      41.787  27.498  28.553  1.00  0.00    -0.248 NA
ATOM     44  C   UNL A   1      39.702  27.104  29.526  1.00  0.00     0.031 C 
ATOM     45  C   UNL A   1      41.701  31.649  30.263  1.00  0.00     0.029 A 
ATOM     46  N   UNL A   1      42.878  30.205  29.023  1.00  0.00    -0.354 N 
ATOM     47  C   UNL A   1      41.359  26.215  28.233  1.00  0.00     0.074 A 
ATOM     48  C   UNL A   1      40.094  26.007  28.898  1.00  0.00     0.031 C 
ATOM     49  C   UNL A   1      42.806  32.286  29.838  1.00  0.00     0.029 A 
ATOM     50  C   UNL A   1      43.620  31.357  29.056  1.00  0.00     0.049 A 
ATOM     51  H   UNL A   1      43.152  29.399  28.528  1.00  0.00     0.167 HD
ATOM     52  C   UNL A   1      41.966  25.293  27.449  1.00  0.00     0.037 A 
ATOM     53  C   UNL A   1      44.829  31.618  28.526  1.00  0.00     0.037 A 
ATOM     54  C   UNL A   1      43.225  25.514  26.789  1.00  0.00     0.049 A 
ATOM     55  C   UNL A   1      45.528  30.543  27.734  1.00  0.00     0.074 A 
ATOM     56  C   UNL A   1      43.924  24.658  25.957  1.00  0.00     0.029 A 
ATOM     57  N   UNL A   1      43.981  26.672  26.899  1.00  0.00    -0.354 N 
ATOM     58  N   UNL A   1      45.117  29.336  27.425  1.00  0.00    -0.248 NA
ATOM     59  C   UNL A   1      46.860  30.873  27.210  1.00  0.00     0.031 C 
ATOM     60  C   UNL A   1      45.140  25.264  25.633  1.00  0.00     0.029 A 
ATOM     61  C   UNL A   1      45.159  26.536  26.184  1.00  0.00     0.049 A 
ATOM     62  H   UNL A   1      43.719  27.472  27.409  1.00  0.00     0.167 HD
ATOM     63  C   UNL A   1      46.116  28.782  26.634  1.00  0.00     0.074 A 
ATOM     64  C   UNL A   1      47.147  29.790  26.504  1.00  0.00     0.031 C 
ATOM     65  C   UNL A   1      46.175  27.553  26.060  1.00  0.00     0.037 A 
BRANCH  52  66
ATOM     66  C   UNL A   1      41.306  23.949  27.316  1.00  0.00     0.057 A 
ATOM     67  C   UNL A   1      41.759  22.814  28.001  1.00  0.00     0.134 A 
ATOM     68  C   UNL A   1      40.183  23.795  26.491  1.00  0.00     0.134 A 
ATOM     69  F   UNL A   1      42.837  22.883  28.797  1.00  0.00    -0.206 F 
ATOM     70  C   UNL A   1      41.144  21.569  27.842  1.00  0.00     0.040 A 
ATOM     71  C   UNL A   1      39.537  22.565  26.353  1.00  0.00     0.040 A 
ATOM     72  F   UNL A   1      39.691  24.839  25.807  1.00  0.00    -0.206 F 
ATOM     73  C   UNL A   1      40.025  21.445  27.023  1.00  0.00     0.006 A 
ENDBRANCH  52  66
BRANCH  53  74
ATOM     74  C   UNL A   1      45.463  32.946  28.728  1.00  0.00     0.057 A 
ATOM     75  C   UNL A   1      45.028  34.073  28.021  1.00  0.00     0.134 A 
ATOM     76  C   UNL A   1      46.536  33.117  29.612  1.00  0.00     0.134 A 
ATOM     77  F   UNL A   1      44.016  33.971  27.145  1.00  0.00    -0.206 F 
ATOM     78  C   UNL A   1      45.653  35.313  28.163  1.00  0.00     0.040 A 
ATOM     79  C   UNL A   1      47.150  34.357  29.787  1.00  0.00     0.040 A 
ATOM     80  F   UNL A   1      47.000  32.079  30.324  1.00  0.00    -0.206 F 
ATOM     81  C   UNL A   1      46.716  35.458  29.052  1.00  0.00     0.006 A 
ENDBRANCH  53  74
BRANCH  65  82
ATOM     82  C   UNL A   1      47.364  27.256  25.187  1.00  0.00     0.057 A 
ATOM     83  C   UNL A   1      47.426  27.647  23.844  1.00  0.00     0.134 A 
ATOM     84  C   UNL A   1      48.475  26.582  25.713  1.00  0.00     0.134 A 
ATOM     85  F   UNL A   1      46.397  28.290  23.272  1.00  0.00    -0.206 F 
ATOM     86  C   UNL A   1      48.529  27.337  23.043  1.00  0.00     0.040 A 
ATOM     87  C   UNL A   1      49.600  26.304  24.935  1.00  0.00     0.040 A 
ATOM     88  F   UNL A   1      48.494  26.193  26.997  1.00  0.00    -0.206 F 
ATOM     89  C   UNL A   1      49.622  26.669  23.592  1.00  0.00     0.006 A 
ENDBRANCH  65  82
ENDBRANCH  39  40
ENDBRANCH  32  34
ENDBRANCH  31  32
ENDBRANCH  30  31
ENDBRANCH  29  30
ENDBRANCH  28  29
ENDBRANCH  27  28
ENDBRANCH   1  27
TORSDOF 21
ENDMDL
MODEL 2
REMARK VINA RESULT:     -11.4      1.076      2.255
REMARK SMILES O=C(OCCOCCOCCOCCOC(=O)c1ccc(-c2c3nc(c(-c4c(F)cccc4F)c4ccc([nH]4)c(-c4c(F)cccc4F)c4nc(c(-c5c(F)cccc5F)c5ccc2[nH]5)C=C4)C=C3)cc1)C1=Cc2cc(Cl)c(Cl)cc2O[C@@H]1C(F)(F)F
REMARK SMILES IDX 10 1 9 2 8 3 7 4 6 5 5 6 4 7 3 8 2 9 1 10 72 11 73 12 83 13
REMARK SMILES IDX 74 14 82 15 75 16 81 17 76 18 80 19 77 20 78 21 79 22 84 23
REMARK SMILES IDX 85 24 86 25 87 26 11 27 12 28 13 29 14 30 15 31 16 32 17 33
REMARK SMILES IDX 18 34 19 35 71 36 20 37 70 38 21 39 22 40 23 41 64 42 24 43
REMARK SMILES IDX 69 44 63 45 65 46 25 47 68 48 62 49 61 50 26 52 52 53 35 54
REMARK SMILES IDX 51 55 36 56 39 57 50 58 66 59 37 60 38 61 49 63 67 64 40 65
REMARK SMILES IDX 27 66 28 67 33 68 29 69 30 70 32 71 34 72 31 73 53 74 54 75
REMARK SMILES IDX 59 76 55 77 56 78 58 79 60 80 57 81 41 82 42 83 47 84 43 85
REMARK SMILES IDX 44 86 46 87 48 88 45 89
REMARK H PARENT 65 51 39 62
REMARK Flexibility Score: inf
ROOT
ATOM      1  C   UNL A   1      34.003  34.420  28.911  1.00  0.00     0.188 C 
ENDROOT
BRANCH   1   2
ATOM      2  O   UNL A   1      33.790  33.030  28.880  1.00  0.00    -0.377 OA
BRANCH   2   3
ATOM      3  C   UNL A   1      34.682  32.382  28.001  1.00  0.00     0.188 C 
BRANCH   3   4
ATOM      4  C   UNL A   1      34.330  30.930  27.634  1.00  0.00     0.188 C 
BRANCH   4   5
ATOM      5  O   UNL A   1      33.331  30.540  26.628  1.00  0.00    -0.376 OA
BRANCH   5   6
ATOM      6  C   UNL A   1      31.849  29.788  26.721  1.00  0.00     0.202 C 
BRANCH   6   7
ATOM      7  C   UNL A   1      31.478  27.637  26.782  1.00  0.00     0.261 C 
BRANCH   7   8
ATOM      8  O   UNL A   1      32.518  26.543  26.703  1.00  0.00    -0.460 OA
BRANCH   8   9
ATOM      9  C   UNL A   1      31.974  25.342  26.466  1.00  0.00     0.338 C 
ATOM     10  O   UNL A   1      31.435  24.603  27.251  1.00  0.00    -0.246 OA
BRANCH   9  11
ATOM     11  C   UNL A   1      32.671  25.067  25.218  1.00  0.00     0.087 C 
ATOM     12  C   UNL A   1      33.857  24.208  25.363  1.00  0.00     0.027 C 
ATOM     13  C   UNL A   1      31.053  24.551  24.320  1.00  0.00     0.316 C 
ATOM     14  C   UNL A   1      33.908  22.461  24.930  1.00  0.00     0.019 A 
ATOM     15  O   UNL A   1      31.020  22.631  23.975  1.00  0.00    -0.475 OA
ATOM     16  C   UNL A   1      35.060  21.745  25.119  1.00  0.00     0.034 A 
ATOM     17  C   UNL A   1      32.516  21.622  24.338  1.00  0.00     0.129 A 
ATOM     18  C   UNL A   1      34.995  20.377  24.774  1.00  0.00     0.060 A 
ATOM     19  C   UNL A   1      32.524  20.281  24.055  1.00  0.00     0.069 A 
ATOM     20  Cl  UNL A   1      36.493  19.509  24.998  1.00  0.00    -0.083 Cl
ATOM     21  C   UNL A   1      33.799  19.687  24.268  1.00  0.00     0.063 A 
ATOM     22  Cl  UNL A   1      33.913  17.992  23.864  1.00  0.00    -0.083 Cl
BRANCH  13  23
ATOM     23  C   UNL A   1      31.088  25.872  23.294  1.00  0.00     0.430 C 
ATOM     24  F   UNL A   1      32.013  26.824  23.514  1.00  0.00    -0.167 F 
ATOM     25  F   UNL A   1      31.402  25.388  22.053  1.00  0.00    -0.167 F 
ATOM     26  F   UNL A   1      29.897  26.494  23.115  1.00  0.00    -0.167 F 
ENDBRANCH  13  23
ENDBRANCH   9  11
ENDBRANCH   8   9
ENDBRANCH   7   8
ENDBRANCH   6   7
ENDBRANCH   5   6
ENDBRANCH   4   5
ENDBRANCH   3   4
ENDBRANCH   2   3
ENDBRANCH   1   2
BRANCH   1  27
ATOM     27  C   UNL A   1      33.659  35.138  30.221  1.00  0.00     0.188 C 
BRANCH  27  28
ATOM     28  O   UNL A   1      34.330  34.895  31.445  1.00  0.00    -0.376 OA
BRANCH  28  29
ATOM     29  C   UNL A   1      33.849  33.966  32.397  1.00  0.00     0.202 C 
BRANCH  29  30
ATOM     30  C   UNL A   1      34.790  33.176  33.316  1.00  0.00     0.261 C 
BRANCH  30  31
ATOM     31  O   UNL A   1      35.565  32.148  32.690  1.00  0.00    -0.460 OA
BRANCH  31  32
ATOM     32  C   UNL A   1      36.845  32.077  33.106  1.00  0.00     0.338 C 
ATOM     33  O   UNL A   1      37.301  32.502  34.155  1.00  0.00    -0.246 OA
BRANCH  32  34
ATOM     34  C   UNL A   1      37.631  31.232  32.183  1.00  0.00     0.060 A 
ATOM     35  C   UNL A   1      38.544  30.332  32.755  1.00  0.00     0.016 A 
ATOM     36  C   UNL A   1      37.523  31.348  30.796  1.00  0.00     0.016 A 
ATOM     37  C   UNL A   1      39.417  29.616  31.952  1.00  0.00     0.010 A 
ATOM     38  C   UNL A   1      38.435  30.662  29.988  1.00  0.00     0.010 A 
ATOM     39  C   UNL A   1      39.428  29.858  30.576  1.00  0.00    -0.014 A 
BRANCH  39  40
ATOM     40  C   UNL A   1      40.662  29.518  29.835  1.00  0.00     0.031 A 
ATOM     41  C   UNL A   1      40.754  28.150  29.215  1.00  0.00     0.074 A 
ATOM     42  C   UNL A   1      41.622  30.433  29.626  1.00  0.00     0.049 A 
ATOM     43  N   UNL A   1      41.717  27.619  28.506  1.00  0.00    -0.248 NA
ATOM     44  C   UNL A   1      39.601  27.257  29.422  1.00  0.00     0.031 C 
ATOM     45  C   UNL A   1      41.594  31.813  30.105  1.00  0.00     0.029 A 
ATOM     46  N   UNL A   1      42.803  30.333  28.941  1.00  0.00    -0.354 N 
ATOM     47  C   UNL A   1      41.294  26.329  28.206  1.00  0.00     0.074 A 
ATOM     48  C   UNL A   1      40.008  26.143  28.835  1.00  0.00     0.031 C 
ATOM     49  C   UNL A   1      42.714  32.434  29.700  1.00  0.00     0.029 A 
ATOM     50  C   UNL A   1      43.549  31.483  28.968  1.00  0.00     0.049 A 
ATOM     51  H   UNL A   1      43.089  29.514  28.475  1.00  0.00     0.167 HD
ATOM     52  C   UNL A   1      41.922  25.386  27.465  1.00  0.00     0.037 A 
ATOM     53  C   UNL A   1      44.775  31.727  28.470  1.00  0.00     0.037 A 
ATOM     54  C   UNL A   1      43.202  25.585  26.839  1.00  0.00     0.049 A 
ATOM     55  C   UNL A   1      45.494  30.630  27.728  1.00  0.00     0.074 A 
ATOM     56  C   UNL A   1      43.923  24.706  26.052  1.00  0.00     0.029 A 
ATOM     57  N   UNL A   1      43.959  26.744  26.944  1.00  0.00    -0.354 N 
ATOM     58  N   UNL A   1      45.088  29.417  27.437  1.00  0.00    -0.248 NA
ATOM     59  C   UNL A   1      46.844  30.942  27.239  1.00  0.00     0.031 C 
ATOM     60  C   UNL A   1      45.151  25.300  25.752  1.00  0.00     0.029 A 
ATOM     61  C   UNL A   1      45.158  26.586  26.270  1.00  0.00     0.049 A 
ATOM     62  H   UNL A   1      43.684  27.557  27.425  1.00  0.00     0.167 HD
ATOM     63  C   UNL A   1      46.110  28.839  26.692  1.00  0.00     0.074 A 
ATOM     64  C   UNL A   1      47.149  29.840  26.570  1.00  0.00     0.031 C 
ATOM     65  C   UNL A   1      46.181  27.595  26.153  1.00  0.00     0.037 A 
BRANCH  52  66
ATOM     66  C   UNL A   1      41.261  24.041  27.346  1.00  0.00     0.057 A 
ATOM     67  C   UNL A   1      40.172  23.806  26.496  1.00  0.00     0.134 A 
ATOM     68  C   UNL A   1      41.737  22.954  28.094  1.00  0.00     0.134 A 
ATOM     69  F   UNL A   1      39.654  24.803  25.761  1.00  0.00    -0.206 F 
ATOM     70  C   UNL A   1      39.559  22.553  26.421  1.00  0.00     0.040 A 
ATOM     71  C   UNL A   1      41.156  21.688  27.999  1.00  0.00     0.040 A 
ATOM     72  F   UNL A   1      42.778  23.104  28.926  1.00  0.00    -0.206 F 
ATOM     73  C   UNL A   1      40.056  21.488  27.168  1.00  0.00     0.006 A 
ENDBRANCH  52  66
BRANCH  53  74
ATOM     74  C   UNL A   1      45.408  33.058  28.658  1.00  0.00     0.057 A 
ATOM     75  C   UNL A   1      46.190  33.337  29.784  1.00  0.00     0.134 A 
ATOM     76  C   UNL A   1      45.223  34.092  27.732  1.00  0.00     0.134 A 
ATOM     77  F   UNL A   1      46.389  32.394  30.719  1.00  0.00    -0.206 F 
ATOM     78  C   UNL A   1      46.742  34.601  29.998  1.00  0.00     0.040 A 
ATOM     79  C   UNL A   1      45.796  35.350  27.916  1.00  0.00     0.040 A 
ATOM     80  F   UNL A   1      44.488  33.890  26.628  1.00  0.00    -0.206 F 
ATOM     81  C   UNL A   1      46.548  35.611  29.059  1.00  0.00     0.006 A 
ENDBRANCH  53  74
BRANCH  65  82
ATOM     82  C   UNL A   1      47.396  27.272  25.326  1.00  0.00     0.057 A 
ATOM     83  C   UNL A   1      48.507  26.601  25.852  1.00  0.00     0.134 A 
ATOM     84  C   UNL A   1      47.441  27.623  23.969  1.00  0.00     0.134 A 
ATOM     85  F   UNL A   1      48.537  26.240  27.144  1.00  0.00    -0.206 F 
ATOM     86  C   UNL A   1      49.636  26.335  25.073  1.00  0.00     0.040 A 
ATOM     87  C   UNL A   1      48.545  27.325  23.170  1.00  0.00     0.040 A 
ATOM     88  F   UNL A   1      46.405  28.251  23.392  1.00  0.00    -0.206 F 
ATOM     89  C   UNL A   1      49.653  26.692  23.726  1.00  0.00     0.006 A 
ENDBRANCH  65  82
ENDBRANCH  39  40
ENDBRANCH  32  34
ENDBRANCH  31  32
ENDBRANCH  30  31
ENDBRANCH  29  30
ENDBRANCH  28  29
ENDBRANCH  27  28
ENDBRANCH   1  27
TORSDOF 21
ENDMDL
MODEL 3
REMARK VINA RESULT:     -11.4      5.170     10.373
REMARK SMILES O=C(OCCOCCOCCOCCOC(=O)c1ccc(-c2c3nc(c(-c4c(F)cccc4F)c4ccc([nH]4)c(-c4c(F)cccc4F)c4nc(c(-c5c(F)cccc5F)c5ccc2[nH]5)C=C4)C=C3)cc1)C1=Cc2cc(Cl)c(Cl)cc2O[C@@H]1C(F)(F)F
REMARK SMILES IDX 10 1 9 2 8 3 7 4 6 5 5 6 4 7 3 8 2 9 1 10 72 11 73 12 83 13
REMARK SMILES IDX 74 14 82 15 75 16 81 17 76 18 80 19 77 20 78 21 79 22 84 23
REMARK SMILES IDX 85 24 86 25 87 26 11 27 12 28 13 29 14 30 15 31 16 32 17 33
REMARK SMILES IDX 18 34 19 35 71 36 20 37 70 38 21 39 22 40 23 41 64 42 24 43
REMARK SMILES IDX 69 44 63 45 65 46 25 47 68 48 62 49 61 50 26 52 52 53 35 54
REMARK SMILES IDX 51 55 36 56 39 57 50 58 66 59 37 60 38 61 49 63 67 64 40 65
REMARK SMILES IDX 27 66 28 67 33 68 29 69 30 70 32 71 34 72 31 73 53 74 54 75
REMARK SMILES IDX 59 76 55 77 56 78 58 79 60 80 57 81 41 82 42 83 47 84 43 85
REMARK SMILES IDX 44 86 46 87 48 88 45 89
REMARK H PARENT 65 51 39 62
REMARK Flexibility Score: inf
ROOT
ATOM      1  C   UNL A   1      38.895  21.793  26.074  1.00  0.00     0.188 C 
ENDROOT
BRANCH   1   2
ATOM      2  O   UNL A   1      37.897  21.176  25.297  1.00  0.00    -0.377 OA
BRANCH   2   3
ATOM      3  C   UNL A   1      37.278  22.087  24.419  1.00  0.00     0.188 C 
BRANCH   3   4
ATOM      4  C   UNL A   1      36.840  23.427  25.036  1.00  0.00     0.188 C 
BRANCH   4   5
ATOM      5  O   UNL A   1      35.948  23.560  26.199  1.00  0.00    -0.376 OA
BRANCH   5   6
ATOM      6  C   UNL A   1      34.891  22.518  26.953  1.00  0.00     0.202 C 
BRANCH   6   7
ATOM      7  C   UNL A   1      32.917  21.916  26.238  1.00  0.00     0.261 C 
BRANCH   7   8
ATOM      8  O   UNL A   1      31.726  22.821  26.024  1.00  0.00    -0.460 OA
BRANCH   8   9
ATOM      9  C   UNL A   1      32.088  24.072  25.711  1.00  0.00     0.338 C 
ATOM     10  O   UNL A   1      32.401  24.963  26.460  1.00  0.00    -0.246 OA
BRANCH   9  11
ATOM     11  C   UNL A   1      31.508  24.104  24.376  1.00  0.00     0.087 C 
ATOM     12  C   UNL A   1      30.209  24.790  24.297  1.00  0.00     0.027 C 
ATOM     13  C   UNL A   1      33.134  24.751  23.584  1.00  0.00     0.316 C 
ATOM     14  C   UNL A   1      29.973  26.453  23.647  1.00  0.00     0.019 A 
ATOM     15  O   UNL A   1      32.949  26.605  23.008  1.00  0.00    -0.475 OA
ATOM     16  C   UNL A   1      28.722  27.008  23.632  1.00  0.00     0.034 A 
ATOM     17  C   UNL A   1      31.299  27.417  23.095  1.00  0.00     0.129 A 
ATOM     18  C   UNL A   1      28.642  28.325  23.127  1.00  0.00     0.060 A 
ATOM     19  C   UNL A   1      31.144  28.703  22.648  1.00  0.00     0.069 A 
ATOM     20  Cl  UNL A   1      27.025  28.983  23.094  1.00  0.00    -0.083 Cl
ATOM     21  C   UNL A   1      29.784  29.124  22.660  1.00  0.00     0.063 A 
ATOM     22  Cl  UNL A   1      29.491  30.729  22.038  1.00  0.00    -0.083 Cl
BRANCH  13  23
ATOM     23  C   UNL A   1      33.395  23.334  22.732  1.00  0.00     0.430 C 
ATOM     24  F   UNL A   1      32.733  22.228  23.117  1.00  0.00    -0.167 F 
ATOM     25  F   UNL A   1      32.944  23.562  21.460  1.00  0.00    -0.167 F 
ATOM     26  F   UNL A   1      34.696  22.993  22.566  1.00  0.00    -0.167 F 
ENDBRANCH  13  23
ENDBRANCH   9  11
ENDBRANCH   8   9
ENDBRANCH   7   8
ENDBRANCH   6   7
ENDBRANCH   5   6
ENDBRANCH   4   5
ENDBRANCH   3   4
ENDBRANCH   2   3
ENDBRANCH   1   2
BRANCH   1  27
ATOM     27  C   UNL A   1      40.305  21.199  25.977  1.00  0.00     0.188 C 
BRANCH  27  28
ATOM     28  O   UNL A   1      41.039  20.740  27.099  1.00  0.00    -0.376 OA
BRANCH  28  29
ATOM     29  C   UNL A   1      42.360  21.172  27.363  1.00  0.00     0.202 C 
BRANCH  29  30
ATOM     30  C   UNL A   1      43.242  21.811  26.281  1.00  0.00     0.261 C 
BRANCH  30  31
ATOM     31  O   UNL A   1      43.908  23.024  26.649  1.00  0.00    -0.460 OA
BRANCH  31  32
ATOM     32  C   UNL A   1      43.661  24.069  25.835  1.00  0.00     0.338 C 
ATOM     33  O   UNL A   1      43.893  24.141  24.640  1.00  0.00    -0.246 OA
BRANCH  32  34
ATOM     34  C   UNL A   1      42.882  25.098  26.556  1.00  0.00     0.060 A 
ATOM     35  C   UNL A   1      43.457  26.373  26.675  1.00  0.00     0.016 A 
ATOM     36  C   UNL A   1      41.649  24.818  27.148  1.00  0.00     0.016 A 
ATOM     37  C   UNL A   1      42.854  27.342  27.461  1.00  0.00     0.010 A 
ATOM     38  C   UNL A   1      41.065  25.778  27.978  1.00  0.00     0.010 A 
ATOM     39  C   UNL A   1      41.711  27.010  28.191  1.00  0.00    -0.014 A 
BRANCH  39  40
ATOM     40  C   UNL A   1      41.404  27.828  29.384  1.00  0.00     0.031 A 
ATOM     41  C   UNL A   1      40.207  28.740  29.320  1.00  0.00     0.074 A 
ATOM     42  C   UNL A   1      42.097  27.684  30.524  1.00  0.00     0.049 A 
ATOM     43  N   UNL A   1      39.721  29.542  30.232  1.00  0.00    -0.248 NA
ATOM     44  C   UNL A   1      39.456  28.748  28.053  1.00  0.00     0.031 C 
ATOM     45  C   UNL A   1      43.216  26.766  30.723  1.00  0.00     0.029 A 
ATOM     46  N   UNL A   1      41.947  28.307  31.734  1.00  0.00    -0.354 N 
ATOM     47  C   UNL A   1      38.627  30.162  29.641  1.00  0.00     0.074 A 
ATOM     48  C   UNL A   1      38.538  29.673  28.285  1.00  0.00     0.031 C 
ATOM     49  C   UNL A   1      43.656  26.888  31.987  1.00  0.00     0.029 A 
ATOM     50  C   UNL A   1      42.873  27.917  32.667  1.00  0.00     0.049 A 
ATOM     51  H   UNL A   1      41.242  28.969  31.916  1.00  0.00     0.167 HD
ATOM     52  C   UNL A   1      37.767  31.056  30.184  1.00  0.00     0.037 A 
ATOM     53  C   UNL A   1      43.070  28.361  33.922  1.00  0.00     0.037 A 
ATOM     54  C   UNL A   1      37.863  31.532  31.538  1.00  0.00     0.049 A 
ATOM     55  C   UNL A   1      42.157  29.425  34.474  1.00  0.00     0.074 A 
ATOM     56  C   UNL A   1      37.038  32.424  32.199  1.00  0.00     0.029 A 
ATOM     57  N   UNL A   1      38.856  31.164  32.435  1.00  0.00    -0.354 N 
ATOM     58  N   UNL A   1      41.118  30.001  33.917  1.00  0.00    -0.248 NA
ATOM     59  C   UNL A   1      42.443  29.896  35.836  1.00  0.00     0.031 C 
ATOM     60  C   UNL A   1      37.580  32.660  33.465  1.00  0.00     0.029 A 
ATOM     61  C   UNL A   1      38.688  31.844  33.630  1.00  0.00     0.049 A 
ATOM     62  H   UNL A   1      39.573  30.516  32.250  1.00  0.00     0.167 HD
ATOM     63  C   UNL A   1      40.599  30.865  34.875  1.00  0.00     0.074 A 
ATOM     64  C   UNL A   1      41.434  30.728  36.050  1.00  0.00     0.031 C 
ATOM     65  C   UNL A   1      39.526  31.692  34.793  1.00  0.00     0.037 A 
BRANCH  52  66
ATOM     66  C   UNL A   1      36.693  31.618  29.295  1.00  0.00     0.057 A 
ATOM     67  C   UNL A   1      36.747  32.917  28.773  1.00  0.00     0.134 A 
ATOM     68  C   UNL A   1      35.585  30.832  28.947  1.00  0.00     0.134 A 
ATOM     69  F   UNL A   1      37.771  33.731  29.075  1.00  0.00    -0.206 F 
ATOM     70  C   UNL A   1      35.725  33.425  27.968  1.00  0.00     0.040 A 
ATOM     71  C   UNL A   1      34.575  31.316  28.113  1.00  0.00     0.040 A 
ATOM     72  F   UNL A   1      35.467  29.578  29.407  1.00  0.00    -0.206 F 
ATOM     73  C   UNL A   1      34.639  32.622  27.630  1.00  0.00     0.006 A 
ENDBRANCH  52  66
BRANCH  53  74
ATOM     74  C   UNL A   1      44.178  27.810  34.744  1.00  0.00     0.057 A 
ATOM     75  C   UNL A   1      45.465  28.357  34.688  1.00  0.00     0.134 A 
ATOM     76  C   UNL A   1      43.985  26.707  35.585  1.00  0.00     0.134 A 
ATOM     77  F   UNL A   1      45.720  29.403  33.886  1.00  0.00    -0.206 F 
ATOM     78  C   UNL A   1      46.525  27.811  35.413  1.00  0.00     0.040 A 
ATOM     79  C   UNL A   1      45.028  26.171  36.341  1.00  0.00     0.040 A 
ATOM     80  F   UNL A   1      42.775  26.137  35.690  1.00  0.00    -0.206 F 
ATOM     81  C   UNL A   1      46.306  26.716  36.247  1.00  0.00     0.006 A 
ENDBRANCH  53  74
BRANCH  65  82
ATOM     82  C   UNL A   1      39.157  32.464  36.031  1.00  0.00     0.057 A 
ATOM     83  C   UNL A   1      39.631  33.758  36.280  1.00  0.00     0.134 A 
ATOM     84  C   UNL A   1      38.290  31.904  36.980  1.00  0.00     0.134 A 
ATOM     85  F   UNL A   1      40.469  34.355  35.419  1.00  0.00    -0.206 F 
ATOM     86  C   UNL A   1      39.297  34.446  37.449  1.00  0.00     0.040 A 
ATOM     87  C   UNL A   1      37.915  32.598  38.131  1.00  0.00     0.040 A 
ATOM     88  F   UNL A   1      37.781  30.676  36.800  1.00  0.00    -0.206 F 
ATOM     89  C   UNL A   1      38.431  33.867  38.375  1.00  0.00     0.006 A 
ENDBRANCH  65  82
ENDBRANCH  39  40
ENDBRANCH  32  34
ENDBRANCH  31  32
ENDBRANCH  30  31
ENDBRANCH  29  30
ENDBRANCH  28  29
ENDBRANCH  27  28
ENDBRANCH   1  27
TORSDOF 21
ENDMDL
