MODEL 1
REMARK VINA RESULT:      -9.8      0.000      0.000
REMARK SMILES Cc1cc(C(=O)Nc2ccn(C)n2)sc1/C=C/C(=O)OCCOCCOCCOCCOC(=O)c1ccc(-c2c3nc(c(-c4c(F)cccc4F)c4ccc([nH]4)c(-c4c(F)cccc4F)c4nc(c(-c5c(F)cccc5F)c5ccc2[nH]5)C=C4)C=C3)cc1
REMARK SMILES IDX 25 1 24 2 23 3 22 4 21 5 20 6 18 7 19 8 17 9 16 10 15 11
REMARK SMILES IDX 1 12 2 13 3 14 4 15 14 16 5 17 6 18 7 19 8 21 9 22 13 23
REMARK SMILES IDX 10 24 11 25 12 26 26 27 27 28 28 29 29 30 30 31 31 32 32 33
REMARK SMILES IDX 33 34 34 35 35 36 36 37 88 38 37 39 87 40 38 41 39 42 40 43
REMARK SMILES IDX 81 44 41 45 86 46 80 47 82 48 42 49 85 50 79 51 78 52 43 54
REMARK SMILES IDX 69 55 52 56 68 57 53 58 56 59 67 60 83 61 54 62 55 63 66 65
REMARK SMILES IDX 84 66 57 67 44 68 45 69 50 70 46 71 47 72 49 73 51 74 48 75
REMARK SMILES IDX 70 76 71 77 76 78 72 79 73 80 75 81 77 82 74 83 58 84 59 85
REMARK SMILES IDX 64 86 60 87 61 88 63 89 65 90 62 91
REMARK H PARENT 7 20 82 53 56 64
REMARK Flexibility Score: inf
ROOT
ATOM      1  C   UNL A   1      34.259  34.681  30.448  1.00  0.00     0.188 C 
ENDROOT
BRANCH   1   2
ATOM      2  C   UNL A   1      33.296  35.041  29.300  1.00  0.00     0.188 C 
BRANCH   2   3
ATOM      3  O   UNL A   1      33.044  33.962  28.421  1.00  0.00    -0.376 OA
BRANCH   3   4
ATOM      4  C   UNL A   1      34.098  33.103  28.033  1.00  0.00     0.202 C 
BRANCH   4   5
ATOM      5  C   UNL A   1      33.940  31.575  28.112  1.00  0.00     0.261 C 
BRANCH   5   6
ATOM      6  O   UNL A   1      33.746  30.874  26.880  1.00  0.00    -0.460 OA
BRANCH   6   7
ATOM      7  C   UNL A   1      32.471  30.714  26.472  1.00  0.00     0.330 C 
ATOM      8  O   UNL A   1      31.498  31.312  26.904  1.00  0.00    -0.247 OA
BRANCH   7   9
ATOM      9  C   UNL A   1      32.397  29.823  25.294  1.00  0.00     0.095 C 
ATOM     10  C   UNL A   1      31.646  28.710  25.215  1.00  0.00     0.027 C 
BRANCH  10  11
ATOM     11  C   UNL A   1      31.635  27.839  24.070  1.00  0.00     0.031 A 
ATOM     12  C   UNL A   1      29.263  28.232  23.128  1.00  0.00     0.046 C 
ATOM     13  C   UNL A   1      30.599  27.556  23.181  1.00  0.00    -0.032 A 
ATOM     14  C   UNL A   1      30.958  26.505  22.262  1.00  0.00     0.029 A 
ATOM     15  C   UNL A   1      32.245  26.033  22.429  1.00  0.00     0.093 A 
ATOM     16  S   UNL A   1      33.057  27.013  23.560  1.00  0.00    -0.130 S 
BRANCH  15  17
ATOM     17  C   UNL A   1      32.920  25.015  21.620  1.00  0.00     0.266 C 
ATOM     18  O   UNL A   1      33.176  25.218  20.429  1.00  0.00    -0.268 OA
ATOM     19  N   UNL A   1      33.397  23.848  22.174  1.00  0.00    -0.304 N 
ATOM     20  H   UNL A   1      34.155  23.436  21.700  1.00  0.00     0.171 HD
BRANCH  19  21
ATOM     21  C   UNL A   1      32.971  23.175  23.289  1.00  0.00     0.154 A 
ATOM     22  C   UNL A   1      31.923  22.235  23.423  1.00  0.00     0.068 A 
ATOM     23  N   UNL A   1      33.596  23.370  24.452  1.00  0.00    -0.155 NA
ATOM     24  C   UNL A   1      31.834  21.989  24.773  1.00  0.00     0.110 A 
ATOM     25  N   UNL A   1      32.798  22.763  25.348  1.00  0.00    -0.274 N 
ATOM     26  C   UNL A   1      32.954  23.056  26.752  1.00  0.00     0.173 C 
ENDBRANCH  19  21
ENDBRANCH  15  17
ENDBRANCH  10  11
ENDBRANCH   7   9
ENDBRANCH   6   7
ENDBRANCH   5   6
ENDBRANCH   4   5
ENDBRANCH   3   4
ENDBRANCH   2   3
ENDBRANCH   1   2
BRANCH   1  27
ATOM     27  O   UNL A   1      33.705  34.040  31.586  1.00  0.00    -0.377 OA
BRANCH  27  28
ATOM     28  C   UNL A   1      33.790  34.661  32.870  1.00  0.00     0.188 C 
BRANCH  28  29
ATOM     29  C   UNL A   1      34.847  34.273  33.935  1.00  0.00     0.188 C 
BRANCH  29  30
ATOM     30  O   UNL A   1      35.446  33.005  33.740  1.00  0.00    -0.376 OA
BRANCH  30  31
ATOM     31  C   UNL A   1      36.835  32.967  33.473  1.00  0.00     0.202 C 
BRANCH  31  32
ATOM     32  C   UNL A   1      37.486  31.578  33.471  1.00  0.00     0.261 C 
BRANCH  32  33
ATOM     33  O   UNL A   1      36.719  30.527  32.865  1.00  0.00    -0.460 OA
BRANCH  33  34
ATOM     34  C   UNL A   1      36.528  30.589  31.530  1.00  0.00     0.338 C 
ATOM     35  O   UNL A   1      35.613  31.142  30.939  1.00  0.00    -0.246 OA
BRANCH  34  36
ATOM     36  C   UNL A   1      37.724  30.020  30.880  1.00  0.00     0.060 A 
ATOM     37  C   UNL A   1      38.565  29.169  31.612  1.00  0.00     0.016 A 
ATOM     38  C   UNL A   1      38.009  30.320  29.545  1.00  0.00     0.016 A 
ATOM     39  C   UNL A   1      39.713  28.643  31.018  1.00  0.00     0.010 A 
ATOM     40  C   UNL A   1      39.168  29.808  28.958  1.00  0.00     0.010 A 
ATOM     41  C   UNL A   1      40.043  28.994  29.701  1.00  0.00    -0.014 A 
BRANCH  41  42
ATOM     42  C   UNL A   1      41.387  28.674  29.162  1.00  0.00     0.031 A 
ATOM     43  C   UNL A   1      41.645  27.274  28.673  1.00  0.00     0.074 A 
ATOM     44  C   UNL A   1      42.358  29.601  29.097  1.00  0.00     0.049 A 
ATOM     45  N   UNL A   1      42.750  26.739  28.225  1.00  0.00    -0.248 NA
ATOM     46  C   UNL A   1      40.495  26.355  28.698  1.00  0.00     0.031 C 
ATOM     47  C   UNL A   1      42.222  30.999  29.501  1.00  0.00     0.029 A 
ATOM     48  N   UNL A   1      43.661  29.495  28.676  1.00  0.00    -0.354 N 
ATOM     49  C   UNL A   1      42.433  25.420  27.923  1.00  0.00     0.074 A 
ATOM     50  C   UNL A   1      41.042  25.228  28.271  1.00  0.00     0.031 C 
ATOM     51  C   UNL A   1      43.403  31.618  29.321  1.00  0.00     0.029 A 
ATOM     52  C   UNL A   1      44.384  30.654  28.826  1.00  0.00     0.049 A 
ATOM     53  H   UNL A   1      44.040  28.667  28.303  1.00  0.00     0.167 HD
ATOM     54  C   UNL A   1      43.226  24.458  27.395  1.00  0.00     0.037 A 
ATOM     55  C   UNL A   1      45.692  30.895  28.613  1.00  0.00     0.037 A 
ATOM     56  C   UNL A   1      44.611  24.651  27.057  1.00  0.00     0.049 A 
ATOM     57  C   UNL A   1      46.576  29.785  28.103  1.00  0.00     0.074 A 
ATOM     58  C   UNL A   1      45.498  23.744  26.504  1.00  0.00     0.029 A 
ATOM     59  N   UNL A   1      45.315  25.830  27.250  1.00  0.00    -0.354 N 
ATOM     60  N   UNL A   1      46.264  28.550  27.797  1.00  0.00    -0.248 NA
ATOM     61  C   UNL A   1      47.998  30.107  27.907  1.00  0.00     0.031 C 
ATOM     62  C   UNL A   1      46.752  24.354  26.420  1.00  0.00     0.029 A 
ATOM     63  C   UNL A   1      46.632  25.665  26.856  1.00  0.00     0.049 A 
ATOM     64  H   UNL A   1      44.935  26.662  27.615  1.00  0.00     0.167 HD
ATOM     65  C   UNL A   1      47.438  27.959  27.342  1.00  0.00     0.074 A 
ATOM     66  C   UNL A   1      48.466  28.975  27.401  1.00  0.00     0.031 C 
ATOM     67  C   UNL A   1      47.646  26.689  26.911  1.00  0.00     0.037 A 
BRANCH  54  68
ATOM     68  C   UNL A   1      42.620  23.101  27.183  1.00  0.00     0.057 A 
ATOM     69  C   UNL A   1      42.380  22.586  25.901  1.00  0.00     0.134 A 
ATOM     70  C   UNL A   1      42.293  22.288  28.275  1.00  0.00     0.134 A 
ATOM     71  F   UNL A   1      42.655  23.319  24.811  1.00  0.00    -0.206 F 
ATOM     72  C   UNL A   1      41.813  21.324  25.717  1.00  0.00     0.040 A 
ATOM     73  C   UNL A   1      41.755  21.012  28.103  1.00  0.00     0.040 A 
ATOM     74  F   UNL A   1      42.499  22.717  29.530  1.00  0.00    -0.206 F 
ATOM     75  C   UNL A   1      41.506  20.530  26.820  1.00  0.00     0.006 A 
ENDBRANCH  54  68
BRANCH  55  76
ATOM     76  C   UNL A   1      46.258  32.241  28.895  1.00  0.00     0.057 A 
ATOM     77  C   UNL A   1      46.257  33.249  27.925  1.00  0.00     0.134 A 
ATOM     78  C   UNL A   1      46.844  32.539  30.131  1.00  0.00     0.134 A 
ATOM     79  F   UNL A   1      45.734  33.018  26.711  1.00  0.00    -0.206 F 
ATOM     80  C   UNL A   1      46.836  34.497  28.164  1.00  0.00     0.040 A 
ATOM     81  C   UNL A   1      47.400  33.792  30.395  1.00  0.00     0.040 A 
ATOM     82  F   UNL A   1      46.881  31.618  31.105  1.00  0.00    -0.206 F 
ATOM     83  C   UNL A   1      47.404  34.773  29.405  1.00  0.00     0.006 A 
ENDBRANCH  55  76
BRANCH  67  84
ATOM     84  C   UNL A   1      49.023  26.337  26.422  1.00  0.00     0.057 A 
ATOM     85  C   UNL A   1      49.459  26.651  25.129  1.00  0.00     0.134 A 
ATOM     86  C   UNL A   1      49.942  25.712  27.278  1.00  0.00     0.134 A 
ATOM     87  F   UNL A   1      48.628  27.240  24.255  1.00  0.00    -0.206 F 
ATOM     88  C   UNL A   1      50.748  26.333  24.696  1.00  0.00     0.040 A 
ATOM     89  C   UNL A   1      51.242  25.420  26.866  1.00  0.00     0.040 A 
ATOM     90  F   UNL A   1      49.596  25.394  28.535  1.00  0.00    -0.206 F 
ATOM     91  C   UNL A   1      51.646  25.723  25.569  1.00  0.00     0.006 A 
ENDBRANCH  67  84
ENDBRANCH  41  42
ENDBRANCH  34  36
ENDBRANCH  33  34
ENDBRANCH  32  33
ENDBRANCH  31  32
ENDBRANCH  30  31
ENDBRANCH  29  30
ENDBRANCH  28  29
ENDBRANCH  27  28
ENDBRANCH   1  27
TORSDOF 23
ENDMDL
MODEL 2
REMARK VINA RESULT:      -9.5      4.314      9.279
REMARK SMILES Cc1cc(C(=O)Nc2ccn(C)n2)sc1/C=C/C(=O)OCCOCCOCCOCCOC(=O)c1ccc(-c2c3nc(c(-c4c(F)cccc4F)c4ccc([nH]4)c(-c4c(F)cccc4F)c4nc(c(-c5c(F)cccc5F)c5ccc2[nH]5)C=C4)C=C3)cc1
REMARK SMILES IDX 25 1 24 2 23 3 22 4 21 5 20 6 18 7 19 8 17 9 16 10 15 11
REMARK SMILES IDX 1 12 2 13 3 14 4 15 14 16 5 17 6 18 7 19 8 21 9 22 13 23
REMARK SMILES IDX 10 24 11 25 12 26 26 27 27 28 28 29 29 30 30 31 31 32 32 33
REMARK SMILES IDX 33 34 34 35 35 36 36 37 88 38 37 39 87 40 38 41 39 42 40 43
REMARK SMILES IDX 81 44 41 45 86 46 80 47 82 48 42 49 85 50 79 51 78 52 43 54
REMARK SMILES IDX 69 55 52 56 68 57 53 58 56 59 67 60 83 61 54 62 55 63 66 65
REMARK SMILES IDX 84 66 57 67 44 68 45 69 50 70 46 71 47 72 49 73 51 74 48 75
REMARK SMILES IDX 70 76 71 77 76 78 72 79 73 80 75 81 77 82 74 83 58 84 59 85
REMARK SMILES IDX 64 86 60 87 61 88 63 89 65 90 62 91
REMARK H PARENT 7 20 82 53 56 64
REMARK Flexibility Score: inf
ROOT
ATOM      1  C   UNL A   1      35.324  21.415  26.263  1.00  0.00     0.188 C 
ENDROOT
BRANCH   1   2
ATOM      2  C   UNL A   1      33.805  21.513  26.025  1.00  0.00     0.188 C 
BRANCH   2   3
ATOM      3  O   UNL A   1      33.468  21.914  24.710  1.00  0.00    -0.376 OA
BRANCH   3   4
ATOM      4  C   UNL A   1      32.227  21.536  24.150  1.00  0.00     0.202 C 
BRANCH   4   5
ATOM      5  C   UNL A   1      30.916  22.184  24.627  1.00  0.00     0.261 C 
BRANCH   5   6
ATOM      6  O   UNL A   1      30.417  21.781  25.906  1.00  0.00    -0.460 OA
BRANCH   6   7
ATOM      7  C   UNL A   1      30.071  22.769  26.756  1.00  0.00     0.330 C 
ATOM      8  O   UNL A   1      29.497  22.631  27.824  1.00  0.00    -0.247 OA
BRANCH   7   9
ATOM      9  C   UNL A   1      30.625  24.068  26.315  1.00  0.00     0.095 C 
ATOM     10  C   UNL A   1      31.732  24.645  26.815  1.00  0.00     0.027 C 
BRANCH  10  11
ATOM     11  C   UNL A   1      32.214  25.934  26.396  1.00  0.00     0.031 A 
ATOM     12  C   UNL A   1      34.487  25.326  25.330  1.00  0.00     0.046 C 
ATOM     13  C   UNL A   1      33.432  26.276  25.809  1.00  0.00    -0.032 A 
ATOM     14  C   UNL A   1      33.583  27.705  25.690  1.00  0.00     0.029 A 
ATOM     15  C   UNL A   1      32.491  28.421  26.141  1.00  0.00     0.093 A 
ATOM     16  S   UNL A   1      31.229  27.340  26.509  1.00  0.00    -0.130 S 
BRANCH  15  17
ATOM     17  C   UNL A   1      32.316  29.875  26.101  1.00  0.00     0.266 C 
ATOM     18  O   UNL A   1      32.775  30.594  26.994  1.00  0.00    -0.268 OA
ATOM     19  N   UNL A   1      31.741  30.506  25.021  1.00  0.00    -0.304 N 
ATOM     20  H   UNL A   1      32.021  31.440  24.881  1.00  0.00     0.171 HD
BRANCH  19  21
ATOM     21  C   UNL A   1      30.837  30.026  24.110  1.00  0.00     0.154 A 
ATOM     22  C   UNL A   1      30.986  28.989  23.159  1.00  0.00     0.068 A 
ATOM     23  N   UNL A   1      29.611  30.552  24.062  1.00  0.00    -0.155 NA
ATOM     24  C   UNL A   1      29.833  29.021  22.411  1.00  0.00     0.110 A 
ATOM     25  N   UNL A   1      29.086  30.034  22.937  1.00  0.00    -0.274 N 
ATOM     26  C   UNL A   1      27.908  30.634  22.361  1.00  0.00     0.173 C 
ENDBRANCH  19  21
ENDBRANCH  15  17
ENDBRANCH  10  11
ENDBRANCH   7   9
ENDBRANCH   6   7
ENDBRANCH   5   6
ENDBRANCH   4   5
ENDBRANCH   3   4
ENDBRANCH   2   3
ENDBRANCH   1   2
BRANCH   1  27
ATOM     27  O   UNL A   1      36.083  20.661  25.329  1.00  0.00    -0.377 OA
BRANCH  27  28
ATOM     28  C   UNL A   1      37.160  21.276  24.620  1.00  0.00     0.188 C 
BRANCH  28  29
ATOM     29  C   UNL A   1      37.776  22.640  25.022  1.00  0.00     0.188 C 
BRANCH  29  30
ATOM     30  O   UNL A   1      38.676  22.582  26.114  1.00  0.00    -0.376 OA
BRANCH  30  31
ATOM     31  C   UNL A   1      38.852  23.757  26.884  1.00  0.00     0.202 C 
BRANCH  31  32
ATOM     32  C   UNL A   1      40.227  24.429  26.788  1.00  0.00     0.261 C 
BRANCH  32  33
ATOM     33  O   UNL A   1      41.243  23.684  26.100  1.00  0.00    -0.460 OA
BRANCH  33  34
ATOM     34  C   UNL A   1      42.374  23.404  26.782  1.00  0.00     0.338 C 
ATOM     35  O   UNL A   1      42.725  22.319  27.219  1.00  0.00    -0.246 OA
BRANCH  34  36
ATOM     36  C   UNL A   1      43.220  24.614  26.762  1.00  0.00     0.060 A 
ATOM     37  C   UNL A   1      43.569  25.187  25.531  1.00  0.00     0.016 A 
ATOM     38  C   UNL A   1      43.659  25.185  27.959  1.00  0.00     0.016 A 
ATOM     39  C   UNL A   1      44.389  26.316  25.495  1.00  0.00     0.010 A 
ATOM     40  C   UNL A   1      44.494  26.304  27.920  1.00  0.00     0.010 A 
ATOM     41  C   UNL A   1      44.890  26.855  26.688  1.00  0.00    -0.014 A 
BRANCH  41  42
ATOM     42  C   UNL A   1      45.974  27.866  26.648  1.00  0.00     0.031 A 
ATOM     43  C   UNL A   1      45.595  29.321  26.707  1.00  0.00     0.074 A 
ATOM     44  C   UNL A   1      47.267  27.509  26.570  1.00  0.00     0.049 A 
ATOM     45  N   UNL A   1      46.351  30.384  26.620  1.00  0.00    -0.248 NA
ATOM     46  C   UNL A   1      44.162  29.613  26.884  1.00  0.00     0.031 C 
ATOM     47  C   UNL A   1      47.766  26.135  26.547  1.00  0.00     0.029 A 
ATOM     48  N   UNL A   1      48.399  28.282  26.482  1.00  0.00    -0.354 N 
ATOM     49  C   UNL A   1      45.490  31.468  26.723  1.00  0.00     0.074 A 
ATOM     50  C   UNL A   1      44.150  30.936  26.844  1.00  0.00     0.031 C 
ATOM     51  C   UNL A   1      49.107  26.163  26.436  1.00  0.00     0.029 A 
ATOM     52  C   UNL A   1      49.554  27.551  26.344  1.00  0.00     0.049 A 
ATOM     53  H   UNL A   1      48.383  29.266  26.515  1.00  0.00     0.167 HD
ATOM     54  C   UNL A   1      45.788  32.789  26.727  1.00  0.00     0.037 A 
ATOM     55  C   UNL A   1      50.822  27.961  26.138  1.00  0.00     0.037 A 
ATOM     56  C   UNL A   1      47.121  33.315  26.598  1.00  0.00     0.049 A 
ATOM     57  C   UNL A   1      51.119  29.438  26.061  1.00  0.00     0.074 A 
ATOM     58  C   UNL A   1      47.530  34.638  26.603  1.00  0.00     0.029 A 
ATOM     59  N   UNL A   1      48.261  32.545  26.431  1.00  0.00    -0.354 N 
ATOM     60  N   UNL A   1      50.303  30.456  26.184  1.00  0.00    -0.248 NA
ATOM     61  C   UNL A   1      52.518  29.821  25.818  1.00  0.00     0.031 C 
ATOM     62  C   UNL A   1      48.908  34.669  26.378  1.00  0.00     0.029 A 
ATOM     63  C   UNL A   1      49.370  33.364  26.301  1.00  0.00     0.049 A 
ATOM     64  H   UNL A   1      48.280  31.561  26.407  1.00  0.00     0.167 HD
ATOM     65  C   UNL A   1      51.092  31.596  26.069  1.00  0.00     0.074 A 
ATOM     66  C   UNL A   1      52.453  31.142  25.878  1.00  0.00     0.031 C 
ATOM     67  C   UNL A   1      50.724  32.900  26.119  1.00  0.00     0.037 A 
BRANCH  54  68
ATOM     68  C   UNL A   1      44.645  33.756  26.839  1.00  0.00     0.057 A 
ATOM     69  C   UNL A   1      44.248  34.298  28.070  1.00  0.00     0.134 A 
ATOM     70  C   UNL A   1      43.945  34.169  25.699  1.00  0.00     0.134 A 
ATOM     71  F   UNL A   1      44.865  33.933  29.204  1.00  0.00    -0.206 F 
ATOM     72  C   UNL A   1      43.181  35.194  28.163  1.00  0.00     0.040 A 
ATOM     73  C   UNL A   1      42.897  35.088  25.775  1.00  0.00     0.040 A 
ATOM     74  F   UNL A   1      44.274  33.692  24.488  1.00  0.00    -0.206 F 
ATOM     75  C   UNL A   1      42.508  35.597  27.011  1.00  0.00     0.006 A 
ENDBRANCH  54  68
BRANCH  55  76
ATOM     76  C   UNL A   1      51.911  26.963  25.972  1.00  0.00     0.057 A 
ATOM     77  C   UNL A   1      52.226  26.432  24.717  1.00  0.00     0.134 A 
ATOM     78  C   UNL A   1      52.641  26.492  27.071  1.00  0.00     0.134 A 
ATOM     79  F   UNL A   1      51.547  26.822  23.628  1.00  0.00    -0.206 F 
ATOM     80  C   UNL A   1      53.211  25.454  24.561  1.00  0.00     0.040 A 
ATOM     81  C   UNL A   1      53.648  25.537  26.926  1.00  0.00     0.040 A 
ATOM     82  F   UNL A   1      52.388  26.959  28.303  1.00  0.00    -0.206 F 
ATOM     83  C   UNL A   1      53.930  25.009  25.669  1.00  0.00     0.006 A 
ENDBRANCH  55  76
BRANCH  67  84
ATOM     84  C   UNL A   1      51.809  33.934  26.015  1.00  0.00     0.057 A 
ATOM     85  C   UNL A   1      52.249  34.433  24.782  1.00  0.00     0.134 A 
ATOM     86  C   UNL A   1      52.392  34.471  27.172  1.00  0.00     0.134 A 
ATOM     87  F   UNL A   1      51.741  33.957  23.636  1.00  0.00    -0.206 F 
ATOM     88  C   UNL A   1      53.246  35.407  24.703  1.00  0.00     0.040 A 
ATOM     89  C   UNL A   1      53.365  35.468  27.106  1.00  0.00     0.040 A 
ATOM     90  F   UNL A   1      52.010  34.049  28.387  1.00  0.00    -0.206 F 
ATOM     91  C   UNL A   1      53.801  35.934  25.868  1.00  0.00     0.006 A 
ENDBRANCH  67  84
ENDBRANCH  41  42
ENDBRANCH  34  36
ENDBRANCH  33  34
ENDBRANCH  32  33
ENDBRANCH  31  32
ENDBRANCH  30  31
ENDBRANCH  29  30
ENDBRANCH  28  29
ENDBRANCH  27  28
ENDBRANCH   1  27
TORSDOF 23
ENDMDL
MODEL 3
REMARK VINA RESULT:      -9.4      2.914      7.090
REMARK SMILES Cc1cc(C(=O)Nc2ccn(C)n2)sc1/C=C/C(=O)OCCOCCOCCOCCOC(=O)c1ccc(-c2c3nc(c(-c4c(F)cccc4F)c4ccc([nH]4)c(-c4c(F)cccc4F)c4nc(c(-c5c(F)cccc5F)c5ccc2[nH]5)C=C4)C=C3)cc1
REMARK SMILES IDX 25 1 24 2 23 3 22 4 21 5 20 6 18 7 19 8 17 9 16 10 15 11
REMARK SMILES IDX 1 12 2 13 3 14 4 15 14 16 5 17 6 18 7 19 8 21 9 22 13 23
REMARK SMILES IDX 10 24 11 25 12 26 26 27 27 28 28 29 29 30 30 31 31 32 32 33
REMARK SMILES IDX 33 34 34 35 35 36 36 37 88 38 37 39 87 40 38 41 39 42 40 43
REMARK SMILES IDX 81 44 41 45 86 46 80 47 82 48 42 49 85 50 79 51 78 52 43 54
REMARK SMILES IDX 69 55 52 56 68 57 53 58 56 59 67 60 83 61 54 62 55 63 66 65
REMARK SMILES IDX 84 66 57 67 44 68 45 69 50 70 46 71 47 72 49 73 51 74 48 75
REMARK SMILES IDX 70 76 71 77 76 78 72 79 73 80 75 81 77 82 74 83 58 84 59 85
REMARK SMILES IDX 64 86 60 87 61 88 63 89 65 90 62 91
REMARK H PARENT 7 20 82 53 56 64
REMARK Flexibility Score: inf
ROOT
ATOM      1  C   UNL A   1      39.625  34.203  31.074  1.00  0.00     0.188 C 
ENDROOT
BRANCH   1   2
ATOM      2  C   UNL A   1      39.167  33.289  29.921  1.00  0.00     0.188 C 
BRANCH   2   3
ATOM      3  O   UNL A   1      38.041  33.788  29.224  1.00  0.00    -0.376 OA
BRANCH   3   4
ATOM      4  C   UNL A   1      36.820  33.077  29.248  1.00  0.00     0.202 C 
BRANCH   4   5
ATOM      5  C   UNL A   1      35.891  33.061  28.023  1.00  0.00     0.261 C 
BRANCH   5   6
ATOM      6  O   UNL A   1      35.374  31.791  27.612  1.00  0.00    -0.460 OA
BRANCH   6   7
ATOM      7  C   UNL A   1      34.035  31.643  27.657  1.00  0.00     0.330 C 
ATOM      8  O   UNL A   1      33.223  32.522  27.899  1.00  0.00    -0.247 OA
BRANCH   7   9
ATOM      9  C   UNL A   1      33.634  30.293  27.207  1.00  0.00     0.095 C 
ATOM     10  C   UNL A   1      32.985  30.022  26.059  1.00  0.00     0.027 C 
BRANCH  10  11
ATOM     11  C   UNL A   1      32.567  28.701  25.677  1.00  0.00     0.031 A 
ATOM     12  C   UNL A   1      33.528  28.512  23.287  1.00  0.00     0.046 C 
ATOM     13  C   UNL A   1      32.726  28.038  24.460  1.00  0.00    -0.032 A 
ATOM     14  C   UNL A   1      32.019  26.781  24.441  1.00  0.00     0.029 A 
ATOM     15  C   UNL A   1      31.375  26.487  25.627  1.00  0.00     0.093 A 
ATOM     16  S   UNL A   1      31.808  27.641  26.801  1.00  0.00    -0.130 S 
BRANCH  15  17
ATOM     17  C   UNL A   1      30.625  25.267  25.940  1.00  0.00     0.266 C 
ATOM     18  O   UNL A   1      29.551  25.320  26.547  1.00  0.00    -0.268 OA
ATOM     19  N   UNL A   1      31.022  24.033  25.475  1.00  0.00    -0.304 N 
ATOM     20  H   UNL A   1      30.300  23.372  25.369  1.00  0.00     0.171 HD
BRANCH  19  21
ATOM     21  C   UNL A   1      32.273  23.590  25.137  1.00  0.00     0.154 A 
ATOM     22  C   UNL A   1      32.790  23.248  23.865  1.00  0.00     0.068 A 
ATOM     23  N   UNL A   1      33.199  23.449  26.088  1.00  0.00    -0.155 NA
ATOM     24  C   UNL A   1      34.040  22.730  24.114  1.00  0.00     0.110 A 
ATOM     25  N   UNL A   1      34.195  22.791  25.468  1.00  0.00    -0.274 N 
ATOM     26  C   UNL A   1      35.220  22.150  26.254  1.00  0.00     0.173 C 
ENDBRANCH  19  21
ENDBRANCH  15  17
ENDBRANCH  10  11
ENDBRANCH   7   9
ENDBRANCH   6   7
ENDBRANCH   5   6
ENDBRANCH   4   5
ENDBRANCH   3   4
ENDBRANCH   2   3
ENDBRANCH   1   2
BRANCH   1  27
ATOM     27  O   UNL A   1      40.811  34.958  30.875  1.00  0.00    -0.377 OA
BRANCH  27  28
ATOM     28  C   UNL A   1      41.977  34.331  30.339  1.00  0.00     0.188 C 
BRANCH  28  29
ATOM     29  C   UNL A   1      42.673  34.800  29.036  1.00  0.00     0.188 C 
BRANCH  29  30
ATOM     30  O   UNL A   1      42.306  36.098  28.604  1.00  0.00    -0.376 OA
BRANCH  30  31
ATOM     31  C   UNL A   1      43.028  37.195  29.130  1.00  0.00     0.202 C 
BRANCH  31  32
ATOM     32  C   UNL A   1      44.461  36.901  29.592  1.00  0.00     0.261 C 
BRANCH  32  33
ATOM     33  O   UNL A   1      45.453  36.832  28.557  1.00  0.00    -0.460 OA
BRANCH  33  34
ATOM     34  C   UNL A   1      46.617  36.218  28.854  1.00  0.00     0.338 C 
ATOM     35  O   UNL A   1      47.627  36.729  29.313  1.00  0.00    -0.246 OA
BRANCH  34  36
ATOM     36  C   UNL A   1      46.408  34.765  28.697  1.00  0.00     0.060 A 
ATOM     37  C   UNL A   1      46.161  34.240  27.421  1.00  0.00     0.016 A 
ATOM     38  C   UNL A   1      46.466  33.922  29.810  1.00  0.00     0.016 A 
ATOM     39  C   UNL A   1      45.938  32.872  27.260  1.00  0.00     0.010 A 
ATOM     40  C   UNL A   1      46.224  32.556  29.650  1.00  0.00     0.010 A 
ATOM     41  C   UNL A   1      45.926  32.029  28.381  1.00  0.00    -0.014 A 
BRANCH  41  42
ATOM     42  C   UNL A   1      45.417  30.641  28.260  1.00  0.00     0.031 A 
ATOM     43  C   UNL A   1      46.375  29.564  27.828  1.00  0.00     0.074 A 
ATOM     44  C   UNL A   1      44.137  30.336  28.534  1.00  0.00     0.049 A 
ATOM     45  N   UNL A   1      46.152  28.299  27.587  1.00  0.00    -0.248 NA
ATOM     46  C   UNL A   1      47.776  29.977  27.640  1.00  0.00     0.031 C 
ATOM     47  C   UNL A   1      43.122  31.279  28.999  1.00  0.00     0.029 A 
ATOM     48  N   UNL A   1      43.471  29.138  28.446  1.00  0.00    -0.354 N 
ATOM     49  C   UNL A   1      47.379  27.766  27.212  1.00  0.00     0.074 A 
ATOM     50  C   UNL A   1      48.335  28.852  27.223  1.00  0.00     0.031 C 
ATOM     51  C   UNL A   1      41.955  30.624  29.141  1.00  0.00     0.029 A 
ATOM     52  C   UNL A   1      42.133  29.229  28.743  1.00  0.00     0.049 A 
ATOM     53  H   UNL A   1      43.912  28.294  28.193  1.00  0.00     0.167 HD
ATOM     54  C   UNL A   1      47.685  26.486  26.894  1.00  0.00     0.037 A 
ATOM     55  C   UNL A   1      41.162  28.297  28.673  1.00  0.00     0.037 A 
ATOM     56  C   UNL A   1      46.731  25.409  26.876  1.00  0.00     0.049 A 
ATOM     57  C   UNL A   1      41.510  26.896  28.236  1.00  0.00     0.074 A 
ATOM     58  C   UNL A   1      46.943  24.074  26.582  1.00  0.00     0.029 A 
ATOM     59  N   UNL A   1      45.379  25.547  27.155  1.00  0.00    -0.354 N 
ATOM     60  N   UNL A   1      42.675  26.395  27.907  1.00  0.00    -0.248 NA
ATOM     61  C   UNL A   1      40.404  25.929  28.163  1.00  0.00     0.031 C 
ATOM     62  C   UNL A   1      45.711  23.417  26.622  1.00  0.00     0.029 A 
ATOM     63  C   UNL A   1      44.740  24.327  27.010  1.00  0.00     0.049 A 
ATOM     64  H   UNL A   1      44.939  26.388  27.417  1.00  0.00     0.167 HD
ATOM     65  C   UNL A   1      42.450  25.053  27.622  1.00  0.00     0.074 A 
ATOM     66  C   UNL A   1      41.038  24.815  27.830  1.00  0.00     0.031 C 
ATOM     67  C   UNL A   1      43.333  24.101  27.228  1.00  0.00     0.037 A 
BRANCH  54  68
ATOM     68  C   UNL A   1      49.105  26.190  26.508  1.00  0.00     0.057 A 
ATOM     69  C   UNL A   1      50.018  25.622  27.408  1.00  0.00     0.134 A 
ATOM     70  C   UNL A   1      49.561  26.454  25.210  1.00  0.00     0.134 A 
ATOM     71  F   UNL A   1      49.652  25.358  28.672  1.00  0.00    -0.206 F 
ATOM     72  C   UNL A   1      51.337  25.354  27.038  1.00  0.00     0.040 A 
ATOM     73  C   UNL A   1      50.869  26.161  24.819  1.00  0.00     0.040 A 
ATOM     74  F   UNL A   1      48.740  26.995  24.296  1.00  0.00    -0.206 F 
ATOM     75  C   UNL A   1      51.763  25.616  25.737  1.00  0.00     0.006 A 
ENDBRANCH  54  68
BRANCH  55  76
ATOM     76  C   UNL A   1      39.758  28.655  29.009  1.00  0.00     0.057 A 
ATOM     77  C   UNL A   1      39.243  28.453  30.294  1.00  0.00     0.134 A 
ATOM     78  C   UNL A   1      38.889  29.175  28.043  1.00  0.00     0.134 A 
ATOM     79  F   UNL A   1      40.018  27.933  31.258  1.00  0.00    -0.206 F 
ATOM     80  C   UNL A   1      37.911  28.736  30.602  1.00  0.00     0.040 A 
ATOM     81  C   UNL A   1      37.563  29.491  28.344  1.00  0.00     0.040 A 
ATOM     82  F   UNL A   1      39.318  29.391  26.790  1.00  0.00    -0.206 F 
ATOM     83  C   UNL A   1      37.068  29.263  29.626  1.00  0.00     0.006 A 
ENDBRANCH  55  76
BRANCH  67  84
ATOM     84  C   UNL A   1      42.812  22.704  27.041  1.00  0.00     0.057 A 
ATOM     85  C   UNL A   1      42.493  21.875  28.124  1.00  0.00     0.134 A 
ATOM     86  C   UNL A   1      42.586  22.196  25.754  1.00  0.00     0.134 A 
ATOM     87  F   UNL A   1      42.694  22.293  29.383  1.00  0.00    -0.206 F 
ATOM     88  C   UNL A   1      41.993  20.585  27.934  1.00  0.00     0.040 A 
ATOM     89  C   UNL A   1      42.056  20.922  25.552  1.00  0.00     0.040 A 
ATOM     90  F   UNL A   1      42.857  22.940  24.670  1.00  0.00    -0.206 F 
ATOM     91  C   UNL A   1      41.765  20.109  26.644  1.00  0.00     0.006 A 
ENDBRANCH  67  84
ENDBRANCH  41  42
ENDBRANCH  34  36
ENDBRANCH  33  34
ENDBRANCH  32  33
ENDBRANCH  31  32
ENDBRANCH  30  31
ENDBRANCH  29  30
ENDBRANCH  28  29
ENDBRANCH  27  28
ENDBRANCH   1  27
TORSDOF 23
ENDMDL
