MODEL 1
REMARK VINA RESULT:     -10.5      0.000      0.000
REMARK SMILES O=C(OCCOCCOCCOCCOC(=O)[C@@H]1[C@@H](C(=O)N2CC[NH+](C/C=C/c3ccccc3)CC2)[C@@H]2C=C[C@H]1C2)c1ccc(-c2c3nc(c(-c4c(F)cccc4F)c4ccc([nH]4)c(-c4c(F)cccc4F)c4nc(c(-c5c(F)cccc5F)c5ccc2[nH]5)C=C4)C=C3)cc1
REMARK SMILES IDX 10 1 9 2 8 3 7 4 6 5 5 6 4 7 3 8 2 9 1 10 42 11 43 12 95 13
REMARK SMILES IDX 44 14 94 15 45 16 46 17 47 18 88 19 48 20 93 21 87 22 89 23
REMARK SMILES IDX 49 24 92 25 86 26 85 27 50 29 76 30 59 31 75 32 60 33 63 34
REMARK SMILES IDX 74 35 90 36 61 37 62 38 73 40 91 41 64 42 51 43 52 44 57 45
REMARK SMILES IDX 53 46 54 47 56 48 58 49 55 50 77 51 78 52 83 53 79 54 80 55
REMARK SMILES IDX 82 56 84 57 81 58 65 59 66 60 71 61 67 62 68 63 70 64 72 65
REMARK SMILES IDX 69 66 11 67 12 68 13 69 14 70 15 71 16 72 17 73 18 74 19 75
REMARK SMILES IDX 40 76 37 77 39 78 41 79 38 80 20 81 21 82 22 83 23 84 36 85
REMARK SMILES IDX 24 86 35 87 25 88 26 90 27 91 28 92 29 93 30 94 34 95 31 96
REMARK SMILES IDX 33 97 32 98
REMARK H PARENT 89 28 63 39 25 89
REMARK Flexibility Score: inf
ROOT
ATOM      1  C   UNL A   1      33.018  27.051  26.740  1.00  0.00     0.188 C 
ENDROOT
BRANCH   1   2
ATOM      2  O   UNL A   1      33.100  28.213  25.917  1.00  0.00    -0.377 OA
BRANCH   2   3
ATOM      3  C   UNL A   1      34.038  29.226  26.292  1.00  0.00     0.188 C 
BRANCH   3   4
ATOM      4  C   UNL A   1      33.402  30.439  26.966  1.00  0.00     0.188 C 
BRANCH   4   5
ATOM      5  O   UNL A   1      32.182  30.772  26.304  1.00  0.00    -0.376 OA
BRANCH   5   6
ATOM      6  C   UNL A   1      31.445  31.843  26.894  1.00  0.00     0.202 C 
BRANCH   6   7
ATOM      7  C   UNL A   1      32.111  33.197  26.691  1.00  0.00     0.261 C 
BRANCH   7   8
ATOM      8  O   UNL A   1      31.969  34.032  27.847  1.00  0.00    -0.460 OA
BRANCH   8   9
ATOM      9  C   UNL A   1      32.964  34.585  28.585  1.00  0.00     0.338 C 
ATOM     10  O   UNL A   1      32.831  35.752  28.954  1.00  0.00    -0.246 OA
BRANCH   9  11
ATOM     11  C   UNL A   1      34.191  33.854  29.041  1.00  0.00     0.060 A 
ATOM     12  C   UNL A   1      34.233  32.778  29.934  1.00  0.00     0.016 A 
ATOM     13  C   UNL A   1      35.402  34.261  28.455  1.00  0.00     0.016 A 
ATOM     14  C   UNL A   1      35.426  32.156  30.279  1.00  0.00     0.010 A 
ATOM     15  C   UNL A   1      36.609  33.648  28.795  1.00  0.00     0.010 A 
ATOM     16  C   UNL A   1      36.619  32.614  29.737  1.00  0.00    -0.014 A 
BRANCH  16  17
ATOM     17  C   UNL A   1      37.880  32.167  30.346  1.00  0.00     0.031 A 
ATOM     18  C   UNL A   1      38.575  31.013  29.697  1.00  0.00     0.074 A 
ATOM     19  C   UNL A   1      38.418  32.829  31.381  1.00  0.00     0.049 A 
ATOM     20  N   UNL A   1      39.594  30.314  30.112  1.00  0.00    -0.248 NA
ATOM     21  C   UNL A   1      38.042  30.591  28.388  1.00  0.00     0.031 C 
ATOM     22  C   UNL A   1      37.878  34.053  31.971  1.00  0.00     0.029 A 
ATOM     23  N   UNL A   1      39.539  32.560  32.117  1.00  0.00    -0.354 N 
ATOM     24  C   UNL A   1      39.789  29.338  29.143  1.00  0.00     0.074 A 
ATOM     25  C   UNL A   1      38.800  29.545  28.112  1.00  0.00     0.031 C 
ATOM     26  C   UNL A   1      38.662  34.419  32.999  1.00  0.00     0.029 A 
ATOM     27  C   UNL A   1      39.710  33.418  33.174  1.00  0.00     0.049 A 
ATOM     28  H   UNL A   1      40.159  31.824  31.909  1.00  0.00     0.167 HD
ATOM     29  C   UNL A   1      40.702  28.342  29.144  1.00  0.00     0.037 A 
ATOM     30  C   UNL A   1      40.584  33.351  34.195  1.00  0.00     0.037 A 
ATOM     31  C   UNL A   1      41.663  28.171  30.197  1.00  0.00     0.049 A 
ATOM     32  C   UNL A   1      41.545  32.193  34.226  1.00  0.00     0.074 A 
ATOM     33  C   UNL A   1      42.602  27.174  30.366  1.00  0.00     0.029 A 
ATOM     34  N   UNL A   1      41.793  29.042  31.272  1.00  0.00    -0.354 N 
ATOM     35  N   UNL A   1      41.681  31.213  33.361  1.00  0.00    -0.248 NA
ATOM     36  C   UNL A   1      42.456  32.112  35.373  1.00  0.00     0.031 C 
ATOM     37  C   UNL A   1      43.278  27.423  31.566  1.00  0.00     0.029 A 
ATOM     38  C   UNL A   1      42.789  28.599  32.121  1.00  0.00     0.049 A 
ATOM     39  H   UNL A   1      41.255  29.855  31.410  1.00  0.00     0.167 HD
ATOM     40  C   UNL A   1      42.695  30.403  33.850  1.00  0.00     0.074 A 
ATOM     41  C   UNL A   1      43.148  31.016  35.086  1.00  0.00     0.031 C 
ATOM     42  C   UNL A   1      43.207  29.258  33.334  1.00  0.00     0.037 A 
BRANCH  29  43
ATOM     43  C   UNL A   1      40.603  27.341  28.032  1.00  0.00     0.057 A 
ATOM     44  C   UNL A   1      39.875  26.150  28.157  1.00  0.00     0.134 A 
ATOM     45  C   UNL A   1      41.332  27.530  26.852  1.00  0.00     0.134 A 
ATOM     46  F   UNL A   1      39.186  25.888  29.278  1.00  0.00    -0.206 F 
ATOM     47  C   UNL A   1      39.910  25.166  27.165  1.00  0.00     0.040 A 
ATOM     48  C   UNL A   1      41.356  26.565  25.844  1.00  0.00     0.040 A 
ATOM     49  F   UNL A   1      42.060  28.642  26.672  1.00  0.00    -0.206 F 
ATOM     50  C   UNL A   1      40.655  25.373  26.005  1.00  0.00     0.006 A 
ENDBRANCH  29  43
BRANCH  30  51
ATOM     51  C   UNL A   1      40.525  34.361  35.281  1.00  0.00     0.057 A 
ATOM     52  C   UNL A   1      41.201  35.581  35.185  1.00  0.00     0.134 A 
ATOM     53  C   UNL A   1      39.744  34.150  36.426  1.00  0.00     0.134 A 
ATOM     54  F   UNL A   1      41.980  35.839  34.126  1.00  0.00    -0.206 F 
ATOM     55  C   UNL A   1      41.099  36.556  36.183  1.00  0.00     0.040 A 
ATOM     56  C   UNL A   1      39.612  35.123  37.418  1.00  0.00     0.040 A 
ATOM     57  F   UNL A   1      39.067  33.002  36.581  1.00  0.00    -0.206 F 
ATOM     58  C   UNL A   1      40.292  36.331  37.298  1.00  0.00     0.006 A 
ENDBRANCH  30  51
BRANCH  42  59
ATOM     59  C   UNL A   1      44.329  28.616  34.088  1.00  0.00     0.057 A 
ATOM     60  C   UNL A   1      44.095  27.619  35.040  1.00  0.00     0.134 A 
ATOM     61  C   UNL A   1      45.657  28.929  33.776  1.00  0.00     0.134 A 
ATOM     62  F   UNL A   1      42.842  27.284  35.382  1.00  0.00    -0.206 F 
ATOM     63  C   UNL A   1      45.151  26.953  35.663  1.00  0.00     0.040 A 
ATOM     64  C   UNL A   1      46.720  28.257  34.377  1.00  0.00     0.040 A 
ATOM     65  F   UNL A   1      45.939  29.870  32.861  1.00  0.00    -0.206 F 
ATOM     66  C   UNL A   1      46.467  27.265  35.322  1.00  0.00     0.006 A 
ENDBRANCH  42  59
ENDBRANCH  16  17
ENDBRANCH   9  11
ENDBRANCH   8   9
ENDBRANCH   7   8
ENDBRANCH   6   7
ENDBRANCH   5   6
ENDBRANCH   4   5
ENDBRANCH   3   4
ENDBRANCH   2   3
ENDBRANCH   1   2
BRANCH   1  67
ATOM     67  C   UNL A   1      33.411  25.701  26.115  1.00  0.00     0.188 C 
BRANCH  67  68
ATOM     68  O   UNL A   1      34.415  25.830  25.117  1.00  0.00    -0.376 OA
BRANCH  68  69
ATOM     69  C   UNL A   1      34.197  25.095  23.918  1.00  0.00     0.202 C 
BRANCH  69  70
ATOM     70  C   UNL A   1      35.298  24.123  23.434  1.00  0.00     0.261 C 
BRANCH  70  71
ATOM     71  O   UNL A   1      34.888  22.753  23.329  1.00  0.00    -0.463 OA
BRANCH  71  72
ATOM     72  C   UNL A   1      33.600  22.497  22.984  1.00  0.00     0.310 C 
ATOM     73  O   UNL A   1      33.097  22.786  21.905  1.00  0.00    -0.252 OA
BRANCH  72  74
ATOM     74  C   UNL A   1      32.942  21.604  24.014  1.00  0.00     0.119 C 
ATOM     75  C   UNL A   1      32.655  22.337  25.344  1.00  0.00     0.100 C 
ATOM     76  C   UNL A   1      33.728  20.354  24.474  1.00  0.00     0.027 C 
ATOM     77  C   UNL A   1      33.260  21.374  26.402  1.00  0.00     0.025 C 
ATOM     78  C   UNL A   1      35.043  20.783  25.077  1.00  0.00    -0.027 C 
ATOM     79  C   UNL A   1      32.989  20.003  25.772  1.00  0.00     0.017 C 
ATOM     80  C   UNL A   1      34.763  21.402  26.233  1.00  0.00    -0.027 C 
BRANCH  75  81
ATOM     81  C   UNL A   1      31.162  22.446  25.617  1.00  0.00     0.227 C 
ATOM     82  O   UNL A   1      30.552  21.683  26.367  1.00  0.00    -0.275 OA
ATOM     83  N   UNL A   1      30.603  23.605  25.148  1.00  0.00    -0.331 N 
ATOM     84  C   UNL A   1      29.693  24.350  26.003  1.00  0.00     0.181 C 
ATOM     85  C   UNL A   1      30.624  23.968  23.736  1.00  0.00     0.181 C 
ATOM     86  C   UNL A   1      29.872  25.863  25.786  1.00  0.00     0.284 C 
ATOM     87  C   UNL A   1      30.774  25.485  23.551  1.00  0.00     0.284 C 
ATOM     88  N   UNL A   1      29.882  26.315  24.379  1.00  0.00    -0.329 N 
ATOM     89  H   UNL A   1      30.291  27.249  24.372  1.00  0.00     0.348 HD
BRANCH  88  90
ATOM     90  C   UNL A   1      28.550  26.555  23.818  1.00  0.00     0.291 C 
BRANCH  90  91
ATOM     91  C   UNL A   1      28.281  27.938  23.304  1.00  0.00     0.034 C 
ATOM     92  C   UNL A   1      29.232  28.782  22.874  1.00  0.00     0.009 C 
BRANCH  92  93
ATOM     93  C   UNL A   1      28.968  30.189  22.551  1.00  0.00    -0.026 A 
ATOM     94  C   UNL A   1      29.067  31.158  23.553  1.00  0.00     0.008 A 
ATOM     95  C   UNL A   1      28.507  30.569  21.282  1.00  0.00     0.008 A 
ATOM     96  C   UNL A   1      28.721  32.484  23.287  1.00  0.00     0.001 A 
ATOM     97  C   UNL A   1      28.148  31.892  21.020  1.00  0.00     0.001 A 
ATOM     98  C   UNL A   1      28.255  32.850  22.024  1.00  0.00     0.000 A 
ENDBRANCH  92  93
ENDBRANCH  90  91
ENDBRANCH  88  90
ENDBRANCH  75  81
ENDBRANCH  72  74
ENDBRANCH  71  72
ENDBRANCH  70  71
ENDBRANCH  69  70
ENDBRANCH  68  69
ENDBRANCH  67  68
ENDBRANCH   1  67
TORSDOF 24
ENDMDL
MODEL 2
REMARK VINA RESULT:     -10.3      4.334      6.050
REMARK SMILES O=C(OCCOCCOCCOCCOC(=O)[C@@H]1[C@@H](C(=O)N2CC[NH+](C/C=C/c3ccccc3)CC2)[C@@H]2C=C[C@H]1C2)c1ccc(-c2c3nc(c(-c4c(F)cccc4F)c4ccc([nH]4)c(-c4c(F)cccc4F)c4nc(c(-c5c(F)cccc5F)c5ccc2[nH]5)C=C4)C=C3)cc1
REMARK SMILES IDX 10 1 9 2 8 3 7 4 6 5 5 6 4 7 3 8 2 9 1 10 42 11 43 12 95 13
REMARK SMILES IDX 44 14 94 15 45 16 46 17 47 18 88 19 48 20 93 21 87 22 89 23
REMARK SMILES IDX 49 24 92 25 86 26 85 27 50 29 76 30 59 31 75 32 60 33 63 34
REMARK SMILES IDX 74 35 90 36 61 37 62 38 73 40 91 41 64 42 51 43 52 44 57 45
REMARK SMILES IDX 53 46 54 47 56 48 58 49 55 50 77 51 78 52 83 53 79 54 80 55
REMARK SMILES IDX 82 56 84 57 81 58 65 59 66 60 71 61 67 62 68 63 70 64 72 65
REMARK SMILES IDX 69 66 11 67 12 68 13 69 14 70 15 71 16 72 17 73 18 74 19 75
REMARK SMILES IDX 40 76 37 77 39 78 41 79 38 80 20 81 21 82 22 83 23 84 36 85
REMARK SMILES IDX 24 86 35 87 25 88 26 90 27 91 28 92 29 93 30 94 34 95 31 96
REMARK SMILES IDX 33 97 32 98
REMARK H PARENT 89 28 63 39 25 89
REMARK Flexibility Score: inf
ROOT
ATOM      1  C   UNL A   1      32.975  29.222  27.173  1.00  0.00     0.188 C 
ENDROOT
BRANCH   1   2
ATOM      2  O   UNL A   1      32.383  30.275  26.415  1.00  0.00    -0.377 OA
BRANCH   2   3
ATOM      3  C   UNL A   1      32.533  31.611  26.905  1.00  0.00     0.188 C 
BRANCH   3   4
ATOM      4  C   UNL A   1      33.773  31.816  27.772  1.00  0.00     0.188 C 
BRANCH   4   5
ATOM      5  O   UNL A   1      33.704  33.087  28.418  1.00  0.00    -0.376 OA
BRANCH   5   6
ATOM      6  C   UNL A   1      34.667  33.295  29.452  1.00  0.00     0.202 C 
BRANCH   6   7
ATOM      7  C   UNL A   1      35.920  32.451  29.266  1.00  0.00     0.261 C 
BRANCH   7   8
ATOM      8  O   UNL A   1      36.361  31.883  30.506  1.00  0.00    -0.460 OA
BRANCH   8   9
ATOM      9  C   UNL A   1      36.747  30.602  30.728  1.00  0.00     0.338 C 
ATOM     10  O   UNL A   1      35.947  29.843  31.277  1.00  0.00    -0.246 OA
BRANCH   9  11
ATOM     11  C   UNL A   1      38.059  30.021  30.294  1.00  0.00     0.060 A 
ATOM     12  C   UNL A   1      39.111  29.628  31.128  1.00  0.00     0.016 A 
ATOM     13  C   UNL A   1      38.205  29.798  28.914  1.00  0.00     0.016 A 
ATOM     14  C   UNL A   1      40.285  29.082  30.623  1.00  0.00     0.010 A 
ATOM     15  C   UNL A   1      39.380  29.253  28.391  1.00  0.00     0.010 A 
ATOM     16  C   UNL A   1      40.433  28.927  29.252  1.00  0.00    -0.014 A 
BRANCH  16  17
ATOM     17  C   UNL A   1      41.777  28.655  28.721  1.00  0.00     0.031 A 
ATOM     18  C   UNL A   1      42.043  27.269  28.226  1.00  0.00     0.074 A 
ATOM     19  C   UNL A   1      42.685  29.636  28.609  1.00  0.00     0.049 A 
ATOM     20  N   UNL A   1      43.166  26.713  27.871  1.00  0.00    -0.248 NA
ATOM     21  C   UNL A   1      40.866  26.387  28.113  1.00  0.00     0.031 C 
ATOM     22  C   UNL A   1      42.450  31.043  28.928  1.00  0.00     0.029 A 
ATOM     23  N   UNL A   1      43.987  29.592  28.195  1.00  0.00    -0.354 N 
ATOM     24  C   UNL A   1      42.841  25.403  27.545  1.00  0.00     0.074 A 
ATOM     25  C   UNL A   1      41.417  25.251  27.724  1.00  0.00     0.031 C 
ATOM     26  C   UNL A   1      43.586  31.730  28.717  1.00  0.00     0.029 A 
ATOM     27  C   UNL A   1      44.634  30.796  28.316  1.00  0.00     0.049 A 
ATOM     28  H   UNL A   1      44.417  28.778  27.845  1.00  0.00     0.167 HD
ATOM     29  C   UNL A   1      43.677  24.414  27.160  1.00  0.00     0.037 A 
ATOM     30  C   UNL A   1      45.942  31.081  28.177  1.00  0.00     0.037 A 
ATOM     31  C   UNL A   1      45.091  24.610  27.003  1.00  0.00     0.049 A 
ATOM     32  C   UNL A   1      46.875  29.954  27.823  1.00  0.00     0.074 A 
ATOM     33  C   UNL A   1      46.068  23.689  26.683  1.00  0.00     0.029 A 
ATOM     34  N   UNL A   1      45.723  25.838  27.162  1.00  0.00    -0.354 N 
ATOM     35  N   UNL A   1      46.592  28.691  27.599  1.00  0.00    -0.248 NA
ATOM     36  C   UNL A   1      48.303  30.277  27.723  1.00  0.00     0.031 C 
ATOM     37  C   UNL A   1      47.299  24.355  26.686  1.00  0.00     0.029 A 
ATOM     38  C   UNL A   1      47.082  25.699  26.962  1.00  0.00     0.049 A 
ATOM     39  H   UNL A   1      45.269  26.683  27.384  1.00  0.00     0.167 HD
ATOM     40  C   UNL A   1      47.799  28.067  27.323  1.00  0.00     0.074 A 
ATOM     41  C   UNL A   1      48.819  29.098  27.397  1.00  0.00     0.031 C 
ATOM     42  C   UNL A   1      48.051  26.765  27.038  1.00  0.00     0.037 A 
BRANCH  29  43
ATOM     43  C   UNL A   1      43.074  23.050  27.000  1.00  0.00     0.057 A 
ATOM     44  C   UNL A   1      42.756  22.512  25.746  1.00  0.00     0.134 A 
ATOM     45  C   UNL A   1      42.714  22.306  28.131  1.00  0.00     0.134 A 
ATOM     46  F   UNL A   1      43.037  23.191  24.623  1.00  0.00    -0.206 F 
ATOM     47  C   UNL A   1      42.066  21.303  25.624  1.00  0.00     0.040 A 
ATOM     48  C   UNL A   1      42.046  21.086  28.021  1.00  0.00     0.040 A 
ATOM     49  F   UNL A   1      42.978  22.769  29.362  1.00  0.00    -0.206 F 
ATOM     50  C   UNL A   1      41.708  20.588  26.766  1.00  0.00     0.006 A 
ENDBRANCH  29  43
BRANCH  30  51
ATOM     51  C   UNL A   1      46.427  32.459  28.444  1.00  0.00     0.057 A 
ATOM     52  C   UNL A   1      46.455  33.433  27.443  1.00  0.00     0.134 A 
ATOM     53  C   UNL A   1      46.828  32.849  29.730  1.00  0.00     0.134 A 
ATOM     54  F   UNL A   1      46.103  33.122  26.188  1.00  0.00    -0.206 F 
ATOM     55  C   UNL A   1      46.858  34.746  27.709  1.00  0.00     0.040 A 
ATOM     56  C   UNL A   1      47.209  34.161  30.016  1.00  0.00     0.040 A 
ATOM     57  F   UNL A   1      46.824  31.964  30.738  1.00  0.00    -0.206 F 
ATOM     58  C   UNL A   1      47.226  35.114  29.003  1.00  0.00     0.006 A 
ENDBRANCH  30  51
BRANCH  42  59
ATOM     59  C   UNL A   1      49.473  26.394  26.757  1.00  0.00     0.057 A 
ATOM     60  C   UNL A   1      50.319  25.922  27.765  1.00  0.00     0.134 A 
ATOM     61  C   UNL A   1      49.960  26.411  25.445  1.00  0.00     0.134 A 
ATOM     62  F   UNL A   1      49.907  25.891  29.041  1.00  0.00    -0.206 F 
ATOM     63  C   UNL A   1      51.610  25.481  27.477  1.00  0.00     0.040 A 
ATOM     64  C   UNL A   1      51.241  25.955  25.141  1.00  0.00     0.040 A 
ATOM     65  F   UNL A   1      49.187  26.844  24.437  1.00  0.00    -0.206 F 
ATOM     66  C   UNL A   1      52.069  25.486  26.159  1.00  0.00     0.006 A 
ENDBRANCH  42  59
ENDBRANCH  16  17
ENDBRANCH   9  11
ENDBRANCH   8   9
ENDBRANCH   7   8
ENDBRANCH   6   7
ENDBRANCH   5   6
ENDBRANCH   4   5
ENDBRANCH   3   4
ENDBRANCH   2   3
ENDBRANCH   1   2
BRANCH   1  67
ATOM     67  C   UNL A   1      34.015  28.331  26.471  1.00  0.00     0.188 C 
BRANCH  67  68
ATOM     68  O   UNL A   1      33.730  28.139  25.091  1.00  0.00    -0.376 OA
BRANCH  68  69
ATOM     69  C   UNL A   1      33.891  26.812  24.603  1.00  0.00     0.202 C 
BRANCH  69  70
ATOM     70  C   UNL A   1      34.366  25.714  25.584  1.00  0.00     0.261 C 
BRANCH  70  71
ATOM     71  O   UNL A   1      34.797  24.497  24.961  1.00  0.00    -0.463 OA
BRANCH  71  72
ATOM     72  C   UNL A   1      34.064  24.015  23.925  1.00  0.00     0.310 C 
ATOM     73  O   UNL A   1      34.280  24.260  22.745  1.00  0.00    -0.252 OA
BRANCH  72  74
ATOM     74  C   UNL A   1      33.095  22.956  24.407  1.00  0.00     0.119 C 
ATOM     75  C   UNL A   1      33.041  22.853  25.948  1.00  0.00     0.100 C 
ATOM     76  C   UNL A   1      33.368  21.496  23.975  1.00  0.00     0.027 C 
ATOM     77  C   UNL A   1      33.226  21.331  26.195  1.00  0.00     0.025 C 
ATOM     78  C   UNL A   1      34.727  21.073  24.474  1.00  0.00    -0.027 C 
ATOM     79  C   UNL A   1      32.506  20.726  24.984  1.00  0.00     0.017 C 
ATOM     80  C   UNL A   1      34.645  20.978  25.809  1.00  0.00    -0.027 C 
BRANCH  75  81
ATOM     81  C   UNL A   1      31.676  23.248  26.492  1.00  0.00     0.227 C 
ATOM     82  O   UNL A   1      31.274  22.931  27.613  1.00  0.00    -0.275 OA
ATOM     83  N   UNL A   1      31.031  24.185  25.727  1.00  0.00    -0.331 N 
ATOM     84  C   UNL A   1      30.393  25.316  26.380  1.00  0.00     0.181 C 
ATOM     85  C   UNL A   1      30.682  23.948  24.331  1.00  0.00     0.181 C 
ATOM     86  C   UNL A   1      30.533  26.581  25.515  1.00  0.00     0.284 C 
ATOM     87  C   UNL A   1      30.803  25.233  23.500  1.00  0.00     0.284 C 
ATOM     88  N   UNL A   1      30.176  26.429  24.089  1.00  0.00    -0.329 N 
ATOM     89  H   UNL A   1      30.584  27.223  23.596  1.00  0.00     0.348 HD
BRANCH  88  90
ATOM     90  C   UNL A   1      28.747  26.591  23.809  1.00  0.00     0.291 C 
BRANCH  90  91
ATOM     91  C   UNL A   1      28.326  27.903  23.216  1.00  0.00     0.034 C 
ATOM     92  C   UNL A   1      29.171  28.903  22.921  1.00  0.00     0.009 C 
BRANCH  92  93
ATOM     93  C   UNL A   1      28.719  30.239  22.517  1.00  0.00    -0.026 A 
ATOM     94  C   UNL A   1      28.358  30.474  21.187  1.00  0.00     0.008 A 
ATOM     95  C   UNL A   1      28.750  31.318  23.413  1.00  0.00     0.008 A 
ATOM     96  C   UNL A   1      28.024  31.762  20.765  1.00  0.00     0.001 A 
ATOM     97  C   UNL A   1      28.429  32.608  22.987  1.00  0.00     0.001 A 
ATOM     98  C   UNL A   1      28.067  32.829  21.662  1.00  0.00     0.000 A 
ENDBRANCH  92  93
ENDBRANCH  90  91
ENDBRANCH  88  90
ENDBRANCH  75  81
ENDBRANCH  72  74
ENDBRANCH  71  72
ENDBRANCH  70  71
ENDBRANCH  69  70
ENDBRANCH  68  69
ENDBRANCH  67  68
ENDBRANCH   1  67
TORSDOF 24
ENDMDL
MODEL 3
REMARK VINA RESULT:     -10.0      1.451      5.967
REMARK SMILES O=C(OCCOCCOCCOCCOC(=O)[C@@H]1[C@@H](C(=O)N2CC[NH+](C/C=C/c3ccccc3)CC2)[C@@H]2C=C[C@H]1C2)c1ccc(-c2c3nc(c(-c4c(F)cccc4F)c4ccc([nH]4)c(-c4c(F)cccc4F)c4nc(c(-c5c(F)cccc5F)c5ccc2[nH]5)C=C4)C=C3)cc1
REMARK SMILES IDX 10 1 9 2 8 3 7 4 6 5 5 6 4 7 3 8 2 9 1 10 42 11 43 12 95 13
REMARK SMILES IDX 44 14 94 15 45 16 46 17 47 18 88 19 48 20 93 21 87 22 89 23
REMARK SMILES IDX 49 24 92 25 86 26 85 27 50 29 76 30 59 31 75 32 60 33 63 34
REMARK SMILES IDX 74 35 90 36 61 37 62 38 73 40 91 41 64 42 51 43 52 44 57 45
REMARK SMILES IDX 53 46 54 47 56 48 58 49 55 50 77 51 78 52 83 53 79 54 80 55
REMARK SMILES IDX 82 56 84 57 81 58 65 59 66 60 71 61 67 62 68 63 70 64 72 65
REMARK SMILES IDX 69 66 11 67 12 68 13 69 14 70 15 71 16 72 17 73 18 74 19 75
REMARK SMILES IDX 40 76 37 77 39 78 41 79 38 80 20 81 21 82 22 83 23 84 36 85
REMARK SMILES IDX 24 86 35 87 25 88 26 90 27 91 28 92 29 93 30 94 34 95 31 96
REMARK SMILES IDX 33 97 32 98
REMARK H PARENT 89 28 63 39 25 89
REMARK Flexibility Score: inf
ROOT
ATOM      1  C   UNL A   1      32.273  26.786  26.856  1.00  0.00     0.188 C 
ENDROOT
BRANCH   1   2
ATOM      2  O   UNL A   1      32.060  27.866  25.949  1.00  0.00    -0.377 OA
BRANCH   2   3
ATOM      3  C   UNL A   1      33.128  28.802  25.769  1.00  0.00     0.188 C 
BRANCH   3   4
ATOM      4  C   UNL A   1      32.947  30.103  26.546  1.00  0.00     0.188 C 
BRANCH   4   5
ATOM      5  O   UNL A   1      31.840  30.831  26.014  1.00  0.00    -0.376 OA
BRANCH   5   6
ATOM      6  C   UNL A   1      31.322  31.854  26.864  1.00  0.00     0.202 C 
BRANCH   6   7
ATOM      7  C   UNL A   1      31.958  33.213  26.603  1.00  0.00     0.261 C 
BRANCH   7   8
ATOM      8  O   UNL A   1      32.398  33.830  27.820  1.00  0.00    -0.460 OA
BRANCH   8   9
ATOM      9  C   UNL A   1      33.663  34.201  28.139  1.00  0.00     0.338 C 
ATOM     10  O   UNL A   1      33.939  35.400  28.113  1.00  0.00    -0.246 OA
BRANCH   9  11
ATOM     11  C   UNL A   1      34.737  33.256  28.588  1.00  0.00     0.060 A 
ATOM     12  C   UNL A   1      34.558  31.935  29.014  1.00  0.00     0.016 A 
ATOM     13  C   UNL A   1      36.054  33.740  28.505  1.00  0.00     0.016 A 
ATOM     14  C   UNL A   1      35.628  31.135  29.394  1.00  0.00     0.010 A 
ATOM     15  C   UNL A   1      37.139  32.948  28.887  1.00  0.00     0.010 A 
ATOM     16  C   UNL A   1      36.915  31.652  29.364  1.00  0.00    -0.014 A 
BRANCH  16  17
ATOM     17  C   UNL A   1      37.980  30.916  30.061  1.00  0.00     0.031 A 
ATOM     18  C   UNL A   1      38.145  31.185  31.523  1.00  0.00     0.074 A 
ATOM     19  C   UNL A   1      38.704  29.984  29.424  1.00  0.00     0.049 A 
ATOM     20  N   UNL A   1      39.093  30.814  32.335  1.00  0.00    -0.248 NA
ATOM     21  C   UNL A   1      37.081  31.986  32.156  1.00  0.00     0.031 C 
ATOM     22  C   UNL A   1      38.500  29.558  28.040  1.00  0.00     0.029 A 
ATOM     23  N   UNL A   1      39.757  29.230  29.862  1.00  0.00    -0.354 N 
ATOM     24  C   UNL A   1      38.770  31.380  33.561  1.00  0.00     0.074 A 
ATOM     25  C   UNL A   1      37.530  32.102  33.393  1.00  0.00     0.031 C 
ATOM     26  C   UNL A   1      39.420  28.628  27.734  1.00  0.00     0.029 A 
ATOM     27  C   UNL A   1      40.310  28.450  28.877  1.00  0.00     0.049 A 
ATOM     28  H   UNL A   1      40.086  29.246  30.790  1.00  0.00     0.167 HD
ATOM     29  C   UNL A   1      39.473  31.320  34.713  1.00  0.00     0.037 A 
ATOM     30  C   UNL A   1      41.446  27.729  28.897  1.00  0.00     0.037 A 
ATOM     31  C   UNL A   1      40.707  30.595  34.832  1.00  0.00     0.049 A 
ATOM     32  C   UNL A   1      42.262  27.732  30.162  1.00  0.00     0.074 A 
ATOM     33  C   UNL A   1      41.560  30.498  35.912  1.00  0.00     0.029 A 
ATOM     34  N   UNL A   1      41.258  29.836  33.806  1.00  0.00    -0.354 N 
ATOM     35  N   UNL A   1      42.011  28.336  31.301  1.00  0.00    -0.248 NA
ATOM     36  C   UNL A   1      43.521  26.978  30.146  1.00  0.00     0.031 C 
ATOM     37  C   UNL A   1      42.649  29.709  35.525  1.00  0.00     0.029 A 
ATOM     38  C   UNL A   1      42.452  29.278  34.220  1.00  0.00     0.049 A 
ATOM     39  H   UNL A   1      40.858  29.715  32.914  1.00  0.00     0.167 HD
ATOM     40  C   UNL A   1      43.072  28.032  32.142  1.00  0.00     0.074 A 
ATOM     41  C   UNL A   1      43.965  27.177  31.381  1.00  0.00     0.031 C 
ATOM     42  C   UNL A   1      43.296  28.422  33.421  1.00  0.00     0.037 A 
BRANCH  29  43
ATOM     43  C   UNL A   1      38.958  32.141  35.857  1.00  0.00     0.057 A 
ATOM     44  C   UNL A   1      39.321  33.482  36.042  1.00  0.00     0.134 A 
ATOM     45  C   UNL A   1      38.163  31.546  36.845  1.00  0.00     0.134 A 
ATOM     46  F   UNL A   1      40.114  34.101  35.154  1.00  0.00    -0.206 F 
ATOM     47  C   UNL A   1      38.947  34.188  37.188  1.00  0.00     0.040 A 
ATOM     48  C   UNL A   1      37.763  32.248  37.983  1.00  0.00     0.040 A 
ATOM     49  F   UNL A   1      37.790  30.262  36.737  1.00  0.00    -0.206 F 
ATOM     50  C   UNL A   1      38.166  33.569  38.164  1.00  0.00     0.006 A 
ENDBRANCH  29  43
BRANCH  30  51
ATOM     51  C   UNL A   1      41.891  27.025  27.668  1.00  0.00     0.057 A 
ATOM     52  C   UNL A   1      41.465  25.727  27.371  1.00  0.00     0.134 A 
ATOM     53  C   UNL A   1      42.718  27.658  26.729  1.00  0.00     0.134 A 
ATOM     54  F   UNL A   1      40.689  25.058  28.235  1.00  0.00    -0.206 F 
ATOM     55  C   UNL A   1      41.839  25.086  26.186  1.00  0.00     0.040 A 
ATOM     56  C   UNL A   1      43.079  27.041  25.530  1.00  0.00     0.040 A 
ATOM     57  F   UNL A   1      43.162  28.905  26.950  1.00  0.00    -0.206 F 
ATOM     58  C   UNL A   1      42.639  25.749  25.256  1.00  0.00     0.006 A 
ENDBRANCH  30  51
BRANCH  42  59
ATOM     59  C   UNL A   1      44.534  27.904  34.083  1.00  0.00     0.057 A 
ATOM     60  C   UNL A   1      45.723  28.639  34.088  1.00  0.00     0.134 A 
ATOM     61  C   UNL A   1      44.497  26.707  34.808  1.00  0.00     0.134 A 
ATOM     62  F   UNL A   1      45.816  29.789  33.404  1.00  0.00    -0.206 F 
ATOM     63  C   UNL A   1      46.842  28.197  34.794  1.00  0.00     0.040 A 
ATOM     64  C   UNL A   1      45.602  26.265  35.533  1.00  0.00     0.040 A 
ATOM     65  F   UNL A   1      43.378  25.967  34.846  1.00  0.00    -0.206 F 
ATOM     66  C   UNL A   1      46.778  27.012  35.528  1.00  0.00     0.006 A 
ENDBRANCH  42  59
ENDBRANCH  16  17
ENDBRANCH   9  11
ENDBRANCH   8   9
ENDBRANCH   7   8
ENDBRANCH   6   7
ENDBRANCH   5   6
ENDBRANCH   4   5
ENDBRANCH   3   4
ENDBRANCH   2   3
ENDBRANCH   1   2
BRANCH   1  67
ATOM     67  C   UNL A   1      32.878  25.488  26.294  1.00  0.00     0.188 C 
BRANCH  67  68
ATOM     68  O   UNL A   1      34.291  25.433  26.442  1.00  0.00    -0.376 OA
BRANCH  68  69
ATOM     69  C   UNL A   1      35.016  24.959  25.312  1.00  0.00     0.202 C 
BRANCH  69  70
ATOM     70  C   UNL A   1      36.324  24.170  25.547  1.00  0.00     0.261 C 
BRANCH  70  71
ATOM     71  O   UNL A   1      36.333  22.842  25.006  1.00  0.00    -0.463 OA
BRANCH  71  72
ATOM     72  C   UNL A   1      35.827  22.657  23.760  1.00  0.00     0.310 C 
ATOM     73  O   UNL A   1      36.358  23.045  22.727  1.00  0.00    -0.252 OA
BRANCH  72  74
ATOM     74  C   UNL A   1      34.644  21.713  23.802  1.00  0.00     0.119 C 
ATOM     75  C   UNL A   1      33.392  22.350  24.445  1.00  0.00     0.100 C 
ATOM     76  C   UNL A   1      34.813  20.402  24.606  1.00  0.00     0.027 C 
ATOM     77  C   UNL A   1      32.967  21.287  25.493  1.00  0.00     0.025 C 
ATOM     78  C   UNL A   1      35.129  20.734  26.043  1.00  0.00    -0.027 C 
ATOM     79  C   UNL A   1      33.349  19.980  24.789  1.00  0.00     0.017 C 
ATOM     80  C   UNL A   1      34.023  21.271  26.577  1.00  0.00    -0.027 C 
BRANCH  75  81
ATOM     81  C   UNL A   1      32.256  22.494  23.443  1.00  0.00     0.227 C 
ATOM     82  O   UNL A   1      31.568  21.548  23.057  1.00  0.00    -0.275 OA
ATOM     83  N   UNL A   1      31.908  23.795  23.191  1.00  0.00    -0.331 N 
ATOM     84  C   UNL A   1      30.502  24.162  23.169  1.00  0.00     0.181 C 
ATOM     85  C   UNL A   1      32.850  24.762  22.638  1.00  0.00     0.181 C 
ATOM     86  C   UNL A   1      30.308  25.573  23.753  1.00  0.00     0.284 C 
ATOM     87  C   UNL A   1      32.613  26.165  23.216  1.00  0.00     0.284 C 
ATOM     88  N   UNL A   1      31.211  26.617  23.226  1.00  0.00    -0.329 N 
ATOM     89  H   UNL A   1      31.179  27.395  23.885  1.00  0.00     0.348 HD
BRANCH  88  90
ATOM     90  C   UNL A   1      30.745  27.242  21.985  1.00  0.00     0.291 C 
BRANCH  90  91
ATOM     91  C   UNL A   1      30.354  28.687  22.070  1.00  0.00     0.034 C 
ATOM     92  C   UNL A   1      29.135  29.120  22.426  1.00  0.00     0.009 C 
BRANCH  92  93
ATOM     93  C   UNL A   1      28.721  30.524  22.324  1.00  0.00    -0.026 A 
ATOM     94  C   UNL A   1      28.192  31.003  21.123  1.00  0.00     0.008 A 
ATOM     95  C   UNL A   1      28.951  31.427  23.373  1.00  0.00     0.008 A 
ATOM     96  C   UNL A   1      27.890  32.358  20.976  1.00  0.00     0.001 A 
ATOM     97  C   UNL A   1      28.660  32.784  23.222  1.00  0.00     0.001 A 
ATOM     98  C   UNL A   1      28.130  33.249  22.022  1.00  0.00     0.000 A 
ENDBRANCH  92  93
ENDBRANCH  90  91
ENDBRANCH  88  90
ENDBRANCH  75  81
ENDBRANCH  72  74
ENDBRANCH  71  72
ENDBRANCH  70  71
ENDBRANCH  69  70
ENDBRANCH  68  69
ENDBRANCH  67  68
ENDBRANCH   1  67
TORSDOF 24
ENDMDL
