MODEL 1
REMARK VINA RESULT:     -10.3      0.000      0.000
REMARK SMILES COc1ccc(-c2ccc(CCC(=O)OCCOCCOCCOCCOC(=O)c3ccc(-c4c5nc(c(-c6c(F)cccc6F)c6ccc([nH]6)c(-c6c(F)cccc6F)c6nc(c(-c7c(F)cccc7F)c7ccc4[nH]7)C=C6)C=C5)cc3)n2-c2ccc(C(C)=O)cc2)cc1
REMARK SMILES IDX 20 1 19 2 18 3 17 4 16 5 15 6 13 7 14 8 12 9 11 10 10 11
REMARK SMILES IDX 7 12 8 13 84 14 9 15 6 16 3 17 4 18 95 19 5 20 94 21 2 22
REMARK SMILES IDX 1 23 85 24 86 25 93 26 87 27 92 28 88 29 89 30 90 31 91 32
REMARK SMILES IDX 21 33 22 34 23 35 24 36 25 37 26 38 27 39 28 40 29 41 30 42
REMARK SMILES IDX 31 43 83 44 32 45 82 46 33 47 34 48 35 49 76 50 36 51 81 52
REMARK SMILES IDX 75 53 77 54 37 55 80 56 74 57 73 58 38 60 64 61 47 62 63 63
REMARK SMILES IDX 48 64 51 65 62 66 78 67 49 68 50 69 61 71 79 72 52 73 39 74
REMARK SMILES IDX 40 75 45 76 41 77 42 78 44 79 46 80 43 81 65 82 66 83 71 84
REMARK SMILES IDX 67 85 68 86 70 87 72 88 69 89 53 90 54 91 59 92 55 93 56 94
REMARK SMILES IDX 58 95 60 96 57 97
REMARK H PARENT 77 59 51 70
REMARK Flexibility Score: inf
ROOT
ATOM      1  C   UNL A   1      34.284  31.788  28.596  1.00  0.00     0.188 C 
ENDROOT
BRANCH   1   2
ATOM      2  C   UNL A   1      33.943  31.135  27.252  1.00  0.00     0.188 C 
BRANCH   2   3
ATOM      3  O   UNL A   1      32.676  30.480  27.271  1.00  0.00    -0.376 OA
BRANCH   3   4
ATOM      4  C   UNL A   1      31.816  30.820  26.192  1.00  0.00     0.202 C 
BRANCH   4   5
ATOM      5  C   UNL A   1      31.746  29.720  25.133  1.00  0.00     0.261 C 
BRANCH   5   6
ATOM      6  O   UNL A   1      31.917  28.378  25.616  1.00  0.00    -0.463 OA
BRANCH   6   7
ATOM      7  C   UNL A   1      32.921  27.630  25.114  1.00  0.00     0.306 C 
ATOM      8  O   UNL A   1      33.846  27.191  25.784  1.00  0.00    -0.252 OA
BRANCH   7   9
ATOM      9  C   UNL A   1      32.858  27.512  23.601  1.00  0.00     0.129 C 
BRANCH   9  10
ATOM     10  C   UNL A   1      33.287  26.206  22.920  1.00  0.00     0.066 C 
BRANCH  10  11
ATOM     11  C   UNL A   1      32.443  24.992  23.246  1.00  0.00     0.024 A 
ATOM     12  C   UNL A   1      31.995  22.806  23.637  1.00  0.00     0.053 A 
ATOM     13  C   UNL A   1      30.804  23.435  23.336  1.00  0.00     0.029 A 
ATOM     14  N   UNL A   1      32.965  23.799  23.743  1.00  0.00    -0.314 N 
ATOM     15  C   UNL A   1      31.075  24.801  23.139  1.00  0.00     0.024 A 
BRANCH  12  16
ATOM     16  C   UNL A   1      32.195  21.384  23.887  1.00  0.00    -0.001 A 
ATOM     17  C   UNL A   1      32.676  18.660  24.279  1.00  0.00     0.118 A 
ATOM     18  C   UNL A   1      32.606  19.521  25.375  1.00  0.00     0.047 A 
ATOM     19  C   UNL A   1      32.434  19.143  22.994  1.00  0.00     0.047 A 
ATOM     20  C   UNL A   1      32.371  20.884  25.180  1.00  0.00     0.014 A 
ATOM     21  C   UNL A   1      32.195  20.502  22.801  1.00  0.00     0.014 A 
BRANCH  17  22
ATOM     22  O   UNL A   1      32.952  17.348  24.550  1.00  0.00    -0.497 OA
ATOM     23  C   UNL A   1      33.668  16.702  23.498  1.00  0.00     0.278 C 
ENDBRANCH  17  22
ENDBRANCH  12  16
BRANCH  14  24
ATOM     24  C   UNL A   1      34.261  23.649  24.296  1.00  0.00     0.046 A 
ATOM     25  C   UNL A   1      35.335  23.395  23.434  1.00  0.00     0.027 A 
ATOM     26  C   UNL A   1      34.457  23.733  25.671  1.00  0.00     0.027 A 
ATOM     27  C   UNL A   1      36.617  23.200  23.956  1.00  0.00     0.014 A 
ATOM     28  C   UNL A   1      35.736  23.513  26.188  1.00  0.00     0.014 A 
ATOM     29  C   UNL A   1      36.825  23.239  25.339  1.00  0.00     0.017 A 
BRANCH  29  30
ATOM     30  C   UNL A   1      38.152  22.978  25.979  1.00  0.00     0.159 C 
ATOM     31  C   UNL A   1      39.007  24.107  26.498  1.00  0.00     0.093 C 
ATOM     32  O   UNL A   1      38.542  21.815  26.094  1.00  0.00    -0.295 OA
ENDBRANCH  29  30
ENDBRANCH  14  24
ENDBRANCH  10  11
ENDBRANCH   9  10
ENDBRANCH   7   9
ENDBRANCH   6   7
ENDBRANCH   5   6
ENDBRANCH   4   5
ENDBRANCH   3   4
ENDBRANCH   2   3
ENDBRANCH   1   2
BRANCH   1  33
ATOM     33  O   UNL A   1      34.407  33.190  28.786  1.00  0.00    -0.377 OA
BRANCH  33  34
ATOM     34  C   UNL A   1      33.400  34.033  28.260  1.00  0.00     0.188 C 
BRANCH  34  35
ATOM     35  C   UNL A   1      33.600  35.512  28.625  1.00  0.00     0.188 C 
BRANCH  35  36
ATOM     36  O   UNL A   1      32.536  36.065  29.403  1.00  0.00    -0.376 OA
BRANCH  36  37
ATOM     37  C   UNL A   1      32.883  36.640  30.658  1.00  0.00     0.202 C 
BRANCH  37  38
ATOM     38  C   UNL A   1      32.753  35.715  31.882  1.00  0.00     0.261 C 
BRANCH  38  39
ATOM     39  O   UNL A   1      33.889  34.886  32.138  1.00  0.00    -0.460 OA
BRANCH  39  40
ATOM     40  C   UNL A   1      34.481  35.118  33.317  1.00  0.00     0.338 C 
ATOM     41  O   UNL A   1      34.429  36.127  34.000  1.00  0.00    -0.246 OA
BRANCH  40  42
ATOM     42  C   UNL A   1      35.280  33.970  33.725  1.00  0.00     0.060 A 
ATOM     43  C   UNL A   1      36.166  34.204  34.784  1.00  0.00     0.016 A 
ATOM     44  C   UNL A   1      35.506  33.005  32.742  1.00  0.00     0.016 A 
ATOM     45  C   UNL A   1      37.428  33.660  34.709  1.00  0.00     0.010 A 
ATOM     46  C   UNL A   1      36.780  32.494  32.645  1.00  0.00     0.010 A 
ATOM     47  C   UNL A   1      37.751  32.916  33.570  1.00  0.00    -0.014 A 
BRANCH  47  48
ATOM     48  C   UNL A   1      39.169  32.691  33.258  1.00  0.00     0.031 A 
ATOM     49  C   UNL A   1      39.804  31.616  34.104  1.00  0.00     0.074 A 
ATOM     50  C   UNL A   1      39.661  33.448  32.234  1.00  0.00     0.049 A 
ATOM     51  N   UNL A   1      41.041  31.240  34.166  1.00  0.00    -0.248 NA
ATOM     52  C   UNL A   1      38.933  30.842  35.029  1.00  0.00     0.031 C 
ATOM     53  C   UNL A   1      38.877  34.476  31.520  1.00  0.00     0.029 A 
ATOM     54  N   UNL A   1      40.875  33.523  31.583  1.00  0.00    -0.354 N 
ATOM     55  C   UNL A   1      41.061  30.079  34.947  1.00  0.00     0.074 A 
ATOM     56  C   UNL A   1      39.763  29.932  35.532  1.00  0.00     0.031 C 
ATOM     57  C   UNL A   1      39.635  35.104  30.604  1.00  0.00     0.029 A 
ATOM     58  C   UNL A   1      40.966  34.537  30.595  1.00  0.00     0.049 A 
ATOM     59  H   UNL A   1      41.623  32.918  31.789  1.00  0.00     0.167 HD
ATOM     60  C   UNL A   1      42.106  29.213  34.978  1.00  0.00     0.037 A 
ATOM     61  C   UNL A   1      42.036  34.909  29.828  1.00  0.00     0.037 A 
ATOM     62  C   UNL A   1      43.227  29.688  34.240  1.00  0.00     0.049 A 
ATOM     63  C   UNL A   1      43.062  33.871  30.051  1.00  0.00     0.074 A 
ATOM     64  C   UNL A   1      44.222  30.587  34.526  1.00  0.00     0.029 A 
ATOM     65  N   UNL A   1      43.265  29.416  32.896  1.00  0.00    -0.354 N 
ATOM     66  N   UNL A   1      42.983  32.649  29.606  1.00  0.00    -0.248 NA
ATOM     67  C   UNL A   1      44.216  34.168  30.904  1.00  0.00     0.031 C 
ATOM     68  C   UNL A   1      44.668  31.067  33.273  1.00  0.00     0.029 A 
ATOM     69  C   UNL A   1      43.927  30.448  32.263  1.00  0.00     0.049 A 
ATOM     70  H   UNL A   1      42.885  28.621  32.457  1.00  0.00     0.167 HD
ATOM     71  C   UNL A   1      43.880  31.967  30.398  1.00  0.00     0.074 A 
ATOM     72  C   UNL A   1      44.772  32.961  30.951  1.00  0.00     0.031 C 
ATOM     73  C   UNL A   1      43.559  30.744  30.894  1.00  0.00     0.037 A 
BRANCH  60  74
ATOM     74  C   UNL A   1      42.123  27.835  35.541  1.00  0.00     0.057 A 
ATOM     75  C   UNL A   1      42.972  27.539  36.620  1.00  0.00     0.134 A 
ATOM     76  C   UNL A   1      41.524  26.742  34.898  1.00  0.00     0.134 A 
ATOM     77  F   UNL A   1      43.582  28.521  37.303  1.00  0.00    -0.206 F 
ATOM     78  C   UNL A   1      43.255  26.227  37.005  1.00  0.00     0.040 A 
ATOM     79  C   UNL A   1      41.773  25.424  35.296  1.00  0.00     0.040 A 
ATOM     80  F   UNL A   1      40.741  26.915  33.823  1.00  0.00    -0.206 F 
ATOM     81  C   UNL A   1      42.660  25.163  36.337  1.00  0.00     0.006 A 
ENDBRANCH  60  74
BRANCH  61  82
ATOM     82  C   UNL A   1      42.385  36.062  28.910  1.00  0.00     0.057 A 
ATOM     83  C   UNL A   1      43.329  37.068  29.157  1.00  0.00     0.134 A 
ATOM     84  C   UNL A   1      41.806  36.144  27.615  1.00  0.00     0.134 A 
ATOM     85  F   UNL A   1      43.921  37.214  30.343  1.00  0.00    -0.206 F 
ATOM     86  C   UNL A   1      43.727  38.007  28.184  1.00  0.00     0.040 A 
ATOM     87  C   UNL A   1      42.214  37.052  26.627  1.00  0.00     0.040 A 
ATOM     88  F   UNL A   1      40.815  35.328  27.232  1.00  0.00    -0.206 F 
ATOM     89  C   UNL A   1      43.195  37.983  26.905  1.00  0.00     0.006 A 
ENDBRANCH  61  82
BRANCH  73  90
ATOM     90  C   UNL A   1      42.479  30.042  30.100  1.00  0.00     0.057 A 
ATOM     91  C   UNL A   1      42.775  29.470  28.857  1.00  0.00     0.134 A 
ATOM     92  C   UNL A   1      41.126  30.034  30.472  1.00  0.00     0.134 A 
ATOM     93  F   UNL A   1      44.041  29.434  28.414  1.00  0.00    -0.206 F 
ATOM     94  C   UNL A   1      41.778  28.930  28.033  1.00  0.00     0.040 A 
ATOM     95  C   UNL A   1      40.121  29.488  29.669  1.00  0.00     0.040 A 
ATOM     96  F   UNL A   1      40.735  30.556  31.634  1.00  0.00    -0.206 F 
ATOM     97  C   UNL A   1      40.445  28.939  28.437  1.00  0.00     0.006 A 
ENDBRANCH  73  90
ENDBRANCH  47  48
ENDBRANCH  40  42
ENDBRANCH  39  40
ENDBRANCH  38  39
ENDBRANCH  37  38
ENDBRANCH  36  37
ENDBRANCH  35  36
ENDBRANCH  34  35
ENDBRANCH  33  34
ENDBRANCH   1  33
TORSDOF 26
ENDMDL
MODEL 2
REMARK VINA RESULT:     -10.0      2.802      5.659
REMARK SMILES COc1ccc(-c2ccc(CCC(=O)OCCOCCOCCOCCOC(=O)c3ccc(-c4c5nc(c(-c6c(F)cccc6F)c6ccc([nH]6)c(-c6c(F)cccc6F)c6nc(c(-c7c(F)cccc7F)c7ccc4[nH]7)C=C6)C=C5)cc3)n2-c2ccc(C(C)=O)cc2)cc1
REMARK SMILES IDX 20 1 19 2 18 3 17 4 16 5 15 6 13 7 14 8 12 9 11 10 10 11
REMARK SMILES IDX 7 12 8 13 84 14 9 15 6 16 3 17 4 18 95 19 5 20 94 21 2 22
REMARK SMILES IDX 1 23 85 24 86 25 93 26 87 27 92 28 88 29 89 30 90 31 91 32
REMARK SMILES IDX 21 33 22 34 23 35 24 36 25 37 26 38 27 39 28 40 29 41 30 42
REMARK SMILES IDX 31 43 83 44 32 45 82 46 33 47 34 48 35 49 76 50 36 51 81 52
REMARK SMILES IDX 75 53 77 54 37 55 80 56 74 57 73 58 38 60 64 61 47 62 63 63
REMARK SMILES IDX 48 64 51 65 62 66 78 67 49 68 50 69 61 71 79 72 52 73 39 74
REMARK SMILES IDX 40 75 45 76 41 77 42 78 44 79 46 80 43 81 65 82 66 83 71 84
REMARK SMILES IDX 67 85 68 86 70 87 72 88 69 89 53 90 54 91 59 92 55 93 56 94
REMARK SMILES IDX 58 95 60 96 57 97
REMARK H PARENT 77 59 51 70
REMARK Flexibility Score: inf
ROOT
ATOM      1  C   UNL A   1      35.265  29.980  27.424  1.00  0.00     0.188 C 
ENDROOT
BRANCH   1   2
ATOM      2  C   UNL A   1      33.998  29.163  27.145  1.00  0.00     0.188 C 
BRANCH   2   3
ATOM      3  O   UNL A   1      33.986  28.610  25.830  1.00  0.00    -0.376 OA
BRANCH   3   4
ATOM      4  C   UNL A   1      33.157  29.300  24.905  1.00  0.00     0.202 C 
BRANCH   4   5
ATOM      5  C   UNL A   1      31.687  28.892  25.021  1.00  0.00     0.261 C 
BRANCH   5   6
ATOM      6  O   UNL A   1      31.279  27.793  24.188  1.00  0.00    -0.463 OA
BRANCH   6   7
ATOM      7  C   UNL A   1      31.447  27.893  22.854  1.00  0.00     0.306 C 
ATOM      8  O   UNL A   1      30.765  28.609  22.132  1.00  0.00    -0.252 OA
BRANCH   7   9
ATOM      9  C   UNL A   1      32.478  26.913  22.323  1.00  0.00     0.129 C 
BRANCH   9  10
ATOM     10  C   UNL A   1      33.138  25.908  23.276  1.00  0.00     0.066 C 
BRANCH  10  11
ATOM     11  C   UNL A   1      32.385  24.609  23.476  1.00  0.00     0.024 A 
ATOM     12  C   UNL A   1      32.101  22.369  23.652  1.00  0.00     0.053 A 
ATOM     13  C   UNL A   1      30.866  22.934  23.400  1.00  0.00     0.029 A 
ATOM     14  N   UNL A   1      32.994  23.416  23.862  1.00  0.00    -0.314 N 
ATOM     15  C   UNL A   1      31.036  24.329  23.338  1.00  0.00     0.024 A 
BRANCH  12  16
ATOM     16  C   UNL A   1      32.405  20.948  23.766  1.00  0.00    -0.001 A 
ATOM     17  C   UNL A   1      32.918  18.221  24.095  1.00  0.00     0.118 A 
ATOM     18  C   UNL A   1      32.435  18.698  22.876  1.00  0.00     0.047 A 
ATOM     19  C   UNL A   1      33.215  19.111  25.126  1.00  0.00     0.047 A 
ATOM     20  C   UNL A   1      32.173  20.060  22.712  1.00  0.00     0.014 A 
ATOM     21  C   UNL A   1      32.958  20.471  24.960  1.00  0.00     0.014 A 
BRANCH  17  22
ATOM     22  O   UNL A   1      33.108  16.869  24.190  1.00  0.00    -0.497 OA
ATOM     23  C   UNL A   1      32.403  16.285  25.284  1.00  0.00     0.278 C 
ENDBRANCH  17  22
ENDBRANCH  12  16
BRANCH  14  24
ATOM     24  C   UNL A   1      34.296  23.309  24.410  1.00  0.00     0.046 A 
ATOM     25  C   UNL A   1      34.458  23.465  25.792  1.00  0.00     0.027 A 
ATOM     26  C   UNL A   1      35.393  23.074  23.587  1.00  0.00     0.027 A 
ATOM     27  C   UNL A   1      35.736  23.409  26.355  1.00  0.00     0.014 A 
ATOM     28  C   UNL A   1      36.669  23.043  24.152  1.00  0.00     0.014 A 
ATOM     29  C   UNL A   1      36.855  23.215  25.537  1.00  0.00     0.017 A 
BRANCH  29  30
ATOM     30  C   UNL A   1      38.260  23.205  26.053  1.00  0.00     0.159 C 
ATOM     31  C   UNL A   1      38.941  24.475  26.495  1.00  0.00     0.093 C 
ATOM     32  O   UNL A   1      38.861  22.132  26.128  1.00  0.00    -0.295 OA
ENDBRANCH  29  30
ENDBRANCH  14  24
ENDBRANCH  10  11
ENDBRANCH   9  10
ENDBRANCH   7   9
ENDBRANCH   6   7
ENDBRANCH   5   6
ENDBRANCH   4   5
ENDBRANCH   3   4
ENDBRANCH   2   3
ENDBRANCH   1   2
BRANCH   1  33
ATOM     33  O   UNL A   1      35.271  31.384  27.636  1.00  0.00    -0.377 OA
BRANCH  33  34
ATOM     34  C   UNL A   1      34.065  32.013  28.026  1.00  0.00     0.188 C 
BRANCH  34  35
ATOM     35  C   UNL A   1      34.280  33.410  28.627  1.00  0.00     0.188 C 
BRANCH  35  36
ATOM     36  O   UNL A   1      33.726  33.570  29.933  1.00  0.00    -0.376 OA
BRANCH  36  37
ATOM     37  C   UNL A   1      33.971  34.807  30.595  1.00  0.00     0.202 C 
BRANCH  37  38
ATOM     38  C   UNL A   1      34.987  34.763  31.751  1.00  0.00     0.261 C 
BRANCH  38  39
ATOM     39  O   UNL A   1      36.063  33.838  31.578  1.00  0.00    -0.460 OA
BRANCH  39  40
ATOM     40  C   UNL A   1      35.946  32.720  32.305  1.00  0.00     0.338 C 
ATOM     41  O   UNL A   1      35.471  32.595  33.422  1.00  0.00    -0.246 OA
BRANCH  40  42
ATOM     42  C   UNL A   1      36.510  31.582  31.592  1.00  0.00     0.060 A 
ATOM     43  C   UNL A   1      36.857  30.486  32.393  1.00  0.00     0.016 A 
ATOM     44  C   UNL A   1      37.145  31.874  30.385  1.00  0.00     0.016 A 
ATOM     45  C   UNL A   1      38.038  29.833  32.124  1.00  0.00     0.010 A 
ATOM     46  C   UNL A   1      38.345  31.247  30.139  1.00  0.00     0.010 A 
ATOM     47  C   UNL A   1      38.825  30.313  31.073  1.00  0.00    -0.014 A 
BRANCH  47  48
ATOM     48  C   UNL A   1      40.243  29.932  31.028  1.00  0.00     0.031 A 
ATOM     49  C   UNL A   1      41.141  30.879  31.784  1.00  0.00     0.074 A 
ATOM     50  C   UNL A   1      40.508  28.772  30.359  1.00  0.00     0.049 A 
ATOM     51  N   UNL A   1      42.433  30.903  31.862  1.00  0.00    -0.248 NA
ATOM     52  C   UNL A   1      40.509  31.973  32.569  1.00  0.00     0.031 C 
ATOM     53  C   UNL A   1      39.480  27.973  29.659  1.00  0.00     0.029 A 
ATOM     54  N   UNL A   1      41.645  28.027  30.125  1.00  0.00    -0.354 N 
ATOM     55  C   UNL A   1      42.750  31.846  32.847  1.00  0.00     0.074 A 
ATOM     56  C   UNL A   1      41.545  32.542  33.180  1.00  0.00     0.031 C 
ATOM     57  C   UNL A   1      40.037  26.919  29.038  1.00  0.00     0.029 A 
ATOM     58  C   UNL A   1      41.461  26.894  29.291  1.00  0.00     0.049 A 
ATOM     59  H   UNL A   1      42.519  28.265  30.508  1.00  0.00     0.167 HD
ATOM     60  C   UNL A   1      43.967  31.927  33.444  1.00  0.00     0.037 A 
ATOM     61  C   UNL A   1      42.386  26.002  28.822  1.00  0.00     0.037 A 
ATOM     62  C   UNL A   1      44.918  31.044  32.860  1.00  0.00     0.049 A 
ATOM     63  C   UNL A   1      43.631  26.300  29.557  1.00  0.00     0.074 A 
ATOM     64  C   UNL A   1      45.690  31.116  31.730  1.00  0.00     0.029 A 
ATOM     65  N   UNL A   1      44.964  29.757  33.333  1.00  0.00    -0.354 N 
ATOM     66  N   UNL A   1      43.817  26.051  30.822  1.00  0.00    -0.248 NA
ATOM     67  C   UNL A   1      44.719  27.010  28.878  1.00  0.00     0.031 C 
ATOM     68  C   UNL A   1      45.964  29.775  31.374  1.00  0.00     0.029 A 
ATOM     69  C   UNL A   1      45.346  28.928  32.297  1.00  0.00     0.049 A 
ATOM     70  H   UNL A   1      44.760  29.472  34.252  1.00  0.00     0.167 HD
ATOM     71  C   UNL A   1      44.878  26.866  31.151  1.00  0.00     0.074 A 
ATOM     72  C   UNL A   1      45.538  27.194  29.909  1.00  0.00     0.031 C 
ATOM     73  C   UNL A   1      44.866  27.563  32.317  1.00  0.00     0.037 A 
BRANCH  60  74
ATOM     74  C   UNL A   1      44.322  32.688  34.674  1.00  0.00     0.057 A 
ATOM     75  C   UNL A   1      43.964  32.176  35.932  1.00  0.00     0.134 A 
ATOM     76  C   UNL A   1      44.774  34.015  34.644  1.00  0.00     0.134 A 
ATOM     77  F   UNL A   1      43.528  30.912  36.060  1.00  0.00    -0.206 F 
ATOM     78  C   UNL A   1      43.999  32.956  37.089  1.00  0.00     0.040 A 
ATOM     79  C   UNL A   1      44.846  34.796  35.802  1.00  0.00     0.040 A 
ATOM     80  F   UNL A   1      45.088  34.614  33.486  1.00  0.00    -0.206 F 
ATOM     81  C   UNL A   1      44.434  34.274  37.025  1.00  0.00     0.006 A 
ENDBRANCH  60  74
BRANCH  61  82
ATOM     82  C   UNL A   1      42.424  24.897  27.786  1.00  0.00     0.057 A 
ATOM     83  C   UNL A   1      42.536  25.060  26.398  1.00  0.00     0.134 A 
ATOM     84  C   UNL A   1      42.447  23.537  28.194  1.00  0.00     0.134 A 
ATOM     85  F   UNL A   1      42.449  26.254  25.811  1.00  0.00    -0.206 F 
ATOM     86  C   UNL A   1      42.742  23.985  25.511  1.00  0.00     0.040 A 
ATOM     87  C   UNL A   1      42.683  22.460  27.327  1.00  0.00     0.040 A 
ATOM     88  F   UNL A   1      42.257  23.179  29.471  1.00  0.00    -0.206 F 
ATOM     89  C   UNL A   1      42.849  22.683  25.975  1.00  0.00     0.006 A 
ENDBRANCH  61  82
BRANCH  73  90
ATOM     90  C   UNL A   1      43.946  26.966  33.359  1.00  0.00     0.057 A 
ATOM     91  C   UNL A   1      44.267  25.749  33.973  1.00  0.00     0.134 A 
ATOM     92  C   UNL A   1      42.687  27.498  33.675  1.00  0.00     0.134 A 
ATOM     93  F   UNL A   1      45.449  25.161  33.730  1.00  0.00    -0.206 F 
ATOM     94  C   UNL A   1      43.380  25.100  34.842  1.00  0.00     0.040 A 
ATOM     95  C   UNL A   1      41.795  26.871  34.551  1.00  0.00     0.040 A 
ATOM     96  F   UNL A   1      42.280  28.651  33.145  1.00  0.00    -0.206 F 
ATOM     97  C   UNL A   1      42.138  25.659  35.133  1.00  0.00     0.006 A 
ENDBRANCH  73  90
ENDBRANCH  47  48
ENDBRANCH  40  42
ENDBRANCH  39  40
ENDBRANCH  38  39
ENDBRANCH  37  38
ENDBRANCH  36  37
ENDBRANCH  35  36
ENDBRANCH  34  35
ENDBRANCH  33  34
ENDBRANCH   1  33
TORSDOF 26
ENDMDL
MODEL 3
REMARK VINA RESULT:      -9.9      1.812      2.632
REMARK SMILES COc1ccc(-c2ccc(CCC(=O)OCCOCCOCCOCCOC(=O)c3ccc(-c4c5nc(c(-c6c(F)cccc6F)c6ccc([nH]6)c(-c6c(F)cccc6F)c6nc(c(-c7c(F)cccc7F)c7ccc4[nH]7)C=C6)C=C5)cc3)n2-c2ccc(C(C)=O)cc2)cc1
REMARK SMILES IDX 20 1 19 2 18 3 17 4 16 5 15 6 13 7 14 8 12 9 11 10 10 11
REMARK SMILES IDX 7 12 8 13 84 14 9 15 6 16 3 17 4 18 95 19 5 20 94 21 2 22
REMARK SMILES IDX 1 23 85 24 86 25 93 26 87 27 92 28 88 29 89 30 90 31 91 32
REMARK SMILES IDX 21 33 22 34 23 35 24 36 25 37 26 38 27 39 28 40 29 41 30 42
REMARK SMILES IDX 31 43 83 44 32 45 82 46 33 47 34 48 35 49 76 50 36 51 81 52
REMARK SMILES IDX 75 53 77 54 37 55 80 56 74 57 73 58 38 60 64 61 47 62 63 63
REMARK SMILES IDX 48 64 51 65 62 66 78 67 49 68 50 69 61 71 79 72 52 73 39 74
REMARK SMILES IDX 40 75 45 76 41 77 42 78 44 79 46 80 43 81 65 82 66 83 71 84
REMARK SMILES IDX 67 85 68 86 70 87 72 88 69 89 53 90 54 91 59 92 55 93 56 94
REMARK SMILES IDX 58 95 60 96 57 97
REMARK H PARENT 77 59 51 70
REMARK Flexibility Score: inf
ROOT
ATOM      1  C   UNL A   1      31.603  27.991  27.169  1.00  0.00     0.188 C 
ENDROOT
BRANCH   1   2
ATOM      2  C   UNL A   1      31.283  27.749  25.689  1.00  0.00     0.188 C 
BRANCH   2   3
ATOM      3  O   UNL A   1      31.469  28.918  24.893  1.00  0.00    -0.376 OA
BRANCH   3   4
ATOM      4  C   UNL A   1      30.456  29.141  23.922  1.00  0.00     0.202 C 
BRANCH   4   5
ATOM      5  C   UNL A   1      30.714  28.375  22.624  1.00  0.00     0.261 C 
BRANCH   5   6
ATOM      6  O   UNL A   1      32.088  28.054  22.352  1.00  0.00    -0.463 OA
BRANCH   6   7
ATOM      7  C   UNL A   1      32.393  26.807  21.940  1.00  0.00     0.306 C 
ATOM      8  O   UNL A   1      31.688  26.145  21.190  1.00  0.00    -0.252 OA
BRANCH   7   9
ATOM      9  C   UNL A   1      33.636  26.257  22.618  1.00  0.00     0.129 C 
BRANCH   9  10
ATOM     10  C   UNL A   1      33.563  25.786  24.076  1.00  0.00     0.066 C 
BRANCH  10  11
ATOM     11  C   UNL A   1      32.720  24.551  24.321  1.00  0.00     0.024 A 
ATOM     12  C   UNL A   1      32.236  22.340  24.406  1.00  0.00     0.053 A 
ATOM     13  C   UNL A   1      31.043  23.035  24.397  1.00  0.00     0.029 A 
ATOM     14  N   UNL A   1      33.255  23.280  24.528  1.00  0.00    -0.314 N 
ATOM     15  C   UNL A   1      31.345  24.408  24.390  1.00  0.00     0.024 A 
BRANCH  12  16
ATOM     16  C   UNL A   1      32.406  20.892  24.384  1.00  0.00    -0.001 A 
ATOM     17  C   UNL A   1      32.819  18.133  24.244  1.00  0.00     0.118 A 
ATOM     18  C   UNL A   1      32.902  18.789  25.473  1.00  0.00     0.047 A 
ATOM     19  C   UNL A   1      32.457  18.837  23.097  1.00  0.00     0.047 A 
ATOM     20  C   UNL A   1      32.702  20.170  25.543  1.00  0.00     0.014 A 
ATOM     21  C   UNL A   1      32.252  20.214  23.169  1.00  0.00     0.014 A 
BRANCH  17  22
ATOM     22  O   UNL A   1      33.070  16.787  24.252  1.00  0.00    -0.497 OA
ATOM     23  C   UNL A   1      33.395  16.292  25.550  1.00  0.00     0.278 C 
ENDBRANCH  17  22
ENDBRANCH  12  16
BRANCH  14  24
ATOM     24  C   UNL A   1      34.610  23.012  24.846  1.00  0.00     0.046 A 
ATOM     25  C   UNL A   1      35.401  22.343  23.905  1.00  0.00     0.027 A 
ATOM     26  C   UNL A   1      35.134  23.390  26.078  1.00  0.00     0.027 A 
ATOM     27  C   UNL A   1      36.729  22.027  24.210  1.00  0.00     0.014 A 
ATOM     28  C   UNL A   1      36.453  23.050  26.386  1.00  0.00     0.014 A 
ATOM     29  C   UNL A   1      37.261  22.362  25.460  1.00  0.00     0.017 A 
BRANCH  29  30
ATOM     30  C   UNL A   1      38.650  22.004  25.886  1.00  0.00     0.159 C 
ATOM     31  C   UNL A   1      39.488  22.954  26.703  1.00  0.00     0.093 C 
ATOM     32  O   UNL A   1      39.107  20.904  25.571  1.00  0.00    -0.295 OA
ENDBRANCH  29  30
ENDBRANCH  14  24
ENDBRANCH  10  11
ENDBRANCH   9  10
ENDBRANCH   7   9
ENDBRANCH   6   7
ENDBRANCH   5   6
ENDBRANCH   4   5
ENDBRANCH   3   4
ENDBRANCH   2   3
ENDBRANCH   1   2
BRANCH   1  33
ATOM     33  O   UNL A   1      32.708  28.758  27.625  1.00  0.00    -0.377 OA
BRANCH  33  34
ATOM     34  C   UNL A   1      32.755  30.134  27.299  1.00  0.00     0.188 C 
BRANCH  34  35
ATOM     35  C   UNL A   1      34.155  30.607  26.878  1.00  0.00     0.188 C 
BRANCH  35  36
ATOM     36  O   UNL A   1      34.620  31.750  27.597  1.00  0.00    -0.376 OA
BRANCH  36  37
ATOM     37  C   UNL A   1      34.783  31.609  29.004  1.00  0.00     0.202 C 
BRANCH  37  38
ATOM     38  C   UNL A   1      34.530  32.876  29.843  1.00  0.00     0.261 C 
BRANCH  38  39
ATOM     39  O   UNL A   1      35.448  33.083  30.919  1.00  0.00    -0.460 OA
BRANCH  39  40
ATOM     40  C   UNL A   1      35.063  32.537  32.079  1.00  0.00     0.338 C 
ATOM     41  O   UNL A   1      33.999  32.672  32.659  1.00  0.00    -0.246 OA
BRANCH  40  42
ATOM     42  C   UNL A   1      36.133  31.723  32.642  1.00  0.00     0.060 A 
ATOM     43  C   UNL A   1      36.976  32.385  33.544  1.00  0.00     0.016 A 
ATOM     44  C   UNL A   1      36.546  30.640  31.867  1.00  0.00     0.016 A 
ATOM     45  C   UNL A   1      38.328  32.140  33.468  1.00  0.00     0.010 A 
ATOM     46  C   UNL A   1      37.902  30.424  31.762  1.00  0.00     0.010 A 
ATOM     47  C   UNL A   1      38.777  31.254  32.484  1.00  0.00    -0.014 A 
BRANCH  47  48
ATOM     48  C   UNL A   1      40.194  31.293  32.098  1.00  0.00     0.031 A 
ATOM     49  C   UNL A   1      41.006  30.165  32.681  1.00  0.00     0.074 A 
ATOM     50  C   UNL A   1      40.530  32.305  31.245  1.00  0.00     0.049 A 
ATOM     51  N   UNL A   1      42.282  29.957  32.632  1.00  0.00    -0.248 NA
ATOM     52  C   UNL A   1      40.291  29.105  33.443  1.00  0.00     0.031 C 
ATOM     53  C   UNL A   1      39.584  33.342  30.783  1.00  0.00     0.029 A 
ATOM     54  N   UNL A   1      41.689  32.678  30.595  1.00  0.00    -0.354 N 
ATOM     55  C   UNL A   1      42.492  28.673  33.149  1.00  0.00     0.074 A 
ATOM     56  C   UNL A   1      41.257  28.232  33.721  1.00  0.00     0.031 C 
ATOM     57  C   UNL A   1      40.205  34.243  30.003  1.00  0.00     0.029 A 
ATOM     58  C   UNL A   1      41.596  33.877  29.842  1.00  0.00     0.049 A 
ATOM     59  H   UNL A   1      42.518  32.152  30.650  1.00  0.00     0.167 HD
ATOM     60  C   UNL A   1      43.641  27.971  32.971  1.00  0.00     0.037 A 
ATOM     61  C   UNL A   1      42.567  34.542  29.145  1.00  0.00     0.037 A 
ATOM     62  C   UNL A   1      44.650  28.737  32.324  1.00  0.00     0.049 A 
ATOM     63  C   UNL A   1      43.729  33.630  29.118  1.00  0.00     0.074 A 
ATOM     64  C   UNL A   1      45.535  29.685  32.769  1.00  0.00     0.029 A 
ATOM     65  N   UNL A   1      44.652  28.756  30.951  1.00  0.00    -0.354 N 
ATOM     66  N   UNL A   1      43.784  32.528  28.428  1.00  0.00    -0.248 NA
ATOM     67  C   UNL A   1      44.878  33.900  29.987  1.00  0.00     0.031 C 
ATOM     68  C   UNL A   1      45.849  30.469  31.634  1.00  0.00     0.029 A 
ATOM     69  C   UNL A   1      45.142  29.977  30.535  1.00  0.00     0.049 A 
ATOM     70  H   UNL A   1      44.355  28.024  30.364  1.00  0.00     0.167 HD
ATOM     71  C   UNL A   1      44.803  31.826  29.035  1.00  0.00     0.074 A 
ATOM     72  C   UNL A   1      45.586  32.797  29.763  1.00  0.00     0.031 C 
ATOM     73  C   UNL A   1      44.668  30.495  29.269  1.00  0.00     0.037 A 
BRANCH  60  74
ATOM     74  C   UNL A   1      43.864  26.522  33.230  1.00  0.00     0.057 A 
ATOM     75  C   UNL A   1      44.194  26.094  34.526  1.00  0.00     0.134 A 
ATOM     76  C   UNL A   1      44.011  25.578  32.203  1.00  0.00     0.134 A 
ATOM     77  F   UNL A   1      44.076  26.924  35.575  1.00  0.00    -0.206 F 
ATOM     78  C   UNL A   1      44.697  24.816  34.781  1.00  0.00     0.040 A 
ATOM     79  C   UNL A   1      44.481  24.284  32.451  1.00  0.00     0.040 A 
ATOM     80  F   UNL A   1      43.774  25.905  30.924  1.00  0.00    -0.206 F 
ATOM     81  C   UNL A   1      44.849  23.909  33.740  1.00  0.00     0.006 A 
ENDBRANCH  60  74
BRANCH  61  82
ATOM     82  C   UNL A   1      42.717  35.897  28.483  1.00  0.00     0.057 A 
ATOM     83  C   UNL A   1      42.440  36.205  27.144  1.00  0.00     0.134 A 
ATOM     84  C   UNL A   1      43.081  37.032  29.255  1.00  0.00     0.134 A 
ATOM     85  F   UNL A   1      42.164  35.265  26.238  1.00  0.00    -0.206 F 
ATOM     86  C   UNL A   1      42.434  37.522  26.642  1.00  0.00     0.040 A 
ATOM     87  C   UNL A   1      43.049  38.350  28.778  1.00  0.00     0.040 A 
ATOM     88  F   UNL A   1      43.474  36.922  30.531  1.00  0.00    -0.206 F 
ATOM     89  C   UNL A   1      42.707  38.603  27.465  1.00  0.00     0.006 A 
ENDBRANCH  61  82
BRANCH  73  90
ATOM     90  C   UNL A   1      43.647  29.831  28.372  1.00  0.00     0.057 A 
ATOM     91  C   UNL A   1      43.955  29.555  27.034  1.00  0.00     0.134 A 
ATOM     92  C   UNL A   1      42.322  29.580  28.759  1.00  0.00     0.134 A 
ATOM     93  F   UNL A   1      45.197  29.765  26.569  1.00  0.00    -0.206 F 
ATOM     94  C   UNL A   1      42.996  29.064  26.138  1.00  0.00     0.040 A 
ATOM     95  C   UNL A   1      41.356  29.078  27.882  1.00  0.00     0.040 A 
ATOM     96  F   UNL A   1      41.922  29.811  30.009  1.00  0.00    -0.206 F 
ATOM     97  C   UNL A   1      41.691  28.826  26.559  1.00  0.00     0.006 A 
ENDBRANCH  73  90
ENDBRANCH  47  48
ENDBRANCH  40  42
ENDBRANCH  39  40
ENDBRANCH  38  39
ENDBRANCH  37  38
ENDBRANCH  36  37
ENDBRANCH  35  36
ENDBRANCH  34  35
ENDBRANCH  33  34
ENDBRANCH   1  33
TORSDOF 26
ENDMDL
