MODEL 1
REMARK VINA RESULT:     -10.6      0.000      0.000
REMARK SMILES C[C@@H](C(=O)OCCOCCOCCOCCOC(=O)c1ccc(-c2c3nc(c(-c4c(F)cccc4F)c4ccc([nH]4)c(-c4c(F)cccc4F)c4nc(c(-c5c(F)cccc5F)c5ccc2[nH]5)C=C4)C=C3)cc1)c1ccc(O[C@H]2CCCC2=O)cc1F
REMARK SMILES IDX 10 1 9 2 8 3 7 4 6 5 5 6 3 7 4 8 2 9 1 10 74 11 75 12 86 13
REMARK SMILES IDX 76 14 85 15 87 16 77 17 78 18 79 19 80 20 83 21 81 22 82 23
REMARK SMILES IDX 84 24 11 25 12 26 13 27 14 28 15 29 16 30 17 31 18 32 19 33
REMARK SMILES IDX 20 34 21 35 73 36 22 37 72 38 23 39 24 40 25 41 66 42 26 43
REMARK SMILES IDX 71 44 65 45 67 46 27 47 70 48 64 49 63 50 28 52 54 53 37 54
REMARK SMILES IDX 53 55 38 56 41 57 52 58 68 59 39 60 40 61 51 63 69 64 42 65
REMARK SMILES IDX 29 66 30 67 35 68 31 69 32 70 34 71 36 72 33 73 55 74 56 75
REMARK SMILES IDX 61 76 57 77 58 78 60 79 62 80 59 81 43 82 44 83 49 84 45 85
REMARK SMILES IDX 46 86 48 87 50 88 47 89
REMARK H PARENT 67 51 41 62
REMARK Flexibility Score: inf
ROOT
ATOM      1  C   UNL A   1      41.959  19.737  25.922  1.00  0.00     0.188 C 
ENDROOT
BRANCH   1   2
ATOM      2  C   UNL A   1      41.264  20.141  27.233  1.00  0.00     0.188 C 
BRANCH   2   3
ATOM      3  O   UNL A   1      40.380  21.235  27.091  1.00  0.00    -0.376 OA
BRANCH   3   4
ATOM      4  C   UNL A   1      39.677  21.427  25.873  1.00  0.00     0.202 C 
BRANCH   4   5
ATOM      5  C   UNL A   1      38.140  21.472  25.754  1.00  0.00     0.261 C 
BRANCH   5   6
ATOM      6  O   UNL A   1      37.595  22.527  24.951  1.00  0.00    -0.463 OA
BRANCH   6   7
ATOM      7  C   UNL A   1      36.834  23.470  25.549  1.00  0.00     0.313 C 
ATOM      8  O   UNL A   1      37.228  24.167  26.475  1.00  0.00    -0.252 OA
BRANCH   7   9
ATOM      9  C   UNL A   1      35.437  23.593  24.898  1.00  0.00     0.129 C 
ATOM     10  C   UNL A   1      34.735  24.912  25.271  1.00  0.00     0.025 C 
BRANCH   9  11
ATOM     11  C   UNL A   1      34.608  22.312  25.009  1.00  0.00     0.002 A 
ATOM     12  C   UNL A   1      34.513  21.502  26.151  1.00  0.00     0.011 A 
ATOM     13  C   UNL A   1      33.857  21.906  23.900  1.00  0.00     0.130 A 
ATOM     14  C   UNL A   1      33.719  20.338  26.150  1.00  0.00     0.047 A 
ATOM     15  C   UNL A   1      33.102  20.738  23.883  1.00  0.00     0.086 A 
ATOM     16  F   UNL A   1      33.816  22.665  22.798  1.00  0.00    -0.207 F 
ATOM     17  C   UNL A   1      32.994  19.957  25.018  1.00  0.00     0.123 A 
BRANCH  17  18
ATOM     18  O   UNL A   1      32.219  18.844  25.156  1.00  0.00    -0.483 OA
BRANCH  18  19
ATOM     19  C   UNL A   1      32.616  17.601  24.609  1.00  0.00     0.239 C 
ATOM     20  C   UNL A   1      33.999  17.589  23.939  1.00  0.00     0.054 C 
ATOM     21  C   UNL A   1      32.597  16.321  25.437  1.00  0.00     0.173 C 
ATOM     22  C   UNL A   1      34.796  16.438  24.553  1.00  0.00     0.012 C 
ATOM     23  C   UNL A   1      33.800  15.460  25.160  1.00  0.00     0.080 C 
ATOM     24  O   UNL A   1      31.698  15.994  26.202  1.00  0.00    -0.296 OA
ENDBRANCH  18  19
ENDBRANCH  17  18
ENDBRANCH   9  11
ENDBRANCH   7   9
ENDBRANCH   6   7
ENDBRANCH   5   6
ENDBRANCH   4   5
ENDBRANCH   3   4
ENDBRANCH   2   3
ENDBRANCH   1   2
BRANCH   1  25
ATOM     25  O   UNL A   1      43.192  19.048  26.055  1.00  0.00    -0.377 OA
BRANCH  25  26
ATOM     26  C   UNL A   1      44.114  19.058  24.969  1.00  0.00     0.188 C 
BRANCH  26  27
ATOM     27  C   UNL A   1      45.571  19.547  25.131  1.00  0.00     0.188 C 
BRANCH  27  28
ATOM     28  O   UNL A   1      45.773  20.929  24.888  1.00  0.00    -0.376 OA
BRANCH  28  29
ATOM     29  C   UNL A   1      45.427  21.853  25.906  1.00  0.00     0.202 C 
BRANCH  29  30
ATOM     30  C   UNL A   1      45.799  23.326  25.678  1.00  0.00     0.261 C 
BRANCH  30  31
ATOM     31  O   UNL A   1      44.882  24.096  24.884  1.00  0.00    -0.460 OA
BRANCH  31  32
ATOM     32  C   UNL A   1      43.571  23.791  24.963  1.00  0.00     0.338 C 
ATOM     33  O   UNL A   1      43.012  22.804  24.513  1.00  0.00    -0.246 OA
BRANCH  32  34
ATOM     34  C   UNL A   1      42.934  24.771  25.867  1.00  0.00     0.060 A 
ATOM     35  C   UNL A   1      43.446  26.073  25.928  1.00  0.00     0.016 A 
ATOM     36  C   UNL A   1      41.835  24.404  26.648  1.00  0.00     0.016 A 
ATOM     37  C   UNL A   1      42.886  27.004  26.802  1.00  0.00     0.010 A 
ATOM     38  C   UNL A   1      41.289  25.331  27.539  1.00  0.00     0.010 A 
ATOM     39  C   UNL A   1      41.836  26.622  27.648  1.00  0.00    -0.014 A 
BRANCH  39  40
ATOM     40  C   UNL A   1      41.453  27.496  28.784  1.00  0.00     0.031 A 
ATOM     41  C   UNL A   1      42.231  27.375  30.066  1.00  0.00     0.074 A 
ATOM     42  C   UNL A   1      40.459  28.394  28.679  1.00  0.00     0.049 A 
ATOM     43  N   UNL A   1      42.049  27.980  31.211  1.00  0.00    -0.248 NA
ATOM     44  C   UNL A   1      43.366  26.437  30.053  1.00  0.00     0.031 C 
ATOM     45  C   UNL A   1      39.663  28.641  27.480  1.00  0.00     0.029 A 
ATOM     46  N   UNL A   1      39.942  29.259  29.613  1.00  0.00    -0.354 N 
ATOM     47  C   UNL A   1      43.041  27.493  32.054  1.00  0.00     0.074 A 
ATOM     48  C   UNL A   1      43.797  26.517  31.302  1.00  0.00     0.031 C 
ATOM     49  C   UNL A   1      38.744  29.584  27.755  1.00  0.00     0.029 A 
ATOM     50  C   UNL A   1      38.867  29.980  29.158  1.00  0.00     0.049 A 
ATOM     51  H   UNL A   1      40.310  29.353  30.521  1.00  0.00     0.167 HD
ATOM     52  C   UNL A   1      43.306  27.837  33.336  1.00  0.00     0.037 A 
ATOM     53  C   UNL A   1      38.056  30.838  29.809  1.00  0.00     0.037 A 
ATOM     54  C   UNL A   1      42.547  28.803  34.085  1.00  0.00     0.049 A 
ATOM     55  C   UNL A   1      38.316  31.141  31.263  1.00  0.00     0.074 A 
ATOM     56  C   UNL A   1      42.737  29.226  35.390  1.00  0.00     0.029 A 
ATOM     57  N   UNL A   1      41.443  29.488  33.600  1.00  0.00    -0.354 N 
ATOM     58  N   UNL A   1      39.265  30.691  32.049  1.00  0.00    -0.248 NA
ATOM     59  C   UNL A   1      37.390  32.074  31.922  1.00  0.00     0.031 C 
ATOM     60  C   UNL A   1      41.713  30.123  35.711  1.00  0.00     0.029 A 
ATOM     61  C   UNL A   1      40.925  30.310  34.587  1.00  0.00     0.049 A 
ATOM     62  H   UNL A   1      41.082  29.404  32.688  1.00  0.00     0.167 HD
ATOM     63  C   UNL A   1      39.071  31.310  33.278  1.00  0.00     0.074 A 
ATOM     64  C   UNL A   1      37.921  32.176  33.132  1.00  0.00     0.031 C 
ATOM     65  C   UNL A   1      39.783  31.175  34.426  1.00  0.00     0.037 A 
BRANCH  52  66
ATOM     66  C   UNL A   1      44.446  27.136  34.017  1.00  0.00     0.057 A 
ATOM     67  C   UNL A   1      45.735  27.682  34.060  1.00  0.00     0.134 A 
ATOM     68  C   UNL A   1      44.246  25.905  34.656  1.00  0.00     0.134 A 
ATOM     69  F   UNL A   1      46.001  28.850  33.455  1.00  0.00    -0.206 F 
ATOM     70  C   UNL A   1      46.790  27.017  34.689  1.00  0.00     0.040 A 
ATOM     71  C   UNL A   1      45.285  25.246  35.315  1.00  0.00     0.040 A 
ATOM     72  F   UNL A   1      43.035  25.327  34.657  1.00  0.00    -0.206 F 
ATOM     73  C   UNL A   1      46.564  25.799  35.326  1.00  0.00     0.006 A 
ENDBRANCH  52  66
BRANCH  53  74
ATOM     74  C   UNL A   1      36.906  31.460  29.102  1.00  0.00     0.057 A 
ATOM     75  C   UNL A   1      35.749  30.730  28.807  1.00  0.00     0.134 A 
ATOM     76  C   UNL A   1      36.950  32.795  28.679  1.00  0.00     0.134 A 
ATOM     77  F   UNL A   1      35.656  29.440  29.162  1.00  0.00    -0.206 F 
ATOM     78  C   UNL A   1      34.686  31.297  28.100  1.00  0.00     0.040 A 
ATOM     79  C   UNL A   1      35.883  33.383  27.998  1.00  0.00     0.040 A 
ATOM     80  F   UNL A   1      38.030  33.550  28.928  1.00  0.00    -0.206 F 
ATOM     81  C   UNL A   1      34.749  32.630  27.700  1.00  0.00     0.006 A 
ENDBRANCH  53  74
BRANCH  65  82
ATOM     82  C   UNL A   1      39.371  32.015  35.602  1.00  0.00     0.057 A 
ATOM     83  C   UNL A   1      39.852  33.316  35.794  1.00  0.00     0.134 A 
ATOM     84  C   UNL A   1      38.441  31.527  36.532  1.00  0.00     0.134 A 
ATOM     85  F   UNL A   1      40.751  33.841  34.948  1.00  0.00    -0.206 F 
ATOM     86  C   UNL A   1      39.444  34.092  36.882  1.00  0.00     0.040 A 
ATOM     87  C   UNL A   1      38.003  32.305  37.605  1.00  0.00     0.040 A 
ATOM     88  F   UNL A   1      37.930  30.294  36.402  1.00  0.00    -0.206 F 
ATOM     89  C   UNL A   1      38.511  33.589  37.786  1.00  0.00     0.006 A 
ENDBRANCH  65  82
ENDBRANCH  39  40
ENDBRANCH  32  34
ENDBRANCH  31  32
ENDBRANCH  30  31
ENDBRANCH  29  30
ENDBRANCH  28  29
ENDBRANCH  27  28
ENDBRANCH  26  27
ENDBRANCH  25  26
ENDBRANCH   1  25
TORSDOF 23
ENDMDL
MODEL 2
REMARK VINA RESULT:     -10.4      2.961      8.658
REMARK SMILES C[C@@H](C(=O)OCCOCCOCCOCCOC(=O)c1ccc(-c2c3nc(c(-c4c(F)cccc4F)c4ccc([nH]4)c(-c4c(F)cccc4F)c4nc(c(-c5c(F)cccc5F)c5ccc2[nH]5)C=C4)C=C3)cc1)c1ccc(O[C@H]2CCCC2=O)cc1F
REMARK SMILES IDX 10 1 9 2 8 3 7 4 6 5 5 6 3 7 4 8 2 9 1 10 74 11 75 12 86 13
REMARK SMILES IDX 76 14 85 15 87 16 77 17 78 18 79 19 80 20 83 21 81 22 82 23
REMARK SMILES IDX 84 24 11 25 12 26 13 27 14 28 15 29 16 30 17 31 18 32 19 33
REMARK SMILES IDX 20 34 21 35 73 36 22 37 72 38 23 39 24 40 25 41 66 42 26 43
REMARK SMILES IDX 71 44 65 45 67 46 27 47 70 48 64 49 63 50 28 52 54 53 37 54
REMARK SMILES IDX 53 55 38 56 41 57 52 58 68 59 39 60 40 61 51 63 69 64 42 65
REMARK SMILES IDX 29 66 30 67 35 68 31 69 32 70 34 71 36 72 33 73 55 74 56 75
REMARK SMILES IDX 61 76 57 77 58 78 60 79 62 80 59 81 43 82 44 83 49 84 45 85
REMARK SMILES IDX 46 86 48 87 50 88 47 89
REMARK H PARENT 67 51 41 62
REMARK Flexibility Score: inf
ROOT
ATOM      1  C   UNL A   1      33.570  27.681  24.379  1.00  0.00     0.188 C 
ENDROOT
BRANCH   1   2
ATOM      2  C   UNL A   1      33.622  26.289  23.726  1.00  0.00     0.188 C 
BRANCH   2   3
ATOM      3  O   UNL A   1      32.460  25.966  22.990  1.00  0.00    -0.376 OA
BRANCH   3   4
ATOM      4  C   UNL A   1      31.200  26.486  23.385  1.00  0.00     0.202 C 
BRANCH   4   5
ATOM      5  C   UNL A   1      30.030  25.627  23.909  1.00  0.00     0.261 C 
BRANCH   5   6
ATOM      6  O   UNL A   1      29.849  25.600  25.331  1.00  0.00    -0.463 OA
BRANCH   6   7
ATOM      7  C   UNL A   1      30.800  25.017  26.094  1.00  0.00     0.313 C 
ATOM      8  O   UNL A   1      31.518  25.638  26.867  1.00  0.00    -0.252 OA
BRANCH   7   9
ATOM      9  C   UNL A   1      30.839  23.483  25.911  1.00  0.00     0.129 C 
ATOM     10  C   UNL A   1      29.894  22.755  26.885  1.00  0.00     0.025 C 
BRANCH   9  11
ATOM     11  C   UNL A   1      32.260  22.929  25.781  1.00  0.00     0.002 A 
ATOM     12  C   UNL A   1      33.088  22.557  26.851  1.00  0.00     0.011 A 
ATOM     13  C   UNL A   1      32.790  22.752  24.498  1.00  0.00     0.130 A 
ATOM     14  C   UNL A   1      34.385  22.057  26.623  1.00  0.00     0.047 A 
ATOM     15  C   UNL A   1      34.084  22.293  24.271  1.00  0.00     0.086 A 
ATOM     16  F   UNL A   1      32.040  22.995  23.416  1.00  0.00    -0.207 F 
ATOM     17  C   UNL A   1      34.886  21.906  25.327  1.00  0.00     0.123 A 
BRANCH  17  18
ATOM     18  O   UNL A   1      36.131  21.361  25.233  1.00  0.00    -0.483 OA
BRANCH  18  19
ATOM     19  C   UNL A   1      37.282  22.174  25.105  1.00  0.00     0.239 C 
ATOM     20  C   UNL A   1      37.088  23.651  25.486  1.00  0.00     0.054 C 
ATOM     21  C   UNL A   1      38.606  21.796  25.761  1.00  0.00     0.173 C 
ATOM     22  C   UNL A   1      38.173  24.009  26.501  1.00  0.00     0.012 C 
ATOM     23  C   UNL A   1      39.299  22.996  26.349  1.00  0.00     0.080 C 
ATOM     24  O   UNL A   1      39.084  20.669  25.775  1.00  0.00    -0.296 OA
ENDBRANCH  18  19
ENDBRANCH  17  18
ENDBRANCH   9  11
ENDBRANCH   7   9
ENDBRANCH   6   7
ENDBRANCH   5   6
ENDBRANCH   4   5
ENDBRANCH   3   4
ENDBRANCH   2   3
ENDBRANCH   1   2
BRANCH   1  25
ATOM     25  O   UNL A   1      34.030  27.762  25.718  1.00  0.00    -0.377 OA
BRANCH  25  26
ATOM     26  C   UNL A   1      33.509  28.775  26.572  1.00  0.00     0.188 C 
BRANCH  26  27
ATOM     27  C   UNL A   1      31.991  29.013  26.736  1.00  0.00     0.188 C 
BRANCH  27  28
ATOM     28  O   UNL A   1      31.631  30.288  27.239  1.00  0.00    -0.376 OA
BRANCH  28  29
ATOM     29  C   UNL A   1      31.577  31.381  26.337  1.00  0.00     0.202 C 
BRANCH  29  30
ATOM     30  C   UNL A   1      31.591  32.794  26.940  1.00  0.00     0.261 C 
BRANCH  30  31
ATOM     31  O   UNL A   1      32.864  33.461  26.962  1.00  0.00    -0.460 OA
BRANCH  31  32
ATOM     32  C   UNL A   1      33.312  33.921  28.147  1.00  0.00     0.338 C 
ATOM     33  O   UNL A   1      32.750  34.701  28.899  1.00  0.00    -0.246 OA
BRANCH  32  34
ATOM     34  C   UNL A   1      34.536  33.167  28.490  1.00  0.00     0.060 A 
ATOM     35  C   UNL A   1      34.442  31.789  28.724  1.00  0.00     0.016 A 
ATOM     36  C   UNL A   1      35.768  33.818  28.577  1.00  0.00     0.016 A 
ATOM     37  C   UNL A   1      35.577  31.064  29.087  1.00  0.00     0.010 A 
ATOM     38  C   UNL A   1      36.899  33.095  28.962  1.00  0.00     0.010 A 
ATOM     39  C   UNL A   1      36.801  31.723  29.256  1.00  0.00    -0.014 A 
BRANCH  39  40
ATOM     40  C   UNL A   1      37.921  31.029  29.938  1.00  0.00     0.031 A 
ATOM     41  C   UNL A   1      38.168  31.338  31.390  1.00  0.00     0.074 A 
ATOM     42  C   UNL A   1      38.686  30.128  29.299  1.00  0.00     0.049 A 
ATOM     43  N   UNL A   1      39.116  30.911  32.183  1.00  0.00    -0.248 NA
ATOM     44  C   UNL A   1      37.216  32.261  32.030  1.00  0.00     0.031 C 
ATOM     45  C   UNL A   1      38.520  29.707  27.911  1.00  0.00     0.029 A 
ATOM     46  N   UNL A   1      39.772  29.413  29.742  1.00  0.00    -0.354 N 
ATOM     47  C   UNL A   1      38.878  31.515  33.411  1.00  0.00     0.074 A 
ATOM     48  C   UNL A   1      37.721  32.366  33.250  1.00  0.00     0.031 C 
ATOM     49  C   UNL A   1      39.482  28.817  27.608  1.00  0.00     0.029 A 
ATOM     50  C   UNL A   1      40.351  28.635  28.771  1.00  0.00     0.049 A 
ATOM     51  H   UNL A   1      40.103  29.454  30.669  1.00  0.00     0.167 HD
ATOM     52  C   UNL A   1      39.556  31.365  34.574  1.00  0.00     0.037 A 
ATOM     53  C   UNL A   1      41.471  27.885  28.809  1.00  0.00     0.037 A 
ATOM     54  C   UNL A   1      40.713  30.523  34.730  1.00  0.00     0.049 A 
ATOM     55  C   UNL A   1      42.261  27.801  30.091  1.00  0.00     0.074 A 
ATOM     56  C   UNL A   1      41.469  30.299  35.868  1.00  0.00     0.029 A 
ATOM     57  N   UNL A   1      41.288  29.776  33.713  1.00  0.00    -0.354 N 
ATOM     58  N   UNL A   1      42.021  28.361  31.252  1.00  0.00    -0.248 NA
ATOM     59  C   UNL A   1      43.479  26.979  30.066  1.00  0.00     0.031 C 
ATOM     60  C   UNL A   1      42.536  29.463  35.525  1.00  0.00     0.029 A 
ATOM     61  C   UNL A   1      42.406  29.112  34.190  1.00  0.00     0.049 A 
ATOM     62  H   UNL A   1      40.952  29.725  32.790  1.00  0.00     0.167 HD
ATOM     63  C   UNL A   1      43.035  27.933  32.102  1.00  0.00     0.074 A 
ATOM     64  C   UNL A   1      43.886  27.057  31.325  1.00  0.00     0.031 C 
ATOM     65  C   UNL A   1      43.242  28.235  33.408  1.00  0.00     0.037 A 
BRANCH  52  66
ATOM     66  C   UNL A   1      39.080  32.157  35.757  1.00  0.00     0.057 A 
ATOM     67  C   UNL A   1      39.471  33.486  35.969  1.00  0.00     0.134 A 
ATOM     68  C   UNL A   1      38.200  31.589  36.688  1.00  0.00     0.134 A 
ATOM     69  F   UNL A   1      40.324  34.087  35.126  1.00  0.00    -0.206 F 
ATOM     70  C   UNL A   1      39.029  34.211  37.077  1.00  0.00     0.040 A 
ATOM     71  C   UNL A   1      37.726  32.313  37.783  1.00  0.00     0.040 A 
ATOM     72  F   UNL A   1      37.782  30.322  36.544  1.00  0.00    -0.206 F 
ATOM     73  C   UNL A   1      38.147  33.626  37.984  1.00  0.00     0.006 A 
ENDBRANCH  52  66
BRANCH  53  74
ATOM     74  C   UNL A   1      41.930  27.168  27.591  1.00  0.00     0.057 A 
ATOM     75  C   UNL A   1      42.661  27.819  26.592  1.00  0.00     0.134 A 
ATOM     76  C   UNL A   1      41.621  25.816  27.384  1.00  0.00     0.134 A 
ATOM     77  F   UNL A   1      42.966  29.119  26.718  1.00  0.00    -0.206 F 
ATOM     78  C   UNL A   1      43.053  27.162  25.424  1.00  0.00     0.040 A 
ATOM     79  C   UNL A   1      42.031  25.138  26.236  1.00  0.00     0.040 A 
ATOM     80  F   UNL A   1      40.920  25.133  28.302  1.00  0.00    -0.206 F 
ATOM     81  C   UNL A   1      42.743  25.815  25.247  1.00  0.00     0.006 A 
ENDBRANCH  53  74
BRANCH  65  82
ATOM     82  C   UNL A   1      44.406  27.581  34.097  1.00  0.00     0.057 A 
ATOM     83  C   UNL A   1      45.648  28.215  34.227  1.00  0.00     0.134 A 
ATOM     84  C   UNL A   1      44.266  26.313  34.678  1.00  0.00     0.134 A 
ATOM     85  F   UNL A   1      45.854  29.425  33.686  1.00  0.00    -0.206 F 
ATOM     86  C   UNL A   1      46.715  27.601  34.887  1.00  0.00     0.040 A 
ATOM     87  C   UNL A   1      45.316  25.703  35.368  1.00  0.00     0.040 A 
ATOM     88  F   UNL A   1      43.100  25.653  34.603  1.00  0.00    -0.206 F 
ATOM     89  C   UNL A   1      46.548  26.346  35.467  1.00  0.00     0.006 A 
ENDBRANCH  65  82
ENDBRANCH  39  40
ENDBRANCH  32  34
ENDBRANCH  31  32
ENDBRANCH  30  31
ENDBRANCH  29  30
ENDBRANCH  28  29
ENDBRANCH  27  28
ENDBRANCH  26  27
ENDBRANCH  25  26
ENDBRANCH   1  25
TORSDOF 23
ENDMDL
MODEL 3
REMARK VINA RESULT:     -10.3      1.607      3.587
REMARK SMILES C[C@@H](C(=O)OCCOCCOCCOCCOC(=O)c1ccc(-c2c3nc(c(-c4c(F)cccc4F)c4ccc([nH]4)c(-c4c(F)cccc4F)c4nc(c(-c5c(F)cccc5F)c5ccc2[nH]5)C=C4)C=C3)cc1)c1ccc(O[C@H]2CCCC2=O)cc1F
REMARK SMILES IDX 10 1 9 2 8 3 7 4 6 5 5 6 3 7 4 8 2 9 1 10 74 11 75 12 86 13
REMARK SMILES IDX 76 14 85 15 87 16 77 17 78 18 79 19 80 20 83 21 81 22 82 23
REMARK SMILES IDX 84 24 11 25 12 26 13 27 14 28 15 29 16 30 17 31 18 32 19 33
REMARK SMILES IDX 20 34 21 35 73 36 22 37 72 38 23 39 24 40 25 41 66 42 26 43
REMARK SMILES IDX 71 44 65 45 67 46 27 47 70 48 64 49 63 50 28 52 54 53 37 54
REMARK SMILES IDX 53 55 38 56 41 57 52 58 68 59 39 60 40 61 51 63 69 64 42 65
REMARK SMILES IDX 29 66 30 67 35 68 31 69 32 70 34 71 36 72 33 73 55 74 56 75
REMARK SMILES IDX 61 76 57 77 58 78 60 79 62 80 59 81 43 82 44 83 49 84 45 85
REMARK SMILES IDX 46 86 48 87 50 88 47 89
REMARK H PARENT 67 51 41 62
REMARK Flexibility Score: inf
ROOT
ATOM      1  C   UNL A   1      42.367  19.122  25.778  1.00  0.00     0.188 C 
ENDROOT
BRANCH   1   2
ATOM      2  C   UNL A   1      41.440  20.173  26.412  1.00  0.00     0.188 C 
BRANCH   2   3
ATOM      3  O   UNL A   1      40.172  20.256  25.793  1.00  0.00    -0.376 OA
BRANCH   3   4
ATOM      4  C   UNL A   1      39.283  21.308  26.132  1.00  0.00     0.202 C 
BRANCH   4   5
ATOM      5  C   UNL A   1      38.131  21.798  25.230  1.00  0.00     0.261 C 
BRANCH   5   6
ATOM      6  O   UNL A   1      36.816  21.756  25.800  1.00  0.00    -0.463 OA
BRANCH   6   7
ATOM      7  C   UNL A   1      35.928  20.859  25.315  1.00  0.00     0.313 C 
ATOM      8  O   UNL A   1      36.245  19.751  24.901  1.00  0.00    -0.252 OA
BRANCH   7   9
ATOM      9  C   UNL A   1      34.474  21.378  25.390  1.00  0.00     0.129 C 
ATOM     10  C   UNL A   1      33.478  20.424  24.704  1.00  0.00     0.025 C 
BRANCH   9  11
ATOM     11  C   UNL A   1      34.348  22.866  25.055  1.00  0.00     0.002 A 
ATOM     12  C   UNL A   1      34.480  23.424  23.774  1.00  0.00     0.011 A 
ATOM     13  C   UNL A   1      34.060  23.760  26.092  1.00  0.00     0.130 A 
ATOM     14  C   UNL A   1      34.346  24.812  23.572  1.00  0.00     0.047 A 
ATOM     15  C   UNL A   1      33.964  25.135  25.902  1.00  0.00     0.086 A 
ATOM     16  F   UNL A   1      33.830  23.307  27.331  1.00  0.00    -0.207 F 
ATOM     17  C   UNL A   1      34.071  25.676  24.635  1.00  0.00     0.123 A 
BRANCH  17  18
ATOM     18  O   UNL A   1      33.909  26.988  24.306  1.00  0.00    -0.483 OA
BRANCH  18  19
ATOM     19  C   UNL A   1      32.652  27.494  23.900  1.00  0.00     0.239 C 
ATOM     20  C   UNL A   1      32.152  26.993  22.535  1.00  0.00     0.054 C 
ATOM     21  C   UNL A   1      31.423  27.401  24.798  1.00  0.00     0.173 C 
ATOM     22  C   UNL A   1      30.742  26.440  22.738  1.00  0.00     0.012 C 
ATOM     23  C   UNL A   1      30.186  27.053  24.015  1.00  0.00     0.080 C 
ATOM     24  O   UNL A   1      31.417  27.625  26.002  1.00  0.00    -0.296 OA
ENDBRANCH  18  19
ENDBRANCH  17  18
ENDBRANCH   9  11
ENDBRANCH   7   9
ENDBRANCH   6   7
ENDBRANCH   5   6
ENDBRANCH   4   5
ENDBRANCH   3   4
ENDBRANCH   2   3
ENDBRANCH   1   2
BRANCH   1  25
ATOM     25  O   UNL A   1      43.746  19.238  26.086  1.00  0.00    -0.377 OA
BRANCH  25  26
ATOM     26  C   UNL A   1      44.711  18.863  25.107  1.00  0.00     0.188 C 
BRANCH  26  27
ATOM     27  C   UNL A   1      45.998  19.682  24.866  1.00  0.00     0.188 C 
BRANCH  27  28
ATOM     28  O   UNL A   1      45.791  21.039  24.508  1.00  0.00    -0.376 OA
BRANCH  28  29
ATOM     29  C   UNL A   1      45.630  21.994  25.543  1.00  0.00     0.202 C 
BRANCH  29  30
ATOM     30  C   UNL A   1      45.929  23.462  25.201  1.00  0.00     0.261 C 
BRANCH  30  31
ATOM     31  O   UNL A   1      44.853  24.206  24.605  1.00  0.00    -0.460 OA
BRANCH  31  32
ATOM     32  C   UNL A   1      43.593  23.802  24.858  1.00  0.00     0.338 C 
ATOM     33  O   UNL A   1      43.080  22.738  24.549  1.00  0.00    -0.246 OA
BRANCH  32  34
ATOM     34  C   UNL A   1      42.972  24.796  25.757  1.00  0.00     0.060 A 
ATOM     35  C   UNL A   1      43.560  26.061  25.881  1.00  0.00     0.016 A 
ATOM     36  C   UNL A   1      41.813  24.481  26.471  1.00  0.00     0.016 A 
ATOM     37  C   UNL A   1      43.014  27.004  26.752  1.00  0.00     0.010 A 
ATOM     38  C   UNL A   1      41.281  25.417  27.360  1.00  0.00     0.010 A 
ATOM     39  C   UNL A   1      41.900  26.668  27.532  1.00  0.00    -0.014 A 
BRANCH  39  40
ATOM     40  C   UNL A   1      41.514  27.536  28.672  1.00  0.00     0.031 A 
ATOM     41  C   UNL A   1      42.301  27.422  29.950  1.00  0.00     0.074 A 
ATOM     42  C   UNL A   1      40.509  28.422  28.576  1.00  0.00     0.049 A 
ATOM     43  N   UNL A   1      42.120  28.022  31.097  1.00  0.00    -0.248 NA
ATOM     44  C   UNL A   1      43.447  26.497  29.928  1.00  0.00     0.031 C 
ATOM     45  C   UNL A   1      39.703  28.662  27.381  1.00  0.00     0.029 A 
ATOM     46  N   UNL A   1      39.988  29.279  29.514  1.00  0.00    -0.354 N 
ATOM     47  C   UNL A   1      43.122  27.546  31.933  1.00  0.00     0.074 A 
ATOM     48  C   UNL A   1      43.885  26.579  31.175  1.00  0.00     0.031 C 
ATOM     49  C   UNL A   1      38.775  29.594  27.664  1.00  0.00     0.029 A 
ATOM     50  C   UNL A   1      38.901  29.989  29.067  1.00  0.00     0.049 A 
ATOM     51  H   UNL A   1      40.360  29.376  30.420  1.00  0.00     0.167 HD
ATOM     52  C   UNL A   1      43.390  27.890  33.214  1.00  0.00     0.037 A 
ATOM     53  C   UNL A   1      38.085  30.836  29.725  1.00  0.00     0.037 A 
ATOM     54  C   UNL A   1      42.625  28.846  33.970  1.00  0.00     0.049 A 
ATOM     55  C   UNL A   1      38.350  31.140  31.178  1.00  0.00     0.074 A 
ATOM     56  C   UNL A   1      42.818  29.268  35.274  1.00  0.00     0.029 A 
ATOM     57  N   UNL A   1      41.511  29.519  33.492  1.00  0.00    -0.354 N 
ATOM     58  N   UNL A   1      39.309  30.699  31.956  1.00  0.00    -0.248 NA
ATOM     59  C   UNL A   1      37.418  32.061  31.844  1.00  0.00     0.031 C 
ATOM     60  C   UNL A   1      41.786  30.153  35.603  1.00  0.00     0.029 A 
ATOM     61  C   UNL A   1      40.989  30.333  34.484  1.00  0.00     0.049 A 
ATOM     62  H   UNL A   1      41.145  29.432  32.582  1.00  0.00     0.167 HD
ATOM     63  C   UNL A   1      39.116  31.314  33.188  1.00  0.00     0.074 A 
ATOM     64  C   UNL A   1      37.955  32.167  33.051  1.00  0.00     0.031 C 
ATOM     65  C   UNL A   1      39.836  31.185  34.331  1.00  0.00     0.037 A 
BRANCH  52  66
ATOM     66  C   UNL A   1      44.543  27.201  33.887  1.00  0.00     0.057 A 
ATOM     67  C   UNL A   1      44.390  25.980  34.556  1.00  0.00     0.134 A 
ATOM     68  C   UNL A   1      45.828  27.758  33.847  1.00  0.00     0.134 A 
ATOM     69  F   UNL A   1      43.185  25.399  34.647  1.00  0.00    -0.206 F 
ATOM     70  C   UNL A   1      45.467  25.352  35.186  1.00  0.00     0.040 A 
ATOM     71  C   UNL A   1      46.918  27.124  34.445  1.00  0.00     0.040 A 
ATOM     72  F   UNL A   1      46.046  28.924  33.220  1.00  0.00    -0.206 F 
ATOM     73  C   UNL A   1      46.738  25.921  35.124  1.00  0.00     0.006 A 
ENDBRANCH  52  66
BRANCH  53  74
ATOM     74  C   UNL A   1      36.924  31.446  29.026  1.00  0.00     0.057 A 
ATOM     75  C   UNL A   1      36.938  32.784  28.617  1.00  0.00     0.134 A 
ATOM     76  C   UNL A   1      35.758  30.710  28.776  1.00  0.00     0.134 A 
ATOM     77  F   UNL A   1      38.014  33.550  28.851  1.00  0.00    -0.206 F 
ATOM     78  C   UNL A   1      35.831  33.375  28.004  1.00  0.00     0.040 A 
ATOM     79  C   UNL A   1      34.655  31.278  28.137  1.00  0.00     0.040 A 
ATOM     80  F   UNL A   1      35.677  29.423  29.144  1.00  0.00    -0.206 F 
ATOM     81  C   UNL A   1      34.688  32.619  27.756  1.00  0.00     0.006 A 
ENDBRANCH  53  74
BRANCH  65  82
ATOM     82  C   UNL A   1      39.421  32.018  35.511  1.00  0.00     0.057 A 
ATOM     83  C   UNL A   1      39.899  33.320  35.710  1.00  0.00     0.134 A 
ATOM     84  C   UNL A   1      38.493  31.523  36.439  1.00  0.00     0.134 A 
ATOM     85  F   UNL A   1      40.796  33.851  34.866  1.00  0.00    -0.206 F 
ATOM     86  C   UNL A   1      39.489  34.089  36.801  1.00  0.00     0.040 A 
ATOM     87  C   UNL A   1      38.052  32.294  37.516  1.00  0.00     0.040 A 
ATOM     88  F   UNL A   1      37.985  30.289  36.303  1.00  0.00    -0.206 F 
ATOM     89  C   UNL A   1      38.556  33.579  37.703  1.00  0.00     0.006 A 
ENDBRANCH  65  82
ENDBRANCH  39  40
ENDBRANCH  32  34
ENDBRANCH  31  32
ENDBRANCH  30  31
ENDBRANCH  29  30
ENDBRANCH  28  29
ENDBRANCH  27  28
ENDBRANCH  26  27
ENDBRANCH  25  26
ENDBRANCH   1  25
TORSDOF 23
ENDMDL
