MODEL 1
REMARK VINA RESULT:      -9.4      0.000      0.000
REMARK SMILES CCc1cc(C(=O)c2[nH]c3cc(Cl)ccc3c2CC(=O)OCCOCCOCCOCCOC(=O)c2ccc(-c3c4nc(c(-c5c(F)cccc5F)c5ccc([nH]5)c(-c5c(F)cccc5F)c5nc(c(-c6c(F)cccc6F)c6ccc3[nH]6)C=C5)C=C4)cc2)ncc1Cl
REMARK SMILES IDX 26 1 25 2 24 3 23 4 22 5 21 6 19 7 20 8 18 9 17 10 8 11 9 12
REMARK SMILES IDX 10 13 16 15 11 16 15 17 12 18 14 19 13 20 6 21 7 22 5 23
REMARK SMILES IDX 3 24 4 25 92 26 91 27 93 28 90 29 2 30 1 31 27 32 28 33
REMARK SMILES IDX 29 34 30 35 31 36 32 37 33 38 34 39 35 40 36 41 37 42 89 43
REMARK SMILES IDX 38 44 88 45 39 46 40 47 41 48 82 49 42 50 87 51 81 52 83 53
REMARK SMILES IDX 43 54 86 55 80 56 79 57 44 59 70 60 53 61 69 62 54 63 57 64
REMARK SMILES IDX 68 65 84 66 55 67 56 68 67 70 85 71 58 72 45 73 46 74 51 75
REMARK SMILES IDX 47 76 48 77 50 78 52 79 49 80 71 81 72 82 77 83 73 84 74 85
REMARK SMILES IDX 76 86 78 87 75 88 59 89 60 90 65 91 61 92 62 93 64 94 66 95
REMARK SMILES IDX 63 96
REMARK H PARENT 9 14 83 58 57 69
REMARK Flexibility Score: inf
ROOT
ATOM      1  C   UNL A   1      31.540  28.665  24.955  1.00  0.00     0.188 C 
ENDROOT
BRANCH   1   2
ATOM      2  C   UNL A   1      32.211  27.321  25.238  1.00  0.00     0.188 C 
BRANCH   2   3
ATOM      3  O   UNL A   1      31.515  26.412  26.068  1.00  0.00    -0.376 OA
BRANCH   3   4
ATOM      4  C   UNL A   1      30.805  25.360  25.416  1.00  0.00     0.202 C 
BRANCH   4   5
ATOM      5  C   UNL A   1      30.863  23.929  25.993  1.00  0.00     0.261 C 
BRANCH   5   6
ATOM      6  O   UNL A   1      31.493  23.804  27.301  1.00  0.00    -0.463 OA
BRANCH   6   7
ATOM      7  C   UNL A   1      32.613  23.040  27.350  1.00  0.00     0.310 C 
ATOM      8  O   UNL A   1      32.893  22.338  28.324  1.00  0.00    -0.252 OA
BRANCH   7   9
ATOM      9  C   UNL A   1      33.543  23.045  26.148  1.00  0.00     0.161 C 
BRANCH   9  10
ATOM     10  C   UNL A   1      34.398  21.856  25.762  1.00  0.00     0.000 A 
ATOM     11  C   UNL A   1      35.751  21.849  25.371  1.00  0.00     0.093 A 
ATOM     12  N   UNL A   1      36.090  20.523  25.190  1.00  0.00    -0.351 N 
ATOM     13  C   UNL A   1      34.955  19.768  25.006  1.00  0.00     0.048 A 
ATOM     14  H   UNL A   1      37.009  20.170  25.191  1.00  0.00     0.167 HD
ATOM     15  C   UNL A   1      33.878  20.570  25.380  1.00  0.00     0.004 A 
ATOM     16  C   UNL A   1      34.800  18.463  24.514  1.00  0.00     0.047 A 
ATOM     17  C   UNL A   1      32.573  20.049  25.230  1.00  0.00     0.012 A 
ATOM     18  C   UNL A   1      33.495  17.997  24.334  1.00  0.00     0.043 A 
ATOM     19  C   UNL A   1      32.394  18.773  24.681  1.00  0.00     0.021 A 
ATOM     20  Cl  UNL A   1      33.246  16.441  23.636  1.00  0.00    -0.084 Cl
BRANCH  11  21
ATOM     21  C   UNL A   1      36.633  22.999  25.175  1.00  0.00     0.227 C 
ATOM     22  O   UNL A   1      36.331  23.943  24.442  1.00  0.00    -0.285 OA
BRANCH  21  23
ATOM     23  C   UNL A   1      37.962  23.116  25.844  1.00  0.00     0.113 A 
ATOM     24  C   UNL A   1      39.424  24.150  27.497  1.00  0.00    -0.026 A 
ATOM     25  C   UNL A   1      38.277  24.198  26.660  1.00  0.00     0.037 A 
ATOM     26  C   UNL A   1      40.217  22.993  27.437  1.00  0.00     0.062 A 
ATOM     27  C   UNL A   1      39.830  21.972  26.572  1.00  0.00     0.132 A 
ATOM     28  Cl  UNL A   1      41.639  22.703  28.359  1.00  0.00    -0.082 Cl
ATOM     29  N   UNL A   1      38.736  22.008  25.776  1.00  0.00    -0.251 NA
BRANCH  24  30
ATOM     30  C   UNL A   1      39.595  25.348  28.411  1.00  0.00     0.034 C 
ATOM     31  C   UNL A   1      40.701  26.369  28.201  1.00  0.00     0.009 C 
ENDBRANCH  24  30
ENDBRANCH  21  23
ENDBRANCH  11  21
ENDBRANCH   9  10
ENDBRANCH   7   9
ENDBRANCH   6   7
ENDBRANCH   5   6
ENDBRANCH   4   5
ENDBRANCH   3   4
ENDBRANCH   2   3
ENDBRANCH   1   2
BRANCH   1  32
ATOM     32  O   UNL A   1      32.308  29.848  25.117  1.00  0.00    -0.377 OA
BRANCH  32  33
ATOM     33  C   UNL A   1      33.369  29.879  26.064  1.00  0.00     0.188 C 
BRANCH  33  34
ATOM     34  C   UNL A   1      33.214  30.778  27.292  1.00  0.00     0.188 C 
BRANCH  34  35
ATOM     35  O   UNL A   1      34.271  30.809  28.254  1.00  0.00    -0.376 OA
BRANCH  35  36
ATOM     36  C   UNL A   1      34.600  32.031  28.905  1.00  0.00     0.202 C 
BRANCH  36  37
ATOM     37  C   UNL A   1      35.849  31.973  29.773  1.00  0.00     0.261 C 
BRANCH  37  38
ATOM     38  O   UNL A   1      35.663  31.064  30.861  1.00  0.00    -0.460 OA
BRANCH  38  39
ATOM     39  C   UNL A   1      36.234  31.460  32.020  1.00  0.00     0.338 C 
ATOM     40  O   UNL A   1      35.734  32.132  32.910  1.00  0.00    -0.246 OA
BRANCH  39  41
ATOM     41  C   UNL A   1      37.547  30.813  32.141  1.00  0.00     0.060 A 
ATOM     42  C   UNL A   1      38.535  31.478  32.878  1.00  0.00     0.016 A 
ATOM     43  C   UNL A   1      37.818  29.601  31.500  1.00  0.00     0.016 A 
ATOM     44  C   UNL A   1      39.821  30.962  32.930  1.00  0.00     0.010 A 
ATOM     45  C   UNL A   1      39.113  29.093  31.535  1.00  0.00     0.010 A 
ATOM     46  C   UNL A   1      40.122  29.802  32.207  1.00  0.00    -0.014 A 
BRANCH  46  47
ATOM     47  C   UNL A   1      41.536  29.482  31.943  1.00  0.00     0.031 A 
ATOM     48  C   UNL A   1      42.268  30.327  30.941  1.00  0.00     0.074 A 
ATOM     49  C   UNL A   1      42.151  28.493  32.609  1.00  0.00     0.049 A 
ATOM     50  N   UNL A   1      43.492  30.220  30.499  1.00  0.00    -0.248 NA
ATOM     51  C   UNL A   1      41.509  31.446  30.352  1.00  0.00     0.031 C 
ATOM     52  C   UNL A   1      41.536  27.659  33.640  1.00  0.00     0.029 A 
ATOM     53  N   UNL A   1      43.432  28.025  32.509  1.00  0.00    -0.354 N 
ATOM     54  C   UNL A   1      43.648  31.250  29.580  1.00  0.00     0.074 A 
ATOM     55  C   UNL A   1      42.387  31.949  29.497  1.00  0.00     0.031 C 
ATOM     56  C   UNL A   1      42.444  26.766  34.071  1.00  0.00     0.029 A 
ATOM     57  C   UNL A   1      43.684  26.948  33.320  1.00  0.00     0.049 A 
ATOM     58  H   UNL A   1      44.108  28.422  31.913  1.00  0.00     0.167 HD
ATOM     59  C   UNL A   1      44.753  31.584  28.875  1.00  0.00     0.037 A 
ATOM     60  C   UNL A   1      44.789  26.186  33.416  1.00  0.00     0.037 A 
ATOM     61  C   UNL A   1      45.997  30.870  28.965  1.00  0.00     0.049 A 
ATOM     62  C   UNL A   1      45.979  26.525  32.556  1.00  0.00     0.074 A 
ATOM     63  C   UNL A   1      47.184  31.116  28.302  1.00  0.00     0.029 A 
ATOM     64  N   UNL A   1      46.207  29.760  29.772  1.00  0.00    -0.354 N 
ATOM     65  N   UNL A   1      46.127  27.506  31.696  1.00  0.00    -0.248 NA
ATOM     66  C   UNL A   1      47.155  25.657  32.683  1.00  0.00     0.031 C 
ATOM     67  C   UNL A   1      48.096  30.118  28.663  1.00  0.00     0.029 A 
ATOM     68  C   UNL A   1      47.498  29.291  29.603  1.00  0.00     0.049 A 
ATOM     69  H   UNL A   1      45.537  29.365  30.376  1.00  0.00     0.167 HD
ATOM     70  C   UNL A   1      47.423  27.393  31.207  1.00  0.00     0.074 A 
ATOM     71  C   UNL A   1      48.019  26.254  31.876  1.00  0.00     0.031 C 
ATOM     72  C   UNL A   1      48.067  28.160  30.292  1.00  0.00     0.037 A 
BRANCH  59  73
ATOM     73  C   UNL A   1      44.643  32.742  27.925  1.00  0.00     0.057 A 
ATOM     74  C   UNL A   1      44.961  34.053  28.308  1.00  0.00     0.134 A 
ATOM     75  C   UNL A   1      44.218  32.543  26.606  1.00  0.00     0.134 A 
ATOM     76  F   UNL A   1      45.354  34.319  29.563  1.00  0.00    -0.206 F 
ATOM     77  C   UNL A   1      44.834  35.124  27.422  1.00  0.00     0.040 A 
ATOM     78  C   UNL A   1      44.116  33.601  25.702  1.00  0.00     0.040 A 
ATOM     79  F   UNL A   1      43.894  31.314  26.173  1.00  0.00    -0.206 F 
ATOM     80  C   UNL A   1      44.417  34.898  26.111  1.00  0.00     0.006 A 
ENDBRANCH  59  73
BRANCH  60  81
ATOM     81  C   UNL A   1      44.819  25.030  34.346  1.00  0.00     0.057 A 
ATOM     82  C   UNL A   1      45.213  25.181  35.679  1.00  0.00     0.134 A 
ATOM     83  C   UNL A   1      44.468  23.742  33.921  1.00  0.00     0.134 A 
ATOM     84  F   UNL A   1      45.579  26.385  36.142  1.00  0.00    -0.206 F 
ATOM     85  C   UNL A   1      45.277  24.093  36.551  1.00  0.00     0.040 A 
ATOM     86  C   UNL A   1      44.500  22.650  34.788  1.00  0.00     0.040 A 
ATOM     87  F   UNL A   1      44.076  23.530  32.656  1.00  0.00    -0.206 F 
ATOM     88  C   UNL A   1      44.915  22.822  36.107  1.00  0.00     0.006 A 
ENDBRANCH  60  81
BRANCH  72  89
ATOM     89  C   UNL A   1      49.500  27.823  29.999  1.00  0.00     0.057 A 
ATOM     90  C   UNL A   1      49.865  26.957  28.961  1.00  0.00     0.134 A 
ATOM     91  C   UNL A   1      50.531  28.412  30.744  1.00  0.00     0.134 A 
ATOM     92  F   UNL A   1      48.925  26.353  28.217  1.00  0.00    -0.206 F 
ATOM     93  C   UNL A   1      51.203  26.668  28.690  1.00  0.00     0.040 A 
ATOM     94  C   UNL A   1      51.872  28.157  30.461  1.00  0.00     0.040 A 
ATOM     95  F   UNL A   1      50.251  29.261  31.744  1.00  0.00    -0.206 F 
ATOM     96  C   UNL A   1      52.211  27.275  29.437  1.00  0.00     0.006 A 
ENDBRANCH  72  89
ENDBRANCH  46  47
ENDBRANCH  39  41
ENDBRANCH  38  39
ENDBRANCH  37  38
ENDBRANCH  36  37
ENDBRANCH  35  36
ENDBRANCH  34  35
ENDBRANCH  33  34
ENDBRANCH  32  33
ENDBRANCH   1  32
TORSDOF 24
ENDMDL
MODEL 2
REMARK VINA RESULT:      -9.1      2.571      4.112
REMARK SMILES CCc1cc(C(=O)c2[nH]c3cc(Cl)ccc3c2CC(=O)OCCOCCOCCOCCOC(=O)c2ccc(-c3c4nc(c(-c5c(F)cccc5F)c5ccc([nH]5)c(-c5c(F)cccc5F)c5nc(c(-c6c(F)cccc6F)c6ccc3[nH]6)C=C5)C=C4)cc2)ncc1Cl
REMARK SMILES IDX 26 1 25 2 24 3 23 4 22 5 21 6 19 7 20 8 18 9 17 10 8 11 9 12
REMARK SMILES IDX 10 13 16 15 11 16 15 17 12 18 14 19 13 20 6 21 7 22 5 23
REMARK SMILES IDX 3 24 4 25 92 26 91 27 93 28 90 29 2 30 1 31 27 32 28 33
REMARK SMILES IDX 29 34 30 35 31 36 32 37 33 38 34 39 35 40 36 41 37 42 89 43
REMARK SMILES IDX 38 44 88 45 39 46 40 47 41 48 82 49 42 50 87 51 81 52 83 53
REMARK SMILES IDX 43 54 86 55 80 56 79 57 44 59 70 60 53 61 69 62 54 63 57 64
REMARK SMILES IDX 68 65 84 66 55 67 56 68 67 70 85 71 58 72 45 73 46 74 51 75
REMARK SMILES IDX 47 76 48 77 50 78 52 79 49 80 71 81 72 82 77 83 73 84 74 85
REMARK SMILES IDX 76 86 78 87 75 88 59 89 60 90 65 91 61 92 62 93 64 94 66 95
REMARK SMILES IDX 63 96
REMARK H PARENT 9 14 83 58 57 69
REMARK Flexibility Score: inf
ROOT
ATOM      1  C   UNL A   1      30.693  28.066  24.547  1.00  0.00     0.188 C 
ENDROOT
BRANCH   1   2
ATOM      2  C   UNL A   1      31.609  26.893  24.898  1.00  0.00     0.188 C 
BRANCH   2   3
ATOM      3  O   UNL A   1      31.123  25.947  25.828  1.00  0.00    -0.376 OA
BRANCH   3   4
ATOM      4  C   UNL A   1      30.545  24.757  25.294  1.00  0.00     0.202 C 
BRANCH   4   5
ATOM      5  C   UNL A   1      30.764  23.411  26.018  1.00  0.00     0.261 C 
BRANCH   5   6
ATOM      6  O   UNL A   1      31.441  23.494  27.306  1.00  0.00    -0.463 OA
BRANCH   6   7
ATOM      7  C   UNL A   1      32.637  22.859  27.389  1.00  0.00     0.310 C 
ATOM      8  O   UNL A   1      32.995  22.249  28.398  1.00  0.00    -0.252 OA
BRANCH   7   9
ATOM      9  C   UNL A   1      33.559  22.896  26.180  1.00  0.00     0.161 C 
BRANCH   9  10
ATOM     10  C   UNL A   1      34.431  21.727  25.772  1.00  0.00     0.000 A 
ATOM     11  C   UNL A   1      35.782  21.747  25.373  1.00  0.00     0.093 A 
ATOM     12  N   UNL A   1      36.141  20.430  25.171  1.00  0.00    -0.351 N 
ATOM     13  C   UNL A   1      35.017  19.660  24.983  1.00  0.00     0.048 A 
ATOM     14  H   UNL A   1      37.065  20.092  25.161  1.00  0.00     0.167 HD
ATOM     15  C   UNL A   1      33.929  20.438  25.375  1.00  0.00     0.004 A 
ATOM     16  C   UNL A   1      34.881  18.359  24.474  1.00  0.00     0.047 A 
ATOM     17  C   UNL A   1      32.632  19.897  25.227  1.00  0.00     0.012 A 
ATOM     18  C   UNL A   1      33.582  17.874  24.296  1.00  0.00     0.043 A 
ATOM     19  C   UNL A   1      32.471  18.626  24.660  1.00  0.00     0.021 A 
ATOM     20  Cl  UNL A   1      33.354  16.324  23.577  1.00  0.00    -0.084 Cl
BRANCH  11  21
ATOM     21  C   UNL A   1      36.643  22.915  25.188  1.00  0.00     0.227 C 
ATOM     22  O   UNL A   1      36.324  23.861  24.464  1.00  0.00    -0.285 OA
BRANCH  21  23
ATOM     23  C   UNL A   1      37.971  23.048  25.857  1.00  0.00     0.113 A 
ATOM     24  C   UNL A   1      39.438  24.145  27.464  1.00  0.00    -0.026 A 
ATOM     25  C   UNL A   1      38.295  24.165  26.619  1.00  0.00     0.037 A 
ATOM     26  C   UNL A   1      40.216  22.977  27.465  1.00  0.00     0.062 A 
ATOM     27  C   UNL A   1      39.820  21.919  26.650  1.00  0.00     0.132 A 
ATOM     28  Cl  UNL A   1      41.631  22.714  28.408  1.00  0.00    -0.082 Cl
ATOM     29  N   UNL A   1      38.730  21.928  25.848  1.00  0.00    -0.251 NA
BRANCH  24  30
ATOM     30  C   UNL A   1      39.620  25.384  28.318  1.00  0.00     0.034 C 
ATOM     31  C   UNL A   1      39.774  26.767  27.706  1.00  0.00     0.009 C 
ENDBRANCH  24  30
ENDBRANCH  21  23
ENDBRANCH  11  21
ENDBRANCH   9  10
ENDBRANCH   7   9
ENDBRANCH   6   7
ENDBRANCH   5   6
ENDBRANCH   4   5
ENDBRANCH   3   4
ENDBRANCH   2   3
ENDBRANCH   1   2
BRANCH   1  32
ATOM     32  O   UNL A   1      31.266  29.361  24.446  1.00  0.00    -0.377 OA
BRANCH  32  33
ATOM     33  C   UNL A   1      32.526  29.627  25.051  1.00  0.00     0.188 C 
BRANCH  33  34
ATOM     34  C   UNL A   1      32.541  30.112  26.501  1.00  0.00     0.188 C 
BRANCH  34  35
ATOM     35  O   UNL A   1      33.798  30.219  27.174  1.00  0.00    -0.376 OA
BRANCH  35  36
ATOM     36  C   UNL A   1      34.074  31.357  27.982  1.00  0.00     0.202 C 
BRANCH  36  37
ATOM     37  C   UNL A   1      35.542  31.541  28.344  1.00  0.00     0.261 C 
BRANCH  37  38
ATOM     38  O   UNL A   1      35.906  30.672  29.419  1.00  0.00    -0.460 OA
BRANCH  38  39
ATOM     39  C   UNL A   1      36.311  31.311  30.538  1.00  0.00     0.338 C 
ATOM     40  O   UNL A   1      35.620  31.719  31.459  1.00  0.00    -0.246 OA
BRANCH  39  41
ATOM     41  C   UNL A   1      37.780  31.311  30.572  1.00  0.00     0.060 A 
ATOM     42  C   UNL A   1      38.412  32.241  31.406  1.00  0.00     0.016 A 
ATOM     43  C   UNL A   1      38.522  30.448  29.761  1.00  0.00     0.016 A 
ATOM     44  C   UNL A   1      39.793  32.355  31.391  1.00  0.00     0.010 A 
ATOM     45  C   UNL A   1      39.907  30.574  29.730  1.00  0.00     0.010 A 
ATOM     46  C   UNL A   1      40.535  31.562  30.507  1.00  0.00    -0.014 A 
BRANCH  46  47
ATOM     47  C   UNL A   1      41.926  31.948  30.209  1.00  0.00     0.031 A 
ATOM     48  C   UNL A   1      42.173  33.348  29.725  1.00  0.00     0.074 A 
ATOM     49  C   UNL A   1      42.933  31.085  30.404  1.00  0.00     0.049 A 
ATOM     50  N   UNL A   1      43.289  33.914  29.351  1.00  0.00    -0.248 NA
ATOM     51  C   UNL A   1      40.994  34.232  29.649  1.00  0.00     0.031 C 
ATOM     52  C   UNL A   1      42.794  29.727  30.924  1.00  0.00     0.029 A 
ATOM     53  N   UNL A   1      44.275  31.230  30.180  1.00  0.00    -0.354 N 
ATOM     54  C   UNL A   1      42.948  35.211  28.991  1.00  0.00     0.074 A 
ATOM     55  C   UNL A   1      41.518  35.342  29.155  1.00  0.00     0.031 C 
ATOM     56  C   UNL A   1      44.008  29.154  30.968  1.00  0.00     0.029 A 
ATOM     57  C   UNL A   1      44.997  30.094  30.445  1.00  0.00     0.049 A 
ATOM     58  H   UNL A   1      44.682  32.067  29.859  1.00  0.00     0.167 HD
ATOM     59  C   UNL A   1      43.761  36.206  28.570  1.00  0.00     0.037 A 
ATOM     60  C   UNL A   1      46.307  29.847  30.258  1.00  0.00     0.037 A 
ATOM     61  C   UNL A   1      45.181  36.053  28.406  1.00  0.00     0.049 A 
ATOM     62  C   UNL A   1      47.178  30.944  29.705  1.00  0.00     0.074 A 
ATOM     63  C   UNL A   1      46.108  36.988  27.987  1.00  0.00     0.029 A 
ATOM     64  N   UNL A   1      45.876  34.876  28.651  1.00  0.00    -0.354 N 
ATOM     65  N   UNL A   1      46.855  32.173  29.376  1.00  0.00    -0.248 NA
ATOM     66  C   UNL A   1      48.596  30.623  29.502  1.00  0.00     0.031 C 
ATOM     67  C   UNL A   1      47.356  36.360  27.922  1.00  0.00     0.029 A 
ATOM     68  C   UNL A   1      47.219  35.053  28.366  1.00  0.00     0.049 A 
ATOM     69  H   UNL A   1      45.474  34.040  28.980  1.00  0.00     0.167 HD
ATOM     70  C   UNL A   1      48.034  32.781  28.960  1.00  0.00     0.074 A 
ATOM     71  C   UNL A   1      49.079  31.786  29.091  1.00  0.00     0.031 C 
ATOM     72  C   UNL A   1      48.239  34.046  28.515  1.00  0.00     0.037 A 
BRANCH  59  73
ATOM     73  C   UNL A   1      43.124  37.521  28.224  1.00  0.00     0.057 A 
ATOM     74  C   UNL A   1      43.108  38.600  29.119  1.00  0.00     0.134 A 
ATOM     75  C   UNL A   1      42.522  37.713  26.975  1.00  0.00     0.134 A 
ATOM     76  F   UNL A   1      43.646  38.478  30.342  1.00  0.00    -0.206 F 
ATOM     77  C   UNL A   1      42.492  39.810  28.794  1.00  0.00     0.040 A 
ATOM     78  C   UNL A   1      41.932  38.928  26.625  1.00  0.00     0.040 A 
ATOM     79  F   UNL A   1      42.498  36.722  26.070  1.00  0.00    -0.206 F 
ATOM     80  C   UNL A   1      41.908  39.979  27.540  1.00  0.00     0.006 A 
ENDBRANCH  59  73
BRANCH  60  81
ATOM     81  C   UNL A   1      46.867  28.512  30.583  1.00  0.00     0.057 A 
ATOM     82  C   UNL A   1      47.431  28.246  31.835  1.00  0.00     0.134 A 
ATOM     83  C   UNL A   1      46.866  27.472  29.644  1.00  0.00     0.134 A 
ATOM     84  F   UNL A   1      47.478  29.206  32.770  1.00  0.00    -0.206 F 
ATOM     85  C   UNL A   1      47.991  27.004  32.136  1.00  0.00     0.040 A 
ATOM     86  C   UNL A   1      47.397  26.216  29.940  1.00  0.00     0.040 A 
ATOM     87  F   UNL A   1      46.336  27.659  28.426  1.00  0.00    -0.206 F 
ATOM     88  C   UNL A   1      47.971  25.982  31.188  1.00  0.00     0.006 A 
ENDBRANCH  60  81
BRANCH  72  89
ATOM     89  C   UNL A   1      49.650  34.438  28.186  1.00  0.00     0.057 A 
ATOM     90  C   UNL A   1      50.185  34.284  26.901  1.00  0.00     0.134 A 
ATOM     91  C   UNL A   1      50.469  35.020  29.163  1.00  0.00     0.134 A 
ATOM     92  F   UNL A   1      49.456  33.723  25.923  1.00  0.00    -0.206 F 
ATOM     93  C   UNL A   1      51.493  34.669  26.606  1.00  0.00     0.040 A 
ATOM     94  C   UNL A   1      51.766  35.440  28.872  1.00  0.00     0.040 A 
ATOM     95  F   UNL A   1      50.013  35.208  30.411  1.00  0.00    -0.206 F 
ATOM     96  C   UNL A   1      52.285  35.257  27.591  1.00  0.00     0.006 A 
ENDBRANCH  72  89
ENDBRANCH  46  47
ENDBRANCH  39  41
ENDBRANCH  38  39
ENDBRANCH  37  38
ENDBRANCH  36  37
ENDBRANCH  35  36
ENDBRANCH  34  35
ENDBRANCH  33  34
ENDBRANCH  32  33
ENDBRANCH   1  32
TORSDOF 24
ENDMDL
MODEL 3
REMARK VINA RESULT:      -9.1      3.367      5.454
REMARK SMILES CCc1cc(C(=O)c2[nH]c3cc(Cl)ccc3c2CC(=O)OCCOCCOCCOCCOC(=O)c2ccc(-c3c4nc(c(-c5c(F)cccc5F)c5ccc([nH]5)c(-c5c(F)cccc5F)c5nc(c(-c6c(F)cccc6F)c6ccc3[nH]6)C=C5)C=C4)cc2)ncc1Cl
REMARK SMILES IDX 26 1 25 2 24 3 23 4 22 5 21 6 19 7 20 8 18 9 17 10 8 11 9 12
REMARK SMILES IDX 10 13 16 15 11 16 15 17 12 18 14 19 13 20 6 21 7 22 5 23
REMARK SMILES IDX 3 24 4 25 92 26 91 27 93 28 90 29 2 30 1 31 27 32 28 33
REMARK SMILES IDX 29 34 30 35 31 36 32 37 33 38 34 39 35 40 36 41 37 42 89 43
REMARK SMILES IDX 38 44 88 45 39 46 40 47 41 48 82 49 42 50 87 51 81 52 83 53
REMARK SMILES IDX 43 54 86 55 80 56 79 57 44 59 70 60 53 61 69 62 54 63 57 64
REMARK SMILES IDX 68 65 84 66 55 67 56 68 67 70 85 71 58 72 45 73 46 74 51 75
REMARK SMILES IDX 47 76 48 77 50 78 52 79 49 80 71 81 72 82 77 83 73 84 74 85
REMARK SMILES IDX 76 86 78 87 75 88 59 89 60 90 65 91 61 92 62 93 64 94 66 95
REMARK SMILES IDX 63 96
REMARK H PARENT 9 14 83 58 57 69
REMARK Flexibility Score: inf
ROOT
ATOM      1  C   UNL A   1      30.236  28.166  23.734  1.00  0.00     0.188 C 
ENDROOT
BRANCH   1   2
ATOM      2  C   UNL A   1      30.398  26.743  24.269  1.00  0.00     0.188 C 
BRANCH   2   3
ATOM      3  O   UNL A   1      31.694  26.345  24.668  1.00  0.00    -0.376 OA
BRANCH   3   4
ATOM      4  C   UNL A   1      32.714  26.382  23.672  1.00  0.00     0.202 C 
BRANCH   4   5
ATOM      5  C   UNL A   1      32.526  25.596  22.357  1.00  0.00     0.261 C 
BRANCH   5   6
ATOM      6  O   UNL A   1      32.402  24.151  22.502  1.00  0.00    -0.463 OA
BRANCH   6   7
ATOM      7  C   UNL A   1      33.546  23.485  22.799  1.00  0.00     0.310 C 
ATOM      8  O   UNL A   1      34.401  23.226  21.950  1.00  0.00    -0.252 OA
BRANCH   7   9
ATOM      9  C   UNL A   1      33.780  23.059  24.240  1.00  0.00     0.161 C 
BRANCH   9  10
ATOM     10  C   UNL A   1      34.450  21.755  24.617  1.00  0.00     0.000 A 
ATOM     11  C   UNL A   1      35.811  21.524  24.892  1.00  0.00     0.093 A 
ATOM     12  N   UNL A   1      35.909  20.195  25.250  1.00  0.00    -0.351 N 
ATOM     13  C   UNL A   1      34.814  19.502  24.789  1.00  0.00     0.048 A 
ATOM     14  H   UNL A   1      36.654  19.800  25.758  1.00  0.00     0.167 HD
ATOM     15  C   UNL A   1      33.871  20.454  24.408  1.00  0.00     0.004 A 
ATOM     16  C   UNL A   1      34.602  18.121  24.655  1.00  0.00     0.047 A 
ATOM     17  C   UNL A   1      32.659  20.003  23.837  1.00  0.00     0.012 A 
ATOM     18  C   UNL A   1      33.414  17.712  24.044  1.00  0.00     0.043 A 
ATOM     19  C   UNL A   1      32.454  18.632  23.635  1.00  0.00     0.021 A 
ATOM     20  Cl  UNL A   1      33.148  16.033  23.760  1.00  0.00    -0.084 Cl
BRANCH  11  21
ATOM     21  C   UNL A   1      36.916  22.479  24.809  1.00  0.00     0.227 C 
ATOM     22  O   UNL A   1      36.985  23.329  23.919  1.00  0.00    -0.285 OA
BRANCH  21  23
ATOM     23  C   UNL A   1      38.041  22.494  25.790  1.00  0.00     0.113 A 
ATOM     24  C   UNL A   1      40.200  21.665  26.558  1.00  0.00    -0.026 A 
ATOM     25  C   UNL A   1      39.001  21.488  25.815  1.00  0.00     0.037 A 
ATOM     26  C   UNL A   1      40.345  22.867  27.268  1.00  0.00     0.062 A 
ATOM     27  C   UNL A   1      39.317  23.804  27.197  1.00  0.00     0.132 A 
ATOM     28  Cl  UNL A   1      41.705  23.310  28.224  1.00  0.00    -0.082 Cl
ATOM     29  N   UNL A   1      38.176  23.646  26.487  1.00  0.00    -0.251 NA
BRANCH  24  30
ATOM     30  C   UNL A   1      41.207  20.541  26.417  1.00  0.00     0.034 C 
ATOM     31  C   UNL A   1      41.719  19.765  27.620  1.00  0.00     0.009 C 
ENDBRANCH  24  30
ENDBRANCH  21  23
ENDBRANCH  11  21
ENDBRANCH   9  10
ENDBRANCH   7   9
ENDBRANCH   6   7
ENDBRANCH   5   6
ENDBRANCH   4   5
ENDBRANCH   3   4
ENDBRANCH   2   3
ENDBRANCH   1   2
BRANCH   1  32
ATOM     32  O   UNL A   1      30.631  29.247  24.564  1.00  0.00    -0.377 OA
BRANCH  32  33
ATOM     33  C   UNL A   1      31.999  29.634  24.621  1.00  0.00     0.188 C 
BRANCH  33  34
ATOM     34  C   UNL A   1      32.753  29.427  25.935  1.00  0.00     0.188 C 
BRANCH  34  35
ATOM     35  O   UNL A   1      33.870  30.272  26.222  1.00  0.00    -0.376 OA
BRANCH  35  36
ATOM     36  C   UNL A   1      34.075  30.749  27.547  1.00  0.00     0.202 C 
BRANCH  36  37
ATOM     37  C   UNL A   1      35.527  31.035  27.904  1.00  0.00     0.261 C 
BRANCH  37  38
ATOM     38  O   UNL A   1      36.297  29.830  27.881  1.00  0.00    -0.460 OA
BRANCH  38  39
ATOM     39  C   UNL A   1      36.815  29.477  29.078  1.00  0.00     0.338 C 
ATOM     40  O   UNL A   1      36.221  29.321  30.133  1.00  0.00    -0.246 OA
BRANCH  39  41
ATOM     41  C   UNL A   1      38.233  29.143  28.894  1.00  0.00     0.060 A 
ATOM     42  C   UNL A   1      38.893  28.506  29.952  1.00  0.00     0.016 A 
ATOM     43  C   UNL A   1      38.913  29.493  27.725  1.00  0.00     0.016 A 
ATOM     44  C   UNL A   1      40.257  28.268  29.870  1.00  0.00     0.010 A 
ATOM     45  C   UNL A   1      40.285  29.273  27.650  1.00  0.00     0.010 A 
ATOM     46  C   UNL A   1      40.962  28.707  28.744  1.00  0.00    -0.014 A 
BRANCH  46  47
ATOM     47  C   UNL A   1      42.430  28.811  28.825  1.00  0.00     0.031 A 
ATOM     48  C   UNL A   1      43.243  27.721  28.189  1.00  0.00     0.074 A 
ATOM     49  C   UNL A   1      43.010  29.868  29.413  1.00  0.00     0.049 A 
ATOM     50  N   UNL A   1      44.538  27.556  28.165  1.00  0.00    -0.248 NA
ATOM     51  C   UNL A   1      42.487  26.667  27.486  1.00  0.00     0.031 C 
ATOM     52  C   UNL A   1      42.301  31.001  30.006  1.00  0.00     0.029 A 
ATOM     53  N   UNL A   1      44.334  30.151  29.610  1.00  0.00    -0.354 N 
ATOM     54  C   UNL A   1      44.752  26.383  27.453  1.00  0.00     0.074 A 
ATOM     55  C   UNL A   1      43.456  25.855  27.094  1.00  0.00     0.031 C 
ATOM     56  C   UNL A   1      43.204  31.856  30.514  1.00  0.00     0.029 A 
ATOM     57  C   UNL A   1      44.544  31.310  30.312  1.00  0.00     0.049 A 
ATOM     58  H   UNL A   1      45.064  29.579  29.279  1.00  0.00     0.167 HD
ATOM     59  C   UNL A   1      45.929  25.804  27.124  1.00  0.00     0.037 A 
ATOM     60  C   UNL A   1      45.695  31.845  30.759  1.00  0.00     0.037 A 
ATOM     61  C   UNL A   1      47.208  26.342  27.499  1.00  0.00     0.049 A 
ATOM     62  C   UNL A   1      46.989  31.137  30.454  1.00  0.00     0.074 A 
ATOM     63  C   UNL A   1      48.468  25.846  27.223  1.00  0.00     0.029 A 
ATOM     64  N   UNL A   1      47.384  27.500  28.243  1.00  0.00    -0.354 N 
ATOM     65  N   UNL A   1      47.189  30.033  29.772  1.00  0.00    -0.248 NA
ATOM     66  C   UNL A   1      48.216  31.749  30.976  1.00  0.00     0.031 C 
ATOM     67  C   UNL A   1      49.406  26.673  27.850  1.00  0.00     0.029 A 
ATOM     68  C   UNL A   1      48.733  27.723  28.458  1.00  0.00     0.049 A 
ATOM     69  H   UNL A   1      46.657  28.080  28.568  1.00  0.00     0.167 HD
ATOM     70  C   UNL A   1      48.565  29.839  29.753  1.00  0.00     0.074 A 
ATOM     71  C   UNL A   1      49.148  30.946  30.484  1.00  0.00     0.031 C 
ATOM     72  C   UNL A   1      49.285  28.840  29.182  1.00  0.00     0.037 A 
BRANCH  59  73
ATOM     73  C   UNL A   1      45.875  24.514  26.358  1.00  0.00     0.057 A 
ATOM     74  C   UNL A   1      45.510  23.303  26.962  1.00  0.00     0.134 A 
ATOM     75  C   UNL A   1      46.188  24.483  24.994  1.00  0.00     0.134 A 
ATOM     76  F   UNL A   1      45.219  23.256  28.272  1.00  0.00    -0.206 F 
ATOM     77  C   UNL A   1      45.484  22.106  26.244  1.00  0.00     0.040 A 
ATOM     78  C   UNL A   1      46.136  23.298  24.258  1.00  0.00     0.040 A 
ATOM     79  F   UNL A   1      46.549  25.605  24.352  1.00  0.00    -0.206 F 
ATOM     80  C   UNL A   1      45.792  22.103  24.885  1.00  0.00     0.006 A 
ENDBRANCH  59  73
BRANCH  60  81
ATOM     81  C   UNL A   1      45.676  33.103  31.546  1.00  0.00     0.057 A 
ATOM     82  C   UNL A   1      45.559  33.086  32.940  1.00  0.00     0.134 A 
ATOM     83  C   UNL A   1      45.758  34.355  30.923  1.00  0.00     0.134 A 
ATOM     84  F   UNL A   1      45.458  31.919  33.594  1.00  0.00    -0.206 F 
ATOM     85  C   UNL A   1      45.505  34.266  33.685  1.00  0.00     0.040 A 
ATOM     86  C   UNL A   1      45.734  35.542  31.656  1.00  0.00     0.040 A 
ATOM     87  F   UNL A   1      45.876  34.442  29.590  1.00  0.00    -0.206 F 
ATOM     88  C   UNL A   1      45.597  35.499  33.042  1.00  0.00     0.006 A 
ENDBRANCH  60  81
BRANCH  72  89
ATOM     89  C   UNL A   1      50.780  28.928  29.283  1.00  0.00     0.057 A 
ATOM     90  C   UNL A   1      51.556  29.569  28.310  1.00  0.00     0.134 A 
ATOM     91  C   UNL A   1      51.446  28.399  30.398  1.00  0.00     0.134 A 
ATOM     92  F   UNL A   1      50.981  30.087  27.214  1.00  0.00    -0.206 F 
ATOM     93  C   UNL A   1      52.944  29.657  28.426  1.00  0.00     0.040 A 
ATOM     94  C   UNL A   1      52.828  28.511  30.542  1.00  0.00     0.040 A 
ATOM     95  F   UNL A   1      50.760  27.784  31.373  1.00  0.00    -0.206 F 
ATOM     96  C   UNL A   1      53.582  29.134  29.550  1.00  0.00     0.006 A 
ENDBRANCH  72  89
ENDBRANCH  46  47
ENDBRANCH  39  41
ENDBRANCH  38  39
ENDBRANCH  37  38
ENDBRANCH  36  37
ENDBRANCH  35  36
ENDBRANCH  34  35
ENDBRANCH  33  34
ENDBRANCH  32  33
ENDBRANCH   1  32
TORSDOF 24
ENDMDL
