MODEL 1
REMARK VINA RESULT:     -10.8      0.000      0.000
REMARK SMILES Cc1cc(Cl)c2c(c1)C=C(C(=O)OCCOCCOCCOCCOC(=O)c1ccc(-c3c4nc(c(-c5c(F)cccc5F)c5ccc([nH]5)c(-c5c(F)cccc5F)c5nc(c(-c6c(F)cccc6F)c6ccc3[nH]6)C=C5)C=C4)cc1)[C@@H](C(F)(F)F)O2
REMARK SMILES IDX 20 1 19 2 18 3 17 4 16 5 15 6 14 7 13 8 11 9 12 10 10 11
REMARK SMILES IDX 1 12 2 13 3 14 8 15 4 16 7 17 5 18 6 19 9 20 87 21 82 22
REMARK SMILES IDX 83 23 84 24 85 25 86 26 21 27 22 28 23 29 24 30 25 31 26 32
REMARK SMILES IDX 27 33 28 34 29 35 81 36 30 37 80 38 31 39 32 40 33 41 74 42
REMARK SMILES IDX 34 43 79 44 73 45 75 46 35 47 78 48 72 49 71 50 36 52 62 53
REMARK SMILES IDX 45 54 61 55 46 56 49 57 60 58 76 59 47 60 48 61 59 63 77 64
REMARK SMILES IDX 50 65 37 66 38 67 43 68 39 69 40 70 42 71 44 72 41 73 63 74
REMARK SMILES IDX 64 75 69 76 65 77 66 78 68 79 70 80 67 81 51 82 52 83 57 84
REMARK SMILES IDX 53 85 54 86 56 87 58 88 55 89
REMARK H PARENT 75 51 49 62
REMARK Flexibility Score: inf
ROOT
ATOM      1  C   UNL A   1      43.472  18.263  25.944  1.00  0.00     0.188 C 
ENDROOT
BRANCH   1   2
ATOM      2  O   UNL A   1      42.111  18.700  25.914  1.00  0.00    -0.377 OA
BRANCH   2   3
ATOM      3  C   UNL A   1      41.717  19.706  26.832  1.00  0.00     0.188 C 
BRANCH   3   4
ATOM      4  C   UNL A   1      40.905  20.839  26.178  1.00  0.00     0.188 C 
BRANCH   4   5
ATOM      5  O   UNL A   1      40.135  21.582  27.117  1.00  0.00    -0.376 OA
BRANCH   5   6
ATOM      6  C   UNL A   1      39.350  22.660  26.627  1.00  0.00     0.202 C 
BRANCH   6   7
ATOM      7  C   UNL A   1      38.244  22.342  25.608  1.00  0.00     0.261 C 
BRANCH   7   8
ATOM      8  O   UNL A   1      37.448  23.459  25.189  1.00  0.00    -0.460 OA
BRANCH   8   9
ATOM      9  C   UNL A   1      36.541  23.256  24.214  1.00  0.00     0.338 C 
ATOM     10  O   UNL A   1      36.739  22.738  23.130  1.00  0.00    -0.246 OA
BRANCH   9  11
ATOM     11  C   UNL A   1      35.210  23.620  24.752  1.00  0.00     0.087 C 
ATOM     12  C   UNL A   1      32.021  28.413  26.959  1.00  0.00     0.044 C 
ATOM     13  C   UNL A   1      32.250  26.990  26.544  1.00  0.00    -0.049 A 
ATOM     14  C   UNL A   1      31.262  26.018  26.727  1.00  0.00     0.028 A 
ATOM     15  C   UNL A   1      33.467  26.618  25.956  1.00  0.00     0.015 A 
ATOM     16  C   UNL A   1      31.488  24.697  26.326  1.00  0.00     0.084 A 
ATOM     17  C   UNL A   1      33.710  25.287  25.589  1.00  0.00     0.019 A 
ATOM     18  Cl  UNL A   1      30.231  23.540  26.590  1.00  0.00    -0.080 Cl
ATOM     19  C   UNL A   1      32.710  24.325  25.749  1.00  0.00     0.146 A 
ATOM     20  C   UNL A   1      35.019  24.901  25.087  1.00  0.00     0.027 C 
ATOM     21  O   UNL A   1      32.869  23.019  25.378  1.00  0.00    -0.474 OA
ATOM     22  C   UNL A   1      34.129  22.571  24.811  1.00  0.00     0.316 C 
BRANCH  22  23
ATOM     23  C   UNL A   1      34.576  21.321  25.583  1.00  0.00     0.430 C 
ATOM     24  F   UNL A   1      33.514  20.590  25.999  1.00  0.00    -0.167 F 
ATOM     25  F   UNL A   1      35.337  20.497  24.826  1.00  0.00    -0.167 F 
ATOM     26  F   UNL A   1      35.302  21.642  26.679  1.00  0.00    -0.167 F 
ENDBRANCH  22  23
ENDBRANCH   9  11
ENDBRANCH   8   9
ENDBRANCH   7   8
ENDBRANCH   6   7
ENDBRANCH   5   6
ENDBRANCH   4   5
ENDBRANCH   3   4
ENDBRANCH   2   3
ENDBRANCH   1   2
BRANCH   1  27
ATOM     27  C   UNL A   1      44.566  18.902  25.054  1.00  0.00     0.188 C 
BRANCH  27  28
ATOM     28  O   UNL A   1      44.134  20.053  24.334  1.00  0.00    -0.376 OA
BRANCH  28  29
ATOM     29  C   UNL A   1      44.847  21.260  24.561  1.00  0.00     0.202 C 
BRANCH  29  30
ATOM     30  C   UNL A   1      44.461  21.978  25.858  1.00  0.00     0.261 C 
BRANCH  30  31
ATOM     31  O   UNL A   1      43.519  23.051  25.704  1.00  0.00    -0.460 OA
BRANCH  31  32
ATOM     32  C   UNL A   1      44.010  24.291  25.490  1.00  0.00     0.338 C 
ATOM     33  O   UNL A   1      44.667  24.675  24.540  1.00  0.00    -0.246 OA
BRANCH  32  34
ATOM     34  C   UNL A   1      43.437  25.169  26.529  1.00  0.00     0.060 A 
ATOM     35  C   UNL A   1      43.915  26.478  26.655  1.00  0.00     0.016 A 
ATOM     36  C   UNL A   1      42.400  24.708  27.344  1.00  0.00     0.016 A 
ATOM     37  C   UNL A   1      43.362  27.328  27.614  1.00  0.00     0.010 A 
ATOM     38  C   UNL A   1      41.859  25.554  28.313  1.00  0.00     0.010 A 
ATOM     39  C   UNL A   1      42.352  26.860  28.467  1.00  0.00    -0.014 A 
BRANCH  39  40
ATOM     40  C   UNL A   1      41.924  27.684  29.620  1.00  0.00     0.031 A 
ATOM     41  C   UNL A   1      40.723  28.571  29.460  1.00  0.00     0.074 A 
ATOM     42  C   UNL A   1      42.574  27.626  30.796  1.00  0.00     0.049 A 
ATOM     43  N   UNL A   1      40.145  29.351  30.337  1.00  0.00    -0.248 NA
ATOM     44  C   UNL A   1      40.083  28.578  28.134  1.00  0.00     0.031 C 
ATOM     45  C   UNL A   1      43.738  26.790  31.079  1.00  0.00     0.029 A 
ATOM     46  N   UNL A   1      42.339  28.288  31.976  1.00  0.00    -0.354 N 
ATOM     47  C   UNL A   1      39.067  29.923  29.677  1.00  0.00     0.074 A 
ATOM     48  C   UNL A   1      39.095  29.442  28.313  1.00  0.00     0.031 C 
ATOM     49  C   UNL A   1      44.112  26.983  32.357  1.00  0.00     0.029 A 
ATOM     50  C   UNL A   1      43.228  27.972  32.974  1.00  0.00     0.049 A 
ATOM     51  H   UNL A   1      41.602  28.931  32.096  1.00  0.00     0.167 HD
ATOM     52  C   UNL A   1      38.125  30.760  30.169  1.00  0.00     0.037 A 
ATOM     53  C   UNL A   1      43.316  28.429  34.240  1.00  0.00     0.037 A 
ATOM     54  C   UNL A   1      38.106  31.250  31.520  1.00  0.00     0.049 A 
ATOM     55  C   UNL A   1      42.306  29.430  34.739  1.00  0.00     0.074 A 
ATOM     56  C   UNL A   1      37.188  32.098  32.112  1.00  0.00     0.029 A 
ATOM     57  N   UNL A   1      39.052  30.941  32.485  1.00  0.00    -0.354 N 
ATOM     58  N   UNL A   1      41.265  29.932  34.120  1.00  0.00    -0.248 NA
ATOM     59  C   UNL A   1      42.479  29.927  36.113  1.00  0.00     0.031 C 
ATOM     60  C   UNL A   1      37.604  32.343  33.423  1.00  0.00     0.029 A 
ATOM     61  C   UNL A   1      38.752  31.604  33.662  1.00  0.00     0.049 A 
ATOM     62  H   UNL A   1      39.821  30.342  32.352  1.00  0.00     0.167 HD
ATOM     63  C   UNL A   1      40.641  30.772  35.035  1.00  0.00     0.074 A 
ATOM     64  C   UNL A   1      41.419  30.715  36.254  1.00  0.00     0.031 C 
ATOM     65  C   UNL A   1      39.523  31.520  34.876  1.00  0.00     0.037 A 
BRANCH  52  66
ATOM     66  C   UNL A   1      37.034  31.200  29.242  1.00  0.00     0.057 A 
ATOM     67  C   UNL A   1      35.972  30.350  28.907  1.00  0.00     0.134 A 
ATOM     68  C   UNL A   1      37.008  32.503  28.729  1.00  0.00     0.134 A 
ATOM     69  F   UNL A   1      35.946  29.086  29.355  1.00  0.00    -0.206 F 
ATOM     70  C   UNL A   1      34.927  30.777  28.087  1.00  0.00     0.040 A 
ATOM     71  C   UNL A   1      35.957  32.950  27.928  1.00  0.00     0.040 A 
ATOM     72  F   UNL A   1      37.993  33.367  29.016  1.00  0.00    -0.206 F 
ATOM     73  C   UNL A   1      34.913  32.085  27.604  1.00  0.00     0.006 A 
ENDBRANCH  52  66
BRANCH  53  74
ATOM     74  C   UNL A   1      44.387  27.924  35.136  1.00  0.00     0.057 A 
ATOM     75  C   UNL A   1      44.191  26.786  35.926  1.00  0.00     0.134 A 
ATOM     76  C   UNL A   1      45.629  28.565  35.225  1.00  0.00     0.134 A 
ATOM     77  F   UNL A   1      43.015  26.143  35.903  1.00  0.00    -0.206 F 
ATOM     78  C   UNL A   1      45.188  26.306  36.778  1.00  0.00     0.040 A 
ATOM     79  C   UNL A   1      46.643  28.082  36.054  1.00  0.00     0.040 A 
ATOM     80  F   UNL A   1      45.880  29.662  34.495  1.00  0.00    -0.206 F 
ATOM     81  C   UNL A   1      46.421  26.951  36.837  1.00  0.00     0.006 A 
ENDBRANCH  53  74
BRANCH  65  82
ATOM     82  C   UNL A   1      39.032  32.319  36.048  1.00  0.00     0.057 A 
ATOM     83  C   UNL A   1      38.218  31.753  37.034  1.00  0.00     0.134 A 
ATOM     84  C   UNL A   1      39.491  33.627  36.257  1.00  0.00     0.134 A 
ATOM     85  F   UNL A   1      37.741  30.507  36.891  1.00  0.00    -0.206 F 
ATOM     86  C   UNL A   1      37.879  32.458  38.191  1.00  0.00     0.040 A 
ATOM     87  C   UNL A   1      39.179  34.333  37.419  1.00  0.00     0.040 A 
ATOM     88  F   UNL A   1      40.287  34.222  35.355  1.00  0.00    -0.206 F 
ATOM     89  C   UNL A   1      38.373  33.747  38.392  1.00  0.00     0.006 A 
ENDBRANCH  65  82
ENDBRANCH  39  40
ENDBRANCH  32  34
ENDBRANCH  31  32
ENDBRANCH  30  31
ENDBRANCH  29  30
ENDBRANCH  28  29
ENDBRANCH  27  28
ENDBRANCH   1  27
TORSDOF 21
ENDMDL
MODEL 2
REMARK VINA RESULT:     -10.4      1.285      6.133
REMARK SMILES Cc1cc(Cl)c2c(c1)C=C(C(=O)OCCOCCOCCOCCOC(=O)c1ccc(-c3c4nc(c(-c5c(F)cccc5F)c5ccc([nH]5)c(-c5c(F)cccc5F)c5nc(c(-c6c(F)cccc6F)c6ccc3[nH]6)C=C5)C=C4)cc1)[C@@H](C(F)(F)F)O2
REMARK SMILES IDX 20 1 19 2 18 3 17 4 16 5 15 6 14 7 13 8 11 9 12 10 10 11
REMARK SMILES IDX 1 12 2 13 3 14 8 15 4 16 7 17 5 18 6 19 9 20 87 21 82 22
REMARK SMILES IDX 83 23 84 24 85 25 86 26 21 27 22 28 23 29 24 30 25 31 26 32
REMARK SMILES IDX 27 33 28 34 29 35 81 36 30 37 80 38 31 39 32 40 33 41 74 42
REMARK SMILES IDX 34 43 79 44 73 45 75 46 35 47 78 48 72 49 71 50 36 52 62 53
REMARK SMILES IDX 45 54 61 55 46 56 49 57 60 58 76 59 47 60 48 61 59 63 77 64
REMARK SMILES IDX 50 65 37 66 38 67 43 68 39 69 40 70 42 71 44 72 41 73 63 74
REMARK SMILES IDX 64 75 69 76 65 77 66 78 68 79 70 80 67 81 51 82 52 83 57 84
REMARK SMILES IDX 53 85 54 86 56 87 58 88 55 89
REMARK H PARENT 75 51 49 62
REMARK Flexibility Score: inf
ROOT
ATOM      1  C   UNL A   1      43.505  18.755  25.762  1.00  0.00     0.188 C 
ENDROOT
BRANCH   1   2
ATOM      2  O   UNL A   1      42.190  19.170  25.385  1.00  0.00    -0.377 OA
BRANCH   2   3
ATOM      3  C   UNL A   1      41.509  20.071  26.242  1.00  0.00     0.188 C 
BRANCH   3   4
ATOM      4  C   UNL A   1      39.989  19.824  26.295  1.00  0.00     0.188 C 
BRANCH   4   5
ATOM      5  O   UNL A   1      39.239  21.024  26.455  1.00  0.00    -0.376 OA
BRANCH   5   6
ATOM      6  C   UNL A   1      38.517  21.510  25.333  1.00  0.00     0.202 C 
BRANCH   6   7
ATOM      7  C   UNL A   1      36.982  21.452  25.381  1.00  0.00     0.261 C 
BRANCH   7   8
ATOM      8  O   UNL A   1      36.354  22.389  26.268  1.00  0.00    -0.460 OA
BRANCH   8   9
ATOM      9  C   UNL A   1      35.009  22.399  26.324  1.00  0.00     0.338 C 
ATOM     10  O   UNL A   1      34.309  21.840  27.149  1.00  0.00    -0.246 OA
BRANCH   9  11
ATOM     11  C   UNL A   1      34.521  23.352  25.301  1.00  0.00     0.087 C 
ATOM     12  C   UNL A   1      33.218  29.322  24.473  1.00  0.00     0.044 C 
ATOM     13  C   UNL A   1      33.352  27.878  24.086  1.00  0.00    -0.049 A 
ATOM     14  C   UNL A   1      32.957  27.433  22.821  1.00  0.00     0.028 A 
ATOM     15  C   UNL A   1      33.885  26.955  24.996  1.00  0.00     0.015 A 
ATOM     16  C   UNL A   1      33.096  26.085  22.473  1.00  0.00     0.084 A 
ATOM     17  C   UNL A   1      33.990  25.598  24.662  1.00  0.00     0.019 A 
ATOM     18  Cl  UNL A   1      32.579  25.593  20.899  1.00  0.00    -0.080 Cl
ATOM     19  C   UNL A   1      33.619  25.161  23.388  1.00  0.00     0.146 A 
ATOM     20  C   UNL A   1      34.439  24.639  25.660  1.00  0.00     0.027 C 
ATOM     21  O   UNL A   1      33.730  23.858  22.988  1.00  0.00    -0.474 OA
ATOM     22  C   UNL A   1      34.229  22.853  23.909  1.00  0.00     0.316 C 
BRANCH  22  23
ATOM     23  C   UNL A   1      33.239  21.680  23.909  1.00  0.00     0.430 C 
ATOM     24  F   UNL A   1      32.701  21.485  22.681  1.00  0.00    -0.167 F 
ATOM     25  F   UNL A   1      33.827  20.513  24.261  1.00  0.00    -0.167 F 
ATOM     26  F   UNL A   1      32.217  21.888  24.771  1.00  0.00    -0.167 F 
ENDBRANCH  22  23
ENDBRANCH   9  11
ENDBRANCH   8   9
ENDBRANCH   7   8
ENDBRANCH   6   7
ENDBRANCH   5   6
ENDBRANCH   4   5
ENDBRANCH   3   4
ENDBRANCH   2   3
ENDBRANCH   1   2
BRANCH   1  27
ATOM     27  C   UNL A   1      44.755  19.095  24.914  1.00  0.00     0.188 C 
BRANCH  27  28
ATOM     28  O   UNL A   1      44.528  20.079  23.909  1.00  0.00    -0.376 OA
BRANCH  28  29
ATOM     29  C   UNL A   1      45.021  21.387  24.165  1.00  0.00     0.202 C 
BRANCH  29  30
ATOM     30  C   UNL A   1      44.598  21.958  25.522  1.00  0.00     0.261 C 
BRANCH  30  31
ATOM     31  O   UNL A   1      43.757  23.120  25.460  1.00  0.00    -0.460 OA
BRANCH  31  32
ATOM     32  C   UNL A   1      44.358  24.329  25.427  1.00  0.00     0.338 C 
ATOM     33  O   UNL A   1      45.201  24.717  24.639  1.00  0.00    -0.246 OA
BRANCH  32  34
ATOM     34  C   UNL A   1      43.665  25.185  26.410  1.00  0.00     0.060 A 
ATOM     35  C   UNL A   1      44.124  26.490  26.622  1.00  0.00     0.016 A 
ATOM     36  C   UNL A   1      42.539  24.707  27.085  1.00  0.00     0.016 A 
ATOM     37  C   UNL A   1      43.459  27.318  27.527  1.00  0.00     0.010 A 
ATOM     38  C   UNL A   1      41.885  25.532  28.001  1.00  0.00     0.010 A 
ATOM     39  C   UNL A   1      42.355  26.833  28.242  1.00  0.00    -0.014 A 
BRANCH  39  40
ATOM     40  C   UNL A   1      41.791  27.632  29.355  1.00  0.00     0.031 A 
ATOM     41  C   UNL A   1      42.470  27.574  30.693  1.00  0.00     0.074 A 
ATOM     42  C   UNL A   1      40.712  28.414  29.173  1.00  0.00     0.049 A 
ATOM     43  N   UNL A   1      42.180  28.211  31.799  1.00  0.00    -0.248 NA
ATOM     44  C   UNL A   1      43.637  26.681  30.800  1.00  0.00     0.031 C 
ATOM     45  C   UNL A   1      39.981  28.569  27.918  1.00  0.00     0.029 A 
ATOM     46  N   UNL A   1      40.048  29.231  30.054  1.00  0.00    -0.354 N 
ATOM     47  C   UNL A   1      43.135  27.811  32.722  1.00  0.00     0.074 A 
ATOM     48  C   UNL A   1      43.986  26.843  32.068  1.00  0.00     0.031 C 
ATOM     49  C   UNL A   1      38.970  29.436  28.108  1.00  0.00     0.029 A 
ATOM     50  C   UNL A   1      38.971  29.880  29.502  1.00  0.00     0.049 A 
ATOM     51  H   UNL A   1      40.316  29.340  30.996  1.00  0.00     0.167 HD
ATOM     52  C   UNL A   1      43.301  28.232  33.997  1.00  0.00     0.037 A 
ATOM     53  C   UNL A   1      38.089  30.734  30.058  1.00  0.00     0.037 A 
ATOM     54  C   UNL A   1      42.447  29.183  34.652  1.00  0.00     0.049 A 
ATOM     55  C   UNL A   1      38.242  31.119  31.508  1.00  0.00     0.074 A 
ATOM     56  C   UNL A   1      42.538  29.675  35.943  1.00  0.00     0.029 A 
ATOM     57  N   UNL A   1      41.339  29.782  34.071  1.00  0.00    -0.354 N 
ATOM     58  N   UNL A   1      39.174  30.770  32.360  1.00  0.00    -0.248 NA
ATOM     59  C   UNL A   1      37.223  32.019  32.072  1.00  0.00     0.031 C 
ATOM     60  C   UNL A   1      41.458  30.534  36.159  1.00  0.00     0.029 A 
ATOM     61  C   UNL A   1      40.725  30.619  34.986  1.00  0.00     0.049 A 
ATOM     62  H   UNL A   1      41.036  29.633  33.147  1.00  0.00     0.167 HD
ATOM     63  C   UNL A   1      38.877  31.431  33.547  1.00  0.00     0.074 A 
ATOM     64  C   UNL A   1      37.677  32.203  33.307  1.00  0.00     0.031 C 
ATOM     65  C   UNL A   1      39.543  31.400  34.726  1.00  0.00     0.037 A 
BRANCH  52  66
ATOM     66  C   UNL A   1      44.452  27.665  34.772  1.00  0.00     0.057 A 
ATOM     67  C   UNL A   1      44.352  26.434  35.432  1.00  0.00     0.134 A 
ATOM     68  C   UNL A   1      45.688  28.321  34.806  1.00  0.00     0.134 A 
ATOM     69  F   UNL A   1      43.191  25.762  35.449  1.00  0.00    -0.206 F 
ATOM     70  C   UNL A   1      45.440  25.879  36.108  1.00  0.00     0.040 A 
ATOM     71  C   UNL A   1      46.790  27.766  35.457  1.00  0.00     0.040 A 
ATOM     72  F   UNL A   1      45.849  29.502  34.190  1.00  0.00    -0.206 F 
ATOM     73  C   UNL A   1      46.667  26.542  36.112  1.00  0.00     0.006 A 
ENDBRANCH  52  66
BRANCH  53  74
ATOM     74  C   UNL A   1      36.994  31.307  29.236  1.00  0.00     0.057 A 
ATOM     75  C   UNL A   1      37.069  32.615  28.742  1.00  0.00     0.134 A 
ATOM     76  C   UNL A   1      35.847  30.566  28.923  1.00  0.00     0.134 A 
ATOM     77  F   UNL A   1      38.130  33.383  29.027  1.00  0.00    -0.206 F 
ATOM     78  C   UNL A   1      36.043  33.167  27.973  1.00  0.00     0.040 A 
ATOM     79  C   UNL A   1      34.825  31.097  28.135  1.00  0.00     0.040 A 
ATOM     80  F   UNL A   1      35.713  29.307  29.367  1.00  0.00    -0.206 F 
ATOM     81  C   UNL A   1      34.919  32.404  27.662  1.00  0.00     0.006 A 
ENDBRANCH  53  74
BRANCH  65  82
ATOM     82  C   UNL A   1      39.029  32.247  35.853  1.00  0.00     0.057 A 
ATOM     83  C   UNL A   1      38.225  31.715  36.866  1.00  0.00     0.134 A 
ATOM     84  C   UNL A   1      39.457  33.575  35.995  1.00  0.00     0.134 A 
ATOM     85  F   UNL A   1      37.777  30.453  36.786  1.00  0.00    -0.206 F 
ATOM     86  C   UNL A   1      37.865  32.471  37.983  1.00  0.00     0.040 A 
ATOM     87  C   UNL A   1      39.125  34.332  37.118  1.00  0.00     0.040 A 
ATOM     88  F   UNL A   1      40.243  34.140  35.066  1.00  0.00    -0.206 F 
ATOM     89  C   UNL A   1      38.329  33.779  38.118  1.00  0.00     0.006 A 
ENDBRANCH  65  82
ENDBRANCH  39  40
ENDBRANCH  32  34
ENDBRANCH  31  32
ENDBRANCH  30  31
ENDBRANCH  29  30
ENDBRANCH  28  29
ENDBRANCH  27  28
ENDBRANCH   1  27
TORSDOF 21
ENDMDL
MODEL 3
REMARK VINA RESULT:     -10.2      4.630      8.537
REMARK SMILES Cc1cc(Cl)c2c(c1)C=C(C(=O)OCCOCCOCCOCCOC(=O)c1ccc(-c3c4nc(c(-c5c(F)cccc5F)c5ccc([nH]5)c(-c5c(F)cccc5F)c5nc(c(-c6c(F)cccc6F)c6ccc3[nH]6)C=C5)C=C4)cc1)[C@@H](C(F)(F)F)O2
REMARK SMILES IDX 20 1 19 2 18 3 17 4 16 5 15 6 14 7 13 8 11 9 12 10 10 11
REMARK SMILES IDX 1 12 2 13 3 14 8 15 4 16 7 17 5 18 6 19 9 20 87 21 82 22
REMARK SMILES IDX 83 23 84 24 85 25 86 26 21 27 22 28 23 29 24 30 25 31 26 32
REMARK SMILES IDX 27 33 28 34 29 35 81 36 30 37 80 38 31 39 32 40 33 41 74 42
REMARK SMILES IDX 34 43 79 44 73 45 75 46 35 47 78 48 72 49 71 50 36 52 62 53
REMARK SMILES IDX 45 54 61 55 46 56 49 57 60 58 76 59 47 60 48 61 59 63 77 64
REMARK SMILES IDX 50 65 37 66 38 67 43 68 39 69 40 70 42 71 44 72 41 73 63 74
REMARK SMILES IDX 64 75 69 76 65 77 66 78 68 79 70 80 67 81 51 82 52 83 57 84
REMARK SMILES IDX 53 85 54 86 56 87 58 88 55 89
REMARK H PARENT 75 51 49 62
REMARK Flexibility Score: inf
ROOT
ATOM      1  C   UNL A   1      40.383  21.853  26.961  1.00  0.00     0.188 C 
ENDROOT
BRANCH   1   2
ATOM      2  O   UNL A   1      39.280  21.789  26.054  1.00  0.00    -0.377 OA
BRANCH   2   3
ATOM      3  C   UNL A   1      38.339  22.849  26.079  1.00  0.00     0.188 C 
BRANCH   3   4
ATOM      4  C   UNL A   1      37.046  22.529  25.304  1.00  0.00     0.188 C 
BRANCH   4   5
ATOM      5  O   UNL A   1      36.409  21.340  25.759  1.00  0.00    -0.376 OA
BRANCH   5   6
ATOM      6  C   UNL A   1      35.030  21.413  26.093  1.00  0.00     0.202 C 
BRANCH   6   7
ATOM      7  C   UNL A   1      34.437  22.794  26.417  1.00  0.00     0.261 C 
BRANCH   7   8
ATOM      8  O   UNL A   1      33.326  23.197  25.604  1.00  0.00    -0.460 OA
BRANCH   8   9
ATOM      9  C   UNL A   1      33.590  23.826  24.443  1.00  0.00     0.338 C 
ATOM     10  O   UNL A   1      34.014  23.319  23.420  1.00  0.00    -0.246 OA
BRANCH   9  11
ATOM     11  C   UNL A   1      33.115  25.222  24.566  1.00  0.00     0.087 C 
ATOM     12  C   UNL A   1      34.340  30.517  27.480  1.00  0.00     0.044 C 
ATOM     13  C   UNL A   1      33.604  29.600  26.547  1.00  0.00    -0.049 A 
ATOM     14  C   UNL A   1      32.460  30.031  25.870  1.00  0.00     0.028 A 
ATOM     15  C   UNL A   1      34.066  28.293  26.339  1.00  0.00     0.015 A 
ATOM     16  C   UNL A   1      31.791  29.166  24.996  1.00  0.00     0.084 A 
ATOM     17  C   UNL A   1      33.375  27.415  25.494  1.00  0.00     0.019 A 
ATOM     18  Cl  UNL A   1      30.375  29.753  24.197  1.00  0.00    -0.080 Cl
ATOM     19  C   UNL A   1      32.247  27.856  24.798  1.00  0.00     0.146 A 
ATOM     20  C   UNL A   1      33.806  26.029  25.380  1.00  0.00     0.027 C 
ATOM     21  O   UNL A   1      31.550  27.061  23.932  1.00  0.00    -0.474 OA
ATOM     22  C   UNL A   1      31.957  25.683  23.719  1.00  0.00     0.316 C 
BRANCH  22  23
ATOM     23  C   UNL A   1      30.718  24.793  23.896  1.00  0.00     0.430 C 
ATOM     24  F   UNL A   1      30.805  23.669  23.145  1.00  0.00    -0.167 F 
ATOM     25  F   UNL A   1      30.559  24.387  25.177  1.00  0.00    -0.167 F 
ATOM     26  F   UNL A   1      29.584  25.435  23.536  1.00  0.00    -0.167 F 
ENDBRANCH  22  23
ENDBRANCH   9  11
ENDBRANCH   8   9
ENDBRANCH   7   8
ENDBRANCH   6   7
ENDBRANCH   5   6
ENDBRANCH   4   5
ENDBRANCH   3   4
ENDBRANCH   2   3
ENDBRANCH   1   2
BRANCH   1  27
ATOM     27  C   UNL A   1      41.801  21.368  26.575  1.00  0.00     0.188 C 
BRANCH  27  28
ATOM     28  O   UNL A   1      41.815  20.280  25.655  1.00  0.00    -0.376 OA
BRANCH  28  29
ATOM     29  C   UNL A   1      42.256  19.023  26.151  1.00  0.00     0.202 C 
BRANCH  29  30
ATOM     30  C   UNL A   1      43.531  18.501  25.480  1.00  0.00     0.261 C 
BRANCH  30  31
ATOM     31  O   UNL A   1      43.870  19.136  24.237  1.00  0.00    -0.460 OA
BRANCH  31  32
ATOM     32  C   UNL A   1      45.112  19.653  24.116  1.00  0.00     0.338 C 
ATOM     33  O   UNL A   1      46.058  19.179  23.514  1.00  0.00    -0.246 OA
BRANCH  32  34
ATOM     34  C   UNL A   1      45.072  21.015  24.684  1.00  0.00     0.060 A 
ATOM     35  C   UNL A   1      44.629  22.075  23.886  1.00  0.00     0.016 A 
ATOM     36  C   UNL A   1      45.432  21.229  26.018  1.00  0.00     0.016 A 
ATOM     37  C   UNL A   1      44.560  23.362  24.421  1.00  0.00     0.010 A 
ATOM     38  C   UNL A   1      45.377  22.519  26.546  1.00  0.00     0.010 A 
ATOM     39  C   UNL A   1      44.961  23.594  25.744  1.00  0.00    -0.014 A 
BRANCH  39  40
ATOM     40  C   UNL A   1      45.097  24.984  26.238  1.00  0.00     0.031 A 
ATOM     41  C   UNL A   1      46.449  25.635  26.183  1.00  0.00     0.074 A 
ATOM     42  C   UNL A   1      44.033  25.665  26.701  1.00  0.00     0.049 A 
ATOM     43  N   UNL A   1      46.800  26.849  26.524  1.00  0.00    -0.248 NA
ATOM     44  C   UNL A   1      47.556  24.809  25.672  1.00  0.00     0.031 C 
ATOM     45  C   UNL A   1      42.669  25.149  26.784  1.00  0.00     0.029 A 
ATOM     46  N   UNL A   1      43.940  26.946  27.187  1.00  0.00    -0.354 N 
ATOM     47  C   UNL A   1      48.158  26.936  26.252  1.00  0.00     0.074 A 
ATOM     48  C   UNL A   1      48.581  25.643  25.762  1.00  0.00     0.031 C 
ATOM     49  C   UNL A   1      41.871  26.109  27.285  1.00  0.00     0.029 A 
ATOM     50  C   UNL A   1      42.671  27.298  27.577  1.00  0.00     0.049 A 
ATOM     51  H   UNL A   1      44.711  27.555  27.252  1.00  0.00     0.167 HD
ATOM     52  C   UNL A   1      48.974  28.007  26.378  1.00  0.00     0.037 A 
ATOM     53  C   UNL A   1      42.211  28.448  28.109  1.00  0.00     0.037 A 
ATOM     54  C   UNL A   1      48.557  29.288  26.877  1.00  0.00     0.049 A 
ATOM     55  C   UNL A   1      43.160  29.599  28.324  1.00  0.00     0.074 A 
ATOM     56  C   UNL A   1      49.314  30.435  27.037  1.00  0.00     0.029 A 
ATOM     57  N   UNL A   1      47.273  29.588  27.305  1.00  0.00    -0.354 N 
ATOM     58  N   UNL A   1      44.433  29.686  28.022  1.00  0.00    -0.248 NA
ATOM     59  C   UNL A   1      42.611  30.812  28.949  1.00  0.00     0.031 C 
ATOM     60  C   UNL A   1      48.500  31.416  27.608  1.00  0.00     0.029 A 
ATOM     61  C   UNL A   1      47.223  30.896  27.753  1.00  0.00     0.049 A 
ATOM     62  H   UNL A   1      46.513  28.964  27.293  1.00  0.00     0.167 HD
ATOM     63  C   UNL A   1      44.828  30.969  28.386  1.00  0.00     0.074 A 
ATOM     64  C   UNL A   1      43.660  31.627  28.933  1.00  0.00     0.031 C 
ATOM     65  C   UNL A   1      46.048  31.546  28.274  1.00  0.00     0.037 A 
BRANCH  52  66
ATOM     66  C   UNL A   1      50.406  27.841  25.968  1.00  0.00     0.057 A 
ATOM     67  C   UNL A   1      50.797  27.927  24.625  1.00  0.00     0.134 A 
ATOM     68  C   UNL A   1      51.412  27.657  26.925  1.00  0.00     0.134 A 
ATOM     69  F   UNL A   1      49.880  28.088  23.659  1.00  0.00    -0.206 F 
ATOM     70  C   UNL A   1      52.137  27.826  24.248  1.00  0.00     0.040 A 
ATOM     71  C   UNL A   1      52.757  27.579  26.563  1.00  0.00     0.040 A 
ATOM     72  F   UNL A   1      51.103  27.570  28.227  1.00  0.00    -0.206 F 
ATOM     73  C   UNL A   1      53.122  27.662  25.221  1.00  0.00     0.006 A 
ENDBRANCH  52  66
BRANCH  53  74
ATOM     74  C   UNL A   1      40.773  28.581  28.454  1.00  0.00     0.057 A 
ATOM     75  C   UNL A   1      40.304  28.270  29.735  1.00  0.00     0.134 A 
ATOM     76  C   UNL A   1      39.832  29.021  27.513  1.00  0.00     0.134 A 
ATOM     77  F   UNL A   1      41.151  27.820  30.672  1.00  0.00    -0.206 F 
ATOM     78  C   UNL A   1      38.954  28.384  30.068  1.00  0.00     0.040 A 
ATOM     79  C   UNL A   1      38.482  29.163  27.840  1.00  0.00     0.040 A 
ATOM     80  F   UNL A   1      40.216  29.334  26.267  1.00  0.00    -0.206 F 
ATOM     81  C   UNL A   1      38.039  28.839  29.121  1.00  0.00     0.006 A 
ENDBRANCH  53  74
BRANCH  65  82
ATOM     82  C   UNL A   1      46.200  32.974  28.710  1.00  0.00     0.057 A 
ATOM     83  C   UNL A   1      46.638  33.308  29.995  1.00  0.00     0.134 A 
ATOM     84  C   UNL A   1      46.035  34.019  27.789  1.00  0.00     0.134 A 
ATOM     85  F   UNL A   1      46.809  32.356  30.925  1.00  0.00    -0.206 F 
ATOM     86  C   UNL A   1      46.911  34.631  30.351  1.00  0.00     0.040 A 
ATOM     87  C   UNL A   1      46.327  35.340  28.125  1.00  0.00     0.040 A 
ATOM     88  F   UNL A   1      45.631  33.763  26.535  1.00  0.00    -0.206 F 
ATOM     89  C   UNL A   1      46.770  35.649  29.409  1.00  0.00     0.006 A 
ENDBRANCH  65  82
ENDBRANCH  39  40
ENDBRANCH  32  34
ENDBRANCH  31  32
ENDBRANCH  30  31
ENDBRANCH  29  30
ENDBRANCH  28  29
ENDBRANCH  27  28
ENDBRANCH   1  27
TORSDOF 21
ENDMDL
