MODEL 1
REMARK VINA RESULT:     -10.9      0.000      0.000
REMARK SMILES COc1ccc(CNC(=O)[C@H]2CC(C)=C(C)C[C@@H]2C(=O)OCCOCCOCCOCCOC(=O)c2ccc(-c3c4nc(c(-c5c(F)cccc5F)c5ccc([nH]5)c(-c5c(F)cccc5F)c5nc(c(-c6c(F)cccc6F)c6ccc3[nH]6)C=C5)C=C4)cc2)cc1OC
REMARK SMILES IDX 26 1 25 2 24 3 23 4 22 5 21 6 19 7 20 8 18 9 11 10 12 11
REMARK SMILES IDX 13 12 17 13 14 14 15 15 16 16 9 17 8 18 10 20 7 21 6 22 3 23
REMARK SMILES IDX 4 24 91 25 5 26 90 27 2 28 1 29 92 30 93 31 27 32 28 33
REMARK SMILES IDX 29 34 30 35 31 36 32 37 33 38 34 39 35 40 36 41 37 42 89 43
REMARK SMILES IDX 38 44 88 45 39 46 40 47 41 48 82 49 42 50 87 51 81 52 83 53
REMARK SMILES IDX 43 54 86 55 80 56 79 57 44 59 70 60 53 61 69 62 54 63 57 64
REMARK SMILES IDX 68 65 84 66 55 67 56 68 67 70 85 71 58 72 45 73 46 74 51 75
REMARK SMILES IDX 47 76 48 77 50 78 52 79 49 80 71 81 72 82 77 83 73 84 74 85
REMARK SMILES IDX 76 86 78 87 75 88 59 89 60 90 65 91 61 92 62 93 64 94 66 95
REMARK SMILES IDX 63 96
REMARK H PARENT 8 19 83 58 57 69
REMARK Flexibility Score: inf
ROOT
ATOM      1  C   UNL A   1      33.826  33.564  28.016  1.00  0.00     0.188 C 
ENDROOT
BRANCH   1   2
ATOM      2  C   UNL A   1      33.753  32.017  27.967  1.00  0.00     0.188 C 
BRANCH   2   3
ATOM      3  O   UNL A   1      34.860  31.237  27.535  1.00  0.00    -0.376 OA
BRANCH   3   4
ATOM      4  C   UNL A   1      34.760  29.828  27.538  1.00  0.00     0.202 C 
BRANCH   4   5
ATOM      5  C   UNL A   1      33.938  29.147  26.433  1.00  0.00     0.261 C 
BRANCH   5   6
ATOM      6  O   UNL A   1      33.368  27.859  26.729  1.00  0.00    -0.463 OA
BRANCH   6   7
ATOM      7  C   UNL A   1      32.033  27.818  27.008  1.00  0.00     0.310 C 
ATOM      8  O   UNL A   1      31.449  28.641  27.699  1.00  0.00    -0.252 OA
BRANCH   7   9
ATOM      9  C   UNL A   1      31.372  26.597  26.356  1.00  0.00     0.116 C 
ATOM     10  C   UNL A   1      32.332  25.408  26.150  1.00  0.00     0.097 C 
ATOM     11  C   UNL A   1      33.286  25.565  24.972  1.00  0.00     0.045 C 
ATOM     12  C   UNL A   1      32.739  26.288  23.769  1.00  0.00    -0.074 C 
ATOM     13  C   UNL A   1      30.711  27.043  25.050  1.00  0.00     0.046 C 
ATOM     14  C   UNL A   1      33.603  26.128  22.543  1.00  0.00     0.039 C 
ATOM     15  C   UNL A   1      31.588  26.992  23.816  1.00  0.00    -0.073 C 
ATOM     16  C   UNL A   1      31.086  27.823  22.664  1.00  0.00     0.039 C 
BRANCH  10  17
ATOM     17  C   UNL A   1      31.675  24.057  26.449  1.00  0.00     0.224 C 
ATOM     18  N   UNL A   1      32.050  22.873  25.915  1.00  0.00    -0.352 N 
ATOM     19  H   UNL A   1      31.918  22.097  26.506  1.00  0.00     0.163 HD
ATOM     20  O   UNL A   1      30.802  24.005  27.325  1.00  0.00    -0.275 OA
BRANCH  18  21
ATOM     21  C   UNL A   1      32.612  22.556  24.622  1.00  0.00     0.151 C 
BRANCH  21  22
ATOM     22  C   UNL A   1      33.123  21.140  24.503  1.00  0.00    -0.025 A 
ATOM     23  C   UNL A   1      34.195  18.524  24.441  1.00  0.00     0.160 A 
ATOM     24  C   UNL A   1      32.834  18.747  24.181  1.00  0.00     0.051 A 
ATOM     25  C   UNL A   1      35.036  19.605  24.716  1.00  0.00     0.161 A 
ATOM     26  C   UNL A   1      32.301  20.043  24.216  1.00  0.00     0.009 A 
ATOM     27  C   UNL A   1      34.481  20.894  24.758  1.00  0.00     0.056 A 
BRANCH  23  28
ATOM     28  O   UNL A   1      34.670  17.248  24.300  1.00  0.00    -0.493 OA
ATOM     29  C   UNL A   1      33.639  16.273  24.462  1.00  0.00     0.278 C 
ENDBRANCH  23  28
BRANCH  25  30
ATOM     30  O   UNL A   1      36.383  19.617  24.946  1.00  0.00    -0.493 OA
ATOM     31  C   UNL A   1      37.061  20.859  25.007  1.00  0.00     0.278 C 
ENDBRANCH  25  30
ENDBRANCH  21  22
ENDBRANCH  18  21
ENDBRANCH  10  17
ENDBRANCH   7   9
ENDBRANCH   6   7
ENDBRANCH   5   6
ENDBRANCH   4   5
ENDBRANCH   3   4
ENDBRANCH   2   3
ENDBRANCH   1   2
BRANCH   1  32
ATOM     32  O   UNL A   1      33.076  34.132  29.077  1.00  0.00    -0.377 OA
BRANCH  32  33
ATOM     33  C   UNL A   1      33.537  35.398  29.507  1.00  0.00     0.188 C 
BRANCH  33  34
ATOM     34  C   UNL A   1      32.986  35.846  30.866  1.00  0.00     0.188 C 
BRANCH  34  35
ATOM     35  O   UNL A   1      33.768  35.328  31.942  1.00  0.00    -0.376 OA
BRANCH  35  36
ATOM     36  C   UNL A   1      35.105  34.942  31.673  1.00  0.00     0.202 C 
BRANCH  36  37
ATOM     37  C   UNL A   1      35.936  34.609  32.918  1.00  0.00     0.261 C 
BRANCH  37  38
ATOM     38  O   UNL A   1      36.022  33.217  33.260  1.00  0.00    -0.460 OA
BRANCH  38  39
ATOM     39  C   UNL A   1      35.481  32.322  32.408  1.00  0.00     0.338 C 
ATOM     40  O   UNL A   1      34.317  32.249  32.054  1.00  0.00    -0.246 OA
BRANCH  39  41
ATOM     41  C   UNL A   1      36.598  31.570  31.794  1.00  0.00     0.060 A 
ATOM     42  C   UNL A   1      37.726  31.286  32.574  1.00  0.00     0.016 A 
ATOM     43  C   UNL A   1      36.503  31.090  30.483  1.00  0.00     0.016 A 
ATOM     44  C   UNL A   1      38.770  30.531  32.041  1.00  0.00     0.010 A 
ATOM     45  C   UNL A   1      37.564  30.365  29.938  1.00  0.00     0.010 A 
ATOM     46  C   UNL A   1      38.714  30.109  30.706  1.00  0.00    -0.014 A 
BRANCH  46  47
ATOM     47  C   UNL A   1      39.953  29.647  30.042  1.00  0.00     0.031 A 
ATOM     48  C   UNL A   1      41.066  30.646  29.886  1.00  0.00     0.074 A 
ATOM     49  C   UNL A   1      40.106  28.384  29.611  1.00  0.00     0.049 A 
ATOM     50  N   UNL A   1      42.240  30.507  29.328  1.00  0.00    -0.248 NA
ATOM     51  C   UNL A   1      40.815  31.989  30.436  1.00  0.00     0.031 C 
ATOM     52  C   UNL A   1      39.118  27.316  29.743  1.00  0.00     0.029 A 
ATOM     53  N   UNL A   1      41.163  27.792  28.965  1.00  0.00    -0.354 N 
ATOM     54  C   UNL A   1      42.865  31.741  29.464  1.00  0.00     0.074 A 
ATOM     55  C   UNL A   1      41.931  32.624  30.123  1.00  0.00     0.031 C 
ATOM     56  C   UNL A   1      39.613  26.197  29.183  1.00  0.00     0.029 A 
ATOM     57  C   UNL A   1      40.939  26.478  28.634  1.00  0.00     0.049 A 
ATOM     58  H   UNL A   1      42.002  28.264  28.761  1.00  0.00     0.167 HD
ATOM     59  C   UNL A   1      44.110  32.104  29.080  1.00  0.00     0.037 A 
ATOM     60  C   UNL A   1      41.713  25.616  27.947  1.00  0.00     0.037 A 
ATOM     61  C   UNL A   1      45.030  31.230  28.406  1.00  0.00     0.049 A 
ATOM     62  C   UNL A   1      43.063  26.068  27.450  1.00  0.00     0.074 A 
ATOM     63  C   UNL A   1      46.317  31.497  27.978  1.00  0.00     0.029 A 
ATOM     64  N   UNL A   1      44.750  29.919  28.049  1.00  0.00    -0.354 N 
ATOM     65  N   UNL A   1      43.660  27.225  27.607  1.00  0.00    -0.248 NA
ATOM     66  C   UNL A   1      43.848  25.092  26.680  1.00  0.00     0.031 C 
ATOM     67  C   UNL A   1      46.799  30.364  27.314  1.00  0.00     0.029 A 
ATOM     68  C   UNL A   1      45.832  29.373  27.379  1.00  0.00     0.049 A 
ATOM     69  H   UNL A   1      43.907  29.448  28.243  1.00  0.00     0.167 HD
ATOM     70  C   UNL A   1      44.898  27.108  26.985  1.00  0.00     0.074 A 
ATOM     71  C   UNL A   1      44.970  25.762  26.455  1.00  0.00     0.031 C 
ATOM     72  C   UNL A   1      45.887  28.027  26.865  1.00  0.00     0.037 A 
BRANCH  59  73
ATOM     73  C   UNL A   1      44.521  33.520  29.352  1.00  0.00     0.057 A 
ATOM     74  C   UNL A   1      45.095  33.903  30.573  1.00  0.00     0.134 A 
ATOM     75  C   UNL A   1      44.334  34.514  28.385  1.00  0.00     0.134 A 
ATOM     76  F   UNL A   1      45.279  33.003  31.551  1.00  0.00    -0.206 F 
ATOM     77  C   UNL A   1      45.441  35.231  30.829  1.00  0.00     0.040 A 
ATOM     78  C   UNL A   1      44.702  35.839  28.620  1.00  0.00     0.040 A 
ATOM     79  F   UNL A   1      43.786  34.215  27.197  1.00  0.00    -0.206 F 
ATOM     80  C   UNL A   1      45.250  36.202  29.849  1.00  0.00     0.006 A 
ENDBRANCH  59  73
BRANCH  60  81
ATOM     81  C   UNL A   1      41.234  24.236  27.676  1.00  0.00     0.057 A 
ATOM     82  C   UNL A   1      40.246  23.985  26.717  1.00  0.00     0.134 A 
ATOM     83  C   UNL A   1      41.734  23.138  28.386  1.00  0.00     0.134 A 
ATOM     84  F   UNL A   1      39.706  24.998  26.023  1.00  0.00    -0.206 F 
ATOM     85  C   UNL A   1      39.761  22.696  26.483  1.00  0.00     0.040 A 
ATOM     86  C   UNL A   1      41.278  21.840  28.146  1.00  0.00     0.040 A 
ATOM     87  F   UNL A   1      42.678  23.310  29.323  1.00  0.00    -0.206 F 
ATOM     88  C   UNL A   1      40.283  21.618  27.196  1.00  0.00     0.006 A 
ENDBRANCH  60  81
BRANCH  72  89
ATOM     89  C   UNL A   1      47.148  27.603  26.171  1.00  0.00     0.057 A 
ATOM     90  C   UNL A   1      48.238  27.069  26.870  1.00  0.00     0.134 A 
ATOM     91  C   UNL A   1      47.252  27.681  24.775  1.00  0.00     0.134 A 
ATOM     92  F   UNL A   1      48.207  26.975  28.209  1.00  0.00    -0.206 F 
ATOM     93  C   UNL A   1      49.393  26.648  26.209  1.00  0.00     0.040 A 
ATOM     94  C   UNL A   1      48.391  27.237  24.101  1.00  0.00     0.040 A 
ATOM     95  F   UNL A   1      46.240  28.171  24.043  1.00  0.00    -0.206 F 
ATOM     96  C   UNL A   1      49.467  26.724  24.820  1.00  0.00     0.006 A 
ENDBRANCH  72  89
ENDBRANCH  46  47
ENDBRANCH  39  41
ENDBRANCH  38  39
ENDBRANCH  37  38
ENDBRANCH  36  37
ENDBRANCH  35  36
ENDBRANCH  34  35
ENDBRANCH  33  34
ENDBRANCH  32  33
ENDBRANCH   1  32
TORSDOF 25
ENDMDL
MODEL 2
REMARK VINA RESULT:     -10.2      4.378      7.107
REMARK SMILES COc1ccc(CNC(=O)[C@H]2CC(C)=C(C)C[C@@H]2C(=O)OCCOCCOCCOCCOC(=O)c2ccc(-c3c4nc(c(-c5c(F)cccc5F)c5ccc([nH]5)c(-c5c(F)cccc5F)c5nc(c(-c6c(F)cccc6F)c6ccc3[nH]6)C=C5)C=C4)cc2)cc1OC
REMARK SMILES IDX 26 1 25 2 24 3 23 4 22 5 21 6 19 7 20 8 18 9 11 10 12 11
REMARK SMILES IDX 13 12 17 13 14 14 15 15 16 16 9 17 8 18 10 20 7 21 6 22 3 23
REMARK SMILES IDX 4 24 91 25 5 26 90 27 2 28 1 29 92 30 93 31 27 32 28 33
REMARK SMILES IDX 29 34 30 35 31 36 32 37 33 38 34 39 35 40 36 41 37 42 89 43
REMARK SMILES IDX 38 44 88 45 39 46 40 47 41 48 82 49 42 50 87 51 81 52 83 53
REMARK SMILES IDX 43 54 86 55 80 56 79 57 44 59 70 60 53 61 69 62 54 63 57 64
REMARK SMILES IDX 68 65 84 66 55 67 56 68 67 70 85 71 58 72 45 73 46 74 51 75
REMARK SMILES IDX 47 76 48 77 50 78 52 79 49 80 71 81 72 82 77 83 73 84 74 85
REMARK SMILES IDX 76 86 78 87 75 88 59 89 60 90 65 91 61 92 62 93 64 94 66 95
REMARK SMILES IDX 63 96
REMARK H PARENT 8 19 83 58 57 69
REMARK Flexibility Score: inf
ROOT
ATOM      1  C   UNL A   1      33.172  30.840  27.238  1.00  0.00     0.188 C 
ENDROOT
BRANCH   1   2
ATOM      2  C   UNL A   1      32.851  29.652  26.296  1.00  0.00     0.188 C 
BRANCH   2   3
ATOM      3  O   UNL A   1      31.592  28.994  26.340  1.00  0.00    -0.376 OA
BRANCH   3   4
ATOM      4  C   UNL A   1      31.430  27.860  27.167  1.00  0.00     0.202 C 
BRANCH   4   5
ATOM      5  C   UNL A   1      31.112  26.509  26.508  1.00  0.00     0.261 C 
BRANCH   5   6
ATOM      6  O   UNL A   1      31.848  25.359  26.964  1.00  0.00    -0.463 OA
BRANCH   6   7
ATOM      7  C   UNL A   1      31.310  24.132  26.706  1.00  0.00     0.310 C 
ATOM      8  O   UNL A   1      30.245  23.737  27.162  1.00  0.00    -0.252 OA
BRANCH   7   9
ATOM      9  C   UNL A   1      32.225  23.313  25.786  1.00  0.00     0.116 C 
ATOM     10  C   UNL A   1      33.722  23.646  25.943  1.00  0.00     0.097 C 
ATOM     11  C   UNL A   1      34.152  24.946  25.274  1.00  0.00     0.045 C 
ATOM     12  C   UNL A   1      33.452  25.290  23.986  1.00  0.00    -0.074 C 
ATOM     13  C   UNL A   1      31.740  23.483  24.345  1.00  0.00     0.046 C 
ATOM     14  C   UNL A   1      34.136  26.395  23.220  1.00  0.00     0.039 C 
ATOM     15  C   UNL A   1      32.333  24.650  23.583  1.00  0.00    -0.073 C 
ATOM     16  C   UNL A   1      31.547  25.059  22.365  1.00  0.00     0.039 C 
BRANCH  10  17
ATOM     17  C   UNL A   1      34.615  22.403  25.885  1.00  0.00     0.224 C 
ATOM     18  N   UNL A   1      35.957  22.400  26.048  1.00  0.00    -0.352 N 
ATOM     19  H   UNL A   1      36.317  21.584  26.463  1.00  0.00     0.163 HD
ATOM     20  O   UNL A   1      34.078  21.293  25.789  1.00  0.00    -0.275 OA
BRANCH  18  21
ATOM     21  C   UNL A   1      36.951  23.395  25.714  1.00  0.00     0.151 C 
BRANCH  21  22
ATOM     22  C   UNL A   1      38.327  23.098  26.262  1.00  0.00    -0.025 A 
ATOM     23  C   UNL A   1      40.945  22.456  27.113  1.00  0.00     0.160 A 
ATOM     24  C   UNL A   1      40.362  23.685  27.456  1.00  0.00     0.051 A 
ATOM     25  C   UNL A   1      40.221  21.530  26.360  1.00  0.00     0.161 A 
ATOM     26  C   UNL A   1      39.065  24.005  27.031  1.00  0.00     0.009 A 
ATOM     27  C   UNL A   1      38.929  21.873  25.933  1.00  0.00     0.056 A 
BRANCH  23  28
ATOM     28  O   UNL A   1      42.177  22.167  27.637  1.00  0.00    -0.493 OA
ATOM     29  C   UNL A   1      43.234  22.535  26.750  1.00  0.00     0.278 C 
ENDBRANCH  23  28
BRANCH  25  30
ATOM     30  O   UNL A   1      40.577  20.271  25.962  1.00  0.00    -0.493 OA
ATOM     31  C   UNL A   1      39.573  19.278  25.841  1.00  0.00     0.278 C 
ENDBRANCH  25  30
ENDBRANCH  21  22
ENDBRANCH  18  21
ENDBRANCH  10  17
ENDBRANCH   7   9
ENDBRANCH   6   7
ENDBRANCH   5   6
ENDBRANCH   4   5
ENDBRANCH   3   4
ENDBRANCH   2   3
ENDBRANCH   1   2
BRANCH   1  32
ATOM     32  O   UNL A   1      34.558  31.004  27.489  1.00  0.00    -0.377 OA
BRANCH  32  33
ATOM     33  C   UNL A   1      34.910  32.267  28.022  1.00  0.00     0.188 C 
BRANCH  33  34
ATOM     34  C   UNL A   1      33.730  33.227  28.210  1.00  0.00     0.188 C 
BRANCH  34  35
ATOM     35  O   UNL A   1      34.064  34.553  27.801  1.00  0.00    -0.376 OA
BRANCH  35  36
ATOM     36  C   UNL A   1      34.197  35.549  28.801  1.00  0.00     0.202 C 
BRANCH  36  37
ATOM     37  C   UNL A   1      32.882  35.951  29.480  1.00  0.00     0.261 C 
BRANCH  37  38
ATOM     38  O   UNL A   1      32.487  35.149  30.603  1.00  0.00    -0.460 OA
BRANCH  38  39
ATOM     39  C   UNL A   1      32.705  35.643  31.840  1.00  0.00     0.338 C 
ATOM     40  O   UNL A   1      31.977  36.379  32.481  1.00  0.00    -0.246 OA
BRANCH  39  41
ATOM     41  C   UNL A   1      33.893  34.948  32.385  1.00  0.00     0.060 A 
ATOM     42  C   UNL A   1      35.128  35.611  32.364  1.00  0.00     0.016 A 
ATOM     43  C   UNL A   1      33.777  33.685  32.974  1.00  0.00     0.016 A 
ATOM     44  C   UNL A   1      36.253  35.005  32.921  1.00  0.00     0.010 A 
ATOM     45  C   UNL A   1      34.912  33.064  33.499  1.00  0.00     0.010 A 
ATOM     46  C   UNL A   1      36.159  33.710  33.447  1.00  0.00    -0.014 A 
BRANCH  46  47
ATOM     47  C   UNL A   1      37.398  32.937  33.688  1.00  0.00     0.031 A 
ATOM     48  C   UNL A   1      38.134  33.195  34.973  1.00  0.00     0.074 A 
ATOM     49  C   UNL A   1      37.850  32.019  32.816  1.00  0.00     0.049 A 
ATOM     50  N   UNL A   1      39.246  32.671  35.418  1.00  0.00    -0.248 NA
ATOM     51  C   UNL A   1      37.528  34.184  35.881  1.00  0.00     0.031 C 
ATOM     52  C   UNL A   1      37.203  31.651  31.559  1.00  0.00     0.029 A 
ATOM     53  N   UNL A   1      38.973  31.233  32.864  1.00  0.00    -0.354 N 
ATOM     54  C   UNL A   1      39.468  33.264  36.655  1.00  0.00     0.074 A 
ATOM     55  C   UNL A   1      38.398  34.210  36.875  1.00  0.00     0.031 C 
ATOM     56  C   UNL A   1      37.950  30.713  30.947  1.00  0.00     0.029 A 
ATOM     57  C   UNL A   1      39.136  30.437  31.757  1.00  0.00     0.049 A 
ATOM     58  H   UNL A   1      39.602  31.237  33.621  1.00  0.00     0.167 HD
ATOM     59  C   UNL A   1      40.471  33.036  37.533  1.00  0.00     0.037 A 
ATOM     60  C   UNL A   1      40.140  29.599  31.434  1.00  0.00     0.037 A 
ATOM     61  C   UNL A   1      41.545  32.110  37.304  1.00  0.00     0.049 A 
ATOM     62  C   UNL A   1      41.295  29.426  32.388  1.00  0.00     0.074 A 
ATOM     63  C   UNL A   1      42.608  31.800  38.131  1.00  0.00     0.029 A 
ATOM     64  N   UNL A   1      41.698  31.354  36.151  1.00  0.00    -0.354 N 
ATOM     65  N   UNL A   1      41.484  29.967  33.568  1.00  0.00    -0.248 NA
ATOM     66  C   UNL A   1      42.376  28.523  31.966  1.00  0.00     0.031 C 
ATOM     67  C   UNL A   1      43.434  30.895  37.457  1.00  0.00     0.029 A 
ATOM     68  C   UNL A   1      42.855  30.598  36.233  1.00  0.00     0.049 A 
ATOM     69  H   UNL A   1      41.075  31.355  35.387  1.00  0.00     0.167 HD
ATOM     70  C   UNL A   1      42.685  29.449  34.041  1.00  0.00     0.074 A 
ATOM     71  C   UNL A   1      43.176  28.543  33.023  1.00  0.00     0.031 C 
ATOM     72  C   UNL A   1      43.323  29.696  35.211  1.00  0.00     0.037 A 
BRANCH  59  73
ATOM     73  C   UNL A   1      40.460  33.835  38.802  1.00  0.00     0.057 A 
ATOM     74  C   UNL A   1      41.241  34.989  38.958  1.00  0.00     0.134 A 
ATOM     75  C   UNL A   1      39.664  33.442  39.884  1.00  0.00     0.134 A 
ATOM     76  F   UNL A   1      42.043  35.407  37.967  1.00  0.00    -0.206 F 
ATOM     77  C   UNL A   1      41.251  35.705  40.155  1.00  0.00     0.040 A 
ATOM     78  C   UNL A   1      39.645  34.165  41.077  1.00  0.00     0.040 A 
ATOM     79  F   UNL A   1      38.897  32.344  39.802  1.00  0.00    -0.206 F 
ATOM     80  C   UNL A   1      40.447  35.297  41.217  1.00  0.00     0.006 A 
ENDBRANCH  59  73
BRANCH  60  81
ATOM     81  C   UNL A   1      40.113  28.863  30.144  1.00  0.00     0.057 A 
ATOM     82  C   UNL A   1      40.760  29.363  29.008  1.00  0.00     0.134 A 
ATOM     83  C   UNL A   1      39.416  27.656  30.008  1.00  0.00     0.134 A 
ATOM     84  F   UNL A   1      41.421  30.528  29.065  1.00  0.00    -0.206 F 
ATOM     85  C   UNL A   1      40.706  28.697  27.781  1.00  0.00     0.040 A 
ATOM     86  C   UNL A   1      39.374  26.967  28.794  1.00  0.00     0.040 A 
ATOM     87  F   UNL A   1      38.769  27.127  31.056  1.00  0.00    -0.206 F 
ATOM     88  C   UNL A   1      40.016  27.491  27.674  1.00  0.00     0.006 A 
ENDBRANCH  60  81
BRANCH  72  89
ATOM     89  C   UNL A   1      44.599  28.951  35.476  1.00  0.00     0.057 A 
ATOM     90  C   UNL A   1      45.848  29.461  35.099  1.00  0.00     0.134 A 
ATOM     91  C   UNL A   1      44.581  27.732  36.166  1.00  0.00     0.134 A 
ATOM     92  F   UNL A   1      45.935  30.619  34.426  1.00  0.00    -0.206 F 
ATOM     93  C   UNL A   1      47.030  28.774  35.379  1.00  0.00     0.040 A 
ATOM     94  C   UNL A   1      45.758  27.050  36.478  1.00  0.00     0.040 A 
ATOM     95  F   UNL A   1      43.418  27.194  36.568  1.00  0.00    -0.206 F 
ATOM     96  C   UNL A   1      46.987  27.569  36.078  1.00  0.00     0.006 A 
ENDBRANCH  72  89
ENDBRANCH  46  47
ENDBRANCH  39  41
ENDBRANCH  38  39
ENDBRANCH  37  38
ENDBRANCH  36  37
ENDBRANCH  35  36
ENDBRANCH  34  35
ENDBRANCH  33  34
ENDBRANCH  32  33
ENDBRANCH   1  32
TORSDOF 25
ENDMDL
MODEL 3
REMARK VINA RESULT:      -9.8      4.663      8.607
REMARK SMILES COc1ccc(CNC(=O)[C@H]2CC(C)=C(C)C[C@@H]2C(=O)OCCOCCOCCOCCOC(=O)c2ccc(-c3c4nc(c(-c5c(F)cccc5F)c5ccc([nH]5)c(-c5c(F)cccc5F)c5nc(c(-c6c(F)cccc6F)c6ccc3[nH]6)C=C5)C=C4)cc2)cc1OC
REMARK SMILES IDX 26 1 25 2 24 3 23 4 22 5 21 6 19 7 20 8 18 9 11 10 12 11
REMARK SMILES IDX 13 12 17 13 14 14 15 15 16 16 9 17 8 18 10 20 7 21 6 22 3 23
REMARK SMILES IDX 4 24 91 25 5 26 90 27 2 28 1 29 92 30 93 31 27 32 28 33
REMARK SMILES IDX 29 34 30 35 31 36 32 37 33 38 34 39 35 40 36 41 37 42 89 43
REMARK SMILES IDX 38 44 88 45 39 46 40 47 41 48 82 49 42 50 87 51 81 52 83 53
REMARK SMILES IDX 43 54 86 55 80 56 79 57 44 59 70 60 53 61 69 62 54 63 57 64
REMARK SMILES IDX 68 65 84 66 55 67 56 68 67 70 85 71 58 72 45 73 46 74 51 75
REMARK SMILES IDX 47 76 48 77 50 78 52 79 49 80 71 81 72 82 77 83 73 84 74 85
REMARK SMILES IDX 76 86 78 87 75 88 59 89 60 90 65 91 61 92 62 93 64 94 66 95
REMARK SMILES IDX 63 96
REMARK H PARENT 8 19 83 58 57 69
REMARK Flexibility Score: inf
ROOT
ATOM      1  C   UNL A   1      33.036  30.442  27.285  1.00  0.00     0.188 C 
ENDROOT
BRANCH   1   2
ATOM      2  C   UNL A   1      33.008  29.487  26.065  1.00  0.00     0.188 C 
BRANCH   2   3
ATOM      3  O   UNL A   1      31.914  28.608  25.840  1.00  0.00    -0.376 OA
BRANCH   3   4
ATOM      4  C   UNL A   1      31.913  27.332  26.448  1.00  0.00     0.202 C 
BRANCH   4   5
ATOM      5  C   UNL A   1      32.224  26.103  25.579  1.00  0.00     0.261 C 
BRANCH   5   6
ATOM      6  O   UNL A   1      33.119  25.115  26.122  1.00  0.00    -0.463 OA
BRANCH   6   7
ATOM      7  C   UNL A   1      32.560  23.974  26.617  1.00  0.00     0.310 C 
ATOM      8  O   UNL A   1      31.636  23.952  27.419  1.00  0.00    -0.252 OA
BRANCH   7   9
ATOM      9  C   UNL A   1      33.256  22.730  26.050  1.00  0.00     0.116 C 
ATOM     10  C   UNL A   1      34.627  23.024  25.410  1.00  0.00     0.097 C 
ATOM     11  C   UNL A   1      34.553  23.658  24.026  1.00  0.00     0.045 C 
ATOM     12  C   UNL A   1      33.413  23.208  23.152  1.00  0.00    -0.074 C 
ATOM     13  C   UNL A   1      32.296  22.040  25.078  1.00  0.00     0.046 C 
ATOM     14  C   UNL A   1      33.579  23.617  21.709  1.00  0.00     0.039 C 
ATOM     15  C   UNL A   1      32.368  22.505  23.638  1.00  0.00    -0.073 C 
ATOM     16  C   UNL A   1      31.159  22.152  22.812  1.00  0.00     0.039 C 
BRANCH  10  17
ATOM     17  C   UNL A   1      35.669  21.946  25.722  1.00  0.00     0.224 C 
ATOM     18  N   UNL A   1      36.908  22.179  26.211  1.00  0.00    -0.352 N 
ATOM     19  H   UNL A   1      37.258  21.469  26.796  1.00  0.00     0.163 HD
ATOM     20  O   UNL A   1      35.338  20.757  25.629  1.00  0.00    -0.275 OA
BRANCH  18  21
ATOM     21  C   UNL A   1      37.805  23.296  26.018  1.00  0.00     0.151 C 
BRANCH  21  22
ATOM     22  C   UNL A   1      39.169  23.104  26.637  1.00  0.00    -0.025 A 
ATOM     23  C   UNL A   1      41.767  22.622  27.643  1.00  0.00     0.160 A 
ATOM     24  C   UNL A   1      41.200  23.903  27.709  1.00  0.00     0.051 A 
ATOM     25  C   UNL A   1      41.037  21.567  27.091  1.00  0.00     0.161 A 
ATOM     26  C   UNL A   1      39.913  24.144  27.207  1.00  0.00     0.009 A 
ATOM     27  C   UNL A   1      39.755  21.829  26.583  1.00  0.00     0.056 A 
BRANCH  23  28
ATOM     28  O   UNL A   1      42.988  22.434  28.234  1.00  0.00    -0.493 OA
ATOM     29  C   UNL A   1      44.055  22.934  27.426  1.00  0.00     0.278 C 
ENDBRANCH  23  28
BRANCH  25  30
ATOM     30  O   UNL A   1      41.377  20.248  26.974  1.00  0.00    -0.493 OA
ATOM     31  C   UNL A   1      42.348  19.869  26.014  1.00  0.00     0.278 C 
ENDBRANCH  25  30
ENDBRANCH  21  22
ENDBRANCH  18  21
ENDBRANCH  10  17
ENDBRANCH   7   9
ENDBRANCH   6   7
ENDBRANCH   5   6
ENDBRANCH   4   5
ENDBRANCH   3   4
ENDBRANCH   2   3
ENDBRANCH   1   2
BRANCH   1  32
ATOM     32  O   UNL A   1      34.310  31.017  27.524  1.00  0.00    -0.377 OA
BRANCH  32  33
ATOM     33  C   UNL A   1      34.303  32.096  28.439  1.00  0.00     0.188 C 
BRANCH  33  34
ATOM     34  C   UNL A   1      33.524  33.328  27.962  1.00  0.00     0.188 C 
BRANCH  34  35
ATOM     35  O   UNL A   1      34.384  34.452  27.782  1.00  0.00    -0.376 OA
BRANCH  35  36
ATOM     36  C   UNL A   1      34.205  35.573  28.632  1.00  0.00     0.202 C 
BRANCH  36  37
ATOM     37  C   UNL A   1      32.936  35.527  29.491  1.00  0.00     0.261 C 
BRANCH  37  38
ATOM     38  O   UNL A   1      32.996  34.689  30.654  1.00  0.00    -0.460 OA
BRANCH  38  39
ATOM     39  C   UNL A   1      33.105  35.286  31.860  1.00  0.00     0.338 C 
ATOM     40  O   UNL A   1      32.282  35.997  32.408  1.00  0.00    -0.246 OA
BRANCH  39  41
ATOM     41  C   UNL A   1      34.318  34.743  32.510  1.00  0.00     0.060 A 
ATOM     42  C   UNL A   1      35.539  35.403  32.313  1.00  0.00     0.016 A 
ATOM     43  C   UNL A   1      34.240  33.637  33.362  1.00  0.00     0.016 A 
ATOM     44  C   UNL A   1      36.688  34.948  32.959  1.00  0.00     0.010 A 
ATOM     45  C   UNL A   1      35.398  33.160  33.979  1.00  0.00     0.010 A 
ATOM     46  C   UNL A   1      36.631  33.797  33.755  1.00  0.00    -0.014 A 
BRANCH  46  47
ATOM     47  C   UNL A   1      37.890  33.112  34.125  1.00  0.00     0.031 A 
ATOM     48  C   UNL A   1      38.410  32.065  33.178  1.00  0.00     0.074 A 
ATOM     49  C   UNL A   1      38.568  33.415  35.245  1.00  0.00     0.049 A 
ATOM     50  N   UNL A   1      39.471  31.308  33.272  1.00  0.00    -0.248 NA
ATOM     51  C   UNL A   1      37.617  31.844  31.957  1.00  0.00     0.031 C 
ATOM     52  C   UNL A   1      38.188  34.437  36.217  1.00  0.00     0.029 A 
ATOM     53  N   UNL A   1      39.725  32.878  35.750  1.00  0.00    -0.354 N 
ATOM     54  C   UNL A   1      39.474  30.526  32.124  1.00  0.00     0.074 A 
ATOM     55  C   UNL A   1      38.293  30.874  31.366  1.00  0.00     0.031 C 
ATOM     56  C   UNL A   1      39.095  34.446  37.211  1.00  0.00     0.029 A 
ATOM     57  C   UNL A   1      40.100  33.414  36.957  1.00  0.00     0.049 A 
ATOM     58  H   UNL A   1      40.239  32.175  35.290  1.00  0.00     0.167 HD
ATOM     59  C   UNL A   1      40.382  29.605  31.731  1.00  0.00     0.037 A 
ATOM     60  C   UNL A   1      41.127  33.090  37.766  1.00  0.00     0.037 A 
ATOM     61  C   UNL A   1      41.545  29.246  32.496  1.00  0.00     0.049 A 
ATOM     62  C   UNL A   1      42.079  31.997  37.351  1.00  0.00     0.074 A 
ATOM     63  C   UNL A   1      42.531  28.329  32.185  1.00  0.00     0.029 A 
ATOM     64  N   UNL A   1      41.867  29.781  33.734  1.00  0.00    -0.354 N 
ATOM     65  N   UNL A   1      42.093  31.283  36.251  1.00  0.00    -0.248 NA
ATOM     66  C   UNL A   1      43.161  31.667  38.290  1.00  0.00     0.031 C 
ATOM     67  C   UNL A   1      43.424  28.270  33.260  1.00  0.00     0.029 A 
ATOM     68  C   UNL A   1      43.023  29.193  34.215  1.00  0.00     0.049 A 
ATOM     69  H   UNL A   1      41.349  30.477  34.201  1.00  0.00     0.167 HD
ATOM     70  C   UNL A   1      43.197  30.443  36.351  1.00  0.00     0.074 A 
ATOM     71  C   UNL A   1      43.833  30.743  37.617  1.00  0.00     0.031 C 
ATOM     72  C   UNL A   1      43.646  29.511  35.475  1.00  0.00     0.037 A 
BRANCH  59  73
ATOM     73  C   UNL A   1      40.123  28.903  30.432  1.00  0.00     0.057 A 
ATOM     74  C   UNL A   1      39.318  27.757  30.356  1.00  0.00     0.134 A 
ATOM     75  C   UNL A   1      40.691  29.374  29.242  1.00  0.00     0.134 A 
ATOM     76  F   UNL A   1      38.763  27.242  31.463  1.00  0.00    -0.206 F 
ATOM     77  C   UNL A   1      39.112  27.091  29.147  1.00  0.00     0.040 A 
ATOM     78  C   UNL A   1      40.470  28.732  28.024  1.00  0.00     0.040 A 
ATOM     79  F   UNL A   1      41.475  30.463  29.245  1.00  0.00    -0.206 F 
ATOM     80  C   UNL A   1      39.684  27.581  27.976  1.00  0.00     0.006 A 
ENDBRANCH  59  73
BRANCH  60  81
ATOM     81  C   UNL A   1      41.310  33.797  39.060  1.00  0.00     0.057 A 
ATOM     82  C   UNL A   1      42.207  34.864  39.185  1.00  0.00     0.134 A 
ATOM     83  C   UNL A   1      40.613  33.406  40.209  1.00  0.00     0.134 A 
ATOM     84  F   UNL A   1      42.926  35.268  38.127  1.00  0.00    -0.206 F 
ATOM     85  C   UNL A   1      42.415  35.509  40.406  1.00  0.00     0.040 A 
ATOM     86  C   UNL A   1      40.791  34.057  41.432  1.00  0.00     0.040 A 
ATOM     87  F   UNL A   1      39.743  32.387  40.160  1.00  0.00    -0.206 F 
ATOM     88  C   UNL A   1      41.700  35.108  41.533  1.00  0.00     0.006 A 
ENDBRANCH  60  81
BRANCH  72  89
ATOM     89  C   UNL A   1      44.904  28.774  35.832  1.00  0.00     0.057 A 
ATOM     90  C   UNL A   1      44.884  27.580  36.563  1.00  0.00     0.134 A 
ATOM     91  C   UNL A   1      46.150  29.240  35.391  1.00  0.00     0.134 A 
ATOM     92  F   UNL A   1      43.725  27.083  37.023  1.00  0.00    -0.206 F 
ATOM     93  C   UNL A   1      46.059  26.886  36.860  1.00  0.00     0.040 A 
ATOM     94  C   UNL A   1      47.329  28.541  35.658  1.00  0.00     0.040 A 
ATOM     95  F   UNL A   1      46.240  30.372  34.675  1.00  0.00    -0.206 F 
ATOM     96  C   UNL A   1      47.284  27.364  36.400  1.00  0.00     0.006 A 
ENDBRANCH  72  89
ENDBRANCH  46  47
ENDBRANCH  39  41
ENDBRANCH  38  39
ENDBRANCH  37  38
ENDBRANCH  36  37
ENDBRANCH  35  36
ENDBRANCH  34  35
ENDBRANCH  33  34
ENDBRANCH  32  33
ENDBRANCH   1  32
TORSDOF 25
ENDMDL
