MODEL 1
REMARK VINA RESULT:      -9.8      0.000      0.000
REMARK SMILES O=C(OCCOCCOCCOCCOC(=O)[C@H]1C[N@H+](Cc2ccc(Cl)c(Cl)c2)CC12CCCCC2)c1ccc(-c2c3nc(c(-c4c(F)cccc4F)c4ccc([nH]4)c(-c4c(F)cccc4F)c4nc(c(-c5c(F)cccc5F)c5ccc2[nH]5)C=C4)C=C3)cc1
REMARK SMILES IDX 9 1 8 2 7 3 6 4 5 5 4 6 3 7 2 8 1 9 37 10 38 11 90 12 39 13
REMARK SMILES IDX 89 14 40 15 41 16 42 17 83 18 43 19 88 20 82 21 84 22 44 23
REMARK SMILES IDX 87 24 81 25 80 26 45 28 71 29 54 30 70 31 55 32 58 33 69 34
REMARK SMILES IDX 85 35 56 36 57 37 68 39 86 40 59 41 46 42 47 43 52 44 48 45
REMARK SMILES IDX 49 46 51 47 53 48 50 49 72 50 73 51 78 52 74 53 75 54 77 55
REMARK SMILES IDX 79 56 76 57 60 58 61 59 66 60 62 61 63 62 65 63 67 64 64 65
REMARK SMILES IDX 10 66 11 67 12 68 13 69 14 70 15 71 16 72 17 73 18 74 19 75
REMARK SMILES IDX 31 76 20 77 30 78 32 79 36 80 33 82 35 83 34 84 21 85 22 86
REMARK SMILES IDX 23 87 29 88 24 89 27 90 25 91 28 92 26 93
REMARK H PARENT 84 27 58 38 20 81
REMARK Flexibility Score: inf
ROOT
ATOM      1  O   UNL A   1      42.665  19.553  25.016  1.00  0.00    -0.377 OA
ENDROOT
BRANCH   1   2
ATOM      2  C   UNL A   1      44.010  19.092  24.966  1.00  0.00     0.188 C 
BRANCH   2   3
ATOM      3  C   UNL A   1      45.007  20.181  24.564  1.00  0.00     0.188 C 
BRANCH   3   4
ATOM      4  O   UNL A   1      44.326  21.435  24.625  1.00  0.00    -0.376 OA
BRANCH   4   5
ATOM      5  C   UNL A   1      44.702  22.307  25.688  1.00  0.00     0.202 C 
BRANCH   5   6
ATOM      6  C   UNL A   1      43.629  22.412  26.767  1.00  0.00     0.261 C 
BRANCH   6   7
ATOM      7  O   UNL A   1      42.494  23.159  26.309  1.00  0.00    -0.460 OA
BRANCH   7   8
ATOM      8  C   UNL A   1      42.312  24.502  26.393  1.00  0.00     0.338 C 
ATOM      9  O   UNL A   1      41.161  24.932  26.471  1.00  0.00    -0.246 OA
BRANCH   8  10
ATOM     10  C   UNL A   1      43.428  25.500  26.440  1.00  0.00     0.060 A 
ATOM     11  C   UNL A   1      44.071  25.949  27.595  1.00  0.00     0.016 A 
ATOM     12  C   UNL A   1      43.912  25.962  25.205  1.00  0.00     0.016 A 
ATOM     13  C   UNL A   1      45.133  26.831  27.552  1.00  0.00     0.010 A 
ATOM     14  C   UNL A   1      44.989  26.850  25.143  1.00  0.00     0.010 A 
ATOM     15  C   UNL A   1      45.592  27.287  26.327  1.00  0.00    -0.014 A 
BRANCH  15  16
ATOM     16  C   UNL A   1      46.599  28.351  26.355  1.00  0.00     0.031 A 
ATOM     17  C   UNL A   1      46.112  29.749  26.540  1.00  0.00     0.074 A 
ATOM     18  C   UNL A   1      47.904  28.030  26.380  1.00  0.00     0.049 A 
ATOM     19  N   UNL A   1      46.767  30.870  26.454  1.00  0.00    -0.248 NA
ATOM     20  C   UNL A   1      44.685  29.907  26.882  1.00  0.00     0.031 C 
ATOM     21  C   UNL A   1      48.442  26.665  26.409  1.00  0.00     0.029 A 
ATOM     22  N   UNL A   1      49.016  28.825  26.412  1.00  0.00    -0.354 N 
ATOM     23  C   UNL A   1      45.825  31.865  26.669  1.00  0.00     0.074 A 
ATOM     24  C   UNL A   1      44.557  31.223  26.923  1.00  0.00     0.031 C 
ATOM     25  C   UNL A   1      49.783  26.722  26.443  1.00  0.00     0.029 A 
ATOM     26  C   UNL A   1      50.190  28.117  26.344  1.00  0.00     0.049 A 
ATOM     27  H   UNL A   1      48.977  29.806  26.478  1.00  0.00     0.167 HD
ATOM     28  C   UNL A   1      46.021  33.200  26.622  1.00  0.00     0.037 A 
ATOM     29  C   UNL A   1      51.442  28.566  26.142  1.00  0.00     0.037 A 
ATOM     30  C   UNL A   1      47.313  33.780  26.381  1.00  0.00     0.049 A 
ATOM     31  C   UNL A   1      51.615  30.053  25.975  1.00  0.00     0.074 A 
ATOM     32  C   UNL A   1      47.657  35.109  26.249  1.00  0.00     0.029 A 
ATOM     33  N   UNL A   1      48.480  33.038  26.237  1.00  0.00    -0.354 N 
ATOM     34  N   UNL A   1      50.717  31.006  26.081  1.00  0.00    -0.248 NA
ATOM     35  C   UNL A   1      52.959  30.528  25.628  1.00  0.00     0.031 C 
ATOM     36  C   UNL A   1      49.027  35.168  25.972  1.00  0.00     0.029 A 
ATOM     37  C   UNL A   1      49.544  33.879  25.984  1.00  0.00     0.049 A 
ATOM     38  H   UNL A   1      48.538  32.058  26.304  1.00  0.00     0.167 HD
ATOM     39  C   UNL A   1      51.385  32.192  25.823  1.00  0.00     0.074 A 
ATOM     40  C   UNL A   1      52.772  31.840  25.587  1.00  0.00     0.031 C 
ATOM     41  C   UNL A   1      50.907  33.461  25.770  1.00  0.00     0.037 A 
BRANCH  28  42
ATOM     42  C   UNL A   1      44.814  34.079  26.725  1.00  0.00     0.057 A 
ATOM     43  C   UNL A   1      44.367  34.615  27.939  1.00  0.00     0.134 A 
ATOM     44  C   UNL A   1      44.068  34.373  25.575  1.00  0.00     0.134 A 
ATOM     45  F   UNL A   1      45.012  34.339  29.082  1.00  0.00    -0.206 F 
ATOM     46  C   UNL A   1      43.216  35.402  28.007  1.00  0.00     0.040 A 
ATOM     47  C   UNL A   1      42.928  35.176  25.627  1.00  0.00     0.040 A 
ATOM     48  F   UNL A   1      44.431  33.875  24.383  1.00  0.00    -0.206 F 
ATOM     49  C   UNL A   1      42.497  35.692  26.847  1.00  0.00     0.006 A 
ENDBRANCH  28  42
BRANCH  29  50
ATOM     50  C   UNL A   1      52.578  27.622  25.965  1.00  0.00     0.057 A 
ATOM     51  C   UNL A   1      53.384  27.233  27.039  1.00  0.00     0.134 A 
ATOM     52  C   UNL A   1      52.923  27.127  24.698  1.00  0.00     0.134 A 
ATOM     53  F   UNL A   1      53.126  27.685  28.275  1.00  0.00    -0.206 F 
ATOM     54  C   UNL A   1      54.504  26.415  26.859  1.00  0.00     0.040 A 
ATOM     55  C   UNL A   1      54.019  26.283  24.508  1.00  0.00     0.040 A 
ATOM     56  F   UNL A   1      52.200  27.459  23.618  1.00  0.00    -0.206 F 
ATOM     57  C   UNL A   1      54.822  25.936  25.590  1.00  0.00     0.006 A 
ENDBRANCH  29  50
BRANCH  41  58
ATOM     58  C   UNL A   1      51.903  34.537  25.473  1.00  0.00     0.057 A 
ATOM     59  C   UNL A   1      52.315  34.812  24.163  1.00  0.00     0.134 A 
ATOM     60  C   UNL A   1      52.403  35.342  26.502  1.00  0.00     0.134 A 
ATOM     61  F   UNL A   1      51.878  34.062  23.140  1.00  0.00    -0.206 F 
ATOM     62  C   UNL A   1      53.207  35.847  23.890  1.00  0.00     0.040 A 
ATOM     63  C   UNL A   1      53.271  36.398  26.237  1.00  0.00     0.040 A 
ATOM     64  F   UNL A   1      52.034  35.130  27.774  1.00  0.00    -0.206 F 
ATOM     65  C   UNL A   1      53.680  36.649  24.929  1.00  0.00     0.006 A 
ENDBRANCH  41  58
ENDBRANCH  15  16
ENDBRANCH   8  10
ENDBRANCH   7   8
ENDBRANCH   6   7
ENDBRANCH   5   6
ENDBRANCH   4   5
ENDBRANCH   3   4
ENDBRANCH   2   3
ENDBRANCH   1   2
BRANCH   1  66
ATOM     66  C   UNL A   1      41.902  19.125  26.129  1.00  0.00     0.188 C 
BRANCH  66  67
ATOM     67  C   UNL A   1      40.423  19.538  26.263  1.00  0.00     0.188 C 
BRANCH  67  68
ATOM     68  O   UNL A   1      40.058  20.799  26.793  1.00  0.00    -0.376 OA
BRANCH  68  69
ATOM     69  C   UNL A   1      39.421  21.732  25.943  1.00  0.00     0.202 C 
BRANCH  69  70
ATOM     70  C   UNL A   1      38.015  21.392  25.418  1.00  0.00     0.261 C 
BRANCH  70  71
ATOM     71  O   UNL A   1      36.920  22.018  26.118  1.00  0.00    -0.463 OA
BRANCH  71  72
ATOM     72  C   UNL A   1      36.468  23.249  25.716  1.00  0.00     0.315 C 
ATOM     73  O   UNL A   1      37.169  24.245  25.595  1.00  0.00    -0.252 OA
BRANCH  72  74
ATOM     74  C   UNL A   1      34.955  23.193  25.488  1.00  0.00     0.166 C 
ATOM     75  C   UNL A   1      34.371  22.506  26.721  1.00  0.00     0.278 C 
ATOM     76  C   UNL A   1      34.060  24.474  25.238  1.00  0.00     0.038 C 
ATOM     77  N   UNL A   1      32.992  22.944  26.809  1.00  0.00    -0.330 N 
ATOM     78  C   UNL A   1      32.978  24.329  26.345  1.00  0.00     0.270 C 
ATOM     79  C   UNL A   1      34.767  25.848  25.305  1.00  0.00     0.014 C 
ATOM     80  C   UNL A   1      33.413  24.438  23.825  1.00  0.00     0.014 C 
ATOM     81  H   UNL A   1      32.664  22.929  27.775  1.00  0.00     0.348 HD
ATOM     82  C   UNL A   1      33.839  27.043  25.011  1.00  0.00     0.001 C 
ATOM     83  C   UNL A   1      32.413  25.557  23.543  1.00  0.00     0.001 C 
ATOM     84  C   UNL A   1      33.075  26.914  23.694  1.00  0.00     0.000 C 
BRANCH  77  85
ATOM     85  C   UNL A   1      31.946  22.015  26.371  1.00  0.00     0.299 C 
BRANCH  85  86
ATOM     86  C   UNL A   1      32.258  21.023  25.267  1.00  0.00     0.008 A 
ATOM     87  C   UNL A   1      32.137  21.367  23.911  1.00  0.00     0.011 A 
ATOM     88  C   UNL A   1      32.623  19.702  25.588  1.00  0.00     0.031 A 
ATOM     89  C   UNL A   1      32.229  20.389  22.913  1.00  0.00     0.022 A 
ATOM     90  C   UNL A   1      32.737  18.724  24.590  1.00  0.00     0.060 A 
ATOM     91  C   UNL A   1      32.503  19.062  23.252  1.00  0.00     0.059 A 
ATOM     92  Cl  UNL A   1      33.074  17.104  25.087  1.00  0.00    -0.083 Cl
ATOM     93  Cl  UNL A   1      32.472  17.885  21.988  1.00  0.00    -0.083 Cl
ENDBRANCH  85  86
ENDBRANCH  77  85
ENDBRANCH  72  74
ENDBRANCH  71  72
ENDBRANCH  70  71
ENDBRANCH  69  70
ENDBRANCH  68  69
ENDBRANCH  67  68
ENDBRANCH  66  67
ENDBRANCH   1  66
TORSDOF 22
ENDMDL
MODEL 2
REMARK VINA RESULT:      -9.7      6.222     10.296
REMARK SMILES O=C(OCCOCCOCCOCCOC(=O)[C@H]1C[N@H+](Cc2ccc(Cl)c(Cl)c2)CC12CCCCC2)c1ccc(-c2c3nc(c(-c4c(F)cccc4F)c4ccc([nH]4)c(-c4c(F)cccc4F)c4nc(c(-c5c(F)cccc5F)c5ccc2[nH]5)C=C4)C=C3)cc1
REMARK SMILES IDX 9 1 8 2 7 3 6 4 5 5 4 6 3 7 2 8 1 9 37 10 38 11 90 12 39 13
REMARK SMILES IDX 89 14 40 15 41 16 42 17 83 18 43 19 88 20 82 21 84 22 44 23
REMARK SMILES IDX 87 24 81 25 80 26 45 28 71 29 54 30 70 31 55 32 58 33 69 34
REMARK SMILES IDX 85 35 56 36 57 37 68 39 86 40 59 41 46 42 47 43 52 44 48 45
REMARK SMILES IDX 49 46 51 47 53 48 50 49 72 50 73 51 78 52 74 53 75 54 77 55
REMARK SMILES IDX 79 56 76 57 60 58 61 59 66 60 62 61 63 62 65 63 67 64 64 65
REMARK SMILES IDX 10 66 11 67 12 68 13 69 14 70 15 71 16 72 17 73 18 74 19 75
REMARK SMILES IDX 31 76 20 77 30 78 32 79 36 80 33 82 35 83 34 84 21 85 22 86
REMARK SMILES IDX 23 87 29 88 24 89 27 90 25 91 28 92 26 93
REMARK H PARENT 84 27 58 38 20 81
REMARK Flexibility Score: inf
ROOT
ATOM      1  O   UNL A   1      42.866  19.428  25.009  1.00  0.00    -0.377 OA
ENDROOT
BRANCH   1   2
ATOM      2  C   UNL A   1      44.271  19.648  24.992  1.00  0.00     0.188 C 
BRANCH   2   3
ATOM      3  C   UNL A   1      44.669  21.045  25.475  1.00  0.00     0.188 C 
BRANCH   3   4
ATOM      4  O   UNL A   1      44.496  21.946  24.381  1.00  0.00    -0.376 OA
BRANCH   4   5
ATOM      5  C   UNL A   1      43.491  22.944  24.539  1.00  0.00     0.202 C 
BRANCH   5   6
ATOM      6  C   UNL A   1      44.076  24.330  24.793  1.00  0.00     0.261 C 
BRANCH   6   7
ATOM      7  O   UNL A   1      45.368  24.250  25.408  1.00  0.00    -0.460 OA
BRANCH   7   8
ATOM      8  C   UNL A   1      45.659  24.429  26.723  1.00  0.00     0.338 C 
ATOM      9  O   UNL A   1      46.580  23.774  27.212  1.00  0.00    -0.246 OA
BRANCH   8  10
ATOM     10  C   UNL A   1      44.958  25.408  27.614  1.00  0.00     0.060 A 
ATOM     11  C   UNL A   1      45.118  26.796  27.583  1.00  0.00     0.016 A 
ATOM     12  C   UNL A   1      44.005  24.882  28.501  1.00  0.00     0.016 A 
ATOM     13  C   UNL A   1      44.391  27.638  28.402  1.00  0.00     0.010 A 
ATOM     14  C   UNL A   1      43.257  25.721  29.332  1.00  0.00     0.010 A 
ATOM     15  C   UNL A   1      43.463  27.104  29.279  1.00  0.00    -0.014 A 
BRANCH  15  16
ATOM     16  C   UNL A   1      42.855  28.030  30.240  1.00  0.00     0.031 A 
ATOM     17  C   UNL A   1      43.606  28.297  31.501  1.00  0.00     0.074 A 
ATOM     18  C   UNL A   1      41.754  28.718  29.893  1.00  0.00     0.049 A 
ATOM     19  N   UNL A   1      43.231  28.947  32.564  1.00  0.00    -0.248 NA
ATOM     20  C   UNL A   1      44.981  27.765  31.571  1.00  0.00     0.031 C 
ATOM     21  C   UNL A   1      41.087  28.651  28.588  1.00  0.00     0.029 A 
ATOM     22  N   UNL A   1      41.016  29.628  30.597  1.00  0.00    -0.354 N 
ATOM     23  C   UNL A   1      44.294  28.851  33.450  1.00  0.00     0.074 A 
ATOM     24  C   UNL A   1      45.346  28.111  32.795  1.00  0.00     0.031 C 
ATOM     25  C   UNL A   1      40.031  29.480  28.592  1.00  0.00     0.029 A 
ATOM     26  C   UNL A   1      39.898  30.055  29.924  1.00  0.00     0.049 A 
ATOM     27  H   UNL A   1      41.261  29.944  31.496  1.00  0.00     0.167 HD
ATOM     28  C   UNL A   1      44.350  29.325  34.713  1.00  0.00     0.037 A 
ATOM     29  C   UNL A   1      38.852  30.769  30.379  1.00  0.00     0.037 A 
ATOM     30  C   UNL A   1      43.274  30.070  35.304  1.00  0.00     0.049 A 
ATOM     31  C   UNL A   1      38.888  31.183  31.827  1.00  0.00     0.074 A 
ATOM     32  C   UNL A   1      43.163  30.565  36.586  1.00  0.00     0.029 A 
ATOM     33  N   UNL A   1      42.114  30.426  34.625  1.00  0.00    -0.354 N 
ATOM     34  N   UNL A   1      39.847  31.018  32.710  1.00  0.00    -0.248 NA
ATOM     35  C   UNL A   1      37.692  31.849  32.354  1.00  0.00     0.031 C 
ATOM     36  C   UNL A   1      41.909  31.176  36.699  1.00  0.00     0.029 A 
ATOM     37  C   UNL A   1      41.263  31.107  35.471  1.00  0.00     0.049 A 
ATOM     38  H   UNL A   1      41.927  30.221  33.681  1.00  0.00     0.167 HD
ATOM     39  C   UNL A   1      39.378  31.566  33.893  1.00  0.00     0.074 A 
ATOM     40  C   UNL A   1      38.058  32.096  33.605  1.00  0.00     0.031 C 
ATOM     41  C   UNL A   1      39.965  31.621  35.114  1.00  0.00     0.037 A 
BRANCH  28  42
ATOM     42  C   UNL A   1      45.544  28.955  35.535  1.00  0.00     0.057 A 
ATOM     43  C   UNL A   1      45.600  27.791  36.312  1.00  0.00     0.134 A 
ATOM     44  C   UNL A   1      46.659  29.805  35.565  1.00  0.00     0.134 A 
ATOM     45  F   UNL A   1      44.552  26.956  36.360  1.00  0.00    -0.206 F 
ATOM     46  C   UNL A   1      46.715  27.492  37.097  1.00  0.00     0.040 A 
ATOM     47  C   UNL A   1      47.788  29.506  36.328  1.00  0.00     0.040 A 
ATOM     48  F   UNL A   1      46.663  30.945  34.859  1.00  0.00    -0.206 F 
ATOM     49  C   UNL A   1      47.817  28.346  37.101  1.00  0.00     0.006 A 
ENDBRANCH  28  42
BRANCH  29  50
ATOM     50  C   UNL A   1      37.662  31.021  29.524  1.00  0.00     0.057 A 
ATOM     51  C   UNL A   1      36.692  30.037  29.306  1.00  0.00     0.134 A 
ATOM     52  C   UNL A   1      37.493  32.242  28.853  1.00  0.00     0.134 A 
ATOM     53  F   UNL A   1      36.801  28.840  29.898  1.00  0.00    -0.206 F 
ATOM     54  C   UNL A   1      35.619  30.245  28.434  1.00  0.00     0.040 A 
ATOM     55  C   UNL A   1      36.408  32.475  28.005  1.00  0.00     0.040 A 
ATOM     56  F   UNL A   1      38.384  33.233  29.007  1.00  0.00    -0.206 F 
ATOM     57  C   UNL A   1      35.474  31.468  27.782  1.00  0.00     0.006 A 
ENDBRANCH  29  50
BRANCH  41  58
ATOM     58  C   UNL A   1      39.187  32.297  36.199  1.00  0.00     0.057 A 
ATOM     59  C   UNL A   1      38.262  31.597  36.982  1.00  0.00     0.134 A 
ATOM     60  C   UNL A   1      39.415  33.645  36.498  1.00  0.00     0.134 A 
ATOM     61  F   UNL A   1      37.993  30.307  36.730  1.00  0.00    -0.206 F 
ATOM     62  C   UNL A   1      37.575  32.223  38.020  1.00  0.00     0.040 A 
ATOM     63  C   UNL A   1      38.758  34.273  37.552  1.00  0.00     0.040 A 
ATOM     64  F   UNL A   1      40.299  34.360  35.786  1.00  0.00    -0.206 F 
ATOM     65  C   UNL A   1      37.831  33.563  38.313  1.00  0.00     0.006 A 
ENDBRANCH  41  58
ENDBRANCH  15  16
ENDBRANCH   8  10
ENDBRANCH   7   8
ENDBRANCH   6   7
ENDBRANCH   5   6
ENDBRANCH   4   5
ENDBRANCH   3   4
ENDBRANCH   2   3
ENDBRANCH   1   2
BRANCH   1  66
ATOM     66  C   UNL A   1      42.126  20.203  25.934  1.00  0.00     0.188 C 
BRANCH  66  67
ATOM     67  C   UNL A   1      40.814  19.658  26.531  1.00  0.00     0.188 C 
BRANCH  67  68
ATOM     68  O   UNL A   1      39.726  20.517  26.819  1.00  0.00    -0.376 OA
BRANCH  68  69
ATOM     69  C   UNL A   1      39.234  21.353  25.792  1.00  0.00     0.202 C 
BRANCH  69  70
ATOM     70  C   UNL A   1      37.929  20.943  25.086  1.00  0.00     0.261 C 
BRANCH  70  71
ATOM     71  O   UNL A   1      36.747  21.661  25.494  1.00  0.00    -0.463 OA
BRANCH  71  72
ATOM     72  C   UNL A   1      36.300  22.721  24.748  1.00  0.00     0.315 C 
ATOM     73  O   UNL A   1      37.005  23.634  24.339  1.00  0.00    -0.252 OA
BRANCH  72  74
ATOM     74  C   UNL A   1      34.787  22.607  24.545  1.00  0.00     0.166 C 
ATOM     75  C   UNL A   1      34.235  22.018  25.842  1.00  0.00     0.278 C 
ATOM     76  C   UNL A   1      33.857  23.838  24.195  1.00  0.00     0.038 C 
ATOM     77  N   UNL A   1      32.845  22.428  25.908  1.00  0.00    -0.330 N 
ATOM     78  C   UNL A   1      32.790  23.766  25.325  1.00  0.00     0.270 C 
ATOM     79  C   UNL A   1      34.528  25.231  24.130  1.00  0.00     0.014 C 
ATOM     80  C   UNL A   1      33.195  23.661  22.799  1.00  0.00     0.014 C 
ATOM     81  H   UNL A   1      32.529  22.491  26.876  1.00  0.00     0.348 HD
ATOM     82  C   UNL A   1      33.566  26.371  23.744  1.00  0.00     0.001 C 
ATOM     83  C   UNL A   1      32.163  24.726  22.432  1.00  0.00     0.001 C 
ATOM     84  C   UNL A   1      32.792  26.106  22.454  1.00  0.00     0.000 C 
BRANCH  77  85
ATOM     85  C   UNL A   1      31.819  21.438  25.568  1.00  0.00     0.299 C 
BRANCH  85  86
ATOM     86  C   UNL A   1      32.244  20.125  24.939  1.00  0.00     0.008 A 
ATOM     87  C   UNL A   1      32.930  19.144  25.673  1.00  0.00     0.011 A 
ATOM     88  C   UNL A   1      32.006  19.889  23.572  1.00  0.00     0.031 A 
ATOM     89  C   UNL A   1      33.492  18.033  25.032  1.00  0.00     0.022 A 
ATOM     90  C   UNL A   1      32.550  18.766  22.931  1.00  0.00     0.060 A 
ATOM     91  C   UNL A   1      33.325  17.855  23.657  1.00  0.00     0.059 A 
ATOM     92  Cl  UNL A   1      32.304  18.616  21.227  1.00  0.00    -0.083 Cl
ATOM     93  Cl  UNL A   1      34.154  16.536  22.910  1.00  0.00    -0.083 Cl
ENDBRANCH  85  86
ENDBRANCH  77  85
ENDBRANCH  72  74
ENDBRANCH  71  72
ENDBRANCH  70  71
ENDBRANCH  69  70
ENDBRANCH  68  69
ENDBRANCH  67  68
ENDBRANCH  66  67
ENDBRANCH   1  66
TORSDOF 22
ENDMDL
MODEL 3
REMARK VINA RESULT:      -9.7      6.705     10.242
REMARK SMILES O=C(OCCOCCOCCOCCOC(=O)[C@H]1C[N@H+](Cc2ccc(Cl)c(Cl)c2)CC12CCCCC2)c1ccc(-c2c3nc(c(-c4c(F)cccc4F)c4ccc([nH]4)c(-c4c(F)cccc4F)c4nc(c(-c5c(F)cccc5F)c5ccc2[nH]5)C=C4)C=C3)cc1
REMARK SMILES IDX 9 1 8 2 7 3 6 4 5 5 4 6 3 7 2 8 1 9 37 10 38 11 90 12 39 13
REMARK SMILES IDX 89 14 40 15 41 16 42 17 83 18 43 19 88 20 82 21 84 22 44 23
REMARK SMILES IDX 87 24 81 25 80 26 45 28 71 29 54 30 70 31 55 32 58 33 69 34
REMARK SMILES IDX 85 35 56 36 57 37 68 39 86 40 59 41 46 42 47 43 52 44 48 45
REMARK SMILES IDX 49 46 51 47 53 48 50 49 72 50 73 51 78 52 74 53 75 54 77 55
REMARK SMILES IDX 79 56 76 57 60 58 61 59 66 60 62 61 63 62 65 63 67 64 64 65
REMARK SMILES IDX 10 66 11 67 12 68 13 69 14 70 15 71 16 72 17 73 18 74 19 75
REMARK SMILES IDX 31 76 20 77 30 78 32 79 36 80 33 82 35 83 34 84 21 85 22 86
REMARK SMILES IDX 23 87 29 88 24 89 27 90 25 91 28 92 26 93
REMARK H PARENT 84 27 58 38 20 81
REMARK Flexibility Score: inf
ROOT
ATOM      1  O   UNL A   1      30.070  31.499  25.662  1.00  0.00    -0.377 OA
ENDROOT
BRANCH   1   2
ATOM      2  C   UNL A   1      31.346  31.681  26.264  1.00  0.00     0.188 C 
BRANCH   2   3
ATOM      3  C   UNL A   1      31.700  33.152  26.493  1.00  0.00     0.188 C 
BRANCH   3   4
ATOM      4  O   UNL A   1      32.150  33.284  27.841  1.00  0.00    -0.376 OA
BRANCH   4   5
ATOM      5  C   UNL A   1      33.281  34.127  28.050  1.00  0.00     0.202 C 
BRANCH   5   6
ATOM      6  C   UNL A   1      34.193  33.618  29.163  1.00  0.00     0.261 C 
BRANCH   6   7
ATOM      7  O   UNL A   1      34.251  32.186  29.182  1.00  0.00    -0.460 OA
BRANCH   7   8
ATOM      8  C   UNL A   1      35.053  31.390  28.429  1.00  0.00     0.338 C 
ATOM      9  O   UNL A   1      34.709  31.140  27.274  1.00  0.00    -0.246 OA
BRANCH   8  10
ATOM     10  C   UNL A   1      36.359  30.827  28.899  1.00  0.00     0.060 A 
ATOM     11  C   UNL A   1      37.614  31.407  28.700  1.00  0.00     0.016 A 
ATOM     12  C   UNL A   1      36.299  29.655  29.670  1.00  0.00     0.016 A 
ATOM     13  C   UNL A   1      38.771  30.854  29.215  1.00  0.00     0.010 A 
ATOM     14  C   UNL A   1      37.459  29.086  30.203  1.00  0.00     0.010 A 
ATOM     15  C   UNL A   1      38.696  29.692  29.964  1.00  0.00    -0.014 A 
BRANCH  15  16
ATOM     16  C   UNL A   1      39.968  29.062  30.331  1.00  0.00     0.031 A 
ATOM     17  C   UNL A   1      40.624  29.526  31.588  1.00  0.00     0.074 A 
ATOM     18  C   UNL A   1      40.409  28.000  29.633  1.00  0.00     0.049 A 
ATOM     19  N   UNL A   1      41.806  29.245  32.055  1.00  0.00    -0.248 NA
ATOM     20  C   UNL A   1      39.831  30.426  32.448  1.00  0.00     0.031 C 
ATOM     21  C   UNL A   1      39.703  27.369  28.513  1.00  0.00     0.029 A 
ATOM     22  N   UNL A   1      41.541  27.249  29.778  1.00  0.00    -0.354 N 
ATOM     23  C   UNL A   1      41.922  29.978  33.227  1.00  0.00     0.074 A 
ATOM     24  C   UNL A   1      40.684  30.693  33.424  1.00  0.00     0.031 C 
ATOM     25  C   UNL A   1      40.428  26.331  28.067  1.00  0.00     0.029 A 
ATOM     26  C   UNL A   1      41.682  26.288  28.807  1.00  0.00     0.049 A 
ATOM     27  H   UNL A   1      42.190  27.383  30.506  1.00  0.00     0.167 HD
ATOM     28  C   UNL A   1      42.999  30.056  34.038  1.00  0.00     0.037 A 
ATOM     29  C   UNL A   1      42.750  25.524  28.516  1.00  0.00     0.037 A 
ATOM     30  C   UNL A   1      44.200  29.306  33.798  1.00  0.00     0.049 A 
ATOM     31  C   UNL A   1      43.979  25.718  29.366  1.00  0.00     0.074 A 
ATOM     32  C   UNL A   1      45.389  29.323  34.496  1.00  0.00     0.029 A 
ATOM     33  N   UNL A   1      44.348  28.394  32.758  1.00  0.00    -0.354 N 
ATOM     34  N   UNL A   1      44.140  26.479  30.424  1.00  0.00    -0.248 NA
ATOM     35  C   UNL A   1      45.181  24.978  28.968  1.00  0.00     0.031 C 
ATOM     36  C   UNL A   1      46.276  28.458  33.847  1.00  0.00     0.029 A 
ATOM     37  C   UNL A   1      45.621  27.863  32.776  1.00  0.00     0.049 A 
ATOM     38  H   UNL A   1      43.647  28.162  32.107  1.00  0.00     0.167 HD
ATOM     39  C   UNL A   1      45.455  26.306  30.825  1.00  0.00     0.074 A 
ATOM     40  C   UNL A   1      46.038  25.341  29.911  1.00  0.00     0.031 C 
ATOM     41  C   UNL A   1      46.134  26.893  31.841  1.00  0.00     0.037 A 
BRANCH  28  42
ATOM     42  C   UNL A   1      42.947  31.045  35.160  1.00  0.00     0.057 A 
ATOM     43  C   UNL A   1      42.453  30.725  36.431  1.00  0.00     0.134 A 
ATOM     44  C   UNL A   1      43.382  32.360  34.948  1.00  0.00     0.134 A 
ATOM     45  F   UNL A   1      41.984  29.496  36.688  1.00  0.00    -0.206 F 
ATOM     46  C   UNL A   1      42.385  31.681  37.447  1.00  0.00     0.040 A 
ATOM     47  C   UNL A   1      43.339  33.319  35.962  1.00  0.00     0.040 A 
ATOM     48  F   UNL A   1      43.848  32.738  33.748  1.00  0.00    -0.206 F 
ATOM     49  C   UNL A   1      42.836  32.980  37.216  1.00  0.00     0.006 A 
ENDBRANCH  28  42
BRANCH  29  50
ATOM     50  C   UNL A   1      42.754  24.627  27.330  1.00  0.00     0.057 A 
ATOM     51  C   UNL A   1      42.346  23.292  27.418  1.00  0.00     0.134 A 
ATOM     52  C   UNL A   1      43.221  25.070  26.083  1.00  0.00     0.134 A 
ATOM     53  F   UNL A   1      41.908  22.795  28.583  1.00  0.00    -0.206 F 
ATOM     54  C   UNL A   1      42.431  22.424  26.324  1.00  0.00     0.040 A 
ATOM     55  C   UNL A   1      43.280  24.224  24.974  1.00  0.00     0.040 A 
ATOM     56  F   UNL A   1      43.633  26.336  25.921  1.00  0.00    -0.206 F 
ATOM     57  C   UNL A   1      42.897  22.891  25.097  1.00  0.00     0.006 A 
ENDBRANCH  29  50
BRANCH  41  58
ATOM     58  C   UNL A   1      47.561  26.478  32.017  1.00  0.00     0.057 A 
ATOM     59  C   UNL A   1      47.926  25.471  32.918  1.00  0.00     0.134 A 
ATOM     60  C   UNL A   1      48.566  27.051  31.230  1.00  0.00     0.134 A 
ATOM     61  F   UNL A   1      47.004  24.897  33.708  1.00  0.00    -0.206 F 
ATOM     62  C   UNL A   1      49.250  25.058  33.043  1.00  0.00     0.040 A 
ATOM     63  C   UNL A   1      49.889  26.625  31.323  1.00  0.00     0.040 A 
ATOM     64  F   UNL A   1      48.272  28.013  30.343  1.00  0.00    -0.206 F 
ATOM     65  C   UNL A   1      50.234  25.630  32.236  1.00  0.00     0.006 A 
ENDBRANCH  41  58
ENDBRANCH  15  16
ENDBRANCH   8  10
ENDBRANCH   7   8
ENDBRANCH   6   7
ENDBRANCH   5   6
ENDBRANCH   4   5
ENDBRANCH   3   4
ENDBRANCH   2   3
ENDBRANCH   1   2
BRANCH   1  66
ATOM     66  C   UNL A   1      30.032  31.573  24.249  1.00  0.00     0.188 C 
BRANCH  66  67
ATOM     67  C   UNL A   1      28.850  32.260  23.537  1.00  0.00     0.188 C 
BRANCH  67  68
ATOM     68  O   UNL A   1      27.825  31.504  22.920  1.00  0.00    -0.376 OA
BRANCH  68  69
ATOM     69  C   UNL A   1      27.482  30.249  23.474  1.00  0.00     0.202 C 
BRANCH  69  70
ATOM     70  C   UNL A   1      27.821  28.984  22.668  1.00  0.00     0.261 C 
BRANCH  70  71
ATOM     71  O   UNL A   1      28.922  28.200  23.170  1.00  0.00    -0.463 OA
BRANCH  71  72
ATOM     72  C   UNL A   1      30.125  28.214  22.512  1.00  0.00     0.315 C 
ATOM     73  O   UNL A   1      30.459  29.050  21.683  1.00  0.00    -0.252 OA
BRANCH  72  74
ATOM     74  C   UNL A   1      30.961  27.005  22.941  1.00  0.00     0.166 C 
ATOM     75  C   UNL A   1      31.489  26.382  21.650  1.00  0.00     0.278 C 
ATOM     76  C   UNL A   1      32.203  27.103  23.917  1.00  0.00     0.038 C 
ATOM     77  N   UNL A   1      32.686  25.651  22.018  1.00  0.00    -0.330 N 
ATOM     78  C   UNL A   1      33.324  26.427  23.077  1.00  0.00     0.270 C 
ATOM     79  C   UNL A   1      32.616  28.516  24.391  1.00  0.00     0.014 C 
ATOM     80  C   UNL A   1      31.946  26.312  25.232  1.00  0.00     0.014 C 
ATOM     81  H   UNL A   1      33.334  25.592  21.233  1.00  0.00     0.348 HD
ATOM     82  C   UNL A   1      33.805  28.525  25.369  1.00  0.00     0.001 C 
ATOM     83  C   UNL A   1      33.142  26.222  26.176  1.00  0.00     0.001 C 
ATOM     84  C   UNL A   1      33.611  27.609  26.576  1.00  0.00     0.000 C 
BRANCH  77  85
ATOM     85  C   UNL A   1      32.592  24.193  22.135  1.00  0.00     0.299 C 
BRANCH  85  86
ATOM     86  C   UNL A   1      33.536  23.467  23.073  1.00  0.00     0.008 A 
ATOM     87  C   UNL A   1      34.896  23.807  23.160  1.00  0.00     0.011 A 
ATOM     88  C   UNL A   1      33.071  22.383  23.842  1.00  0.00     0.031 A 
ATOM     89  C   UNL A   1      35.792  23.001  23.872  1.00  0.00     0.022 A 
ATOM     90  C   UNL A   1      33.963  21.586  24.574  1.00  0.00     0.060 A 
ATOM     91  C   UNL A   1      35.332  21.875  24.559  1.00  0.00     0.059 A 
ATOM     92  Cl  UNL A   1      33.320  20.207  25.396  1.00  0.00    -0.083 Cl
ATOM     93  Cl  UNL A   1      36.507  20.852  25.307  1.00  0.00    -0.083 Cl
ENDBRANCH  85  86
ENDBRANCH  77  85
ENDBRANCH  72  74
ENDBRANCH  71  72
ENDBRANCH  70  71
ENDBRANCH  69  70
ENDBRANCH  68  69
ENDBRANCH  67  68
ENDBRANCH  66  67
ENDBRANCH   1  66
TORSDOF 22
ENDMDL
