MODEL 1
REMARK VINA RESULT:     -10.0      0.000      0.000
REMARK SMILES O=C(CSc1nc2ncccc2[nH]1)OCCOCCOCCOCCOC(=O)c1ccc(-c2c3nc(c(-c4c(F)cccc4F)c4ccc([nH]4)c(-c4c(F)cccc4F)c4nc(c(-c5c(F)cccc5F)c5ccc2[nH]5)C=C4)C=C3)cc1
REMARK SMILES IDX 20 1 19 2 18 3 17 4 16 5 15 6 14 7 2 8 1 9 3 10 4 11 5 12
REMARK SMILES IDX 6 13 13 14 7 15 12 16 8 18 11 19 9 20 10 21 21 22 22 23
REMARK SMILES IDX 23 24 24 25 25 26 26 27 27 28 28 29 29 30 30 31 82 32 31 33
REMARK SMILES IDX 81 34 32 35 33 36 34 37 75 38 35 39 80 40 74 41 76 42 36 43
REMARK SMILES IDX 79 44 73 45 72 46 37 48 63 49 46 50 62 51 47 52 50 53 61 54
REMARK SMILES IDX 77 55 48 56 49 57 60 59 78 60 51 61 38 62 39 63 44 64 40 65
REMARK SMILES IDX 41 66 43 67 45 68 42 69 64 70 65 71 70 72 66 73 67 74 69 75
REMARK SMILES IDX 71 76 68 77 52 78 53 79 58 80 54 81 55 82 57 83 59 84 56 85
REMARK H PARENT 13 17 76 47 50 58
REMARK Flexibility Score: inf
ROOT
ATOM      1  O   UNL A   1      34.732  31.861  27.520  1.00  0.00    -0.377 OA
ENDROOT
BRANCH   1   2
ATOM      2  C   UNL A   1      34.353  30.532  27.204  1.00  0.00     0.188 C 
BRANCH   2   3
ATOM      3  C   UNL A   1      32.874  30.142  27.094  1.00  0.00     0.188 C 
BRANCH   3   4
ATOM      4  O   UNL A   1      32.480  29.538  25.878  1.00  0.00    -0.376 OA
BRANCH   4   5
ATOM      5  C   UNL A   1      33.277  28.546  25.237  1.00  0.00     0.202 C 
BRANCH   5   6
ATOM      6  C   UNL A   1      33.333  27.120  25.789  1.00  0.00     0.261 C 
BRANCH   6   7
ATOM      7  O   UNL A   1      33.321  25.981  24.891  1.00  0.00    -0.463 OA
BRANCH   7   8
ATOM      8  C   UNL A   1      33.912  24.774  25.061  1.00  0.00     0.316 C 
ATOM      9  O   UNL A   1      35.138  24.695  24.984  1.00  0.00    -0.251 OA
BRANCH   8  10
ATOM     10  C   UNL A   1      33.047  23.556  25.295  1.00  0.00     0.200 C 
BRANCH  10  11
ATOM     11  S   UNL A   1      33.858  22.386  26.433  1.00  0.00    -0.076 SA
BRANCH  11  12
ATOM     12  C   UNL A   1      33.565  20.976  25.494  1.00  0.00     0.168 A 
ATOM     13  N   UNL A   1      32.655  20.876  24.562  1.00  0.00    -0.203 NA
ATOM     14  N   UNL A   1      34.381  19.891  25.565  1.00  0.00    -0.332 N 
ATOM     15  C   UNL A   1      32.889  19.664  23.992  1.00  0.00     0.178 A 
ATOM     16  C   UNL A   1      33.949  19.007  24.612  1.00  0.00     0.086 A 
ATOM     17  H   UNL A   1      35.137  19.764  26.183  1.00  0.00     0.169 HD
ATOM     18  N   UNL A   1      32.184  19.145  22.968  1.00  0.00    -0.235 NA
ATOM     19  C   UNL A   1      34.349  17.735  24.229  1.00  0.00     0.032 A 
ATOM     20  C   UNL A   1      32.578  17.912  22.598  1.00  0.00     0.114 A 
ATOM     21  C   UNL A   1      33.610  17.182  23.183  1.00  0.00     0.022 A 
ENDBRANCH  11  12
ENDBRANCH  10  11
ENDBRANCH   8  10
ENDBRANCH   7   8
ENDBRANCH   6   7
ENDBRANCH   5   6
ENDBRANCH   4   5
ENDBRANCH   3   4
ENDBRANCH   2   3
ENDBRANCH   1   2
BRANCH   1  22
ATOM     22  C   UNL A   1      33.971  32.590  28.459  1.00  0.00     0.188 C 
BRANCH  22  23
ATOM     23  C   UNL A   1      33.377  33.979  28.105  1.00  0.00     0.188 C 
BRANCH  23  24
ATOM     24  O   UNL A   1      33.989  35.250  28.260  1.00  0.00    -0.376 OA
BRANCH  24  25
ATOM     25  C   UNL A   1      33.429  36.400  28.866  1.00  0.00     0.202 C 
BRANCH  25  26
ATOM     26  C   UNL A   1      32.945  36.451  30.316  1.00  0.00     0.261 C 
BRANCH  26  27
ATOM     27  O   UNL A   1      33.879  35.969  31.250  1.00  0.00    -0.460 OA
BRANCH  27  28
ATOM     28  C   UNL A   1      33.296  35.296  32.244  1.00  0.00     0.338 C 
ATOM     29  O   UNL A   1      32.085  35.248  32.506  1.00  0.00    -0.246 OA
BRANCH  28  30
ATOM     30  C   UNL A   1      34.312  34.669  33.077  1.00  0.00     0.060 A 
ATOM     31  C   UNL A   1      35.549  35.307  33.034  1.00  0.00     0.016 A 
ATOM     32  C   UNL A   1      34.166  33.296  33.316  1.00  0.00     0.016 A 
ATOM     33  C   UNL A   1      36.639  34.511  32.825  1.00  0.00     0.010 A 
ATOM     34  C   UNL A   1      35.258  32.500  33.091  1.00  0.00     0.010 A 
ATOM     35  C   UNL A   1      36.450  33.122  32.740  1.00  0.00    -0.014 A 
BRANCH  35  36
ATOM     36  C   UNL A   1      37.619  32.337  32.452  1.00  0.00     0.031 A 
ATOM     37  C   UNL A   1      38.470  32.233  33.646  1.00  0.00     0.074 A 
ATOM     38  C   UNL A   1      37.912  31.810  31.252  1.00  0.00     0.049 A 
ATOM     39  N   UNL A   1      39.507  32.954  33.901  1.00  0.00    -0.248 NA
ATOM     40  C   UNL A   1      37.968  31.457  34.787  1.00  0.00     0.031 C 
ATOM     41  C   UNL A   1      37.063  31.642  30.074  1.00  0.00     0.029 A 
ATOM     42  N   UNL A   1      39.089  31.252  30.868  1.00  0.00    -0.354 N 
ATOM     43  C   UNL A   1      39.928  32.556  35.159  1.00  0.00     0.074 A 
ATOM     44  C   UNL A   1      38.838  31.815  35.732  1.00  0.00     0.031 C 
ATOM     45  C   UNL A   1      37.692  30.828  29.189  1.00  0.00     0.029 A 
ATOM     46  C   UNL A   1      39.034  30.547  29.675  1.00  0.00     0.049 A 
ATOM     47  H   UNL A   1      39.915  31.342  31.395  1.00  0.00     0.167 HD
ATOM     48  C   UNL A   1      41.246  32.629  35.479  1.00  0.00     0.037 A 
ATOM     49  C   UNL A   1      40.024  29.759  29.184  1.00  0.00     0.037 A 
ATOM     50  C   UNL A   1      41.937  33.530  34.581  1.00  0.00     0.049 A 
ATOM     51  C   UNL A   1      41.293  30.175  29.839  1.00  0.00     0.074 A 
ATOM     52  C   UNL A   1      41.828  34.871  34.266  1.00  0.00     0.029 A 
ATOM     53  N   UNL A   1      42.657  32.962  33.557  1.00  0.00    -0.354 N 
ATOM     54  N   UNL A   1      41.895  31.304  29.591  1.00  0.00    -0.248 NA
ATOM     55  C   UNL A   1      41.645  29.550  31.106  1.00  0.00     0.031 C 
ATOM     56  C   UNL A   1      42.095  34.953  32.867  1.00  0.00     0.029 A 
ATOM     57  C   UNL A   1      42.414  33.673  32.413  1.00  0.00     0.049 A 
ATOM     58  H   UNL A   1      43.247  32.178  33.634  1.00  0.00     0.167 HD
ATOM     59  C   UNL A   1      42.327  31.752  30.831  1.00  0.00     0.074 A 
ATOM     60  C   UNL A   1      42.232  30.587  31.709  1.00  0.00     0.031 C 
ATOM     61  C   UNL A   1      42.440  33.088  31.092  1.00  0.00     0.037 A 
BRANCH  48  62
ATOM     62  C   UNL A   1      41.969  31.548  36.248  1.00  0.00     0.057 A 
ATOM     63  C   UNL A   1      42.113  30.208  35.827  1.00  0.00     0.134 A 
ATOM     64  C   UNL A   1      42.836  31.941  37.282  1.00  0.00     0.134 A 
ATOM     65  F   UNL A   1      41.386  29.661  34.850  1.00  0.00    -0.206 F 
ATOM     66  C   UNL A   1      43.101  29.360  36.329  1.00  0.00     0.040 A 
ATOM     67  C   UNL A   1      43.857  31.113  37.758  1.00  0.00     0.040 A 
ATOM     68  F   UNL A   1      42.785  33.181  37.791  1.00  0.00    -0.206 F 
ATOM     69  C   UNL A   1      44.006  29.824  37.267  1.00  0.00     0.006 A 
ENDBRANCH  48  62
BRANCH  49  70
ATOM     70  C   UNL A   1      39.932  28.500  28.411  1.00  0.00     0.057 A 
ATOM     71  C   UNL A   1      39.387  27.334  28.973  1.00  0.00     0.134 A 
ATOM     72  C   UNL A   1      40.646  28.332  27.214  1.00  0.00     0.134 A 
ATOM     73  F   UNL A   1      38.747  27.367  30.150  1.00  0.00    -0.206 F 
ATOM     74  C   UNL A   1      39.566  26.072  28.396  1.00  0.00     0.040 A 
ATOM     75  C   UNL A   1      40.837  27.073  26.629  1.00  0.00     0.040 A 
ATOM     76  F   UNL A   1      41.240  29.378  26.622  1.00  0.00    -0.206 F 
ATOM     77  C   UNL A   1      40.306  25.935  27.229  1.00  0.00     0.006 A 
ENDBRANCH  49  70
BRANCH  61  78
ATOM     78  C   UNL A   1      42.374  34.034  29.924  1.00  0.00     0.057 A 
ATOM     79  C   UNL A   1      43.575  34.458  29.345  1.00  0.00     0.134 A 
ATOM     80  C   UNL A   1      41.194  34.617  29.436  1.00  0.00     0.134 A 
ATOM     81  F   UNL A   1      44.747  33.983  29.796  1.00  0.00    -0.206 F 
ATOM     82  C   UNL A   1      43.608  35.405  28.320  1.00  0.00     0.040 A 
ATOM     83  C   UNL A   1      41.211  35.539  28.384  1.00  0.00     0.040 A 
ATOM     84  F   UNL A   1      40.005  34.350  29.992  1.00  0.00    -0.206 F 
ATOM     85  C   UNL A   1      42.422  35.940  27.827  1.00  0.00     0.006 A 
ENDBRANCH  61  78
ENDBRANCH  35  36
ENDBRANCH  28  30
ENDBRANCH  27  28
ENDBRANCH  26  27
ENDBRANCH  25  26
ENDBRANCH  24  25
ENDBRANCH  23  24
ENDBRANCH  22  23
ENDBRANCH   1  22
TORSDOF 22
ENDMDL
MODEL 2
REMARK VINA RESULT:      -9.5      5.607     10.895
REMARK SMILES O=C(CSc1nc2ncccc2[nH]1)OCCOCCOCCOCCOC(=O)c1ccc(-c2c3nc(c(-c4c(F)cccc4F)c4ccc([nH]4)c(-c4c(F)cccc4F)c4nc(c(-c5c(F)cccc5F)c5ccc2[nH]5)C=C4)C=C3)cc1
REMARK SMILES IDX 20 1 19 2 18 3 17 4 16 5 15 6 14 7 2 8 1 9 3 10 4 11 5 12
REMARK SMILES IDX 6 13 13 14 7 15 12 16 8 18 11 19 9 20 10 21 21 22 22 23
REMARK SMILES IDX 23 24 24 25 25 26 26 27 27 28 28 29 29 30 30 31 82 32 31 33
REMARK SMILES IDX 81 34 32 35 33 36 34 37 75 38 35 39 80 40 74 41 76 42 36 43
REMARK SMILES IDX 79 44 73 45 72 46 37 48 63 49 46 50 62 51 47 52 50 53 61 54
REMARK SMILES IDX 77 55 48 56 49 57 60 59 78 60 51 61 38 62 39 63 44 64 40 65
REMARK SMILES IDX 41 66 43 67 45 68 42 69 64 70 65 71 70 72 66 73 67 74 69 75
REMARK SMILES IDX 71 76 68 77 52 78 53 79 58 80 54 81 55 82 57 83 59 84 56 85
REMARK H PARENT 13 17 76 47 50 58
REMARK Flexibility Score: inf
ROOT
ATOM      1  O   UNL A   1      40.523  21.766  26.564  1.00  0.00    -0.377 OA
ENDROOT
BRANCH   1   2
ATOM      2  C   UNL A   1      39.220  21.621  26.024  1.00  0.00     0.188 C 
BRANCH   2   3
ATOM      3  C   UNL A   1      38.324  22.844  25.797  1.00  0.00     0.188 C 
BRANCH   3   4
ATOM      4  O   UNL A   1      36.940  22.584  25.664  1.00  0.00    -0.376 OA
BRANCH   4   5
ATOM      5  C   UNL A   1      36.088  23.421  24.888  1.00  0.00     0.202 C 
BRANCH   5   6
ATOM      6  C   UNL A   1      35.232  22.829  23.765  1.00  0.00     0.261 C 
BRANCH   6   7
ATOM      7  O   UNL A   1      34.485  23.695  22.873  1.00  0.00    -0.463 OA
BRANCH   7   8
ATOM      8  C   UNL A   1      33.260  24.240  23.066  1.00  0.00     0.316 C 
ATOM      9  O   UNL A   1      32.552  24.474  22.087  1.00  0.00    -0.251 OA
BRANCH   8  10
ATOM     10  C   UNL A   1      32.820  24.585  24.471  1.00  0.00     0.200 C 
BRANCH  10  11
ATOM     11  S   UNL A   1      31.059  24.185  24.721  1.00  0.00    -0.076 SA
BRANCH  11  12
ATOM     12  C   UNL A   1      30.457  25.759  24.378  1.00  0.00     0.168 A 
ATOM     13  N   UNL A   1      31.161  26.857  24.444  1.00  0.00    -0.203 NA
ATOM     14  N   UNL A   1      29.213  25.949  23.863  1.00  0.00    -0.332 N 
ATOM     15  C   UNL A   1      30.336  27.815  23.944  1.00  0.00     0.178 A 
ATOM     16  C   UNL A   1      29.097  27.286  23.593  1.00  0.00     0.086 A 
ATOM     17  H   UNL A   1      28.527  25.258  23.714  1.00  0.00     0.169 HD
ATOM     18  N   UNL A   1      30.658  29.117  23.814  1.00  0.00    -0.235 NA
ATOM     19  C   UNL A   1      28.074  28.081  23.095  1.00  0.00     0.032 A 
ATOM     20  C   UNL A   1      29.662  29.883  23.328  1.00  0.00     0.114 A 
ATOM     21  C   UNL A   1      28.392  29.434  22.977  1.00  0.00     0.022 A 
ENDBRANCH  11  12
ENDBRANCH  10  11
ENDBRANCH   8  10
ENDBRANCH   7   8
ENDBRANCH   6   7
ENDBRANCH   5   6
ENDBRANCH   4   5
ENDBRANCH   3   4
ENDBRANCH   2   3
ENDBRANCH   1   2
BRANCH   1  22
ATOM     22  C   UNL A   1      40.929  20.919  27.617  1.00  0.00     0.188 C 
BRANCH  22  23
ATOM     23  C   UNL A   1      41.883  19.722  27.361  1.00  0.00     0.188 C 
BRANCH  23  24
ATOM     24  O   UNL A   1      42.186  19.103  26.121  1.00  0.00    -0.376 OA
BRANCH  24  25
ATOM     25  C   UNL A   1      43.386  18.440  25.768  1.00  0.00     0.202 C 
BRANCH  25  26
ATOM     26  C   UNL A   1      44.301  18.881  24.624  1.00  0.00     0.261 C 
BRANCH  26  27
ATOM     27  O   UNL A   1      44.312  20.270  24.402  1.00  0.00    -0.460 OA
BRANCH  27  28
ATOM     28  C   UNL A   1      45.463  20.831  24.779  1.00  0.00     0.338 C 
ATOM     29  O   UNL A   1      46.403  20.284  25.376  1.00  0.00    -0.246 OA
BRANCH  28  30
ATOM     30  C   UNL A   1      45.442  22.254  24.471  1.00  0.00     0.060 A 
ATOM     31  C   UNL A   1      46.408  22.992  25.148  1.00  0.00     0.016 A 
ATOM     32  C   UNL A   1      44.209  22.788  24.071  1.00  0.00     0.016 A 
ATOM     33  C   UNL A   1      45.980  24.128  25.775  1.00  0.00     0.010 A 
ATOM     34  C   UNL A   1      43.777  23.919  24.713  1.00  0.00     0.010 A 
ATOM     35  C   UNL A   1      44.634  24.504  25.637  1.00  0.00    -0.014 A 
BRANCH  35  36
ATOM     36  C   UNL A   1      44.219  25.669  26.372  1.00  0.00     0.031 A 
ATOM     37  C   UNL A   1      45.226  26.733  26.249  1.00  0.00     0.074 A 
ATOM     38  C   UNL A   1      43.095  25.755  27.101  1.00  0.00     0.049 A 
ATOM     39  N   UNL A   1      46.145  27.009  27.109  1.00  0.00    -0.248 NA
ATOM     40  C   UNL A   1      45.407  27.363  24.935  1.00  0.00     0.031 C 
ATOM     41  C   UNL A   1      41.924  24.881  27.119  1.00  0.00     0.029 A 
ATOM     42  N   UNL A   1      42.762  26.736  27.979  1.00  0.00    -0.354 N 
ATOM     43  C   UNL A   1      46.895  28.020  26.531  1.00  0.00     0.074 A 
ATOM     44  C   UNL A   1      46.540  28.036  25.137  1.00  0.00     0.031 C 
ATOM     45  C   UNL A   1      40.926  25.493  27.803  1.00  0.00     0.029 A 
ATOM     46  C   UNL A   1      41.438  26.723  28.389  1.00  0.00     0.049 A 
ATOM     47  H   UNL A   1      43.412  27.403  28.299  1.00  0.00     0.167 HD
ATOM     48  C   UNL A   1      47.512  28.934  27.323  1.00  0.00     0.037 A 
ATOM     49  C   UNL A   1      40.831  27.698  29.112  1.00  0.00     0.037 A 
ATOM     50  C   UNL A   1      47.634  28.433  28.675  1.00  0.00     0.049 A 
ATOM     51  C   UNL A   1      41.898  28.478  29.795  1.00  0.00     0.074 A 
ATOM     52  C   UNL A   1      48.252  27.345  29.263  1.00  0.00     0.029 A 
ATOM     53  N   UNL A   1      46.719  28.886  29.596  1.00  0.00    -0.354 N 
ATOM     54  N   UNL A   1      42.610  28.012  30.782  1.00  0.00    -0.248 NA
ATOM     55  C   UNL A   1      42.488  29.600  29.080  1.00  0.00     0.031 C 
ATOM     56  C   UNL A   1      47.374  26.933  30.310  1.00  0.00     0.029 A 
ATOM     57  C   UNL A   1      46.300  27.822  30.348  1.00  0.00     0.049 A 
ATOM     58  H   UNL A   1      46.417  29.817  29.697  1.00  0.00     0.167 HD
ATOM     59  C   UNL A   1      43.899  28.456  30.526  1.00  0.00     0.074 A 
ATOM     60  C   UNL A   1      43.745  29.508  29.522  1.00  0.00     0.031 C 
ATOM     61  C   UNL A   1      44.982  27.731  30.934  1.00  0.00     0.037 A 
BRANCH  48  62
ATOM     62  C   UNL A   1      47.545  30.411  27.006  1.00  0.00     0.057 A 
ATOM     63  C   UNL A   1      46.411  31.238  26.860  1.00  0.00     0.134 A 
ATOM     64  C   UNL A   1      48.760  31.097  27.185  1.00  0.00     0.134 A 
ATOM     65  F   UNL A   1      45.173  30.766  26.693  1.00  0.00    -0.206 F 
ATOM     66  C   UNL A   1      46.468  32.628  26.976  1.00  0.00     0.040 A 
ATOM     67  C   UNL A   1      48.820  32.484  27.348  1.00  0.00     0.040 A 
ATOM     68  F   UNL A   1      49.917  30.429  27.311  1.00  0.00    -0.206 F 
ATOM     69  C   UNL A   1      47.668  33.253  27.264  1.00  0.00     0.006 A 
ENDBRANCH  48  62
BRANCH  49  70
ATOM     70  C   UNL A   1      39.436  28.190  29.047  1.00  0.00     0.057 A 
ATOM     71  C   UNL A   1      38.973  28.936  27.951  1.00  0.00     0.134 A 
ATOM     72  C   UNL A   1      38.620  28.200  30.189  1.00  0.00     0.134 A 
ATOM     73  F   UNL A   1      39.706  29.054  26.835  1.00  0.00    -0.206 F 
ATOM     74  C   UNL A   1      37.783  29.670  27.995  1.00  0.00     0.040 A 
ATOM     75  C   UNL A   1      37.428  28.935  30.248  1.00  0.00     0.040 A 
ATOM     76  F   UNL A   1      38.995  27.554  31.302  1.00  0.00    -0.206 F 
ATOM     77  C   UNL A   1      37.013  29.685  29.152  1.00  0.00     0.006 A 
ENDBRANCH  49  70
BRANCH  61  78
ATOM     78  C   UNL A   1      44.744  26.615  31.913  1.00  0.00     0.057 A 
ATOM     79  C   UNL A   1      44.887  26.887  33.279  1.00  0.00     0.134 A 
ATOM     80  C   UNL A   1      44.498  25.280  31.555  1.00  0.00     0.134 A 
ATOM     81  F   UNL A   1      45.177  28.132  33.692  1.00  0.00    -0.206 F 
ATOM     82  C   UNL A   1      44.777  25.889  34.247  1.00  0.00     0.040 A 
ATOM     83  C   UNL A   1      44.348  24.277  32.519  1.00  0.00     0.040 A 
ATOM     84  F   UNL A   1      44.444  24.903  30.271  1.00  0.00    -0.206 F 
ATOM     85  C   UNL A   1      44.493  24.580  33.870  1.00  0.00     0.006 A 
ENDBRANCH  61  78
ENDBRANCH  35  36
ENDBRANCH  28  30
ENDBRANCH  27  28
ENDBRANCH  26  27
ENDBRANCH  25  26
ENDBRANCH  24  25
ENDBRANCH  23  24
ENDBRANCH  22  23
ENDBRANCH   1  22
TORSDOF 22
ENDMDL
MODEL 3
REMARK VINA RESULT:      -9.5      3.837      9.078
REMARK SMILES O=C(CSc1nc2ncccc2[nH]1)OCCOCCOCCOCCOC(=O)c1ccc(-c2c3nc(c(-c4c(F)cccc4F)c4ccc([nH]4)c(-c4c(F)cccc4F)c4nc(c(-c5c(F)cccc5F)c5ccc2[nH]5)C=C4)C=C3)cc1
REMARK SMILES IDX 20 1 19 2 18 3 17 4 16 5 15 6 14 7 2 8 1 9 3 10 4 11 5 12
REMARK SMILES IDX 6 13 13 14 7 15 12 16 8 18 11 19 9 20 10 21 21 22 22 23
REMARK SMILES IDX 23 24 24 25 25 26 26 27 27 28 28 29 29 30 30 31 82 32 31 33
REMARK SMILES IDX 81 34 32 35 33 36 34 37 75 38 35 39 80 40 74 41 76 42 36 43
REMARK SMILES IDX 79 44 73 45 72 46 37 48 63 49 46 50 62 51 47 52 50 53 61 54
REMARK SMILES IDX 77 55 48 56 49 57 60 59 78 60 51 61 38 62 39 63 44 64 40 65
REMARK SMILES IDX 41 66 43 67 45 68 42 69 64 70 65 71 70 72 66 73 67 74 69 75
REMARK SMILES IDX 71 76 68 77 52 78 53 79 58 80 54 81 55 82 57 83 59 84 56 85
REMARK H PARENT 13 17 76 47 50 58
REMARK Flexibility Score: inf
ROOT
ATOM      1  O   UNL A   1      42.542  19.093  25.076  1.00  0.00    -0.377 OA
ENDROOT
BRANCH   1   2
ATOM      2  C   UNL A   1      41.761  19.356  26.230  1.00  0.00     0.188 C 
BRANCH   2   3
ATOM      3  C   UNL A   1      40.338  19.913  26.105  1.00  0.00     0.188 C 
BRANCH   3   4
ATOM      4  O   UNL A   1      39.411  19.098  25.413  1.00  0.00    -0.376 OA
BRANCH   4   5
ATOM      5  C   UNL A   1      38.243  19.639  24.802  1.00  0.00     0.202 C 
BRANCH   5   6
ATOM      6  C   UNL A   1      37.653  20.964  25.291  1.00  0.00     0.261 C 
BRANCH   6   7
ATOM      7  O   UNL A   1      36.244  21.069  25.613  1.00  0.00    -0.463 OA
BRANCH   7   8
ATOM      8  C   UNL A   1      35.595  22.096  26.212  1.00  0.00     0.316 C 
ATOM      9  O   UNL A   1      36.094  23.220  26.170  1.00  0.00    -0.251 OA
BRANCH   8  10
ATOM     10  C   UNL A   1      34.304  21.823  26.949  1.00  0.00     0.200 C 
BRANCH  10  11
ATOM     11  S   UNL A   1      32.880  21.858  25.811  1.00  0.00    -0.076 SA
BRANCH  11  12
ATOM     12  C   UNL A   1      32.979  20.210  25.333  1.00  0.00     0.168 A 
ATOM     13  N   UNL A   1      33.409  19.796  24.171  1.00  0.00    -0.203 NA
ATOM     14  N   UNL A   1      32.745  19.198  26.210  1.00  0.00    -0.332 N 
ATOM     15  C   UNL A   1      33.461  18.443  24.295  1.00  0.00     0.178 A 
ATOM     16  C   UNL A   1      33.028  18.031  25.552  1.00  0.00     0.086 A 
ATOM     17  H   UNL A   1      32.430  19.288  27.139  1.00  0.00     0.169 HD
ATOM     18  N   UNL A   1      33.864  17.595  23.328  1.00  0.00    -0.235 NA
ATOM     19  C   UNL A   1      32.954  16.689  25.901  1.00  0.00     0.032 A 
ATOM     20  C   UNL A   1      33.793  16.295  23.672  1.00  0.00     0.114 A 
ATOM     21  C   UNL A   1      33.349  15.804  24.897  1.00  0.00     0.022 A 
ENDBRANCH  11  12
ENDBRANCH  10  11
ENDBRANCH   8  10
ENDBRANCH   7   8
ENDBRANCH   6   7
ENDBRANCH   5   6
ENDBRANCH   4   5
ENDBRANCH   3   4
ENDBRANCH   2   3
ENDBRANCH   1   2
BRANCH   1  22
ATOM     22  C   UNL A   1      43.941  18.963  25.206  1.00  0.00     0.188 C 
BRANCH  22  23
ATOM     23  C   UNL A   1      44.908  19.704  24.246  1.00  0.00     0.188 C 
BRANCH  23  24
ATOM     24  O   UNL A   1      44.876  21.070  23.865  1.00  0.00    -0.376 OA
BRANCH  24  25
ATOM     25  C   UNL A   1      44.575  22.180  24.689  1.00  0.00     0.202 C 
BRANCH  25  26
ATOM     26  C   UNL A   1      43.157  22.697  24.941  1.00  0.00     0.261 C 
BRANCH  26  27
ATOM     27  O   UNL A   1      42.773  22.681  26.294  1.00  0.00    -0.460 OA
BRANCH  27  28
ATOM     28  C   UNL A   1      41.802  23.560  26.552  1.00  0.00     0.338 C 
ATOM     29  O   UNL A   1      40.604  23.315  26.752  1.00  0.00    -0.246 OA
BRANCH  28  30
ATOM     30  C   UNL A   1      42.332  24.915  26.474  1.00  0.00     0.060 A 
ATOM     31  C   UNL A   1      43.117  25.277  27.565  1.00  0.00     0.016 A 
ATOM     32  C   UNL A   1      41.584  25.836  25.728  1.00  0.00     0.016 A 
ATOM     33  C   UNL A   1      42.833  26.479  28.149  1.00  0.00     0.010 A 
ATOM     34  C   UNL A   1      41.290  27.034  26.322  1.00  0.00     0.010 A 
ATOM     35  C   UNL A   1      41.835  27.285  27.577  1.00  0.00    -0.014 A 
BRANCH  35  36
ATOM     36  C   UNL A   1      41.528  28.507  28.268  1.00  0.00     0.031 A 
ATOM     37  C   UNL A   1      42.619  29.478  28.094  1.00  0.00     0.074 A 
ATOM     38  C   UNL A   1      40.424  28.716  29.003  1.00  0.00     0.049 A 
ATOM     39  N   UNL A   1      43.568  29.708  28.935  1.00  0.00    -0.248 NA
ATOM     40  C   UNL A   1      42.837  30.039  26.755  1.00  0.00     0.031 C 
ATOM     41  C   UNL A   1      39.184  27.944  29.065  1.00  0.00     0.029 A 
ATOM     42  N   UNL A   1      40.185  29.754  29.845  1.00  0.00    -0.354 N 
ATOM     43  C   UNL A   1      44.393  30.629  28.311  1.00  0.00     0.074 A 
ATOM     44  C   UNL A   1      44.024  30.622  26.921  1.00  0.00     0.031 C 
ATOM     45  C   UNL A   1      38.249  28.665  29.733  1.00  0.00     0.029 A 
ATOM     46  C   UNL A   1      38.869  29.868  30.266  1.00  0.00     0.049 A 
ATOM     47  H   UNL A   1      40.891  30.377  30.133  1.00  0.00     0.167 HD
ATOM     48  C   UNL A   1      45.093  31.518  29.062  1.00  0.00     0.037 A 
ATOM     49  C   UNL A   1      38.354  30.919  30.955  1.00  0.00     0.037 A 
ATOM     50  C   UNL A   1      45.189  31.061  30.432  1.00  0.00     0.049 A 
ATOM     51  C   UNL A   1      39.490  31.631  31.598  1.00  0.00     0.074 A 
ATOM     52  C   UNL A   1      45.721  29.948  31.057  1.00  0.00     0.029 A 
ATOM     53  N   UNL A   1      44.326  31.625  31.342  1.00  0.00    -0.354 N 
ATOM     54  N   UNL A   1      40.173  31.146  32.596  1.00  0.00    -0.248 NA
ATOM     55  C   UNL A   1      40.164  32.672  30.834  1.00  0.00     0.031 C 
ATOM     56  C   UNL A   1      44.824  29.652  32.126  1.00  0.00     0.029 A 
ATOM     57  C   UNL A   1      43.829  30.630  32.139  1.00  0.00     0.049 A 
ATOM     58  H   UNL A   1      44.105  32.581  31.408  1.00  0.00     0.167 HD
ATOM     59  C   UNL A   1      41.492  31.470  32.312  1.00  0.00     0.074 A 
ATOM     60  C   UNL A   1      41.414  32.491  31.269  1.00  0.00     0.031 C 
ATOM     61  C   UNL A   1      42.515  30.673  32.739  1.00  0.00     0.037 A 
BRANCH  48  62
ATOM     62  C   UNL A   1      45.247  32.974  28.686  1.00  0.00     0.057 A 
ATOM     63  C   UNL A   1      44.196  33.913  28.625  1.00  0.00     0.134 A 
ATOM     64  C   UNL A   1      46.538  33.529  28.714  1.00  0.00     0.134 A 
ATOM     65  F   UNL A   1      42.904  33.573  28.603  1.00  0.00    -0.206 F 
ATOM     66  C   UNL A   1      44.409  35.292  28.681  1.00  0.00     0.040 A 
ATOM     67  C   UNL A   1      46.759  34.906  28.817  1.00  0.00     0.040 A 
ATOM     68  F   UNL A   1      47.626  32.745  28.747  1.00  0.00    -0.206 F 
ATOM     69  C   UNL A   1      45.691  35.792  28.821  1.00  0.00     0.006 A 
ENDBRANCH  48  62
BRANCH  49  70
ATOM     70  C   UNL A   1      37.005  31.523  30.883  1.00  0.00     0.057 A 
ATOM     71  C   UNL A   1      36.602  32.284  29.773  1.00  0.00     0.134 A 
ATOM     72  C   UNL A   1      36.196  31.623  32.026  1.00  0.00     0.134 A 
ATOM     73  F   UNL A   1      37.338  32.320  28.654  1.00  0.00    -0.206 F 
ATOM     74  C   UNL A   1      35.477  33.115  29.805  1.00  0.00     0.040 A 
ATOM     75  C   UNL A   1      35.069  32.455  32.072  1.00  0.00     0.040 A 
ATOM     76  F   UNL A   1      36.519  30.969  33.150  1.00  0.00    -0.206 F 
ATOM     77  C   UNL A   1      34.715  33.216  30.963  1.00  0.00     0.006 A 
ENDBRANCH  49  70
BRANCH  61  78
ATOM     78  C   UNL A   1      42.196  29.618  33.763  1.00  0.00     0.057 A 
ATOM     79  C   UNL A   1      42.456  29.901  35.109  1.00  0.00     0.134 A 
ATOM     80  C   UNL A   1      41.759  28.320  33.461  1.00  0.00     0.134 A 
ATOM     81  F   UNL A   1      42.927  31.106  35.468  1.00  0.00    -0.206 F 
ATOM     82  C   UNL A   1      42.277  28.947  36.112  1.00  0.00     0.040 A 
ATOM     83  C   UNL A   1      41.540  27.366  34.461  1.00  0.00     0.040 A 
ATOM     84  F   UNL A   1      41.579  27.923  32.193  1.00  0.00    -0.206 F 
ATOM     85  C   UNL A   1      41.806  27.677  35.791  1.00  0.00     0.006 A 
ENDBRANCH  61  78
ENDBRANCH  35  36
ENDBRANCH  28  30
ENDBRANCH  27  28
ENDBRANCH  26  27
ENDBRANCH  25  26
ENDBRANCH  24  25
ENDBRANCH  23  24
ENDBRANCH  22  23
ENDBRANCH   1  22
TORSDOF 22
ENDMDL
