MODEL 1
REMARK VINA RESULT:      -9.9      0.000      0.000
REMARK SMILES COc1cccc(O[C@@H](C)c2nnc(SCC(=O)OCCOCCOCCOCCOC(=O)c3ccc(-c4c5nc(c(-c6c(F)cccc6F)c6ccc([nH]6)c(-c6c(F)cccc6F)c6nc(c(-c7c(F)cccc7F)c7ccc4[nH]7)C=C6)C=C5)cc3)n2C)c1
REMARK SMILES IDX 23 1 22 2 21 3 20 4 19 5 17 6 18 7 16 8 15 9 14 10 11 11
REMARK SMILES IDX 12 12 88 13 13 14 89 15 9 16 10 17 8 18 7 19 3 20 4 21 90 22
REMARK SMILES IDX 5 23 6 24 2 25 1 26 24 27 25 28 26 29 27 30 28 31 29 32
REMARK SMILES IDX 30 33 31 34 32 35 33 36 34 37 35 38 87 39 36 40 86 41 37 42
REMARK SMILES IDX 38 43 39 44 80 45 40 46 85 47 79 48 81 49 41 50 84 51 78 52
REMARK SMILES IDX 77 53 42 55 68 56 51 57 67 58 52 59 55 60 66 61 82 62 53 63
REMARK SMILES IDX 54 64 65 66 83 67 56 68 43 69 44 70 49 71 45 72 46 73 48 74
REMARK SMILES IDX 50 75 47 76 69 77 70 78 75 79 71 80 72 81 74 82 76 83 73 84
REMARK SMILES IDX 57 85 58 86 63 87 59 88 60 89 62 90 64 91 61 92
REMARK H PARENT 81 54 55 65
REMARK Flexibility Score: inf
ROOT
ATOM      1  C   UNL A   1      33.342  35.148  28.873  1.00  0.00     0.188 C 
ENDROOT
BRANCH   1   2
ATOM      2  O   UNL A   1      34.391  34.893  27.977  1.00  0.00    -0.376 OA
BRANCH   2   3
ATOM      3  C   UNL A   1      35.218  33.757  28.124  1.00  0.00     0.202 C 
BRANCH   3   4
ATOM      4  C   UNL A   1      34.761  32.303  28.404  1.00  0.00     0.261 C 
BRANCH   4   5
ATOM      5  O   UNL A   1      33.617  31.734  27.732  1.00  0.00    -0.463 OA
BRANCH   5   6
ATOM      6  C   UNL A   1      33.670  30.416  27.398  1.00  0.00     0.316 C 
ATOM      7  O   UNL A   1      34.687  29.738  27.515  1.00  0.00    -0.251 OA
BRANCH   6   8
ATOM      8  C   UNL A   1      32.401  29.843  26.784  1.00  0.00     0.200 C 
BRANCH   8   9
ATOM      9  S   UNL A   1      31.968  28.139  27.090  1.00  0.00    -0.074 SA
BRANCH   9  10
ATOM     10  C   UNL A   1      32.539  26.964  25.929  1.00  0.00     0.191 A 
ATOM     11  C   UNL A   1      32.505  25.488  24.264  1.00  0.00     0.174 A 
ATOM     12  N   UNL A   1      33.332  26.469  23.954  1.00  0.00    -0.130 NA
ATOM     13  N   UNL A   1      32.076  25.709  25.578  1.00  0.00    -0.306 N 
ATOM     14  N   UNL A   1      33.363  27.366  24.984  1.00  0.00    -0.123 NA
ATOM     15  C   UNL A   1      31.294  24.803  26.368  1.00  0.00     0.154 C 
BRANCH  11  16
ATOM     16  C   UNL A   1      32.069  24.434  23.252  1.00  0.00     0.238 C 
ATOM     17  C   UNL A   1      30.667  23.855  23.290  1.00  0.00     0.062 C 
BRANCH  16  18
ATOM     18  O   UNL A   1      33.033  23.385  23.023  1.00  0.00    -0.483 OA
BRANCH  18  19
ATOM     19  C   UNL A   1      33.172  22.348  23.888  1.00  0.00     0.124 A 
ATOM     20  C   UNL A   1      32.664  20.143  24.731  1.00  0.00     0.122 A 
ATOM     21  C   UNL A   1      33.352  20.445  25.905  1.00  0.00     0.046 A 
ATOM     22  C   UNL A   1      32.626  21.085  23.707  1.00  0.00     0.092 A 
ATOM     23  C   UNL A   1      34.001  21.673  26.050  1.00  0.00     0.008 A 
ATOM     24  C   UNL A   1      33.907  22.626  25.040  1.00  0.00     0.047 A 
BRANCH  20  25
ATOM     25  O   UNL A   1      32.061  18.916  24.688  1.00  0.00    -0.497 OA
ATOM     26  C   UNL A   1      32.822  17.857  24.116  1.00  0.00     0.278 C 
ENDBRANCH  20  25
ENDBRANCH  18  19
ENDBRANCH  16  18
ENDBRANCH  11  16
ENDBRANCH   9  10
ENDBRANCH   8   9
ENDBRANCH   6   8
ENDBRANCH   5   6
ENDBRANCH   4   5
ENDBRANCH   3   4
ENDBRANCH   2   3
ENDBRANCH   1   2
BRANCH   1  27
ATOM     27  C   UNL A   1      33.257  36.567  29.451  1.00  0.00     0.188 C 
BRANCH  27  28
ATOM     28  O   UNL A   1      32.512  36.834  30.610  1.00  0.00    -0.377 OA
BRANCH  28  29
ATOM     29  C   UNL A   1      33.273  37.220  31.715  1.00  0.00     0.188 C 
BRANCH  29  30
ATOM     30  C   UNL A   1      33.253  36.155  32.811  1.00  0.00     0.188 C 
BRANCH  30  31
ATOM     31  O   UNL A   1      33.112  34.764  32.556  1.00  0.00    -0.376 OA
BRANCH  31  32
ATOM     32  C   UNL A   1      33.884  33.755  33.179  1.00  0.00     0.202 C 
BRANCH  32  33
ATOM     33  C   UNL A   1      34.734  32.711  32.437  1.00  0.00     0.261 C 
BRANCH  33  34
ATOM     34  O   UNL A   1      35.895  32.264  33.111  1.00  0.00    -0.460 OA
BRANCH  34  35
ATOM     35  C   UNL A   1      36.969  33.060  32.968  1.00  0.00     0.338 C 
ATOM     36  O   UNL A   1      37.242  34.085  33.569  1.00  0.00    -0.246 OA
BRANCH  35  37
ATOM     37  C   UNL A   1      37.884  32.321  32.096  1.00  0.00     0.060 A 
ATOM     38  C   UNL A   1      38.866  31.543  32.718  1.00  0.00     0.016 A 
ATOM     39  C   UNL A   1      37.703  32.302  30.708  1.00  0.00     0.016 A 
ATOM     40  C   UNL A   1      39.656  30.710  31.954  1.00  0.00     0.010 A 
ATOM     41  C   UNL A   1      38.547  31.521  29.930  1.00  0.00     0.010 A 
ATOM     42  C   UNL A   1      39.536  30.748  30.560  1.00  0.00    -0.014 A 
BRANCH  42  43
ATOM     43  C   UNL A   1      40.663  30.209  29.792  1.00  0.00     0.031 A 
ATOM     44  C   UNL A   1      41.821  31.132  29.565  1.00  0.00     0.074 A 
ATOM     45  C   UNL A   1      40.686  28.919  29.429  1.00  0.00     0.049 A 
ATOM     46  N   UNL A   1      42.964  30.901  28.981  1.00  0.00    -0.248 NA
ATOM     47  C   UNL A   1      41.675  32.507  30.085  1.00  0.00     0.031 C 
ATOM     48  C   UNL A   1      39.622  27.950  29.682  1.00  0.00     0.029 A 
ATOM     49  N   UNL A   1      41.653  28.206  28.781  1.00  0.00    -0.354 N 
ATOM     50  C   UNL A   1      43.671  32.093  29.072  1.00  0.00     0.074 A 
ATOM     51  C   UNL A   1      42.823  33.056  29.731  1.00  0.00     0.031 C 
ATOM     52  C   UNL A   1      39.993  26.760  29.178  1.00  0.00     0.029 A 
ATOM     53  C   UNL A   1      41.304  26.900  28.550  1.00  0.00     0.049 A 
ATOM     54  H   UNL A   1      42.517  28.591  28.507  1.00  0.00     0.167 HD
ATOM     55  C   UNL A   1      44.927  32.349  28.645  1.00  0.00     0.037 A 
ATOM     56  C   UNL A   1      41.974  25.946  27.879  1.00  0.00     0.037 A 
ATOM     57  C   UNL A   1      45.736  31.375  27.968  1.00  0.00     0.049 A 
ATOM     58  C   UNL A   1      43.333  26.286  27.325  1.00  0.00     0.074 A 
ATOM     59  C   UNL A   1      47.013  31.515  27.462  1.00  0.00     0.029 A 
ATOM     60  N   UNL A   1      45.329  30.076  27.693  1.00  0.00    -0.354 N 
ATOM     61  N   UNL A   1      44.005  27.412  27.412  1.00  0.00    -0.248 NA
ATOM     62  C   UNL A   1      44.027  25.228  26.584  1.00  0.00     0.031 C 
ATOM     63  C   UNL A   1      47.357  30.318  26.828  1.00  0.00     0.029 A 
ATOM     64  C   UNL A   1      46.322  29.409  26.999  1.00  0.00     0.049 A 
ATOM     65  H   UNL A   1      44.463  29.688  27.953  1.00  0.00     0.167 HD
ATOM     66  C   UNL A   1      45.212  27.188  26.763  1.00  0.00     0.074 A 
ATOM     67  C   UNL A   1      45.183  25.814  26.304  1.00  0.00     0.031 C 
ATOM     68  C   UNL A   1      46.252  28.037  26.561  1.00  0.00     0.037 A 
BRANCH  55  69
ATOM     69  C   UNL A   1      45.455  33.736  28.858  1.00  0.00     0.057 A 
ATOM     70  C   UNL A   1      46.137  34.102  30.027  1.00  0.00     0.134 A 
ATOM     71  C   UNL A   1      45.267  34.723  27.884  1.00  0.00     0.134 A 
ATOM     72  F   UNL A   1      46.324  33.213  31.013  1.00  0.00    -0.206 F 
ATOM     73  C   UNL A   1      46.595  35.406  30.226  1.00  0.00     0.040 A 
ATOM     74  C   UNL A   1      45.746  36.022  28.059  1.00  0.00     0.040 A 
ATOM     75  F   UNL A   1      44.613  34.443  26.746  1.00  0.00    -0.206 F 
ATOM     76  C   UNL A   1      46.406  36.369  29.237  1.00  0.00     0.006 A 
ENDBRANCH  55  69
BRANCH  56  77
ATOM     77  C   UNL A   1      41.366  24.607  27.679  1.00  0.00     0.057 A 
ATOM     78  C   UNL A   1      40.350  24.395  26.741  1.00  0.00     0.134 A 
ATOM     79  C   UNL A   1      41.782  23.503  28.437  1.00  0.00     0.134 A 
ATOM     80  F   UNL A   1      39.897  25.412  25.995  1.00  0.00    -0.206 F 
ATOM     81  C   UNL A   1      39.756  23.142  26.576  1.00  0.00     0.040 A 
ATOM     82  C   UNL A   1      41.217  22.239  28.263  1.00  0.00     0.040 A 
ATOM     83  F   UNL A   1      42.755  23.636  29.350  1.00  0.00    -0.206 F 
ATOM     84  C   UNL A   1      40.194  22.058  27.336  1.00  0.00     0.006 A 
ENDBRANCH  56  77
BRANCH  68  85
ATOM     85  C   UNL A   1      47.450  27.483  25.846  1.00  0.00     0.057 A 
ATOM     86  C   UNL A   1      48.502  26.862  26.528  1.00  0.00     0.134 A 
ATOM     87  C   UNL A   1      47.527  27.538  24.447  1.00  0.00     0.134 A 
ATOM     88  F   UNL A   1      48.492  26.786  27.868  1.00  0.00    -0.206 F 
ATOM     89  C   UNL A   1      49.603  26.340  25.849  1.00  0.00     0.040 A 
ATOM     90  C   UNL A   1      48.605  26.989  23.754  1.00  0.00     0.040 A 
ATOM     91  F   UNL A   1      46.544  28.107  23.732  1.00  0.00    -0.206 F 
ATOM     92  C   UNL A   1      49.653  26.398  24.457  1.00  0.00     0.006 A 
ENDBRANCH  68  85
ENDBRANCH  42  43
ENDBRANCH  35  37
ENDBRANCH  34  35
ENDBRANCH  33  34
ENDBRANCH  32  33
ENDBRANCH  31  32
ENDBRANCH  30  31
ENDBRANCH  29  30
ENDBRANCH  28  29
ENDBRANCH  27  28
ENDBRANCH   1  27
TORSDOF 26
ENDMDL
MODEL 2
REMARK VINA RESULT:      -9.7      1.209      6.003
REMARK SMILES COc1cccc(O[C@@H](C)c2nnc(SCC(=O)OCCOCCOCCOCCOC(=O)c3ccc(-c4c5nc(c(-c6c(F)cccc6F)c6ccc([nH]6)c(-c6c(F)cccc6F)c6nc(c(-c7c(F)cccc7F)c7ccc4[nH]7)C=C6)C=C5)cc3)n2C)c1
REMARK SMILES IDX 23 1 22 2 21 3 20 4 19 5 17 6 18 7 16 8 15 9 14 10 11 11
REMARK SMILES IDX 12 12 88 13 13 14 89 15 9 16 10 17 8 18 7 19 3 20 4 21 90 22
REMARK SMILES IDX 5 23 6 24 2 25 1 26 24 27 25 28 26 29 27 30 28 31 29 32
REMARK SMILES IDX 30 33 31 34 32 35 33 36 34 37 35 38 87 39 36 40 86 41 37 42
REMARK SMILES IDX 38 43 39 44 80 45 40 46 85 47 79 48 81 49 41 50 84 51 78 52
REMARK SMILES IDX 77 53 42 55 68 56 51 57 67 58 52 59 55 60 66 61 82 62 53 63
REMARK SMILES IDX 54 64 65 66 83 67 56 68 43 69 44 70 49 71 45 72 46 73 48 74
REMARK SMILES IDX 50 75 47 76 69 77 70 78 75 79 71 80 72 81 74 82 76 83 73 84
REMARK SMILES IDX 57 85 58 86 63 87 59 88 60 89 62 90 64 91 61 92
REMARK H PARENT 81 54 55 65
REMARK Flexibility Score: inf
ROOT
ATOM      1  C   UNL A   1      33.271  35.065  28.771  1.00  0.00     0.188 C 
ENDROOT
BRANCH   1   2
ATOM      2  O   UNL A   1      34.474  34.755  28.118  1.00  0.00    -0.376 OA
BRANCH   2   3
ATOM      3  C   UNL A   1      35.194  33.580  28.431  1.00  0.00     0.202 C 
BRANCH   3   4
ATOM      4  C   UNL A   1      34.640  32.133  28.477  1.00  0.00     0.261 C 
BRANCH   4   5
ATOM      5  O   UNL A   1      33.564  31.715  27.610  1.00  0.00    -0.463 OA
BRANCH   5   6
ATOM      6  C   UNL A   1      33.536  30.411  27.221  1.00  0.00     0.316 C 
ATOM      7  O   UNL A   1      34.552  29.753  27.015  1.00  0.00    -0.251 OA
BRANCH   6   8
ATOM      8  C   UNL A   1      32.151  29.832  26.970  1.00  0.00     0.200 C 
BRANCH   8   9
ATOM      9  S   UNL A   1      31.764  28.194  27.565  1.00  0.00    -0.074 SA
BRANCH   9  10
ATOM     10  C   UNL A   1      31.412  26.983  26.355  1.00  0.00     0.191 A 
ATOM     11  C   UNL A   1      31.699  25.240  25.002  1.00  0.00     0.174 A 
ATOM     12  N   UNL A   1      30.675  25.001  25.802  1.00  0.00    -0.130 NA
ATOM     13  N   UNL A   1      32.115  26.554  25.243  1.00  0.00    -0.306 N 
ATOM     14  N   UNL A   1      30.492  26.080  26.621  1.00  0.00    -0.123 NA
ATOM     15  C   UNL A   1      33.094  27.276  24.484  1.00  0.00     0.154 C 
BRANCH  11  16
ATOM     16  C   UNL A   1      32.311  24.162  24.114  1.00  0.00     0.238 C 
ATOM     17  C   UNL A   1      31.577  23.662  22.883  1.00  0.00     0.062 C 
BRANCH  16  18
ATOM     18  O   UNL A   1      32.894  23.052  24.829  1.00  0.00    -0.483 OA
BRANCH  18  19
ATOM     19  C   UNL A   1      34.166  22.644  24.591  1.00  0.00     0.124 A 
ATOM     20  C   UNL A   1      36.015  21.100  24.755  1.00  0.00     0.122 A 
ATOM     21  C   UNL A   1      36.870  22.091  24.276  1.00  0.00     0.046 A 
ATOM     22  C   UNL A   1      34.654  21.373  24.859  1.00  0.00     0.092 A 
ATOM     23  C   UNL A   1      36.369  23.337  23.897  1.00  0.00     0.008 A 
ATOM     24  C   UNL A   1      35.014  23.614  24.059  1.00  0.00     0.047 A 
BRANCH  20  25
ATOM     25  O   UNL A   1      36.604  19.914  25.102  1.00  0.00    -0.497 OA
ATOM     26  C   UNL A   1      38.005  19.814  24.871  1.00  0.00     0.278 C 
ENDBRANCH  20  25
ENDBRANCH  18  19
ENDBRANCH  16  18
ENDBRANCH  11  16
ENDBRANCH   9  10
ENDBRANCH   8   9
ENDBRANCH   6   8
ENDBRANCH   5   6
ENDBRANCH   4   5
ENDBRANCH   3   4
ENDBRANCH   2   3
ENDBRANCH   1   2
BRANCH   1  27
ATOM     27  C   UNL A   1      33.154  36.472  29.371  1.00  0.00     0.188 C 
BRANCH  27  28
ATOM     28  O   UNL A   1      32.459  36.693  30.570  1.00  0.00    -0.377 OA
BRANCH  28  29
ATOM     29  C   UNL A   1      33.274  36.938  31.678  1.00  0.00     0.188 C 
BRANCH  29  30
ATOM     30  C   UNL A   1      33.343  35.724  32.603  1.00  0.00     0.188 C 
BRANCH  30  31
ATOM     31  O   UNL A   1      33.519  34.390  32.142  1.00  0.00    -0.376 OA
BRANCH  31  32
ATOM     32  C   UNL A   1      34.129  33.359  32.896  1.00  0.00     0.202 C 
BRANCH  32  33
ATOM     33  C   UNL A   1      35.053  32.275  32.319  1.00  0.00     0.261 C 
BRANCH  33  34
ATOM     34  O   UNL A   1      36.417  32.364  32.684  1.00  0.00    -0.460 OA
BRANCH  34  35
ATOM     35  C   UNL A   1      37.122  33.284  32.003  1.00  0.00     0.338 C 
ATOM     36  O   UNL A   1      37.029  34.500  32.046  1.00  0.00    -0.246 OA
BRANCH  35  37
ATOM     37  C   UNL A   1      38.205  32.541  31.356  1.00  0.00     0.060 A 
ATOM     38  C   UNL A   1      39.134  31.916  32.193  1.00  0.00     0.016 A 
ATOM     39  C   UNL A   1      38.233  32.366  29.968  1.00  0.00     0.016 A 
ATOM     40  C   UNL A   1      40.085  31.080  31.646  1.00  0.00     0.010 A 
ATOM     41  C   UNL A   1      39.236  31.584  29.409  1.00  0.00     0.010 A 
ATOM     42  C   UNL A   1      40.171  30.965  30.254  1.00  0.00    -0.014 A 
BRANCH  42  43
ATOM     43  C   UNL A   1      41.434  30.449  29.717  1.00  0.00     0.031 A 
ATOM     44  C   UNL A   1      41.428  29.029  29.238  1.00  0.00     0.074 A 
ATOM     45  C   UNL A   1      42.489  31.260  29.558  1.00  0.00     0.049 A 
ATOM     46  N   UNL A   1      42.376  28.344  28.664  1.00  0.00    -0.248 NA
ATOM     47  C   UNL A   1      40.167  28.282  29.419  1.00  0.00     0.031 C 
ATOM     48  C   UNL A   1      42.537  32.671  29.938  1.00  0.00     0.029 A 
ATOM     49  N   UNL A   1      43.719  31.007  29.020  1.00  0.00    -0.354 N 
ATOM     50  C   UNL A   1      41.826  27.095  28.409  1.00  0.00     0.074 A 
ATOM     51  C   UNL A   1      40.477  27.099  28.920  1.00  0.00     0.031 C 
ATOM     52  C   UNL A   1      43.750  33.159  29.629  1.00  0.00     0.029 A 
ATOM     53  C   UNL A   1      44.562  32.087  29.058  1.00  0.00     0.049 A 
ATOM     54  H   UNL A   1      43.974  30.135  28.642  1.00  0.00     0.167 HD
ATOM     55  C   UNL A   1      42.404  26.041  27.791  1.00  0.00     0.037 A 
ATOM     56  C   UNL A   1      45.853  32.173  28.690  1.00  0.00     0.037 A 
ATOM     57  C   UNL A   1      43.759  26.060  27.317  1.00  0.00     0.049 A 
ATOM     58  C   UNL A   1      46.505  30.953  28.095  1.00  0.00     0.074 A 
ATOM     59  C   UNL A   1      44.471  25.053  26.699  1.00  0.00     0.029 A 
ATOM     60  N   UNL A   1      44.610  27.152  27.427  1.00  0.00    -0.354 N 
ATOM     61  N   UNL A   1      45.985  29.771  27.849  1.00  0.00    -0.248 NA
ATOM     62  C   UNL A   1      47.918  31.076  27.721  1.00  0.00     0.031 C 
ATOM     63  C   UNL A   1      45.773  25.515  26.487  1.00  0.00     0.029 A 
ATOM     64  C   UNL A   1      45.852  26.834  26.909  1.00  0.00     0.049 A 
ATOM     65  H   UNL A   1      44.365  28.023  27.814  1.00  0.00     0.167 HD
ATOM     66  C   UNL A   1      46.998  29.020  27.268  1.00  0.00     0.074 A 
ATOM     67  C   UNL A   1      48.156  29.888  27.183  1.00  0.00     0.031 C 
ATOM     68  C   UNL A   1      46.979  27.731  26.842  1.00  0.00     0.037 A 
BRANCH  55  69
ATOM     69  C   UNL A   1      41.585  24.793  27.652  1.00  0.00     0.057 A 
ATOM     70  C   UNL A   1      41.799  23.667  28.459  1.00  0.00     0.134 A 
ATOM     71  C   UNL A   1      40.573  24.713  26.687  1.00  0.00     0.134 A 
ATOM     72  F   UNL A   1      42.773  23.666  29.381  1.00  0.00    -0.206 F 
ATOM     73  C   UNL A   1      41.051  22.500  28.296  1.00  0.00     0.040 A 
ATOM     74  C   UNL A   1      39.799  23.562  26.535  1.00  0.00     0.040 A 
ATOM     75  F   UNL A   1      40.322  25.751  25.875  1.00  0.00    -0.206 F 
ATOM     76  C   UNL A   1      40.042  22.448  27.337  1.00  0.00     0.006 A 
ENDBRANCH  55  69
BRANCH  56  77
ATOM     77  C   UNL A   1      46.605  33.436  28.895  1.00  0.00     0.057 A 
ATOM     78  C   UNL A   1      46.709  34.401  27.888  1.00  0.00     0.134 A 
ATOM     79  C   UNL A   1      47.254  33.701  30.109  1.00  0.00     0.134 A 
ATOM     80  F   UNL A   1      46.123  34.201  26.699  1.00  0.00    -0.206 F 
ATOM     81  C   UNL A   1      47.444  35.574  28.071  1.00  0.00     0.040 A 
ATOM     82  C   UNL A   1      47.969  34.882  30.316  1.00  0.00     0.040 A 
ATOM     83  F   UNL A   1      47.191  32.821  31.119  1.00  0.00    -0.206 F 
ATOM     84  C   UNL A   1      48.074  35.818  29.291  1.00  0.00     0.006 A 
ENDBRANCH  56  77
BRANCH  68  85
ATOM     85  C   UNL A   1      48.238  27.205  26.216  1.00  0.00     0.057 A 
ATOM     86  C   UNL A   1      49.222  26.549  26.964  1.00  0.00     0.134 A 
ATOM     87  C   UNL A   1      48.443  27.323  24.834  1.00  0.00     0.134 A 
ATOM     88  F   UNL A   1      49.089  26.413  28.292  1.00  0.00    -0.206 F 
ATOM     89  C   UNL A   1      50.382  26.055  26.366  1.00  0.00     0.040 A 
ATOM     90  C   UNL A   1      49.581  26.802  24.220  1.00  0.00     0.040 A 
ATOM     91  F   UNL A   1      47.531  27.928  24.058  1.00  0.00    -0.206 F 
ATOM     92  C   UNL A   1      50.560  26.175  24.989  1.00  0.00     0.006 A 
ENDBRANCH  68  85
ENDBRANCH  42  43
ENDBRANCH  35  37
ENDBRANCH  34  35
ENDBRANCH  33  34
ENDBRANCH  32  33
ENDBRANCH  31  32
ENDBRANCH  30  31
ENDBRANCH  29  30
ENDBRANCH  28  29
ENDBRANCH  27  28
ENDBRANCH   1  27
TORSDOF 26
ENDMDL
MODEL 3
REMARK VINA RESULT:      -9.5      4.111      9.087
REMARK SMILES COc1cccc(O[C@@H](C)c2nnc(SCC(=O)OCCOCCOCCOCCOC(=O)c3ccc(-c4c5nc(c(-c6c(F)cccc6F)c6ccc([nH]6)c(-c6c(F)cccc6F)c6nc(c(-c7c(F)cccc7F)c7ccc4[nH]7)C=C6)C=C5)cc3)n2C)c1
REMARK SMILES IDX 23 1 22 2 21 3 20 4 19 5 17 6 18 7 16 8 15 9 14 10 11 11
REMARK SMILES IDX 12 12 88 13 13 14 89 15 9 16 10 17 8 18 7 19 3 20 4 21 90 22
REMARK SMILES IDX 5 23 6 24 2 25 1 26 24 27 25 28 26 29 27 30 28 31 29 32
REMARK SMILES IDX 30 33 31 34 32 35 33 36 34 37 35 38 87 39 36 40 86 41 37 42
REMARK SMILES IDX 38 43 39 44 80 45 40 46 85 47 79 48 81 49 41 50 84 51 78 52
REMARK SMILES IDX 77 53 42 55 68 56 51 57 67 58 52 59 55 60 66 61 82 62 53 63
REMARK SMILES IDX 54 64 65 66 83 67 56 68 43 69 44 70 49 71 45 72 46 73 48 74
REMARK SMILES IDX 50 75 47 76 69 77 70 78 75 79 71 80 72 81 74 82 76 83 73 84
REMARK SMILES IDX 57 85 58 86 63 87 59 88 60 89 62 90 64 91 61 92
REMARK H PARENT 81 54 55 65
REMARK Flexibility Score: inf
ROOT
ATOM      1  C   UNL A   1      38.352  21.821  25.547  1.00  0.00     0.188 C 
ENDROOT
BRANCH   1   2
ATOM      2  O   UNL A   1      37.517  22.728  24.878  1.00  0.00    -0.376 OA
BRANCH   2   3
ATOM      3  C   UNL A   1      36.615  23.553  25.587  1.00  0.00     0.202 C 
BRANCH   3   4
ATOM      4  C   UNL A   1      35.218  24.028  25.112  1.00  0.00     0.261 C 
BRANCH   4   5
ATOM      5  O   UNL A   1      34.846  25.423  25.159  1.00  0.00    -0.463 OA
BRANCH   5   6
ATOM      6  C   UNL A   1      33.882  25.848  24.298  1.00  0.00     0.316 C 
ATOM      7  O   UNL A   1      33.872  25.554  23.106  1.00  0.00    -0.251 OA
BRANCH   6   8
ATOM      8  C   UNL A   1      32.846  26.794  24.889  1.00  0.00     0.200 C 
BRANCH   8   9
ATOM      9  S   UNL A   1      31.358  26.125  25.614  1.00  0.00    -0.074 SA
BRANCH   9  10
ATOM     10  C   UNL A   1      31.375  24.423  26.010  1.00  0.00     0.191 A 
ATOM     11  C   UNL A   1      32.054  22.306  26.090  1.00  0.00     0.174 A 
ATOM     12  N   UNL A   1      31.974  22.779  27.320  1.00  0.00    -0.130 NA
ATOM     13  N   UNL A   1      31.555  23.294  25.233  1.00  0.00    -0.306 N 
ATOM     14  N   UNL A   1      31.543  24.075  27.269  1.00  0.00    -0.123 NA
ATOM     15  C   UNL A   1      31.312  23.139  23.828  1.00  0.00     0.154 C 
BRANCH  11  16
ATOM     16  C   UNL A   1      32.709  20.966  25.771  1.00  0.00     0.238 C 
ATOM     17  C   UNL A   1      34.023  20.905  25.015  1.00  0.00     0.062 C 
BRANCH  16  18
ATOM     18  O   UNL A   1      31.804  19.957  25.274  1.00  0.00    -0.483 OA
BRANCH  18  19
ATOM     19  C   UNL A   1      32.243  18.923  24.513  1.00  0.00     0.124 A 
ATOM     20  C   UNL A   1      33.181  16.724  24.176  1.00  0.00     0.122 A 
ATOM     21  C   UNL A   1      33.377  17.026  22.829  1.00  0.00     0.046 A 
ATOM     22  C   UNL A   1      32.564  17.662  24.997  1.00  0.00     0.092 A 
ATOM     23  C   UNL A   1      32.952  18.250  22.309  1.00  0.00     0.008 A 
ATOM     24  C   UNL A   1      32.387  19.201  23.155  1.00  0.00     0.047 A 
BRANCH  20  25
ATOM     25  O   UNL A   1      33.634  15.500  24.588  1.00  0.00    -0.497 OA
ATOM     26  C   UNL A   1      32.903  14.877  25.639  1.00  0.00     0.278 C 
ENDBRANCH  20  25
ENDBRANCH  18  19
ENDBRANCH  16  18
ENDBRANCH  11  16
ENDBRANCH   9  10
ENDBRANCH   8   9
ENDBRANCH   6   8
ENDBRANCH   5   6
ENDBRANCH   4   5
ENDBRANCH   3   4
ENDBRANCH   2   3
ENDBRANCH   1   2
BRANCH   1  27
ATOM     27  C   UNL A   1      39.374  22.415  26.525  1.00  0.00     0.188 C 
BRANCH  27  28
ATOM     28  O   UNL A   1      40.093  21.596  27.409  1.00  0.00    -0.377 OA
BRANCH  28  29
ATOM     29  C   UNL A   1      41.436  21.413  27.071  1.00  0.00     0.188 C 
BRANCH  29  30
ATOM     30  C   UNL A   1      41.640  20.144  26.245  1.00  0.00     0.188 C 
BRANCH  30  31
ATOM     31  O   UNL A   1      42.599  19.143  26.562  1.00  0.00    -0.376 OA
BRANCH  31  32
ATOM     32  C   UNL A   1      43.472  18.547  25.621  1.00  0.00     0.202 C 
BRANCH  32  33
ATOM     33  C   UNL A   1      44.545  19.297  24.815  1.00  0.00     0.261 C 
BRANCH  33  34
ATOM     34  O   UNL A   1      44.931  20.561  25.322  1.00  0.00    -0.460 OA
BRANCH  34  35
ATOM     35  C   UNL A   1      44.739  21.588  24.475  1.00  0.00     0.338 C 
ATOM     36  O   UNL A   1      44.619  21.562  23.262  1.00  0.00    -0.246 OA
BRANCH  35  37
ATOM     37  C   UNL A   1      44.466  22.746  25.328  1.00  0.00     0.060 A 
ATOM     38  C   UNL A   1      43.945  23.884  24.705  1.00  0.00     0.016 A 
ATOM     39  C   UNL A   1      44.605  22.668  26.718  1.00  0.00     0.016 A 
ATOM     40  C   UNL A   1      43.528  24.949  25.476  1.00  0.00     0.010 A 
ATOM     41  C   UNL A   1      44.254  23.768  27.491  1.00  0.00     0.010 A 
ATOM     42  C   UNL A   1      43.740  24.911  26.859  1.00  0.00    -0.014 A 
BRANCH  42  43
ATOM     43  C   UNL A   1      43.703  26.199  27.561  1.00  0.00     0.031 A 
ATOM     44  C   UNL A   1      45.026  26.826  27.879  1.00  0.00     0.074 A 
ATOM     45  C   UNL A   1      42.537  26.820  27.786  1.00  0.00     0.049 A 
ATOM     46  N   UNL A   1      45.287  27.978  28.429  1.00  0.00    -0.248 NA
ATOM     47  C   UNL A   1      46.226  26.049  27.508  1.00  0.00     0.031 C 
ATOM     48  C   UNL A   1      41.218  26.295  27.437  1.00  0.00     0.029 A 
ATOM     49  N   UNL A   1      42.284  28.037  28.351  1.00  0.00    -0.354 N 
ATOM     50  C   UNL A   1      46.671  28.067  28.462  1.00  0.00     0.074 A 
ATOM     51  C   UNL A   1      47.201  26.842  27.912  1.00  0.00     0.031 C 
ATOM     52  C   UNL A   1      40.286  27.189  27.810  1.00  0.00     0.029 A 
ATOM     53  C   UNL A   1      40.948  28.327  28.444  1.00  0.00     0.049 A 
ATOM     54  H   UNL A   1      42.992  28.647  28.660  1.00  0.00     0.167 HD
ATOM     55  C   UNL A   1      47.430  29.093  28.908  1.00  0.00     0.037 A 
ATOM     56  C   UNL A   1      40.344  29.389  29.007  1.00  0.00     0.037 A 
ATOM     57  C   UNL A   1      46.872  30.288  29.474  1.00  0.00     0.049 A 
ATOM     58  C   UNL A   1      41.212  30.475  29.588  1.00  0.00     0.074 A 
ATOM     59  C   UNL A   1      47.528  31.389  29.986  1.00  0.00     0.029 A 
ATOM     60  N   UNL A   1      45.510  30.526  29.613  1.00  0.00    -0.354 N 
ATOM     61  N   UNL A   1      42.522  30.562  29.617  1.00  0.00    -0.248 NA
ATOM     62  C   UNL A   1      40.521  31.609  30.209  1.00  0.00     0.031 C 
ATOM     63  C   UNL A   1      46.565  32.268  30.489  1.00  0.00     0.029 A 
ATOM     64  C   UNL A   1      45.306  31.748  30.228  1.00  0.00     0.049 A 
ATOM     65  H   UNL A   1      44.797  29.915  29.317  1.00  0.00     0.167 HD
ATOM     66  C   UNL A   1      42.812  31.772  30.233  1.00  0.00     0.074 A 
ATOM     67  C   UNL A   1      41.539  32.389  30.545  1.00  0.00     0.031 C 
ATOM     68  C   UNL A   1      44.018  32.327  30.518  1.00  0.00     0.037 A 
BRANCH  55  69
ATOM     69  C   UNL A   1      48.918  28.927  28.840  1.00  0.00     0.057 A 
ATOM     70  C   UNL A   1      49.653  28.355  29.888  1.00  0.00     0.134 A 
ATOM     71  C   UNL A   1      49.628  29.356  27.712  1.00  0.00     0.134 A 
ATOM     72  F   UNL A   1      49.038  27.951  31.009  1.00  0.00    -0.206 F 
ATOM     73  C   UNL A   1      51.043  28.237  29.825  1.00  0.00     0.040 A 
ATOM     74  C   UNL A   1      51.014  29.216  27.625  1.00  0.00     0.040 A 
ATOM     75  F   UNL A   1      48.988  29.922  26.678  1.00  0.00    -0.206 F 
ATOM     76  C   UNL A   1      51.726  28.662  28.687  1.00  0.00     0.006 A 
ENDBRANCH  55  69
BRANCH  56  77
ATOM     77  C   UNL A   1      38.863  29.461  29.067  1.00  0.00     0.057 A 
ATOM     78  C   UNL A   1      38.168  29.290  30.269  1.00  0.00     0.134 A 
ATOM     79  C   UNL A   1      38.102  29.692  27.912  1.00  0.00     0.134 A 
ATOM     80  F   UNL A   1      38.836  29.051  31.407  1.00  0.00    -0.206 F 
ATOM     81  C   UNL A   1      36.773  29.326  30.319  1.00  0.00     0.040 A 
ATOM     82  C   UNL A   1      36.709  29.759  27.952  1.00  0.00     0.040 A 
ATOM     83  F   UNL A   1      38.706  29.870  26.727  1.00  0.00    -0.206 F 
ATOM     84  C   UNL A   1      36.040  29.566  29.158  1.00  0.00     0.006 A 
ENDBRANCH  56  77
BRANCH  68  85
ATOM     85  C   UNL A   1      44.005  33.681  31.166  1.00  0.00     0.057 A 
ATOM     86  C   UNL A   1      43.950  34.862  30.417  1.00  0.00     0.134 A 
ATOM     87  C   UNL A   1      44.005  33.797  32.563  1.00  0.00     0.134 A 
ATOM     88  F   UNL A   1      43.958  34.818  29.076  1.00  0.00    -0.206 F 
ATOM     89  C   UNL A   1      43.926  36.114  31.033  1.00  0.00     0.040 A 
ATOM     90  C   UNL A   1      43.945  35.041  33.190  1.00  0.00     0.040 A 
ATOM     91  F   UNL A   1      44.041  32.703  33.339  1.00  0.00    -0.206 F 
ATOM     92  C   UNL A   1      43.917  36.204  32.424  1.00  0.00     0.006 A 
ENDBRANCH  68  85
ENDBRANCH  42  43
ENDBRANCH  35  37
ENDBRANCH  34  35
ENDBRANCH  33  34
ENDBRANCH  32  33
ENDBRANCH  31  32
ENDBRANCH  30  31
ENDBRANCH  29  30
ENDBRANCH  28  29
ENDBRANCH  27  28
ENDBRANCH   1  27
TORSDOF 26
ENDMDL
