MODEL 1
REMARK VINA RESULT:     -10.2      0.000      0.000
REMARK SMILES O=C(OCCOCCOCCOCCOC(=O)[C@H]1[C@@H](C(=O)n2cc(Cl)cn2)[C@H]2CC[C@@H]1O2)c1ccc(-c2c3nc(c(-c4c(F)cccc4F)c4ccc([nH]4)c(-c4c(F)cccc4F)c4nc(c(-c5c(F)cccc5F)c5ccc2[nH]5)C=C4)C=C3)cc1
REMARK SMILES IDX 9 1 8 2 7 3 6 4 5 5 4 6 3 7 2 8 1 9 33 10 34 11 86 12 35 13
REMARK SMILES IDX 85 14 36 15 37 16 38 17 79 18 39 19 84 20 78 21 80 22 40 23
REMARK SMILES IDX 83 24 77 25 76 26 41 28 67 29 50 30 66 31 51 32 54 33 65 34
REMARK SMILES IDX 81 35 52 36 53 37 64 39 82 40 55 41 42 42 43 43 48 44 44 45
REMARK SMILES IDX 45 46 47 47 49 48 46 49 68 50 69 51 74 52 70 53 71 54 73 55
REMARK SMILES IDX 75 56 72 57 56 58 57 59 62 60 58 61 59 62 61 63 63 64 60 65
REMARK SMILES IDX 10 66 11 67 12 68 13 69 14 70 15 71 16 72 17 73 18 74 19 75
REMARK SMILES IDX 31 76 28 77 30 78 32 79 29 80 20 81 21 82 22 83 23 84 27 85
REMARK SMILES IDX 24 86 26 87 25 88
REMARK H PARENT 80 27 54 38
REMARK Flexibility Score: inf
ROOT
ATOM      1  O   UNL A   1      39.868  22.053  26.732  1.00  0.00    -0.377 OA
ENDROOT
BRANCH   1   2
ATOM      2  C   UNL A   1      41.105  21.504  26.249  1.00  0.00     0.188 C 
BRANCH   2   3
ATOM      3  C   UNL A   1      41.371  20.028  26.532  1.00  0.00     0.188 C 
BRANCH   3   4
ATOM      4  O   UNL A   1      41.935  19.244  25.471  1.00  0.00    -0.376 OA
BRANCH   4   5
ATOM      5  C   UNL A   1      42.983  18.319  25.752  1.00  0.00     0.202 C 
BRANCH   5   6
ATOM      6  C   UNL A   1      44.367  18.672  25.198  1.00  0.00     0.261 C 
BRANCH   6   7
ATOM      7  O   UNL A   1      44.732  20.034  25.486  1.00  0.00    -0.460 OA
BRANCH   7   8
ATOM      8  C   UNL A   1      44.793  21.043  24.590  1.00  0.00     0.338 C 
ATOM      9  O   UNL A   1      44.719  20.836  23.383  1.00  0.00    -0.246 OA
BRANCH   8  10
ATOM     10  C   UNL A   1      44.750  22.436  25.074  1.00  0.00     0.060 A 
ATOM     11  C   UNL A   1      45.617  22.952  26.034  1.00  0.00     0.016 A 
ATOM     12  C   UNL A   1      43.762  23.260  24.520  1.00  0.00     0.016 A 
ATOM     13  C   UNL A   1      45.353  24.159  26.625  1.00  0.00     0.010 A 
ATOM     14  C   UNL A   1      43.546  24.522  25.046  1.00  0.00     0.010 A 
ATOM     15  C   UNL A   1      44.286  24.915  26.158  1.00  0.00    -0.014 A 
BRANCH  15  16
ATOM     16  C   UNL A   1      44.034  26.129  26.906  1.00  0.00     0.031 A 
ATOM     17  C   UNL A   1      45.030  27.217  26.711  1.00  0.00     0.074 A 
ATOM     18  C   UNL A   1      42.978  26.228  27.728  1.00  0.00     0.049 A 
ATOM     19  N   UNL A   1      45.728  27.842  27.605  1.00  0.00    -0.248 NA
ATOM     20  C   UNL A   1      45.372  27.570  25.322  1.00  0.00     0.031 C 
ATOM     21  C   UNL A   1      41.832  25.321  27.835  1.00  0.00     0.029 A 
ATOM     22  N   UNL A   1      42.651  27.249  28.561  1.00  0.00    -0.354 N 
ATOM     23  C   UNL A   1      46.461  28.796  26.906  1.00  0.00     0.074 A 
ATOM     24  C   UNL A   1      46.304  28.501  25.506  1.00  0.00     0.031 C 
ATOM     25  C   UNL A   1      40.832  25.962  28.474  1.00  0.00     0.029 A 
ATOM     26  C   UNL A   1      41.314  27.259  28.914  1.00  0.00     0.049 A 
ATOM     27  H   UNL A   1      43.302  27.914  28.883  1.00  0.00     0.167 HD
ATOM     28  C   UNL A   1      46.959  29.904  27.515  1.00  0.00     0.037 A 
ATOM     29  C   UNL A   1      40.632  28.313  29.414  1.00  0.00     0.037 A 
ATOM     30  C   UNL A   1      47.174  29.698  28.921  1.00  0.00     0.049 A 
ATOM     31  C   UNL A   1      41.615  29.281  29.962  1.00  0.00     0.074 A 
ATOM     32  C   UNL A   1      47.929  28.814  29.669  1.00  0.00     0.029 A 
ATOM     33  N   UNL A   1      46.322  30.294  29.816  1.00  0.00    -0.354 N 
ATOM     34  N   UNL A   1      42.322  29.084  31.040  1.00  0.00    -0.248 NA
ATOM     35  C   UNL A   1      42.116  30.322  29.074  1.00  0.00     0.031 C 
ATOM     36  C   UNL A   1      47.171  28.580  30.852  1.00  0.00     0.029 A 
ATOM     37  C   UNL A   1      46.012  29.348  30.757  1.00  0.00     0.049 A 
ATOM     38  H   UNL A   1      45.996  31.223  29.787  1.00  0.00     0.167 HD
ATOM     39  C   UNL A   1      43.553  29.665  30.769  1.00  0.00     0.074 A 
ATOM     40  C   UNL A   1      43.329  30.506  29.598  1.00  0.00     0.031 C 
ATOM     41  C   UNL A   1      44.701  29.199  31.344  1.00  0.00     0.037 A 
BRANCH  28  42
ATOM     42  C   UNL A   1      46.876  31.274  26.887  1.00  0.00     0.057 A 
ATOM     43  C   UNL A   1      48.015  32.098  26.866  1.00  0.00     0.134 A 
ATOM     44  C   UNL A   1      45.661  31.924  26.580  1.00  0.00     0.134 A 
ATOM     45  F   UNL A   1      49.227  31.603  27.160  1.00  0.00    -0.206 F 
ATOM     46  C   UNL A   1      47.938  33.476  26.635  1.00  0.00     0.040 A 
ATOM     47  C   UNL A   1      45.580  33.288  26.295  1.00  0.00     0.040 A 
ATOM     48  F   UNL A   1      44.477  31.303  26.636  1.00  0.00    -0.206 F 
ATOM     49  C   UNL A   1      46.716  34.078  26.356  1.00  0.00     0.006 A 
ENDBRANCH  28  42
BRANCH  29  50
ATOM     50  C   UNL A   1      39.216  28.649  29.162  1.00  0.00     0.057 A 
ATOM     51  C   UNL A   1      38.277  28.633  30.198  1.00  0.00     0.134 A 
ATOM     52  C   UNL A   1      38.784  29.209  27.944  1.00  0.00     0.134 A 
ATOM     53  F   UNL A   1      38.611  28.172  31.412  1.00  0.00    -0.206 F 
ATOM     54  C   UNL A   1      36.983  29.143  30.034  1.00  0.00     0.040 A 
ATOM     55  C   UNL A   1      37.491  29.701  27.760  1.00  0.00     0.040 A 
ATOM     56  F   UNL A   1      39.626  29.374  26.913  1.00  0.00    -0.206 F 
ATOM     57  C   UNL A   1      36.587  29.680  28.812  1.00  0.00     0.006 A 
ENDBRANCH  29  50
BRANCH  41  58
ATOM     58  C   UNL A   1      44.574  28.228  32.481  1.00  0.00     0.057 A 
ATOM     59  C   UNL A   1      44.462  28.619  33.823  1.00  0.00     0.134 A 
ATOM     60  C   UNL A   1      44.414  26.867  32.200  1.00  0.00     0.134 A 
ATOM     61  F   UNL A   1      44.487  29.911  34.173  1.00  0.00    -0.206 F 
ATOM     62  C   UNL A   1      44.259  27.688  34.846  1.00  0.00     0.040 A 
ATOM     63  C   UNL A   1      44.176  25.930  33.209  1.00  0.00     0.040 A 
ATOM     64  F   UNL A   1      44.440  26.429  30.931  1.00  0.00    -0.206 F 
ATOM     65  C   UNL A   1      44.112  26.338  34.539  1.00  0.00     0.006 A 
ENDBRANCH  41  58
ENDBRANCH  15  16
ENDBRANCH   8  10
ENDBRANCH   7   8
ENDBRANCH   6   7
ENDBRANCH   5   6
ENDBRANCH   4   5
ENDBRANCH   3   4
ENDBRANCH   2   3
ENDBRANCH   1   2
BRANCH   1  66
ATOM     66  C   UNL A   1      38.710  21.894  25.921  1.00  0.00     0.188 C 
BRANCH  66  67
ATOM     67  C   UNL A   1      37.786  23.106  25.805  1.00  0.00     0.188 C 
BRANCH  67  68
ATOM     68  O   UNL A   1      36.467  22.804  25.384  1.00  0.00    -0.376 OA
BRANCH  68  69
ATOM     69  C   UNL A   1      35.500  23.846  25.267  1.00  0.00     0.202 C 
BRANCH  69  70
ATOM     70  C   UNL A   1      34.908  24.258  23.906  1.00  0.00     0.261 C 
BRANCH  70  71
ATOM     71  O   UNL A   1      33.848  25.250  23.952  1.00  0.00    -0.463 OA
BRANCH  71  72
ATOM     72  C   UNL A   1      33.081  25.298  22.844  1.00  0.00     0.312 C 
ATOM     73  O   UNL A   1      33.487  24.942  21.734  1.00  0.00    -0.252 OA
BRANCH  72  74
ATOM     74  C   UNL A   1      31.677  25.841  22.937  1.00  0.00     0.143 C 
ATOM     75  C   UNL A   1      30.570  25.851  23.998  1.00  0.00     0.126 C 
ATOM     76  C   UNL A   1      31.714  27.315  22.524  1.00  0.00     0.133 C 
ATOM     77  C   UNL A   1      30.081  27.320  23.942  1.00  0.00     0.132 C 
ATOM     78  C   UNL A   1      32.255  28.201  23.650  1.00  0.00     0.036 C 
ATOM     79  O   UNL A   1      30.298  27.625  22.543  1.00  0.00    -0.373 OA
ATOM     80  C   UNL A   1      31.038  28.335  24.561  1.00  0.00     0.035 C 
BRANCH  75  81
ATOM     81  C   UNL A   1      30.725  25.489  25.450  1.00  0.00     0.253 C 
ATOM     82  O   UNL A   1      30.218  26.092  26.377  1.00  0.00    -0.272 OA
BRANCH  81  83
ATOM     83  N   UNL A   1      31.303  24.201  25.641  1.00  0.00    -0.206 N 
ATOM     84  C   UNL A   1      31.137  23.041  24.899  1.00  0.00     0.138 A 
ATOM     85  N   UNL A   1      32.104  23.969  26.721  1.00  0.00    -0.172 NA
ATOM     86  C   UNL A   1      31.865  22.057  25.514  1.00  0.00     0.079 A 
ATOM     87  C   UNL A   1      32.415  22.672  26.645  1.00  0.00     0.156 A 
ATOM     88  Cl  UNL A   1      32.120  20.469  24.997  1.00  0.00    -0.081 Cl
ENDBRANCH  81  83
ENDBRANCH  75  81
ENDBRANCH  72  74
ENDBRANCH  71  72
ENDBRANCH  70  71
ENDBRANCH  69  70
ENDBRANCH  68  69
ENDBRANCH  67  68
ENDBRANCH  66  67
ENDBRANCH   1  66
TORSDOF 22
ENDMDL
MODEL 2
REMARK VINA RESULT:     -10.2      1.653      2.297
REMARK SMILES O=C(OCCOCCOCCOCCOC(=O)[C@H]1[C@@H](C(=O)n2cc(Cl)cn2)[C@H]2CC[C@@H]1O2)c1ccc(-c2c3nc(c(-c4c(F)cccc4F)c4ccc([nH]4)c(-c4c(F)cccc4F)c4nc(c(-c5c(F)cccc5F)c5ccc2[nH]5)C=C4)C=C3)cc1
REMARK SMILES IDX 9 1 8 2 7 3 6 4 5 5 4 6 3 7 2 8 1 9 33 10 34 11 86 12 35 13
REMARK SMILES IDX 85 14 36 15 37 16 38 17 79 18 39 19 84 20 78 21 80 22 40 23
REMARK SMILES IDX 83 24 77 25 76 26 41 28 67 29 50 30 66 31 51 32 54 33 65 34
REMARK SMILES IDX 81 35 52 36 53 37 64 39 82 40 55 41 42 42 43 43 48 44 44 45
REMARK SMILES IDX 45 46 47 47 49 48 46 49 68 50 69 51 74 52 70 53 71 54 73 55
REMARK SMILES IDX 75 56 72 57 56 58 57 59 62 60 58 61 59 62 61 63 63 64 60 65
REMARK SMILES IDX 10 66 11 67 12 68 13 69 14 70 15 71 16 72 17 73 18 74 19 75
REMARK SMILES IDX 31 76 28 77 30 78 32 79 29 80 20 81 21 82 22 83 23 84 27 85
REMARK SMILES IDX 24 86 26 87 25 88
REMARK H PARENT 80 27 54 38
REMARK Flexibility Score: inf
ROOT
ATOM      1  O   UNL A   1      39.781  22.099  27.262  1.00  0.00    -0.377 OA
ENDROOT
BRANCH   1   2
ATOM      2  C   UNL A   1      41.090  21.540  27.458  1.00  0.00     0.188 C 
BRANCH   2   3
ATOM      3  C   UNL A   1      41.252  20.040  27.217  1.00  0.00     0.188 C 
BRANCH   3   4
ATOM      4  O   UNL A   1      42.051  19.635  26.096  1.00  0.00    -0.376 OA
BRANCH   4   5
ATOM      5  C   UNL A   1      42.905  18.499  26.209  1.00  0.00     0.202 C 
BRANCH   5   6
ATOM      6  C   UNL A   1      44.198  18.537  25.388  1.00  0.00     0.261 C 
BRANCH   6   7
ATOM      7  O   UNL A   1      44.857  19.813  25.478  1.00  0.00    -0.460 OA
BRANCH   7   8
ATOM      8  C   UNL A   1      44.756  20.819  24.582  1.00  0.00     0.338 C 
ATOM      9  O   UNL A   1      44.524  20.604  23.397  1.00  0.00    -0.246 OA
BRANCH   8  10
ATOM     10  C   UNL A   1      44.729  22.212  25.069  1.00  0.00     0.060 A 
ATOM     11  C   UNL A   1      45.610  22.720  26.020  1.00  0.00     0.016 A 
ATOM     12  C   UNL A   1      43.741  23.044  24.526  1.00  0.00     0.016 A 
ATOM     13  C   UNL A   1      45.362  23.929  26.615  1.00  0.00     0.010 A 
ATOM     14  C   UNL A   1      43.540  24.306  25.056  1.00  0.00     0.010 A 
ATOM     15  C   UNL A   1      44.295  24.693  26.161  1.00  0.00    -0.014 A 
BRANCH  15  16
ATOM     16  C   UNL A   1      44.061  25.908  26.912  1.00  0.00     0.031 A 
ATOM     17  C   UNL A   1      45.094  26.967  26.754  1.00  0.00     0.074 A 
ATOM     18  C   UNL A   1      42.986  26.033  27.707  1.00  0.00     0.049 A 
ATOM     19  N   UNL A   1      45.786  27.562  27.671  1.00  0.00    -0.248 NA
ATOM     20  C   UNL A   1      45.483  27.320  25.378  1.00  0.00     0.031 C 
ATOM     21  C   UNL A   1      41.811  25.160  27.775  1.00  0.00     0.029 A 
ATOM     22  N   UNL A   1      42.669  27.056  28.541  1.00  0.00    -0.354 N 
ATOM     23  C   UNL A   1      46.567  28.499  27.000  1.00  0.00     0.074 A 
ATOM     24  C   UNL A   1      46.438  28.221  25.594  1.00  0.00     0.031 C 
ATOM     25  C   UNL A   1      40.815  25.826  28.393  1.00  0.00     0.029 A 
ATOM     26  C   UNL A   1      41.324  27.104  28.858  1.00  0.00     0.049 A 
ATOM     27  H   UNL A   1      43.330  27.698  28.885  1.00  0.00     0.167 HD
ATOM     28  C   UNL A   1      47.082  29.587  27.632  1.00  0.00     0.037 A 
ATOM     29  C   UNL A   1      40.661  28.175  29.349  1.00  0.00     0.037 A 
ATOM     30  C   UNL A   1      47.253  29.362  29.042  1.00  0.00     0.049 A 
ATOM     31  C   UNL A   1      41.658  29.108  29.932  1.00  0.00     0.074 A 
ATOM     32  C   UNL A   1      47.961  28.450  29.802  1.00  0.00     0.029 A 
ATOM     33  N   UNL A   1      46.396  29.977  29.919  1.00  0.00    -0.354 N 
ATOM     34  N   UNL A   1      42.330  28.880  31.026  1.00  0.00    -0.248 NA
ATOM     35  C   UNL A   1      42.214  30.140  29.067  1.00  0.00     0.031 C 
ATOM     36  C   UNL A   1      47.165  28.229  30.962  1.00  0.00     0.029 A 
ATOM     37  C   UNL A   1      46.032  29.033  30.844  1.00  0.00     0.049 A 
ATOM     38  H   UNL A   1      46.099  30.916  29.890  1.00  0.00     0.167 HD
ATOM     39  C   UNL A   1      43.585  29.425  30.793  1.00  0.00     0.074 A 
ATOM     40  C   UNL A   1      43.418  30.282  29.624  1.00  0.00     0.031 C 
ATOM     41  C   UNL A   1      44.703  28.919  31.394  1.00  0.00     0.037 A 
BRANCH  28  42
ATOM     42  C   UNL A   1      47.058  30.963  27.015  1.00  0.00     0.057 A 
ATOM     43  C   UNL A   1      48.218  31.757  27.042  1.00  0.00     0.134 A 
ATOM     44  C   UNL A   1      45.872  31.648  26.671  1.00  0.00     0.134 A 
ATOM     45  F   UNL A   1      49.406  31.227  27.374  1.00  0.00    -0.206 F 
ATOM     46  C   UNL A   1      48.186  33.139  26.821  1.00  0.00     0.040 A 
ATOM     47  C   UNL A   1      45.838  33.017  26.397  1.00  0.00     0.040 A 
ATOM     48  F   UNL A   1      44.671  31.058  26.680  1.00  0.00    -0.206 F 
ATOM     49  C   UNL A   1      46.991  33.775  26.505  1.00  0.00     0.006 A 
ENDBRANCH  28  42
BRANCH  29  50
ATOM     50  C   UNL A   1      39.263  28.556  29.063  1.00  0.00     0.057 A 
ATOM     51  C   UNL A   1      38.299  28.570  30.076  1.00  0.00     0.134 A 
ATOM     52  C   UNL A   1      38.879  29.130  27.836  1.00  0.00     0.134 A 
ATOM     53  F   UNL A   1      38.588  28.097  31.297  1.00  0.00    -0.206 F 
ATOM     54  C   UNL A   1      37.026  29.121  29.881  1.00  0.00     0.040 A 
ATOM     55  C   UNL A   1      37.608  29.664  27.621  1.00  0.00     0.040 A 
ATOM     56  F   UNL A   1      39.751  29.269  26.825  1.00  0.00    -0.206 F 
ATOM     57  C   UNL A   1      36.678  29.671  28.650  1.00  0.00     0.006 A 
ENDBRANCH  29  50
BRANCH  41  58
ATOM     58  C   UNL A   1      44.515  27.943  32.518  1.00  0.00     0.057 A 
ATOM     59  C   UNL A   1      44.348  28.328  33.857  1.00  0.00     0.134 A 
ATOM     60  C   UNL A   1      44.354  26.585  32.222  1.00  0.00     0.134 A 
ATOM     61  F   UNL A   1      44.371  29.617  34.215  1.00  0.00    -0.206 F 
ATOM     62  C   UNL A   1      44.091  27.394  34.864  1.00  0.00     0.040 A 
ATOM     63  C   UNL A   1      44.062  25.646  33.214  1.00  0.00     0.040 A 
ATOM     64  F   UNL A   1      44.431  26.154  30.953  1.00  0.00    -0.206 F 
ATOM     65  C   UNL A   1      43.944  26.047  34.543  1.00  0.00     0.006 A 
ENDBRANCH  41  58
ENDBRANCH  15  16
ENDBRANCH   8  10
ENDBRANCH   7   8
ENDBRANCH   6   7
ENDBRANCH   5   6
ENDBRANCH   4   5
ENDBRANCH   3   4
ENDBRANCH   2   3
ENDBRANCH   1   2
BRANCH   1  66
ATOM     66  C   UNL A   1      39.070  21.727  26.087  1.00  0.00     0.188 C 
BRANCH  66  67
ATOM     67  C   UNL A   1      37.772  22.484  25.806  1.00  0.00     0.188 C 
BRANCH  67  68
ATOM     68  O   UNL A   1      36.635  21.659  25.626  1.00  0.00    -0.376 OA
BRANCH  68  69
ATOM     69  C   UNL A   1      35.709  21.940  24.577  1.00  0.00     0.202 C 
BRANCH  69  70
ATOM     70  C   UNL A   1      35.987  23.019  23.514  1.00  0.00     0.261 C 
BRANCH  70  71
ATOM     71  O   UNL A   1      34.885  23.321  22.617  1.00  0.00    -0.463 OA
BRANCH  71  72
ATOM     72  C   UNL A   1      33.745  23.688  23.238  1.00  0.00     0.312 C 
ATOM     73  O   UNL A   1      32.801  22.914  23.417  1.00  0.00    -0.252 OA
BRANCH  72  74
ATOM     74  C   UNL A   1      33.584  25.112  23.706  1.00  0.00     0.143 C 
ATOM     75  C   UNL A   1      32.475  26.170  23.647  1.00  0.00     0.126 C 
ATOM     76  C   UNL A   1      33.980  25.170  25.184  1.00  0.00     0.133 C 
ATOM     77  C   UNL A   1      32.492  26.737  25.089  1.00  0.00     0.132 C 
ATOM     78  C   UNL A   1      32.867  24.627  26.086  1.00  0.00     0.036 C 
ATOM     79  O   UNL A   1      33.895  26.599  25.419  1.00  0.00    -0.373 OA
ATOM     80  C   UNL A   1      31.902  25.807  26.146  1.00  0.00     0.035 C 
BRANCH  75  81
ATOM     81  C   UNL A   1      31.036  25.932  23.279  1.00  0.00     0.253 C 
ATOM     82  O   UNL A   1      30.455  24.868  23.390  1.00  0.00    -0.272 OA
BRANCH  81  83
ATOM     83  N   UNL A   1      30.318  27.139  23.041  1.00  0.00    -0.206 N 
ATOM     84  C   UNL A   1      29.067  27.526  23.498  1.00  0.00     0.138 A 
ATOM     85  N   UNL A   1      30.837  28.084  22.205  1.00  0.00    -0.172 NA
ATOM     86  C   UNL A   1      28.797  28.754  22.953  1.00  0.00     0.079 A 
ATOM     87  C   UNL A   1      29.904  29.037  22.143  1.00  0.00     0.156 A 
ATOM     88  Cl  UNL A   1      27.468  29.755  23.242  1.00  0.00    -0.081 Cl
ENDBRANCH  81  83
ENDBRANCH  75  81
ENDBRANCH  72  74
ENDBRANCH  71  72
ENDBRANCH  70  71
ENDBRANCH  69  70
ENDBRANCH  68  69
ENDBRANCH  67  68
ENDBRANCH  66  67
ENDBRANCH   1  66
TORSDOF 22
ENDMDL
MODEL 3
REMARK VINA RESULT:      -9.7      4.475      9.633
REMARK SMILES O=C(OCCOCCOCCOCCOC(=O)[C@H]1[C@@H](C(=O)n2cc(Cl)cn2)[C@H]2CC[C@@H]1O2)c1ccc(-c2c3nc(c(-c4c(F)cccc4F)c4ccc([nH]4)c(-c4c(F)cccc4F)c4nc(c(-c5c(F)cccc5F)c5ccc2[nH]5)C=C4)C=C3)cc1
REMARK SMILES IDX 9 1 8 2 7 3 6 4 5 5 4 6 3 7 2 8 1 9 33 10 34 11 86 12 35 13
REMARK SMILES IDX 85 14 36 15 37 16 38 17 79 18 39 19 84 20 78 21 80 22 40 23
REMARK SMILES IDX 83 24 77 25 76 26 41 28 67 29 50 30 66 31 51 32 54 33 65 34
REMARK SMILES IDX 81 35 52 36 53 37 64 39 82 40 55 41 42 42 43 43 48 44 44 45
REMARK SMILES IDX 45 46 47 47 49 48 46 49 68 50 69 51 74 52 70 53 71 54 73 55
REMARK SMILES IDX 75 56 72 57 56 58 57 59 62 60 58 61 59 62 61 63 63 64 60 65
REMARK SMILES IDX 10 66 11 67 12 68 13 69 14 70 15 71 16 72 17 73 18 74 19 75
REMARK SMILES IDX 31 76 28 77 30 78 32 79 29 80 20 81 21 82 22 83 23 84 27 85
REMARK SMILES IDX 24 86 26 87 25 88
REMARK H PARENT 80 27 54 38
REMARK Flexibility Score: inf
ROOT
ATOM      1  O   UNL A   1      35.247  33.429  27.548  1.00  0.00    -0.377 OA
ENDROOT
BRANCH   1   2
ATOM      2  C   UNL A   1      34.743  34.725  27.909  1.00  0.00     0.188 C 
BRANCH   2   3
ATOM      3  C   UNL A   1      33.542  34.771  28.850  1.00  0.00     0.188 C 
BRANCH   3   4
ATOM      4  O   UNL A   1      33.723  35.414  30.120  1.00  0.00    -0.376 OA
BRANCH   4   5
ATOM      5  C   UNL A   1      32.590  35.900  30.837  1.00  0.00     0.202 C 
BRANCH   5   6
ATOM      6  C   UNL A   1      32.367  35.311  32.234  1.00  0.00     0.261 C 
BRANCH   6   7
ATOM      7  O   UNL A   1      33.452  34.456  32.638  1.00  0.00    -0.460 OA
BRANCH   7   8
ATOM      8  C   UNL A   1      34.611  34.863  33.202  1.00  0.00     0.338 C 
ATOM      9  O   UNL A   1      34.683  35.906  33.842  1.00  0.00    -0.246 OA
BRANCH   8  10
ATOM     10  C   UNL A   1      35.763  33.941  33.215  1.00  0.00     0.060 A 
ATOM     11  C   UNL A   1      37.069  34.333  33.499  1.00  0.00     0.016 A 
ATOM     12  C   UNL A   1      35.493  32.600  32.912  1.00  0.00     0.016 A 
ATOM     13  C   UNL A   1      38.115  33.490  33.234  1.00  0.00     0.010 A 
ATOM     14  C   UNL A   1      36.540  31.713  32.734  1.00  0.00     0.010 A 
ATOM     15  C   UNL A   1      37.844  32.198  32.805  1.00  0.00    -0.014 A 
BRANCH  15  16
ATOM     16  C   UNL A   1      39.014  31.417  32.465  1.00  0.00     0.031 A 
ATOM     17  C   UNL A   1      39.935  31.121  33.596  1.00  0.00     0.074 A 
ATOM     18  C   UNL A   1      39.238  31.019  31.202  1.00  0.00     0.049 A 
ATOM     19  N   UNL A   1      41.201  31.374  33.693  1.00  0.00    -0.248 NA
ATOM     20  C   UNL A   1      39.332  30.574  34.823  1.00  0.00     0.031 C 
ATOM     21  C   UNL A   1      38.312  31.065  30.068  1.00  0.00     0.029 A 
ATOM     22  N   UNL A   1      40.318  30.368  30.702  1.00  0.00    -0.354 N 
ATOM     23  C   UNL A   1      41.593  30.850  34.921  1.00  0.00     0.074 A 
ATOM     24  C   UNL A   1      40.390  30.489  35.625  1.00  0.00     0.031 C 
ATOM     25  C   UNL A   1      38.768  30.237  29.106  1.00  0.00     0.029 A 
ATOM     26  C   UNL A   1      40.058  29.711  29.514  1.00  0.00     0.049 A 
ATOM     27  H   UNL A   1      41.199  30.365  31.142  1.00  0.00     0.167 HD
ATOM     28  C   UNL A   1      42.888  30.531  35.183  1.00  0.00     0.037 A 
ATOM     29  C   UNL A   1      40.797  28.712  28.979  1.00  0.00     0.037 A 
ATOM     30  C   UNL A   1      43.805  31.298  34.385  1.00  0.00     0.049 A 
ATOM     31  C   UNL A   1      42.147  28.756  29.594  1.00  0.00     0.074 A 
ATOM     32  C   UNL A   1      44.057  32.647  34.220  1.00  0.00     0.029 A 
ATOM     33  N   UNL A   1      44.465  30.677  33.355  1.00  0.00    -0.354 N 
ATOM     34  N   UNL A   1      43.032  29.686  29.364  1.00  0.00    -0.248 NA
ATOM     35  C   UNL A   1      42.375  27.968  30.798  1.00  0.00     0.031 C 
ATOM     36  C   UNL A   1      44.434  32.794  32.854  1.00  0.00     0.029 A 
ATOM     37  C   UNL A   1      44.405  31.525  32.279  1.00  0.00     0.049 A 
ATOM     38  H   UNL A   1      44.898  29.793  33.382  1.00  0.00     0.167 HD
ATOM     39  C   UNL A   1      43.675  29.874  30.580  1.00  0.00     0.074 A 
ATOM     40  C   UNL A   1      43.309  28.716  31.388  1.00  0.00     0.031 C 
ATOM     41  C   UNL A   1      44.217  31.082  30.919  1.00  0.00     0.037 A 
BRANCH  28  42
ATOM     42  C   UNL A   1      43.277  29.254  35.886  1.00  0.00     0.057 A 
ATOM     43  C   UNL A   1      44.199  29.298  36.946  1.00  0.00     0.134 A 
ATOM     44  C   UNL A   1      43.017  27.965  35.371  1.00  0.00     0.134 A 
ATOM     45  F   UNL A   1      44.545  30.466  37.508  1.00  0.00    -0.206 F 
ATOM     46  C   UNL A   1      44.868  28.157  37.404  1.00  0.00     0.040 A 
ATOM     47  C   UNL A   1      43.639  26.814  35.856  1.00  0.00     0.040 A 
ATOM     48  F   UNL A   1      42.228  27.759  34.309  1.00  0.00    -0.206 F 
ATOM     49  C   UNL A   1      44.595  26.910  36.853  1.00  0.00     0.006 A 
ENDBRANCH  28  42
BRANCH  29  50
ATOM     50  C   UNL A   1      40.294  27.559  28.206  1.00  0.00     0.057 A 
ATOM     51  C   UNL A   1      40.756  27.304  26.912  1.00  0.00     0.134 A 
ATOM     52  C   UNL A   1      39.511  26.547  28.794  1.00  0.00     0.134 A 
ATOM     53  F   UNL A   1      41.555  28.182  26.289  1.00  0.00    -0.206 F 
ATOM     54  C   UNL A   1      40.457  26.112  26.239  1.00  0.00     0.040 A 
ATOM     55  C   UNL A   1      39.187  25.364  28.128  1.00  0.00     0.040 A 
ATOM     56  F   UNL A   1      39.099  26.632  30.068  1.00  0.00    -0.206 F 
ATOM     57  C   UNL A   1      39.671  25.138  26.847  1.00  0.00     0.006 A 
ENDBRANCH  29  50
BRANCH  41  58
ATOM     58  C   UNL A   1      44.344  32.121  29.843  1.00  0.00     0.057 A 
ATOM     59  C   UNL A   1      43.303  32.989  29.480  1.00  0.00     0.134 A 
ATOM     60  C   UNL A   1      45.595  32.349  29.260  1.00  0.00     0.134 A 
ATOM     61  F   UNL A   1      42.105  32.919  30.071  1.00  0.00    -0.206 F 
ATOM     62  C   UNL A   1      43.487  34.001  28.533  1.00  0.00     0.040 A 
ATOM     63  C   UNL A   1      45.800  33.378  28.338  1.00  0.00     0.040 A 
ATOM     64  F   UNL A   1      46.653  31.602  29.612  1.00  0.00    -0.206 F 
ATOM     65  C   UNL A   1      44.740  34.200  27.961  1.00  0.00     0.006 A 
ENDBRANCH  41  58
ENDBRANCH  15  16
ENDBRANCH   8  10
ENDBRANCH   7   8
ENDBRANCH   6   7
ENDBRANCH   5   6
ENDBRANCH   4   5
ENDBRANCH   3   4
ENDBRANCH   2   3
ENDBRANCH   1   2
BRANCH   1  66
ATOM     66  C   UNL A   1      34.749  32.303  28.260  1.00  0.00     0.188 C 
BRANCH  66  67
ATOM     67  C   UNL A   1      34.758  30.967  27.517  1.00  0.00     0.188 C 
BRANCH  67  68
ATOM     68  O   UNL A   1      33.645  30.133  27.789  1.00  0.00    -0.376 OA
BRANCH  68  69
ATOM     69  C   UNL A   1      32.412  30.343  27.104  1.00  0.00     0.202 C 
BRANCH  69  70
ATOM     70  C   UNL A   1      31.854  29.318  26.099  1.00  0.00     0.261 C 
BRANCH  70  71
ATOM     71  O   UNL A   1      32.525  28.029  26.073  1.00  0.00    -0.463 OA
BRANCH  71  72
ATOM     72  C   UNL A   1      31.697  26.974  25.932  1.00  0.00     0.312 C 
ATOM     73  O   UNL A   1      31.233  26.355  26.893  1.00  0.00    -0.252 OA
BRANCH  72  74
ATOM     74  C   UNL A   1      31.344  26.490  24.548  1.00  0.00     0.143 C 
ATOM     75  C   UNL A   1      31.119  27.144  23.178  1.00  0.00     0.126 C 
ATOM     76  C   UNL A   1      32.301  25.352  24.187  1.00  0.00     0.133 C 
ATOM     77  C   UNL A   1      31.910  26.200  22.237  1.00  0.00     0.132 C 
ATOM     78  C   UNL A   1      33.677  25.883  23.774  1.00  0.00     0.036 C 
ATOM     79  O   UNL A   1      31.740  24.933  22.917  1.00  0.00    -0.373 OA
ATOM     80  C   UNL A   1      33.427  26.326  22.335  1.00  0.00     0.035 C 
BRANCH  75  81
ATOM     81  C   UNL A   1      31.476  28.555  22.796  1.00  0.00     0.253 C 
ATOM     82  O   UNL A   1      32.575  28.920  22.423  1.00  0.00    -0.272 OA
BRANCH  81  83
ATOM     83  N   UNL A   1      30.334  29.392  22.644  1.00  0.00    -0.206 N 
ATOM     84  C   UNL A   1      29.563  30.017  23.613  1.00  0.00     0.138 A 
ATOM     85  N   UNL A   1      29.818  29.619  21.401  1.00  0.00    -0.172 NA
ATOM     86  C   UNL A   1      28.547  30.670  22.965  1.00  0.00     0.079 A 
ATOM     87  C   UNL A   1      28.734  30.368  21.611  1.00  0.00     0.156 A 
ATOM     88  Cl  UNL A   1      27.369  31.685  23.627  1.00  0.00    -0.081 Cl
ENDBRANCH  81  83
ENDBRANCH  75  81
ENDBRANCH  72  74
ENDBRANCH  71  72
ENDBRANCH  70  71
ENDBRANCH  69  70
ENDBRANCH  68  69
ENDBRANCH  67  68
ENDBRANCH  66  67
ENDBRANCH   1  66
TORSDOF 22
ENDMDL
