MODEL 1
REMARK VINA RESULT:     -10.3      0.000      0.000
REMARK SMILES O=C(OCCOCCOCCOCCOC(=O)c1ccccc1/C=C1/SC(=S)N(C2CCCC2)C1=O)c1ccc(-c2c3nc(c(-c4c(F)cccc4F)c4ccc([nH]4)c(-c4c(F)cccc4F)c4nc(c(-c5c(F)cccc5F)c5ccc2[nH]5)C=C4)C=C3)cc1
REMARK SMILES IDX 9 1 8 2 7 3 6 4 5 5 4 6 3 7 2 8 1 9 37 10 38 11 90 12 39 13
REMARK SMILES IDX 89 14 40 15 41 16 42 17 83 18 43 19 88 20 82 21 84 22 44 23
REMARK SMILES IDX 87 24 81 25 80 26 45 28 71 29 54 30 70 31 55 32 58 33 69 34
REMARK SMILES IDX 85 35 56 36 57 37 68 39 86 40 59 41 46 42 47 43 52 44 48 45
REMARK SMILES IDX 49 46 51 47 53 48 50 49 72 50 73 51 78 52 74 53 75 54 77 55
REMARK SMILES IDX 79 56 76 57 60 58 61 59 66 60 62 61 63 62 65 63 67 64 64 65
REMARK SMILES IDX 10 66 11 67 12 68 13 69 14 70 15 71 16 72 17 73 18 74 19 75
REMARK SMILES IDX 23 76 20 77 22 78 21 79 24 80 25 81 26 82 35 83 27 84 29 85
REMARK SMILES IDX 36 86 28 87 30 88 31 89 34 90 32 91 33 92
REMARK H PARENT 84 27 58 38
REMARK Flexibility Score: inf
ROOT
ATOM      1  O   UNL A   1      37.364  23.047  26.117  1.00  0.00    -0.377 OA
ENDROOT
BRANCH   1   2
ATOM      2  C   UNL A   1      38.395  22.117  25.788  1.00  0.00     0.188 C 
BRANCH   2   3
ATOM      3  C   UNL A   1      39.733  22.371  26.478  1.00  0.00     0.188 C 
BRANCH   3   4
ATOM      4  O   UNL A   1      40.747  21.558  25.883  1.00  0.00    -0.376 OA
BRANCH   4   5
ATOM      5  C   UNL A   1      42.024  21.606  26.515  1.00  0.00     0.202 C 
BRANCH   5   6
ATOM      6  C   UNL A   1      43.142  22.036  25.568  1.00  0.00     0.261 C 
BRANCH   6   7
ATOM      7  O   UNL A   1      42.949  23.376  25.097  1.00  0.00    -0.460 OA
BRANCH   7   8
ATOM      8  C   UNL A   1      43.618  24.493  25.479  1.00  0.00     0.338 C 
ATOM      9  O   UNL A   1      44.705  24.722  24.949  1.00  0.00    -0.246 OA
BRANCH   8  10
ATOM     10  C   UNL A   1      43.104  25.502  26.463  1.00  0.00     0.060 A 
ATOM     11  C   UNL A   1      43.599  26.794  26.664  1.00  0.00     0.016 A 
ATOM     12  C   UNL A   1      41.979  25.114  27.216  1.00  0.00     0.016 A 
ATOM     13  C   UNL A   1      43.059  27.644  27.623  1.00  0.00     0.010 A 
ATOM     14  C   UNL A   1      41.416  25.964  28.171  1.00  0.00     0.010 A 
ATOM     15  C   UNL A   1      41.989  27.219  28.402  1.00  0.00    -0.014 A 
BRANCH  15  16
ATOM     16  C   UNL A   1      41.642  28.013  29.593  1.00  0.00     0.031 A 
ATOM     17  C   UNL A   1      40.436  28.900  29.500  1.00  0.00     0.074 A 
ATOM     18  C   UNL A   1      42.299  27.834  30.750  1.00  0.00     0.049 A 
ATOM     19  N   UNL A   1      39.944  29.731  30.377  1.00  0.00    -0.248 NA
ATOM     20  C   UNL A   1      39.669  28.825  28.244  1.00  0.00     0.031 C 
ATOM     21  C   UNL A   1      43.390  26.881  30.962  1.00  0.00     0.029 A 
ATOM     22  N   UNL A   1      42.125  28.425  31.971  1.00  0.00    -0.354 N 
ATOM     23  C   UNL A   1      38.833  30.299  29.766  1.00  0.00     0.074 A 
ATOM     24  C   UNL A   1      38.721  29.723  28.447  1.00  0.00     0.031 C 
ATOM     25  C   UNL A   1      43.778  26.945  32.246  1.00  0.00     0.029 A 
ATOM     26  C   UNL A   1      43.009  27.983  32.924  1.00  0.00     0.049 A 
ATOM     27  H   UNL A   1      41.432  29.102  32.150  1.00  0.00     0.167 HD
ATOM     28  C   UNL A   1      37.989  31.229  30.268  1.00  0.00     0.037 A 
ATOM     29  C   UNL A   1      43.185  28.405  34.190  1.00  0.00     0.037 A 
ATOM     30  C   UNL A   1      38.131  31.786  31.584  1.00  0.00     0.049 A 
ATOM     31  C   UNL A   1      42.303  29.518  34.692  1.00  0.00     0.074 A 
ATOM     32  C   UNL A   1      37.396  32.786  32.190  1.00  0.00     0.029 A 
ATOM     33  N   UNL A   1      39.094  31.377  32.500  1.00  0.00    -0.354 N 
ATOM     34  N   UNL A   1      41.303  30.116  34.087  1.00  0.00    -0.248 NA
ATOM     35  C   UNL A   1      42.585  30.030  36.038  1.00  0.00     0.031 C 
ATOM     36  C   UNL A   1      37.942  33.010  33.461  1.00  0.00     0.029 A 
ATOM     37  C   UNL A   1      38.985  32.117  33.662  1.00  0.00     0.049 A 
ATOM     38  H   UNL A   1      39.756  30.666  32.343  1.00  0.00     0.167 HD
ATOM     39  C   UNL A   1      40.827  31.065  34.980  1.00  0.00     0.074 A 
ATOM     40  C   UNL A   1      41.638  30.949  36.177  1.00  0.00     0.031 C 
ATOM     41  C   UNL A   1      39.816  31.959  34.831  1.00  0.00     0.037 A 
BRANCH  28  42
ATOM     42  C   UNL A   1      36.921  31.736  29.345  1.00  0.00     0.057 A 
ATOM     43  C   UNL A   1      36.989  33.001  28.743  1.00  0.00     0.134 A 
ATOM     44  C   UNL A   1      35.765  30.978  29.122  1.00  0.00     0.134 A 
ATOM     45  F   UNL A   1      38.053  33.793  28.945  1.00  0.00    -0.206 F 
ATOM     46  C   UNL A   1      35.931  33.506  27.984  1.00  0.00     0.040 A 
ATOM     47  C   UNL A   1      34.711  31.463  28.345  1.00  0.00     0.040 A 
ATOM     48  F   UNL A   1      35.629  29.764  29.676  1.00  0.00    -0.206 F 
ATOM     49  C   UNL A   1      34.787  32.736  27.784  1.00  0.00     0.006 A 
ENDBRANCH  28  42
BRANCH  29  50
ATOM     50  C   UNL A   1      44.253  27.814  35.037  1.00  0.00     0.057 A 
ATOM     51  C   UNL A   1      44.019  26.680  35.824  1.00  0.00     0.134 A 
ATOM     52  C   UNL A   1      45.540  28.368  35.080  1.00  0.00     0.134 A 
ATOM     53  F   UNL A   1      42.805  26.113  35.847  1.00  0.00    -0.206 F 
ATOM     54  C   UNL A   1      45.021  26.124  36.625  1.00  0.00     0.040 A 
ATOM     55  C   UNL A   1      46.557  27.808  35.855  1.00  0.00     0.040 A 
ATOM     56  F   UNL A   1      45.833  29.456  34.354  1.00  0.00    -0.206 F 
ATOM     57  C   UNL A   1      46.297  26.684  36.636  1.00  0.00     0.006 A 
ENDBRANCH  29  50
BRANCH  41  58
ATOM     58  C   UNL A   1      39.524  32.850  35.999  1.00  0.00     0.057 A 
ATOM     59  C   UNL A   1      38.626  32.473  37.005  1.00  0.00     0.134 A 
ATOM     60  C   UNL A   1      40.193  34.071  36.143  1.00  0.00     0.134 A 
ATOM     61  F   UNL A   1      37.947  31.320  36.915  1.00  0.00    -0.206 F 
ATOM     62  C   UNL A   1      38.392  33.291  38.110  1.00  0.00     0.040 A 
ATOM     63  C   UNL A   1      39.986  34.884  37.256  1.00  0.00     0.040 A 
ATOM     64  F   UNL A   1      41.072  34.479  35.216  1.00  0.00    -0.206 F 
ATOM     65  C   UNL A   1      39.080  34.497  38.240  1.00  0.00     0.006 A 
ENDBRANCH  41  58
ENDBRANCH  15  16
ENDBRANCH   8  10
ENDBRANCH   7   8
ENDBRANCH   6   7
ENDBRANCH   5   6
ENDBRANCH   4   5
ENDBRANCH   3   4
ENDBRANCH   2   3
ENDBRANCH   1   2
BRANCH   1  66
ATOM     66  C   UNL A   1      36.672  23.652  25.030  1.00  0.00     0.188 C 
BRANCH  66  67
ATOM     67  C   UNL A   1      36.590  22.902  23.681  1.00  0.00     0.188 C 
BRANCH  67  68
ATOM     68  O   UNL A   1      35.651  23.421  22.748  1.00  0.00    -0.376 OA
BRANCH  68  69
ATOM     69  C   UNL A   1      34.284  23.283  23.118  1.00  0.00     0.202 C 
BRANCH  69  70
ATOM     70  C   UNL A   1      33.306  23.361  21.946  1.00  0.00     0.261 C 
BRANCH  70  71
ATOM     71  O   UNL A   1      32.882  24.684  21.567  1.00  0.00    -0.460 OA
BRANCH  71  72
ATOM     72  C   UNL A   1      31.983  25.357  22.318  1.00  0.00     0.338 C 
ATOM     73  O   UNL A   1      30.884  24.963  22.666  1.00  0.00    -0.246 OA
BRANCH  72  74
ATOM     74  C   UNL A   1      32.622  26.616  22.785  1.00  0.00     0.067 A 
ATOM     75  C   UNL A   1      33.769  27.017  22.080  1.00  0.00     0.016 A 
ATOM     76  C   UNL A   1      32.058  27.443  23.785  1.00  0.00    -0.010 A 
ATOM     77  C   UNL A   1      34.310  28.281  22.295  1.00  0.00     0.001 A 
ATOM     78  C   UNL A   1      32.615  28.716  23.975  1.00  0.00     0.009 A 
ATOM     79  C   UNL A   1      33.725  29.133  23.228  1.00  0.00     0.001 A 
BRANCH  76  80
ATOM     80  C   UNL A   1      30.870  27.076  24.590  1.00  0.00     0.030 C 
ATOM     81  C   UNL A   1      30.867  26.156  25.568  1.00  0.00     0.081 C 
ATOM     82  S   UNL A   1      29.464  25.391  26.195  1.00  0.00    -0.054 SA
ATOM     83  C   UNL A   1      32.055  25.419  26.056  1.00  0.00     0.266 C 
ATOM     84  C   UNL A   1      30.368  23.900  26.549  1.00  0.00     0.148 C 
ATOM     85  N   UNL A   1      31.712  24.101  26.311  1.00  0.00    -0.290 N 
ATOM     86  O   UNL A   1      33.158  25.929  26.191  1.00  0.00    -0.268 OA
ATOM     87  S   UNL A   1      29.572  22.532  27.074  1.00  0.00    -0.052 S 
BRANCH  85  88
ATOM     88  C   UNL A   1      32.826  23.147  26.384  1.00  0.00     0.092 C 
ATOM     89  C   UNL A   1      33.265  22.776  27.792  1.00  0.00     0.025 C 
ATOM     90  C   UNL A   1      32.682  21.805  25.653  1.00  0.00     0.025 C 
ATOM     91  C   UNL A   1      34.247  21.642  27.532  1.00  0.00     0.002 C 
ATOM     92  C   UNL A   1      33.654  20.859  26.363  1.00  0.00     0.002 C 
ENDBRANCH  85  88
ENDBRANCH  76  80
ENDBRANCH  72  74
ENDBRANCH  71  72
ENDBRANCH  70  71
ENDBRANCH  69  70
ENDBRANCH  68  69
ENDBRANCH  67  68
ENDBRANCH  66  67
ENDBRANCH   1  66
TORSDOF 22
ENDMDL
MODEL 2
REMARK VINA RESULT:     -10.2      2.508      7.844
REMARK SMILES O=C(OCCOCCOCCOCCOC(=O)c1ccccc1/C=C1/SC(=S)N(C2CCCC2)C1=O)c1ccc(-c2c3nc(c(-c4c(F)cccc4F)c4ccc([nH]4)c(-c4c(F)cccc4F)c4nc(c(-c5c(F)cccc5F)c5ccc2[nH]5)C=C4)C=C3)cc1
REMARK SMILES IDX 9 1 8 2 7 3 6 4 5 5 4 6 3 7 2 8 1 9 37 10 38 11 90 12 39 13
REMARK SMILES IDX 89 14 40 15 41 16 42 17 83 18 43 19 88 20 82 21 84 22 44 23
REMARK SMILES IDX 87 24 81 25 80 26 45 28 71 29 54 30 70 31 55 32 58 33 69 34
REMARK SMILES IDX 85 35 56 36 57 37 68 39 86 40 59 41 46 42 47 43 52 44 48 45
REMARK SMILES IDX 49 46 51 47 53 48 50 49 72 50 73 51 78 52 74 53 75 54 77 55
REMARK SMILES IDX 79 56 76 57 60 58 61 59 66 60 62 61 63 62 65 63 67 64 64 65
REMARK SMILES IDX 10 66 11 67 12 68 13 69 14 70 15 71 16 72 17 73 18 74 19 75
REMARK SMILES IDX 23 76 20 77 22 78 21 79 24 80 25 81 26 82 35 83 27 84 29 85
REMARK SMILES IDX 36 86 28 87 30 88 31 89 34 90 32 91 33 92
REMARK H PARENT 84 27 58 38
REMARK Flexibility Score: inf
ROOT
ATOM      1  O   UNL A   1      30.363  27.191  23.950  1.00  0.00    -0.377 OA
ENDROOT
BRANCH   1   2
ATOM      2  C   UNL A   1      30.029  28.444  23.353  1.00  0.00     0.188 C 
BRANCH   2   3
ATOM      3  C   UNL A   1      30.638  29.665  24.039  1.00  0.00     0.188 C 
BRANCH   3   4
ATOM      4  O   UNL A   1      31.206  29.282  25.294  1.00  0.00    -0.376 OA
BRANCH   4   5
ATOM      5  C   UNL A   1      32.092  30.230  25.883  1.00  0.00     0.202 C 
BRANCH   5   6
ATOM      6  C   UNL A   1      31.362  31.396  26.546  1.00  0.00     0.261 C 
BRANCH   6   7
ATOM      7  O   UNL A   1      32.150  32.593  26.523  1.00  0.00    -0.460 OA
BRANCH   7   8
ATOM      8  C   UNL A   1      32.922  33.097  27.519  1.00  0.00     0.338 C 
ATOM      9  O   UNL A   1      32.562  34.149  28.049  1.00  0.00    -0.246 OA
BRANCH   8  10
ATOM     10  C   UNL A   1      34.155  32.437  28.061  1.00  0.00     0.060 A 
ATOM     11  C   UNL A   1      34.321  31.074  28.322  1.00  0.00     0.016 A 
ATOM     12  C   UNL A   1      35.264  33.278  28.273  1.00  0.00     0.016 A 
ATOM     13  C   UNL A   1      35.506  30.568  28.846  1.00  0.00     0.010 A 
ATOM     14  C   UNL A   1      36.465  32.781  28.784  1.00  0.00     0.010 A 
ATOM     15  C   UNL A   1      36.568  31.424  29.110  1.00  0.00    -0.014 A 
BRANCH  15  16
ATOM     16  C   UNL A   1      37.679  30.916  29.933  1.00  0.00     0.031 A 
ATOM     17  C   UNL A   1      38.689  30.039  29.256  1.00  0.00     0.074 A 
ATOM     18  C   UNL A   1      37.847  31.342  31.195  1.00  0.00     0.049 A 
ATOM     19  N   UNL A   1      39.727  29.425  29.754  1.00  0.00    -0.248 NA
ATOM     20  C   UNL A   1      38.509  29.839  27.807  1.00  0.00     0.031 C 
ATOM     21  C   UNL A   1      36.990  32.311  31.879  1.00  0.00     0.029 A 
ATOM     22  N   UNL A   1      38.813  31.037  32.114  1.00  0.00    -0.354 N 
ATOM     23  C   UNL A   1      40.302  28.744  28.689  1.00  0.00     0.074 A 
ATOM     24  C   UNL A   1      39.502  29.014  27.518  1.00  0.00     0.031 C 
ATOM     25  C   UNL A   1      37.480  32.530  33.110  1.00  0.00     0.029 A 
ATOM     26  C   UNL A   1      38.642  31.673  33.318  1.00  0.00     0.049 A 
ATOM     27  H   UNL A   1      39.559  30.421  31.930  1.00  0.00     0.167 HD
ATOM     28  C   UNL A   1      41.399  27.953  28.699  1.00  0.00     0.037 A 
ATOM     29  C   UNL A   1      39.338  31.541  34.464  1.00  0.00     0.037 A 
ATOM     30  C   UNL A   1      42.171  27.699  29.883  1.00  0.00     0.049 A 
ATOM     31  C   UNL A   1      40.491  30.572  34.480  1.00  0.00     0.074 A 
ATOM     32  C   UNL A   1      43.257  26.863  30.052  1.00  0.00     0.029 A 
ATOM     33  N   UNL A   1      41.921  28.295  31.114  1.00  0.00    -0.354 N 
ATOM     34  N   UNL A   1      40.987  29.861  33.493  1.00  0.00    -0.248 NA
ATOM     35  C   UNL A   1      41.166  30.368  35.767  1.00  0.00     0.031 C 
ATOM     36  C   UNL A   1      43.639  26.922  31.398  1.00  0.00     0.029 A 
ATOM     37  C   UNL A   1      42.821  27.831  32.054  1.00  0.00     0.049 A 
ATOM     38  H   UNL A   1      41.208  28.950  31.290  1.00  0.00     0.167 HD
ATOM     39  C   UNL A   1      42.039  29.137  34.034  1.00  0.00     0.074 A 
ATOM     40  C   UNL A   1      42.121  29.510  35.434  1.00  0.00     0.031 C 
ATOM     41  C   UNL A   1      42.864  28.239  33.437  1.00  0.00     0.037 A 
BRANCH  28  42
ATOM     42  C   UNL A   1      41.741  27.261  27.412  1.00  0.00     0.057 A 
ATOM     43  C   UNL A   1      41.232  25.997  27.082  1.00  0.00     0.134 A 
ATOM     44  C   UNL A   1      42.661  27.836  26.527  1.00  0.00     0.134 A 
ATOM     45  F   UNL A   1      40.374  25.374  27.906  1.00  0.00    -0.206 F 
ATOM     46  C   UNL A   1      41.655  25.315  25.940  1.00  0.00     0.040 A 
ATOM     47  C   UNL A   1      43.073  27.174  25.368  1.00  0.00     0.040 A 
ATOM     48  F   UNL A   1      43.195  29.039  26.785  1.00  0.00    -0.206 F 
ATOM     49  C   UNL A   1      42.579  25.904  25.078  1.00  0.00     0.006 A 
ENDBRANCH  28  42
BRANCH  29  50
ATOM     50  C   UNL A   1      38.937  32.297  35.678  1.00  0.00     0.057 A 
ATOM     51  C   UNL A   1      38.176  31.704  36.691  1.00  0.00     0.134 A 
ATOM     52  C   UNL A   1      39.307  33.638  35.858  1.00  0.00     0.134 A 
ATOM     53  F   UNL A   1      37.769  30.432  36.574  1.00  0.00    -0.206 F 
ATOM     54  C   UNL A   1      37.793  32.414  37.833  1.00  0.00     0.040 A 
ATOM     55  C   UNL A   1      38.954  34.352  37.004  1.00  0.00     0.040 A 
ATOM     56  F   UNL A   1      40.034  34.270  34.924  1.00  0.00    -0.206 F 
ATOM     57  C   UNL A   1      38.190  33.741  37.995  1.00  0.00     0.006 A 
ENDBRANCH  29  50
BRANCH  41  58
ATOM     58  C   UNL A   1      43.933  27.630  34.294  1.00  0.00     0.057 A 
ATOM     59  C   UNL A   1      43.757  26.390  34.918  1.00  0.00     0.134 A 
ATOM     60  C   UNL A   1      45.168  28.270  34.445  1.00  0.00     0.134 A 
ATOM     61  F   UNL A   1      42.590  25.736  34.817  1.00  0.00    -0.206 F 
ATOM     62  C   UNL A   1      44.773  25.812  35.679  1.00  0.00     0.040 A 
ATOM     63  C   UNL A   1      46.199  27.690  35.182  1.00  0.00     0.040 A 
ATOM     64  F   UNL A   1      45.398  29.456  33.862  1.00  0.00    -0.206 F 
ATOM     65  C   UNL A   1      46.001  26.460  35.805  1.00  0.00     0.006 A 
ENDBRANCH  41  58
ENDBRANCH  15  16
ENDBRANCH   8  10
ENDBRANCH   7   8
ENDBRANCH   6   7
ENDBRANCH   5   6
ENDBRANCH   4   5
ENDBRANCH   3   4
ENDBRANCH   2   3
ENDBRANCH   1   2
BRANCH   1  66
ATOM     66  C   UNL A   1      29.283  26.408  24.449  1.00  0.00     0.188 C 
BRANCH  66  67
ATOM     67  C   UNL A   1      29.465  25.638  25.778  1.00  0.00     0.188 C 
BRANCH  67  68
ATOM     68  O   UNL A   1      30.777  25.663  26.325  1.00  0.00    -0.376 OA
BRANCH  68  69
ATOM     69  C   UNL A   1      31.501  24.441  26.228  1.00  0.00     0.202 C 
BRANCH  69  70
ATOM     70  C   UNL A   1      30.669  23.193  26.524  1.00  0.00     0.261 C 
BRANCH  70  71
ATOM     71  O   UNL A   1      31.058  21.996  25.825  1.00  0.00    -0.460 OA
BRANCH  71  72
ATOM     72  C   UNL A   1      32.319  21.522  25.928  1.00  0.00     0.338 C 
ATOM     73  O   UNL A   1      33.127  21.786  26.801  1.00  0.00    -0.246 OA
BRANCH  72  74
ATOM     74  C   UNL A   1      32.513  20.491  24.874  1.00  0.00     0.067 A 
ATOM     75  C   UNL A   1      32.875  19.212  25.329  1.00  0.00     0.016 A 
ATOM     76  C   UNL A   1      32.231  20.722  23.507  1.00  0.00    -0.010 A 
ATOM     77  C   UNL A   1      32.867  18.134  24.450  1.00  0.00     0.001 A 
ATOM     78  C   UNL A   1      32.221  19.618  22.643  1.00  0.00     0.009 A 
ATOM     79  C   UNL A   1      32.526  18.334  23.115  1.00  0.00     0.001 A 
BRANCH  76  80
ATOM     80  C   UNL A   1      31.874  22.047  22.948  1.00  0.00     0.030 C 
ATOM     81  C   UNL A   1      32.721  23.083  22.843  1.00  0.00     0.081 C 
ATOM     82  S   UNL A   1      32.252  24.721  22.637  1.00  0.00    -0.054 SA
ATOM     83  C   UNL A   1      34.161  23.052  23.189  1.00  0.00     0.266 C 
ATOM     84  C   UNL A   1      33.679  25.300  23.528  1.00  0.00     0.148 C 
ATOM     85  N   UNL A   1      34.514  24.239  23.812  1.00  0.00    -0.290 N 
ATOM     86  O   UNL A   1      34.893  22.102  22.954  1.00  0.00    -0.268 OA
ATOM     87  S   UNL A   1      33.844  26.916  23.905  1.00  0.00    -0.052 S 
BRANCH  85  88
ATOM     88  C   UNL A   1      35.759  24.213  24.591  1.00  0.00     0.092 C 
ATOM     89  C   UNL A   1      35.588  23.892  26.067  1.00  0.00     0.025 C 
ATOM     90  C   UNL A   1      36.892  23.292  24.119  1.00  0.00     0.025 C 
ATOM     91  C   UNL A   1      37.030  23.726  26.527  1.00  0.00     0.002 C 
ATOM     92  C   UNL A   1      37.744  23.038  25.366  1.00  0.00     0.002 C 
ENDBRANCH  85  88
ENDBRANCH  76  80
ENDBRANCH  72  74
ENDBRANCH  71  72
ENDBRANCH  70  71
ENDBRANCH  69  70
ENDBRANCH  68  69
ENDBRANCH  67  68
ENDBRANCH  66  67
ENDBRANCH   1  66
TORSDOF 22
ENDMDL
MODEL 3
REMARK VINA RESULT:      -9.9      5.166     10.009
REMARK SMILES O=C(OCCOCCOCCOCCOC(=O)c1ccccc1/C=C1/SC(=S)N(C2CCCC2)C1=O)c1ccc(-c2c3nc(c(-c4c(F)cccc4F)c4ccc([nH]4)c(-c4c(F)cccc4F)c4nc(c(-c5c(F)cccc5F)c5ccc2[nH]5)C=C4)C=C3)cc1
REMARK SMILES IDX 9 1 8 2 7 3 6 4 5 5 4 6 3 7 2 8 1 9 37 10 38 11 90 12 39 13
REMARK SMILES IDX 89 14 40 15 41 16 42 17 83 18 43 19 88 20 82 21 84 22 44 23
REMARK SMILES IDX 87 24 81 25 80 26 45 28 71 29 54 30 70 31 55 32 58 33 69 34
REMARK SMILES IDX 85 35 56 36 57 37 68 39 86 40 59 41 46 42 47 43 52 44 48 45
REMARK SMILES IDX 49 46 51 47 53 48 50 49 72 50 73 51 78 52 74 53 75 54 77 55
REMARK SMILES IDX 79 56 76 57 60 58 61 59 66 60 62 61 63 62 65 63 67 64 64 65
REMARK SMILES IDX 10 66 11 67 12 68 13 69 14 70 15 71 16 72 17 73 18 74 19 75
REMARK SMILES IDX 23 76 20 77 22 78 21 79 24 80 25 81 26 82 35 83 27 84 29 85
REMARK SMILES IDX 36 86 28 87 30 88 31 89 34 90 32 91 33 92
REMARK H PARENT 84 27 58 38
REMARK Flexibility Score: inf
ROOT
ATOM      1  O   UNL A   1      34.382  32.473  29.041  1.00  0.00    -0.377 OA
ENDROOT
BRANCH   1   2
ATOM      2  C   UNL A   1      34.501  33.717  29.731  1.00  0.00     0.188 C 
BRANCH   2   3
ATOM      3  C   UNL A   1      34.699  33.597  31.241  1.00  0.00     0.188 C 
BRANCH   3   4
ATOM      4  O   UNL A   1      36.086  33.726  31.559  1.00  0.00    -0.376 OA
BRANCH   4   5
ATOM      5  C   UNL A   1      36.384  34.520  32.704  1.00  0.00     0.202 C 
BRANCH   5   6
ATOM      6  C   UNL A   1      35.666  34.043  33.964  1.00  0.00     0.261 C 
BRANCH   6   7
ATOM      7  O   UNL A   1      36.044  32.704  34.312  1.00  0.00    -0.460 OA
BRANCH   7   8
ATOM      8  C   UNL A   1      37.247  32.274  34.768  1.00  0.00     0.338 C 
ATOM      9  O   UNL A   1      37.403  32.188  35.986  1.00  0.00    -0.246 OA
BRANCH   8  10
ATOM     10  C   UNL A   1      38.388  31.844  33.893  1.00  0.00     0.060 A 
ATOM     11  C   UNL A   1      38.293  31.117  32.703  1.00  0.00     0.016 A 
ATOM     12  C   UNL A   1      39.669  32.265  34.297  1.00  0.00     0.016 A 
ATOM     13  C   UNL A   1      39.422  30.751  31.978  1.00  0.00     0.010 A 
ATOM     14  C   UNL A   1      40.810  31.918  33.569  1.00  0.00     0.010 A 
ATOM     15  C   UNL A   1      40.684  31.120  32.426  1.00  0.00    -0.014 A 
BRANCH  15  16
ATOM     16  C   UNL A   1      41.854  30.471  31.812  1.00  0.00     0.031 A 
ATOM     17  C   UNL A   1      42.591  31.238  30.755  1.00  0.00     0.074 A 
ATOM     18  C   UNL A   1      42.317  29.303  32.288  1.00  0.00     0.049 A 
ATOM     19  N   UNL A   1      43.614  30.883  30.028  1.00  0.00    -0.248 NA
ATOM     20  C   UNL A   1      42.111  32.607  30.494  1.00  0.00     0.031 C 
ATOM     21  C   UNL A   1      41.743  28.564  33.413  1.00  0.00     0.029 A 
ATOM     22  N   UNL A   1      43.391  28.550  31.902  1.00  0.00    -0.354 N 
ATOM     23  C   UNL A   1      43.878  31.970  29.204  1.00  0.00     0.074 A 
ATOM     24  C   UNL A   1      42.912  32.996  29.516  1.00  0.00     0.031 C 
ATOM     25  C   UNL A   1      42.484  27.466  33.634  1.00  0.00     0.029 A 
ATOM     26  C   UNL A   1      43.541  27.396  32.630  1.00  0.00     0.049 A 
ATOM     27  H   UNL A   1      44.000  28.811  31.172  1.00  0.00     0.167 HD
ATOM     28  C   UNL A   1      44.842  32.089  28.263  1.00  0.00     0.037 A 
ATOM     29  C   UNL A   1      44.419  26.388  32.469  1.00  0.00     0.037 A 
ATOM     30  C   UNL A   1      45.786  31.046  27.973  1.00  0.00     0.049 A 
ATOM     31  C   UNL A   1      45.415  26.495  31.343  1.00  0.00     0.074 A 
ATOM     32  C   UNL A   1      46.763  31.002  26.998  1.00  0.00     0.029 A 
ATOM     33  N   UNL A   1      45.858  29.847  28.675  1.00  0.00    -0.354 N 
ATOM     34  N   UNL A   1      45.614  27.488  30.507  1.00  0.00    -0.248 NA
ATOM     35  C   UNL A   1      46.291  25.338  31.124  1.00  0.00     0.031 C 
ATOM     36  C   UNL A   1      47.401  29.758  27.085  1.00  0.00     0.029 A 
ATOM     37  C   UNL A   1      46.852  29.048  28.144  1.00  0.00     0.049 A 
ATOM     38  H   UNL A   1      45.285  29.604  29.437  1.00  0.00     0.167 HD
ATOM     39  C   UNL A   1      46.644  27.084  29.671  1.00  0.00     0.074 A 
ATOM     40  C   UNL A   1      47.041  25.761  30.115  1.00  0.00     0.031 C 
ATOM     41  C   UNL A   1      47.213  27.737  28.626  1.00  0.00     0.037 A 
BRANCH  28  42
ATOM     42  C   UNL A   1      44.836  33.349  27.449  1.00  0.00     0.057 A 
ATOM     43  C   UNL A   1      45.430  34.536  27.901  1.00  0.00     0.134 A 
ATOM     44  C   UNL A   1      44.153  33.395  26.228  1.00  0.00     0.134 A 
ATOM     45  F   UNL A   1      46.070  34.570  29.081  1.00  0.00    -0.206 F 
ATOM     46  C   UNL A   1      45.311  35.730  27.186  1.00  0.00     0.040 A 
ATOM     47  C   UNL A   1      44.048  34.577  25.492  1.00  0.00     0.040 A 
ATOM     48  F   UNL A   1      43.554  32.298  25.741  1.00  0.00    -0.206 F 
ATOM     49  C   UNL A   1      44.618  35.753  25.978  1.00  0.00     0.006 A 
ENDBRANCH  28  42
BRANCH  29  50
ATOM     50  C   UNL A   1      44.363  25.194  33.351  1.00  0.00     0.057 A 
ATOM     51  C   UNL A   1      44.792  25.247  34.682  1.00  0.00     0.134 A 
ATOM     52  C   UNL A   1      43.876  23.965  32.885  1.00  0.00     0.134 A 
ATOM     53  F   UNL A   1      45.290  26.386  35.186  1.00  0.00    -0.206 F 
ATOM     54  C   UNL A   1      44.744  24.124  35.513  1.00  0.00     0.040 A 
ATOM     55  C   UNL A   1      43.798  22.843  33.710  1.00  0.00     0.040 A 
ATOM     56  F   UNL A   1      43.451  23.842  31.618  1.00  0.00    -0.206 F 
ATOM     57  C   UNL A   1      44.238  22.919  35.030  1.00  0.00     0.006 A 
ENDBRANCH  29  50
BRANCH  41  58
ATOM     58  C   UNL A   1      48.335  27.038  27.921  1.00  0.00     0.057 A 
ATOM     59  C   UNL A   1      49.658  27.137  28.367  1.00  0.00     0.134 A 
ATOM     60  C   UNL A   1      48.075  26.213  26.821  1.00  0.00     0.134 A 
ATOM     61  F   UNL A   1      49.969  27.921  29.410  1.00  0.00    -0.206 F 
ATOM     62  C   UNL A   1      50.690  26.449  27.729  1.00  0.00     0.040 A 
ATOM     63  C   UNL A   1      49.095  25.501  26.191  1.00  0.00     0.040 A 
ATOM     64  F   UNL A   1      46.825  26.072  26.355  1.00  0.00    -0.206 F 
ATOM     65  C   UNL A   1      50.407  25.621  26.643  1.00  0.00     0.006 A 
ENDBRANCH  41  58
ENDBRANCH  15  16
ENDBRANCH   8  10
ENDBRANCH   7   8
ENDBRANCH   6   7
ENDBRANCH   5   6
ENDBRANCH   4   5
ENDBRANCH   3   4
ENDBRANCH   2   3
ENDBRANCH   1   2
BRANCH   1  66
ATOM     66  C   UNL A   1      35.348  32.203  28.031  1.00  0.00     0.188 C 
BRANCH  66  67
ATOM     67  C   UNL A   1      36.646  31.454  28.414  1.00  0.00     0.188 C 
BRANCH  67  68
ATOM     68  O   UNL A   1      36.611  30.764  29.657  1.00  0.00    -0.376 OA
BRANCH  68  69
ATOM     69  C   UNL A   1      36.831  29.360  29.581  1.00  0.00     0.202 C 
BRANCH  69  70
ATOM     70  C   UNL A   1      37.956  28.952  28.630  1.00  0.00     0.261 C 
BRANCH  70  71
ATOM     71  O   UNL A   1      39.294  29.235  29.081  1.00  0.00    -0.460 OA
BRANCH  71  72
ATOM     72  C   UNL A   1      40.233  28.264  29.092  1.00  0.00     0.338 C 
ATOM     73  O   UNL A   1      40.408  27.430  29.964  1.00  0.00    -0.246 OA
BRANCH  72  74
ATOM     74  C   UNL A   1      40.932  28.281  27.780  1.00  0.00     0.067 A 
ATOM     75  C   UNL A   1      41.812  29.356  27.571  1.00  0.00     0.016 A 
ATOM     76  C   UNL A   1      40.836  27.228  26.840  1.00  0.00    -0.010 A 
ATOM     77  C   UNL A   1      42.671  29.348  26.476  1.00  0.00     0.001 A 
ATOM     78  C   UNL A   1      41.719  27.238  25.751  1.00  0.00     0.009 A 
ATOM     79  C   UNL A   1      42.635  28.284  25.578  1.00  0.00     0.001 A 
BRANCH  76  80
ATOM     80  C   UNL A   1      39.911  26.079  26.975  1.00  0.00     0.030 C 
ATOM     81  C   UNL A   1      40.279  24.846  27.359  1.00  0.00     0.081 C 
ATOM     82  S   UNL A   1      39.363  23.419  27.096  1.00  0.00    -0.054 SA
ATOM     83  C   UNL A   1      41.642  24.451  27.785  1.00  0.00     0.266 C 
ATOM     84  C   UNL A   1      40.836  22.428  26.974  1.00  0.00     0.148 C 
ATOM     85  N   UNL A   1      41.941  23.196  27.280  1.00  0.00    -0.290 N 
ATOM     86  O   UNL A   1      42.366  25.157  28.472  1.00  0.00    -0.268 OA
ATOM     87  S   UNL A   1      40.744  20.823  26.531  1.00  0.00    -0.052 S 
BRANCH  85  88
ATOM     88  C   UNL A   1      43.365  22.841  27.238  1.00  0.00     0.092 C 
ATOM     89  C   UNL A   1      44.094  23.251  25.967  1.00  0.00     0.025 C 
ATOM     90  C   UNL A   1      44.268  23.324  28.380  1.00  0.00     0.025 C 
ATOM     91  C   UNL A   1      45.544  22.953  26.321  1.00  0.00     0.002 C 
ATOM     92  C   UNL A   1      45.683  23.328  27.794  1.00  0.00     0.002 C 
ENDBRANCH  85  88
ENDBRANCH  76  80
ENDBRANCH  72  74
ENDBRANCH  71  72
ENDBRANCH  70  71
ENDBRANCH  69  70
ENDBRANCH  68  69
ENDBRANCH  67  68
ENDBRANCH  66  67
ENDBRANCH   1  66
TORSDOF 22
ENDMDL
