MODEL 1
REMARK VINA RESULT:     -10.5      0.000      0.000
REMARK SMILES Cn1ccnc1N1[C@@H]2CC[C@H]1C[C@H](CC(=O)OCCOCCOCCOCCOC(=O)c1ccc(-c3c4nc(c(-c5c(F)cccc5F)c5ccc([nH]5)c(-c5c(F)cccc5F)c5nc(c(-c6c(F)cccc6F)c6ccc3[nH]6)C=C5)C=C4)cc1)C2
REMARK SMILES IDX 23 1 22 2 21 3 20 4 19 5 18 6 17 7 15 8 16 9 14 10 13 11
REMARK SMILES IDX 7 12 8 13 11 14 9 15 86 16 10 17 12 18 6 19 1 20 2 21 3 22
REMARK SMILES IDX 4 23 5 24 24 25 25 26 26 27 27 28 28 29 29 30 30 31 31 32
REMARK SMILES IDX 32 33 33 34 85 35 34 36 84 37 35 38 36 39 37 40 78 41 38 42
REMARK SMILES IDX 83 43 77 44 79 45 39 46 82 47 76 48 75 49 40 51 66 52 49 53
REMARK SMILES IDX 65 54 50 55 53 56 64 57 80 58 51 59 52 60 63 62 81 63 54 64
REMARK SMILES IDX 41 65 42 66 47 67 43 68 44 69 46 70 48 71 45 72 67 73 68 74
REMARK SMILES IDX 73 75 69 76 70 77 72 78 74 79 71 80 55 81 56 82 61 83 57 84
REMARK SMILES IDX 58 85 60 86 62 87 59 88
REMARK H PARENT 79 50 53 61
REMARK Flexibility Score: inf
ROOT
ATOM      1  O   UNL A   1      42.131  20.258  25.787  1.00  0.00    -0.377 OA
ENDROOT
BRANCH   1   2
ATOM      2  C   UNL A   1      40.807  19.965  26.190  1.00  0.00     0.188 C 
BRANCH   2   3
ATOM      3  C   UNL A   1      39.908  21.149  26.556  1.00  0.00     0.188 C 
BRANCH   3   4
ATOM      4  O   UNL A   1      39.224  21.809  25.516  1.00  0.00    -0.376 OA
BRANCH   4   5
ATOM      5  C   UNL A   1      38.035  22.540  25.778  1.00  0.00     0.202 C 
BRANCH   5   6
ATOM      6  C   UNL A   1      36.603  21.967  25.720  1.00  0.00     0.261 C 
BRANCH   6   7
ATOM      7  O   UNL A   1      36.017  21.728  24.429  1.00  0.00    -0.463 OA
BRANCH   7   8
ATOM      8  C   UNL A   1      35.636  22.827  23.738  1.00  0.00     0.306 C 
ATOM      9  O   UNL A   1      36.270  23.296  22.796  1.00  0.00    -0.252 OA
BRANCH   8  10
ATOM     10  C   UNL A   1      34.345  23.484  24.194  1.00  0.00     0.126 C 
BRANCH  10  11
ATOM     11  C   UNL A   1      34.029  24.971  23.974  1.00  0.00     0.004 C 
ATOM     12  N   UNL A   1      31.927  26.914  23.319  1.00  0.00    -0.336 N 
ATOM     13  C   UNL A   1      32.437  26.860  24.702  1.00  0.00     0.086 C 
ATOM     14  C   UNL A   1      33.137  26.846  22.489  1.00  0.00     0.086 C 
ATOM     15  C   UNL A   1      33.606  27.862  24.663  1.00  0.00     0.027 C 
ATOM     16  C   UNL A   1      32.927  25.422  24.968  1.00  0.00     0.029 C 
ATOM     17  C   UNL A   1      34.066  27.856  23.194  1.00  0.00     0.027 C 
ATOM     18  C   UNL A   1      33.642  25.382  22.545  1.00  0.00     0.029 C 
BRANCH  12  19
ATOM     19  C   UNL A   1      30.961  27.837  23.053  1.00  0.00     0.205 A 
ATOM     20  C   UNL A   1      28.983  26.532  23.956  1.00  0.00     0.153 C 
ATOM     21  N   UNL A   1      29.616  27.632  23.276  1.00  0.00    -0.320 N 
ATOM     22  C   UNL A   1      28.934  28.705  22.762  1.00  0.00     0.109 A 
ATOM     23  C   UNL A   1      29.908  29.567  22.326  1.00  0.00     0.133 A 
ATOM     24  N   UNL A   1      31.149  29.033  22.531  1.00  0.00    -0.221 NA
ENDBRANCH  12  19
ENDBRANCH  10  11
ENDBRANCH   8  10
ENDBRANCH   7   8
ENDBRANCH   6   7
ENDBRANCH   5   6
ENDBRANCH   4   5
ENDBRANCH   3   4
ENDBRANCH   2   3
ENDBRANCH   1   2
BRANCH   1  25
ATOM     25  C   UNL A   1      43.061  19.203  25.570  1.00  0.00     0.188 C 
BRANCH  25  26
ATOM     26  C   UNL A   1      44.274  19.387  24.638  1.00  0.00     0.188 C 
BRANCH  26  27
ATOM     27  O   UNL A   1      45.472  19.777  25.285  1.00  0.00    -0.376 OA
BRANCH  27  28
ATOM     28  C   UNL A   1      45.938  21.108  25.115  1.00  0.00     0.202 C 
BRANCH  28  29
ATOM     29  C   UNL A   1      45.332  22.197  26.017  1.00  0.00     0.261 C 
BRANCH  29  30
ATOM     30  O   UNL A   1      44.981  23.433  25.373  1.00  0.00    -0.460 OA
BRANCH  30  31
ATOM     31  C   UNL A   1      43.709  23.598  24.963  1.00  0.00     0.338 C 
ATOM     32  O   UNL A   1      43.105  22.941  24.128  1.00  0.00    -0.246 OA
BRANCH  31  33
ATOM     33  C   UNL A   1      43.081  24.612  25.829  1.00  0.00     0.060 A 
ATOM     34  C   UNL A   1      43.676  25.876  25.939  1.00  0.00     0.016 A 
ATOM     35  C   UNL A   1      41.924  24.309  26.549  1.00  0.00     0.016 A 
ATOM     36  C   UNL A   1      43.138  26.828  26.805  1.00  0.00     0.010 A 
ATOM     37  C   UNL A   1      41.397  25.256  27.431  1.00  0.00     0.010 A 
ATOM     38  C   UNL A   1      42.024  26.507  27.591  1.00  0.00    -0.014 A 
BRANCH  38  39
ATOM     39  C   UNL A   1      41.634  27.395  28.713  1.00  0.00     0.031 A 
ATOM     40  C   UNL A   1      42.411  27.306  30.000  1.00  0.00     0.074 A 
ATOM     41  C   UNL A   1      40.627  28.278  28.592  1.00  0.00     0.049 A 
ATOM     42  N   UNL A   1      42.218  27.929  31.133  1.00  0.00    -0.248 NA
ATOM     43  C   UNL A   1      43.561  26.386  30.007  1.00  0.00     0.031 C 
ATOM     44  C   UNL A   1      39.829  28.495  27.387  1.00  0.00     0.029 A 
ATOM     45  N   UNL A   1      40.096  29.153  29.509  1.00  0.00    -0.354 N 
ATOM     46  C   UNL A   1      43.212  27.470  31.990  1.00  0.00     0.074 A 
ATOM     47  C   UNL A   1      43.990  26.497  31.255  1.00  0.00     0.031 C 
ATOM     48  C   UNL A   1      38.897  29.430  27.644  1.00  0.00     0.029 A 
ATOM     49  C   UNL A   1      39.009  29.850  29.040  1.00  0.00     0.049 A 
ATOM     50  H   UNL A   1      40.460  29.269  30.416  1.00  0.00     0.167 HD
ATOM     51  C   UNL A   1      43.457  27.830  33.271  1.00  0.00     0.037 A 
ATOM     52  C   UNL A   1      38.184  30.705  29.676  1.00  0.00     0.037 A 
ATOM     53  C   UNL A   1      42.685  28.803  33.998  1.00  0.00     0.049 A 
ATOM     54  C   UNL A   1      38.435  31.033  31.127  1.00  0.00     0.074 A 
ATOM     55  C   UNL A   1      42.869  29.253  35.293  1.00  0.00     0.029 A 
ATOM     56  N   UNL A   1      41.578  29.469  33.495  1.00  0.00    -0.354 N 
ATOM     57  N   UNL A   1      39.393  30.616  31.919  1.00  0.00    -0.248 NA
ATOM     58  C   UNL A   1      37.488  31.955  31.774  1.00  0.00     0.031 C 
ATOM     59  C   UNL A   1      41.838  30.145  35.596  1.00  0.00     0.029 A 
ATOM     60  C   UNL A   1      41.051  30.303  34.467  1.00  0.00     0.049 A 
ATOM     61  H   UNL A   1      41.220  29.364  32.585  1.00  0.00     0.167 HD
ATOM     62  C   UNL A   1      39.188  31.252  33.139  1.00  0.00     0.074 A 
ATOM     63  C   UNL A   1      38.021  32.093  32.979  1.00  0.00     0.031 C 
ATOM     64  C   UNL A   1      39.900  31.150  34.288  1.00  0.00     0.037 A 
BRANCH  51  65
ATOM     65  C   UNL A   1      44.588  27.152  33.985  1.00  0.00     0.057 A 
ATOM     66  C   UNL A   1      45.868  27.716  34.055  1.00  0.00     0.134 A 
ATOM     67  C   UNL A   1      44.375  25.945  34.665  1.00  0.00     0.134 A 
ATOM     68  F   UNL A   1      46.143  28.862  33.415  1.00  0.00    -0.206 F 
ATOM     69  C   UNL A   1      46.899  27.099  34.766  1.00  0.00     0.040 A 
ATOM     70  C   UNL A   1      45.390  25.333  35.401  1.00  0.00     0.040 A 
ATOM     71  F   UNL A   1      43.172  25.353  34.640  1.00  0.00    -0.206 F 
ATOM     72  C   UNL A   1      46.657  25.909  35.451  1.00  0.00     0.006 A 
ENDBRANCH  51  65
BRANCH  52  73
ATOM     73  C   UNL A   1      37.017  31.295  28.968  1.00  0.00     0.057 A 
ATOM     74  C   UNL A   1      37.017  32.630  28.547  1.00  0.00     0.134 A 
ATOM     75  C   UNL A   1      35.848  30.554  28.749  1.00  0.00     0.134 A 
ATOM     76  F   UNL A   1      38.095  33.402  28.749  1.00  0.00    -0.206 F 
ATOM     77  C   UNL A   1      35.889  33.217  27.967  1.00  0.00     0.040 A 
ATOM     78  C   UNL A   1      34.725  31.118  28.142  1.00  0.00     0.040 A 
ATOM     79  F   UNL A   1      35.780  29.269  29.126  1.00  0.00    -0.206 F 
ATOM     80  C   UNL A   1      34.739  32.458  27.760  1.00  0.00     0.006 A 
ENDBRANCH  52  73
BRANCH  64  81
ATOM     81  C   UNL A   1      39.476  32.007  35.448  1.00  0.00     0.057 A 
ATOM     82  C   UNL A   1      38.588  31.549  36.429  1.00  0.00     0.134 A 
ATOM     83  C   UNL A   1      40.005  33.295  35.607  1.00  0.00     0.134 A 
ATOM     84  F   UNL A   1      38.037  30.329  36.332  1.00  0.00    -0.206 F 
ATOM     85  C   UNL A   1      38.220  32.350  37.511  1.00  0.00     0.040 A 
ATOM     86  C   UNL A   1      39.670  34.093  36.702  1.00  0.00     0.040 A 
ATOM     87  F   UNL A   1      40.871  33.793  34.711  1.00  0.00    -0.206 F 
ATOM     88  C   UNL A   1      38.769  33.624  37.654  1.00  0.00     0.006 A 
ENDBRANCH  64  81
ENDBRANCH  38  39
ENDBRANCH  31  33
ENDBRANCH  30  31
ENDBRANCH  29  30
ENDBRANCH  28  29
ENDBRANCH  27  28
ENDBRANCH  26  27
ENDBRANCH  25  26
ENDBRANCH   1  25
TORSDOF 22
ENDMDL
MODEL 2
REMARK VINA RESULT:      -9.9      1.224      2.122
REMARK SMILES Cn1ccnc1N1[C@@H]2CC[C@H]1C[C@H](CC(=O)OCCOCCOCCOCCOC(=O)c1ccc(-c3c4nc(c(-c5c(F)cccc5F)c5ccc([nH]5)c(-c5c(F)cccc5F)c5nc(c(-c6c(F)cccc6F)c6ccc3[nH]6)C=C5)C=C4)cc1)C2
REMARK SMILES IDX 23 1 22 2 21 3 20 4 19 5 18 6 17 7 15 8 16 9 14 10 13 11
REMARK SMILES IDX 7 12 8 13 11 14 9 15 86 16 10 17 12 18 6 19 1 20 2 21 3 22
REMARK SMILES IDX 4 23 5 24 24 25 25 26 26 27 27 28 28 29 29 30 30 31 31 32
REMARK SMILES IDX 32 33 33 34 85 35 34 36 84 37 35 38 36 39 37 40 78 41 38 42
REMARK SMILES IDX 83 43 77 44 79 45 39 46 82 47 76 48 75 49 40 51 66 52 49 53
REMARK SMILES IDX 65 54 50 55 53 56 64 57 80 58 51 59 52 60 63 62 81 63 54 64
REMARK SMILES IDX 41 65 42 66 47 67 43 68 44 69 46 70 48 71 45 72 67 73 68 74
REMARK SMILES IDX 73 75 69 76 70 77 72 78 74 79 71 80 55 81 56 82 61 83 57 84
REMARK SMILES IDX 58 85 60 86 62 87 59 88
REMARK H PARENT 79 50 53 61
REMARK Flexibility Score: inf
ROOT
ATOM      1  O   UNL A   1      42.240  20.117  26.645  1.00  0.00    -0.377 OA
ENDROOT
BRANCH   1   2
ATOM      2  C   UNL A   1      40.842  20.174  26.435  1.00  0.00     0.188 C 
BRANCH   2   3
ATOM      3  C   UNL A   1      40.115  21.439  26.897  1.00  0.00     0.188 C 
BRANCH   3   4
ATOM      4  O   UNL A   1      39.484  22.235  25.921  1.00  0.00    -0.376 OA
BRANCH   4   5
ATOM      5  C   UNL A   1      38.071  22.364  25.891  1.00  0.00     0.202 C 
BRANCH   5   6
ATOM      6  C   UNL A   1      37.090  21.325  25.307  1.00  0.00     0.261 C 
BRANCH   6   7
ATOM      7  O   UNL A   1      36.675  21.475  23.938  1.00  0.00    -0.463 OA
BRANCH   7   8
ATOM      8  C   UNL A   1      36.072  22.645  23.628  1.00  0.00     0.306 C 
ATOM      9  O   UNL A   1      36.671  23.710  23.499  1.00  0.00    -0.252 OA
BRANCH   8  10
ATOM     10  C   UNL A   1      34.566  22.587  23.438  1.00  0.00     0.126 C 
BRANCH  10  11
ATOM     11  C   UNL A   1      33.566  23.238  24.406  1.00  0.00     0.004 C 
ATOM     12  N   UNL A   1      32.725  25.754  25.663  1.00  0.00    -0.336 N 
ATOM     13  C   UNL A   1      31.871  25.166  24.614  1.00  0.00     0.086 C 
ATOM     14  C   UNL A   1      33.095  24.610  26.506  1.00  0.00     0.086 C 
ATOM     15  C   UNL A   1      30.932  24.253  25.424  1.00  0.00     0.027 C 
ATOM     16  C   UNL A   1      32.779  24.353  23.668  1.00  0.00     0.029 C 
ATOM     17  C   UNL A   1      31.742  23.889  26.681  1.00  0.00     0.027 C 
ATOM     18  C   UNL A   1      34.146  23.789  25.717  1.00  0.00     0.029 C 
BRANCH  12  19
ATOM     19  C   UNL A   1      32.292  26.916  26.230  1.00  0.00     0.205 A 
ATOM     20  C   UNL A   1      33.474  28.521  24.662  1.00  0.00     0.153 C 
ATOM     21  N   UNL A   1      32.693  28.169  25.820  1.00  0.00    -0.320 N 
ATOM     22  C   UNL A   1      32.178  29.086  26.700  1.00  0.00     0.109 A 
ATOM     23  C   UNL A   1      31.405  28.352  27.563  1.00  0.00     0.133 A 
ATOM     24  N   UNL A   1      31.465  27.023  27.251  1.00  0.00    -0.221 NA
ENDBRANCH  12  19
ENDBRANCH  10  11
ENDBRANCH   8  10
ENDBRANCH   7   8
ENDBRANCH   6   7
ENDBRANCH   5   6
ENDBRANCH   4   5
ENDBRANCH   3   4
ENDBRANCH   2   3
ENDBRANCH   1   2
BRANCH   1  25
ATOM     25  C   UNL A   1      43.025  19.141  25.969  1.00  0.00     0.188 C 
BRANCH  25  26
ATOM     26  C   UNL A   1      44.026  19.543  24.868  1.00  0.00     0.188 C 
BRANCH  26  27
ATOM     27  O   UNL A   1      45.340  19.809  25.323  1.00  0.00    -0.376 OA
BRANCH  27  28
ATOM     28  C   UNL A   1      45.845  21.132  25.218  1.00  0.00     0.202 C 
BRANCH  28  29
ATOM     29  C   UNL A   1      45.274  22.192  26.173  1.00  0.00     0.261 C 
BRANCH  29  30
ATOM     30  O   UNL A   1      44.942  23.463  25.589  1.00  0.00    -0.460 OA
BRANCH  30  31
ATOM     31  C   UNL A   1      43.690  23.645  25.131  1.00  0.00     0.338 C 
ATOM     32  O   UNL A   1      43.120  23.016  24.252  1.00  0.00    -0.246 OA
BRANCH  31  33
ATOM     33  C   UNL A   1      43.027  24.635  25.998  1.00  0.00     0.060 A 
ATOM     34  C   UNL A   1      43.492  25.957  25.999  1.00  0.00     0.016 A 
ATOM     35  C   UNL A   1      41.970  24.255  26.828  1.00  0.00     0.016 A 
ATOM     36  C   UNL A   1      42.927  26.895  26.863  1.00  0.00     0.010 A 
ATOM     37  C   UNL A   1      41.418  25.191  27.706  1.00  0.00     0.010 A 
ATOM     38  C   UNL A   1      41.918  26.506  27.755  1.00  0.00    -0.014 A 
BRANCH  38  39
ATOM     39  C   UNL A   1      41.527  27.409  28.864  1.00  0.00     0.031 A 
ATOM     40  C   UNL A   1      42.279  27.313  30.164  1.00  0.00     0.074 A 
ATOM     41  C   UNL A   1      40.540  28.312  28.718  1.00  0.00     0.049 A 
ATOM     42  N   UNL A   1      42.078  27.949  31.290  1.00  0.00    -0.248 NA
ATOM     43  C   UNL A   1      43.409  26.371  30.199  1.00  0.00     0.031 C 
ATOM     44  C   UNL A   1      39.769  28.537  27.498  1.00  0.00     0.029 A 
ATOM     45  N   UNL A   1      40.011  29.204  29.620  1.00  0.00    -0.354 N 
ATOM     46  C   UNL A   1      43.047  27.475  32.168  1.00  0.00     0.074 A 
ATOM     47  C   UNL A   1      43.818  26.482  31.454  1.00  0.00     0.031 C 
ATOM     48  C   UNL A   1      38.851  29.491  27.732  1.00  0.00     0.029 A 
ATOM     49  C   UNL A   1      38.947  29.919  29.126  1.00  0.00     0.049 A 
ATOM     50  H   UNL A   1      40.361  29.319  30.532  1.00  0.00     0.167 HD
ATOM     51  C   UNL A   1      43.276  27.840  33.450  1.00  0.00     0.037 A 
ATOM     52  C   UNL A   1      38.128  30.796  29.742  1.00  0.00     0.037 A 
ATOM     53  C   UNL A   1      42.511  28.833  34.157  1.00  0.00     0.049 A 
ATOM     54  C   UNL A   1      38.359  31.129  31.195  1.00  0.00     0.074 A 
ATOM     55  C   UNL A   1      42.681  29.288  35.452  1.00  0.00     0.029 A 
ATOM     56  N   UNL A   1      41.427  29.518  33.630  1.00  0.00    -0.354 N 
ATOM     57  N   UNL A   1      39.295  30.698  32.007  1.00  0.00    -0.248 NA
ATOM     58  C   UNL A   1      37.421  32.074  31.818  1.00  0.00     0.031 C 
ATOM     59  C   UNL A   1      41.664  30.204  35.730  1.00  0.00     0.029 A 
ATOM     60  C   UNL A   1      40.900  30.370  34.586  1.00  0.00     0.049 A 
ATOM     61  H   UNL A   1      41.084  29.414  32.714  1.00  0.00     0.167 HD
ATOM     62  C   UNL A   1      39.081  31.346  33.219  1.00  0.00     0.074 A 
ATOM     63  C   UNL A   1      37.934  32.210  33.032  1.00  0.00     0.031 C 
ATOM     64  C   UNL A   1      39.770  31.238  34.381  1.00  0.00     0.037 A 
BRANCH  51  65
ATOM     65  C   UNL A   1      44.381  27.144  34.190  1.00  0.00     0.057 A 
ATOM     66  C   UNL A   1      44.228  25.853  34.711  1.00  0.00     0.134 A 
ATOM     67  C   UNL A   1      45.635  27.753  34.327  1.00  0.00     0.134 A 
ATOM     68  F   UNL A   1      43.048  25.219  34.626  1.00  0.00    -0.206 F 
ATOM     69  C   UNL A   1      45.280  25.197  35.353  1.00  0.00     0.040 A 
ATOM     70  C   UNL A   1      46.701  27.097  34.942  1.00  0.00     0.040 A 
ATOM     71  F   UNL A   1      45.848  28.988  33.848  1.00  0.00    -0.206 F 
ATOM     72  C   UNL A   1      46.525  25.816  35.459  1.00  0.00     0.006 A 
ENDBRANCH  51  65
BRANCH  52  73
ATOM     73  C   UNL A   1      36.986  31.404  29.009  1.00  0.00     0.057 A 
ATOM     74  C   UNL A   1      37.013  32.741  28.597  1.00  0.00     0.134 A 
ATOM     75  C   UNL A   1      35.814  30.679  28.756  1.00  0.00     0.134 A 
ATOM     76  F   UNL A   1      38.095  33.499  28.830  1.00  0.00    -0.206 F 
ATOM     77  C   UNL A   1      35.907  33.345  27.993  1.00  0.00     0.040 A 
ATOM     78  C   UNL A   1      34.714  31.259  28.126  1.00  0.00     0.040 A 
ATOM     79  F   UNL A   1      35.721  29.392  29.123  1.00  0.00    -0.206 F 
ATOM     80  C   UNL A   1      34.753  32.601  27.753  1.00  0.00     0.006 A 
ENDBRANCH  52  73
BRANCH  64  81
ATOM     81  C   UNL A   1      39.343  32.112  35.527  1.00  0.00     0.057 A 
ATOM     82  C   UNL A   1      39.811  33.422  35.680  1.00  0.00     0.134 A 
ATOM     83  C   UNL A   1      38.410  31.646  36.463  1.00  0.00     0.134 A 
ATOM     84  F   UNL A   1      40.713  33.927  34.825  1.00  0.00    -0.206 F 
ATOM     85  C   UNL A   1      39.388  34.229  36.739  1.00  0.00     0.040 A 
ATOM     86  C   UNL A   1      37.955  32.454  37.507  1.00  0.00     0.040 A 
ATOM     87  F   UNL A   1      37.910  30.404  36.369  1.00  0.00    -0.206 F 
ATOM     88  C   UNL A   1      38.451  33.747  37.651  1.00  0.00     0.006 A 
ENDBRANCH  64  81
ENDBRANCH  38  39
ENDBRANCH  31  33
ENDBRANCH  30  31
ENDBRANCH  29  30
ENDBRANCH  28  29
ENDBRANCH  27  28
ENDBRANCH  26  27
ENDBRANCH  25  26
ENDBRANCH   1  25
TORSDOF 22
ENDMDL
MODEL 3
REMARK VINA RESULT:      -9.8      3.659      8.441
REMARK SMILES Cn1ccnc1N1[C@@H]2CC[C@H]1C[C@H](CC(=O)OCCOCCOCCOCCOC(=O)c1ccc(-c3c4nc(c(-c5c(F)cccc5F)c5ccc([nH]5)c(-c5c(F)cccc5F)c5nc(c(-c6c(F)cccc6F)c6ccc3[nH]6)C=C5)C=C4)cc1)C2
REMARK SMILES IDX 23 1 22 2 21 3 20 4 19 5 18 6 17 7 15 8 16 9 14 10 13 11
REMARK SMILES IDX 7 12 8 13 11 14 9 15 86 16 10 17 12 18 6 19 1 20 2 21 3 22
REMARK SMILES IDX 4 23 5 24 24 25 25 26 26 27 27 28 28 29 29 30 30 31 31 32
REMARK SMILES IDX 32 33 33 34 85 35 34 36 84 37 35 38 36 39 37 40 78 41 38 42
REMARK SMILES IDX 83 43 77 44 79 45 39 46 82 47 76 48 75 49 40 51 66 52 49 53
REMARK SMILES IDX 65 54 50 55 53 56 64 57 80 58 51 59 52 60 63 62 81 63 54 64
REMARK SMILES IDX 41 65 42 66 47 67 43 68 44 69 46 70 48 71 45 72 67 73 68 74
REMARK SMILES IDX 73 75 69 76 70 77 72 78 74 79 71 80 55 81 56 82 61 83 57 84
REMARK SMILES IDX 58 85 60 86 62 87 59 88
REMARK H PARENT 79 50 53 61
REMARK Flexibility Score: inf
ROOT
ATOM      1  O   UNL A   1      33.258  25.914  23.176  1.00  0.00    -0.377 OA
ENDROOT
BRANCH   1   2
ATOM      2  C   UNL A   1      32.526  24.730  22.926  1.00  0.00     0.188 C 
BRANCH   2   3
ATOM      3  C   UNL A   1      31.099  24.659  23.475  1.00  0.00     0.188 C 
BRANCH   3   4
ATOM      4  O   UNL A   1      30.600  25.776  24.173  1.00  0.00    -0.376 OA
BRANCH   4   5
ATOM      5  C   UNL A   1      30.685  25.847  25.588  1.00  0.00     0.202 C 
BRANCH   5   6
ATOM      6  C   UNL A   1      31.748  25.141  26.456  1.00  0.00     0.261 C 
BRANCH   6   7
ATOM      7  O   UNL A   1      31.383  23.918  27.119  1.00  0.00    -0.463 OA
BRANCH   7   8
ATOM      8  C   UNL A   1      32.356  22.984  27.216  1.00  0.00     0.306 C 
ATOM      9  O   UNL A   1      32.844  22.615  28.282  1.00  0.00    -0.252 OA
BRANCH   8  10
ATOM     10  C   UNL A   1      32.840  22.389  25.905  1.00  0.00     0.126 C 
BRANCH  10  11
ATOM     11  C   UNL A   1      34.254  22.608  25.349  1.00  0.00     0.004 C 
ATOM     12  N   UNL A   1      37.126  22.341  25.900  1.00  0.00    -0.336 N 
ATOM     13  C   UNL A   1      36.502  21.421  24.932  1.00  0.00     0.086 C 
ATOM     14  C   UNL A   1      36.573  23.657  25.552  1.00  0.00     0.086 C 
ATOM     15  C   UNL A   1      36.659  22.183  23.603  1.00  0.00     0.027 C 
ATOM     16  C   UNL A   1      35.019  21.258  25.324  1.00  0.00     0.029 C 
ATOM     17  C   UNL A   1      36.711  23.665  24.015  1.00  0.00     0.027 C 
ATOM     18  C   UNL A   1      35.107  23.677  26.051  1.00  0.00     0.029 C 
BRANCH  12  19
ATOM     19  C   UNL A   1      38.463  22.192  26.119  1.00  0.00     0.205 A 
ATOM     20  C   UNL A   1      38.874  24.424  27.252  1.00  0.00     0.153 C 
ATOM     21  N   UNL A   1      39.268  23.169  26.665  1.00  0.00    -0.320 N 
ATOM     22  C   UNL A   1      40.566  22.730  26.602  1.00  0.00     0.109 A 
ATOM     23  C   UNL A   1      40.485  21.457  26.099  1.00  0.00     0.133 A 
ATOM     24  N   UNL A   1      39.186  21.130  25.827  1.00  0.00    -0.221 NA
ENDBRANCH  12  19
ENDBRANCH  10  11
ENDBRANCH   8  10
ENDBRANCH   7   8
ENDBRANCH   6   7
ENDBRANCH   5   6
ENDBRANCH   4   5
ENDBRANCH   3   4
ENDBRANCH   2   3
ENDBRANCH   1   2
BRANCH   1  25
ATOM     25  C   UNL A   1      33.019  27.079  22.396  1.00  0.00     0.188 C 
BRANCH  25  26
ATOM     26  C   UNL A   1      33.899  28.336  22.545  1.00  0.00     0.188 C 
BRANCH  26  27
ATOM     27  O   UNL A   1      33.423  29.292  23.475  1.00  0.00    -0.376 OA
BRANCH  27  28
ATOM     28  C   UNL A   1      33.096  28.864  24.789  1.00  0.00     0.202 C 
BRANCH  28  29
ATOM     29  C   UNL A   1      32.076  29.701  25.579  1.00  0.00     0.261 C 
BRANCH  29  30
ATOM     30  O   UNL A   1      32.430  30.020  26.936  1.00  0.00    -0.460 OA
BRANCH  30  31
ATOM     31  C   UNL A   1      32.979  31.223  27.183  1.00  0.00     0.338 C 
ATOM     32  O   UNL A   1      32.427  32.313  27.156  1.00  0.00    -0.246 OA
BRANCH  31  33
ATOM     33  C   UNL A   1      34.350  31.004  27.679  1.00  0.00     0.060 A 
ATOM     34  C   UNL A   1      34.753  29.705  28.015  1.00  0.00     0.016 A 
ATOM     35  C   UNL A   1      35.226  32.081  27.836  1.00  0.00     0.016 A 
ATOM     36  C   UNL A   1      36.021  29.484  28.552  1.00  0.00     0.010 A 
ATOM     37  C   UNL A   1      36.489  31.861  28.391  1.00  0.00     0.010 A 
ATOM     38  C   UNL A   1      36.879  30.567  28.786  1.00  0.00    -0.014 A 
BRANCH  38  39
ATOM     39  C   UNL A   1      38.092  30.378  29.618  1.00  0.00     0.031 A 
ATOM     40  C   UNL A   1      39.245  29.603  29.038  1.00  0.00     0.074 A 
ATOM     41  C   UNL A   1      38.183  30.900  30.855  1.00  0.00     0.049 A 
ATOM     42  N   UNL A   1      40.376  29.255  29.593  1.00  0.00    -0.248 NA
ATOM     43  C   UNL A   1      39.097  29.159  27.642  1.00  0.00     0.031 C 
ATOM     44  C   UNL A   1      37.159  31.709  31.511  1.00  0.00     0.029 A 
ATOM     45  N   UNL A   1      39.190  30.813  31.784  1.00  0.00    -0.354 N 
ATOM     46  C   UNL A   1      41.070  28.543  28.621  1.00  0.00     0.074 A 
ATOM     47  C   UNL A   1      40.222  28.486  27.450  1.00  0.00     0.031 C 
ATOM     48  C   UNL A   1      37.582  32.029  32.747  1.00  0.00     0.029 A 
ATOM     49  C   UNL A   1      38.890  31.418  32.981  1.00  0.00     0.049 A 
ATOM     50  H   UNL A   1      40.046  30.360  31.611  1.00  0.00     0.167 HD
ATOM     51  C   UNL A   1      42.303  27.991  28.695  1.00  0.00     0.037 A 
ATOM     52  C   UNL A   1      39.580  31.448  34.138  1.00  0.00     0.037 A 
ATOM     53  C   UNL A   1      43.148  28.054  29.859  1.00  0.00     0.049 A 
ATOM     54  C   UNL A   1      40.921  30.760  34.217  1.00  0.00     0.074 A 
ATOM     55  C   UNL A   1      44.424  27.546  30.024  1.00  0.00     0.029 A 
ATOM     56  N   UNL A   1      42.797  28.656  31.057  1.00  0.00    -0.354 N 
ATOM     57  N   UNL A   1      41.579  30.115  33.285  1.00  0.00    -0.248 NA
ATOM     58  C   UNL A   1      41.617  30.808  35.512  1.00  0.00     0.031 C 
ATOM     59  C   UNL A   1      44.822  27.786  31.341  1.00  0.00     0.029 A 
ATOM     60  C   UNL A   1      43.822  28.504  31.976  1.00  0.00     0.049 A 
ATOM     61  H   UNL A   1      41.947  29.122  31.229  1.00  0.00     0.167 HD
ATOM     62  C   UNL A   1      42.778  29.715  33.867  1.00  0.00     0.074 A 
ATOM     63  C   UNL A   1      42.762  30.203  35.230  1.00  0.00     0.031 C 
ATOM     64  C   UNL A   1      43.800  29.010  33.324  1.00  0.00     0.037 A 
BRANCH  51  65
ATOM     65  C   UNL A   1      42.809  27.243  27.497  1.00  0.00     0.057 A 
ATOM     66  C   UNL A   1      43.497  27.883  26.458  1.00  0.00     0.134 A 
ATOM     67  C   UNL A   1      42.659  25.853  27.414  1.00  0.00     0.134 A 
ATOM     68  F   UNL A   1      43.662  29.214  26.468  1.00  0.00    -0.206 F 
ATOM     69  C   UNL A   1      44.007  27.167  25.373  1.00  0.00     0.040 A 
ATOM     70  C   UNL A   1      43.188  25.124  26.349  1.00  0.00     0.040 A 
ATOM     71  F   UNL A   1      42.013  25.179  28.378  1.00  0.00    -0.206 F 
ATOM     72  C   UNL A   1      43.862  25.782  25.322  1.00  0.00     0.006 A 
ENDBRANCH  51  65
BRANCH  52  73
ATOM     73  C   UNL A   1      39.014  32.121  35.337  1.00  0.00     0.057 A 
ATOM     74  C   UNL A   1      38.318  31.403  36.317  1.00  0.00     0.134 A 
ATOM     75  C   UNL A   1      39.100  33.510  35.501  1.00  0.00     0.134 A 
ATOM     76  F   UNL A   1      38.177  30.073  36.208  1.00  0.00    -0.206 F 
ATOM     77  C   UNL A   1      37.702  32.041  37.396  1.00  0.00     0.040 A 
ATOM     78  C   UNL A   1      38.516  34.158  36.590  1.00  0.00     0.040 A 
ATOM     79  F   UNL A   1      39.753  34.259  34.601  1.00  0.00    -0.206 F 
ATOM     80  C   UNL A   1      37.803  33.424  37.536  1.00  0.00     0.006 A 
ENDBRANCH  52  73
BRANCH  64  81
ATOM     81  C   UNL A   1      45.011  28.768  34.181  1.00  0.00     0.057 A 
ATOM     82  C   UNL A   1      46.071  29.680  34.249  1.00  0.00     0.134 A 
ATOM     83  C   UNL A   1      45.091  27.624  34.987  1.00  0.00     0.134 A 
ATOM     84  F   UNL A   1      46.063  30.791  33.496  1.00  0.00    -0.206 F 
ATOM     85  C   UNL A   1      47.179  29.451  35.067  1.00  0.00     0.040 A 
ATOM     86  C   UNL A   1      46.178  27.400  35.833  1.00  0.00     0.040 A 
ATOM     87  F   UNL A   1      44.104  26.714  34.981  1.00  0.00    -0.206 F 
ATOM     88  C   UNL A   1      47.230  28.311  35.868  1.00  0.00     0.006 A 
ENDBRANCH  64  81
ENDBRANCH  38  39
ENDBRANCH  31  33
ENDBRANCH  30  31
ENDBRANCH  29  30
ENDBRANCH  28  29
ENDBRANCH  27  28
ENDBRANCH  26  27
ENDBRANCH  25  26
ENDBRANCH   1  25
TORSDOF 22
ENDMDL
