MODEL 1
REMARK VINA RESULT:      -9.9      0.000      0.000
REMARK SMILES CCOC[C@@H](O)C[C@]1(C(=O)OCCOCCOCCOCCOC(=O)c2ccc(-c3c4nc(c(-c5c(F)cccc5F)c5ccc([nH]5)c(-c5c(F)cccc5F)c5nc(c(-c6c(F)cccc6F)c6ccc3[nH]6)C=C5)C=C4)cc2)CCc2ccccc21
REMARK SMILES IDX 15 1 14 2 13 3 12 4 11 5 9 6 10 7 8 8 80 9 87 10 81 11 82 12
REMARK SMILES IDX 86 13 83 14 85 15 84 16 7 17 5 18 4 19 3 20 2 21 1 22 6 23
REMARK SMILES IDX 16 25 17 26 18 27 19 28 20 29 21 30 22 31 23 32 24 33 25 34
REMARK SMILES IDX 26 35 27 36 79 37 28 38 78 39 29 40 30 41 31 42 72 43 32 44
REMARK SMILES IDX 77 45 71 46 73 47 33 48 76 49 70 50 69 51 34 53 60 54 43 55
REMARK SMILES IDX 59 56 44 57 47 58 58 59 74 60 45 61 46 62 57 64 75 65 48 66
REMARK SMILES IDX 35 67 36 68 41 69 37 70 38 71 40 72 42 73 39 74 61 75 62 76
REMARK SMILES IDX 67 77 63 78 64 79 66 80 68 81 65 82 49 83 50 84 55 85 51 86
REMARK SMILES IDX 52 87 54 88 56 89 53 90
REMARK H PARENT 6 24 73 52 47 63
REMARK Flexibility Score: inf
ROOT
ATOM      1  C   UNL A   1      39.658  22.026  26.186  1.00  0.00     0.188 C 
ENDROOT
BRANCH   1   2
ATOM      2  O   UNL A   1      38.283  22.256  25.880  1.00  0.00    -0.376 OA
BRANCH   2   3
ATOM      3  C   UNL A   1      37.695  21.259  25.050  1.00  0.00     0.202 C 
BRANCH   3   4
ATOM      4  C   UNL A   1      36.194  21.439  24.787  1.00  0.00     0.261 C 
BRANCH   4   5
ATOM      5  O   UNL A   1      35.813  22.456  23.840  1.00  0.00    -0.463 OA
BRANCH   5   6
ATOM      6  C   UNL A   1      35.165  23.557  24.295  1.00  0.00     0.316 C 
ATOM      7  O   UNL A   1      35.585  24.264  25.206  1.00  0.00    -0.251 OA
BRANCH   6   8
ATOM      8  C   UNL A   1      33.799  23.784  23.588  1.00  0.00     0.096 C 
ATOM      9  C   UNL A   1      33.211  22.597  22.754  1.00  0.00     0.028 C 
ATOM     10  C   UNL A   1      32.762  23.790  24.713  1.00  0.00    -0.027 A 
ATOM     11  C   UNL A   1      32.523  21.627  23.724  1.00  0.00     0.037 C 
ATOM     12  C   UNL A   1      32.077  22.571  24.790  1.00  0.00    -0.044 A 
ATOM     13  C   UNL A   1      32.569  24.767  25.681  1.00  0.00     0.005 A 
ATOM     14  C   UNL A   1      31.181  22.313  25.812  1.00  0.00     0.004 A 
ATOM     15  C   UNL A   1      31.663  24.519  26.711  1.00  0.00     0.000 A 
ATOM     16  C   UNL A   1      30.970  23.301  26.774  1.00  0.00     0.000 A 
BRANCH   8  17
ATOM     17  C   UNL A   1      33.777  25.114  22.761  1.00  0.00     0.057 C 
BRANCH  17  18
ATOM     18  C   UNL A   1      32.588  25.409  21.818  1.00  0.00     0.141 C 
BRANCH  18  19
ATOM     19  C   UNL A   1      31.839  26.730  22.073  1.00  0.00     0.191 C 
BRANCH  19  20
ATOM     20  O   UNL A   1      32.489  27.494  23.101  1.00  0.00    -0.379 OA
BRANCH  20  21
ATOM     21  C   UNL A   1      31.719  28.511  23.734  1.00  0.00     0.157 C 
ATOM     22  C   UNL A   1      31.228  28.074  25.101  1.00  0.00     0.035 C 
ENDBRANCH  20  21
ENDBRANCH  19  20
ENDBRANCH  18  19
BRANCH  18  23
ATOM     23  O   UNL A   1      33.155  25.501  20.495  1.00  0.00    -0.391 OA
ATOM     24  H   UNL A   1      32.453  25.705  19.857  1.00  0.00     0.211 HD
ENDBRANCH  18  23
ENDBRANCH  17  18
ENDBRANCH   8  17
ENDBRANCH   6   8
ENDBRANCH   5   6
ENDBRANCH   4   5
ENDBRANCH   3   4
ENDBRANCH   2   3
ENDBRANCH   1   2
BRANCH   1  25
ATOM     25  C   UNL A   1      40.026  20.544  26.178  1.00  0.00     0.188 C 
BRANCH  25  26
ATOM     26  O   UNL A   1      40.725  20.037  27.300  1.00  0.00    -0.377 OA
BRANCH  26  27
ATOM     27  C   UNL A   1      42.130  19.857  27.168  1.00  0.00     0.188 C 
BRANCH  27  28
ATOM     28  C   UNL A   1      42.725  19.444  25.804  1.00  0.00     0.188 C 
BRANCH  28  29
ATOM     29  O   UNL A   1      43.342  20.493  25.072  1.00  0.00    -0.376 OA
BRANCH  29  30
ATOM     30  C   UNL A   1      44.756  20.582  25.051  1.00  0.00     0.202 C 
BRANCH  30  31
ATOM     31  C   UNL A   1      45.382  21.825  25.695  1.00  0.00     0.261 C 
BRANCH  31  32
ATOM     32  O   UNL A   1      44.456  22.808  26.183  1.00  0.00    -0.460 OA
BRANCH  32  33
ATOM     33  C   UNL A   1      44.343  23.969  25.505  1.00  0.00     0.338 C 
ATOM     34  O   UNL A   1      44.625  24.184  24.340  1.00  0.00    -0.246 OA
BRANCH  33  35
ATOM     35  C   UNL A   1      43.595  24.898  26.374  1.00  0.00     0.060 A 
ATOM     36  C   UNL A   1      44.041  26.222  26.484  1.00  0.00     0.016 A 
ATOM     37  C   UNL A   1      42.426  24.482  27.017  1.00  0.00     0.016 A 
ATOM     38  C   UNL A   1      43.326  27.132  27.260  1.00  0.00     0.010 A 
ATOM     39  C   UNL A   1      41.730  25.384  27.822  1.00  0.00     0.010 A 
ATOM     40  C   UNL A   1      42.198  26.701  27.972  1.00  0.00    -0.014 A 
BRANCH  40  41
ATOM     41  C   UNL A   1      41.684  27.546  29.072  1.00  0.00     0.031 A 
ATOM     42  C   UNL A   1      42.401  27.470  30.392  1.00  0.00     0.074 A 
ATOM     43  C   UNL A   1      40.645  28.380  28.903  1.00  0.00     0.049 A 
ATOM     44  N   UNL A   1      42.156  28.100  31.510  1.00  0.00    -0.248 NA
ATOM     45  C   UNL A   1      43.555  26.556  30.455  1.00  0.00     0.031 C 
ATOM     46  C   UNL A   1      39.900  28.567  27.661  1.00  0.00     0.029 A 
ATOM     47  N   UNL A   1      40.039  29.226  29.796  1.00  0.00    -0.354 N 
ATOM     48  C   UNL A   1      43.125  27.662  32.404  1.00  0.00     0.074 A 
ATOM     49  C   UNL A   1      43.940  26.689  31.712  1.00  0.00     0.031 C 
ATOM     50  C   UNL A   1      38.923  29.468  27.875  1.00  0.00     0.029 A 
ATOM     51  C   UNL A   1      38.963  29.900  29.271  1.00  0.00     0.049 A 
ATOM     52  H   UNL A   1      40.344  29.341  30.725  1.00  0.00     0.167 HD
ATOM     53  C   UNL A   1      43.324  28.043  33.687  1.00  0.00     0.037 A 
ATOM     54  C   UNL A   1      38.106  30.753  29.863  1.00  0.00     0.037 A 
ATOM     55  C   UNL A   1      42.504  28.998  34.377  1.00  0.00     0.049 A 
ATOM     56  C   UNL A   1      38.302  31.107  31.316  1.00  0.00     0.074 A 
ATOM     57  C   UNL A   1      42.621  29.457  35.676  1.00  0.00     0.029 A 
ATOM     58  N   UNL A   1      41.403  29.633  33.822  1.00  0.00    -0.354 N 
ATOM     59  N   UNL A   1      39.237  30.710  32.147  1.00  0.00    -0.248 NA
ATOM     60  C   UNL A   1      37.326  32.031  31.912  1.00  0.00     0.031 C 
ATOM     61  C   UNL A   1      41.560  30.334  35.923  1.00  0.00     0.029 A 
ATOM     62  C   UNL A   1      40.815  30.464  34.761  1.00  0.00     0.049 A 
ATOM     63  H   UNL A   1      41.086  29.512  32.898  1.00  0.00     0.167 HD
ATOM     64  C   UNL A   1      38.981  31.358  33.350  1.00  0.00     0.074 A 
ATOM     65  C   UNL A   1      37.810  32.183  33.137  1.00  0.00     0.031 C 
ATOM     66  C   UNL A   1      39.654  31.282  34.525  1.00  0.00     0.037 A 
BRANCH  53  67
ATOM     67  C   UNL A   1      44.455  27.391  34.426  1.00  0.00     0.057 A 
ATOM     68  C   UNL A   1      45.738  27.955  34.464  1.00  0.00     0.134 A 
ATOM     69  C   UNL A   1      44.257  26.187  35.110  1.00  0.00     0.134 A 
ATOM     70  F   UNL A   1      45.999  29.095  33.808  1.00  0.00    -0.206 F 
ATOM     71  C   UNL A   1      46.788  27.331  35.139  1.00  0.00     0.040 A 
ATOM     72  C   UNL A   1      45.292  25.567  35.810  1.00  0.00     0.040 A 
ATOM     73  F   UNL A   1      43.054  25.592  35.109  1.00  0.00    -0.206 F 
ATOM     74  C   UNL A   1      46.564  26.137  35.821  1.00  0.00     0.006 A 
ENDBRANCH  53  67
BRANCH  54  75
ATOM     75  C   UNL A   1      36.973  31.331  29.094  1.00  0.00     0.057 A 
ATOM     76  C   UNL A   1      36.995  32.657  28.648  1.00  0.00     0.134 A 
ATOM     77  C   UNL A   1      35.824  30.578  28.818  1.00  0.00     0.134 A 
ATOM     78  F   UNL A   1      38.056  33.437  28.903  1.00  0.00    -0.206 F 
ATOM     79  C   UNL A   1      35.911  33.220  27.971  1.00  0.00     0.040 A 
ATOM     80  C   UNL A   1      34.743  31.121  28.122  1.00  0.00     0.040 A 
ATOM     81  F   UNL A   1      35.736  29.302  29.223  1.00  0.00    -0.206 F 
ATOM     82  C   UNL A   1      34.782  32.449  27.703  1.00  0.00     0.006 A 
ENDBRANCH  54  75
BRANCH  66  83
ATOM     83  C   UNL A   1      39.167  32.141  35.657  1.00  0.00     0.057 A 
ATOM     84  C   UNL A   1      38.296  31.652  36.638  1.00  0.00     0.134 A 
ATOM     85  C   UNL A   1      39.614  33.462  35.788  1.00  0.00     0.134 A 
ATOM     86  F   UNL A   1      37.824  30.399  36.565  1.00  0.00    -0.206 F 
ATOM     87  C   UNL A   1      37.866  32.456  37.696  1.00  0.00     0.040 A 
ATOM     88  C   UNL A   1      39.214  34.266  36.856  1.00  0.00     0.040 A 
ATOM     89  F   UNL A   1      40.460  33.989  34.889  1.00  0.00    -0.206 F 
ATOM     90  C   UNL A   1      38.330  33.764  37.810  1.00  0.00     0.006 A 
ENDBRANCH  66  83
ENDBRANCH  40  41
ENDBRANCH  33  35
ENDBRANCH  32  33
ENDBRANCH  31  32
ENDBRANCH  30  31
ENDBRANCH  29  30
ENDBRANCH  28  29
ENDBRANCH  27  28
ENDBRANCH  26  27
ENDBRANCH  25  26
ENDBRANCH   1  25
TORSDOF 26
ENDMDL
MODEL 2
REMARK VINA RESULT:      -9.1      1.105      2.061
REMARK SMILES CCOC[C@@H](O)C[C@]1(C(=O)OCCOCCOCCOCCOC(=O)c2ccc(-c3c4nc(c(-c5c(F)cccc5F)c5ccc([nH]5)c(-c5c(F)cccc5F)c5nc(c(-c6c(F)cccc6F)c6ccc3[nH]6)C=C5)C=C4)cc2)CCc2ccccc21
REMARK SMILES IDX 15 1 14 2 13 3 12 4 11 5 9 6 10 7 8 8 80 9 87 10 81 11 82 12
REMARK SMILES IDX 86 13 83 14 85 15 84 16 7 17 5 18 4 19 3 20 2 21 1 22 6 23
REMARK SMILES IDX 16 25 17 26 18 27 19 28 20 29 21 30 22 31 23 32 24 33 25 34
REMARK SMILES IDX 26 35 27 36 79 37 28 38 78 39 29 40 30 41 31 42 72 43 32 44
REMARK SMILES IDX 77 45 71 46 73 47 33 48 76 49 70 50 69 51 34 53 60 54 43 55
REMARK SMILES IDX 59 56 44 57 47 58 58 59 74 60 45 61 46 62 57 64 75 65 48 66
REMARK SMILES IDX 35 67 36 68 41 69 37 70 38 71 40 72 42 73 39 74 61 75 62 76
REMARK SMILES IDX 67 77 63 78 64 79 66 80 68 81 65 82 49 83 50 84 55 85 51 86
REMARK SMILES IDX 52 87 54 88 56 89 53 90
REMARK H PARENT 6 24 73 52 47 63
REMARK Flexibility Score: inf
ROOT
ATOM      1  C   UNL A   1      38.896  22.026  26.116  1.00  0.00     0.188 C 
ENDROOT
BRANCH   1   2
ATOM      2  O   UNL A   1      37.950  23.041  25.783  1.00  0.00    -0.376 OA
BRANCH   2   3
ATOM      3  C   UNL A   1      36.763  22.553  25.165  1.00  0.00     0.202 C 
BRANCH   3   4
ATOM      4  C   UNL A   1      35.808  23.639  24.651  1.00  0.00     0.261 C 
BRANCH   4   5
ATOM      5  O   UNL A   1      34.399  23.333  24.665  1.00  0.00    -0.463 OA
BRANCH   5   6
ATOM      6  C   UNL A   1      33.769  23.120  23.483  1.00  0.00     0.316 C 
ATOM      7  O   UNL A   1      34.264  23.385  22.393  1.00  0.00    -0.251 OA
BRANCH   6   8
ATOM      8  C   UNL A   1      32.324  22.574  23.665  1.00  0.00     0.096 C 
ATOM      9  C   UNL A   1      31.550  22.136  22.376  1.00  0.00     0.028 C 
ATOM     10  C   UNL A   1      32.496  21.191  24.294  1.00  0.00    -0.027 A 
ATOM     11  C   UNL A   1      32.015  20.721  22.000  1.00  0.00     0.037 C 
ATOM     12  C   UNL A   1      32.344  20.170  23.346  1.00  0.00    -0.044 A 
ATOM     13  C   UNL A   1      32.908  20.894  25.586  1.00  0.00     0.005 A 
ATOM     14  C   UNL A   1      32.578  18.846  23.672  1.00  0.00     0.004 A 
ATOM     15  C   UNL A   1      33.140  19.562  25.926  1.00  0.00     0.000 A 
ATOM     16  C   UNL A   1      32.973  18.544  24.976  1.00  0.00     0.000 A 
BRANCH   8  17
ATOM     17  C   UNL A   1      31.444  23.519  24.551  1.00  0.00     0.057 C 
BRANCH  17  18
ATOM     18  C   UNL A   1      31.604  25.051  24.427  1.00  0.00     0.141 C 
BRANCH  18  19
ATOM     19  C   UNL A   1      30.400  25.809  23.839  1.00  0.00     0.191 C 
BRANCH  19  20
ATOM     20  O   UNL A   1      30.565  27.227  23.995  1.00  0.00    -0.379 OA
BRANCH  20  21
ATOM     21  C   UNL A   1      30.466  28.021  22.817  1.00  0.00     0.157 C 
ATOM     22  C   UNL A   1      29.184  28.833  22.795  1.00  0.00     0.035 C 
ENDBRANCH  20  21
ENDBRANCH  19  20
ENDBRANCH  18  19
BRANCH  18  23
ATOM     23  O   UNL A   1      31.780  25.534  25.776  1.00  0.00    -0.391 OA
ATOM     24  H   UNL A   1      32.711  25.445  26.031  1.00  0.00     0.211 HD
ENDBRANCH  18  23
ENDBRANCH  17  18
ENDBRANCH   8  17
ENDBRANCH   6   8
ENDBRANCH   5   6
ENDBRANCH   4   5
ENDBRANCH   3   4
ENDBRANCH   2   3
ENDBRANCH   1   2
BRANCH   1  25
ATOM     25  C   UNL A   1      40.048  22.549  26.972  1.00  0.00     0.188 C 
BRANCH  25  26
ATOM     26  O   UNL A   1      41.333  22.001  26.744  1.00  0.00    -0.377 OA
BRANCH  26  27
ATOM     27  C   UNL A   1      41.397  20.699  26.175  1.00  0.00     0.188 C 
BRANCH  27  28
ATOM     28  C   UNL A   1      42.749  19.957  26.110  1.00  0.00     0.188 C 
BRANCH  28  29
ATOM     29  O   UNL A   1      43.419  20.032  24.860  1.00  0.00    -0.376 OA
BRANCH  29  30
ATOM     30  C   UNL A   1      44.597  20.812  24.753  1.00  0.00     0.202 C 
BRANCH  30  31
ATOM     31  C   UNL A   1      44.724  22.008  25.705  1.00  0.00     0.261 C 
BRANCH  31  32
ATOM     32  O   UNL A   1      44.034  23.201  25.305  1.00  0.00    -0.460 OA
BRANCH  32  33
ATOM     33  C   UNL A   1      44.688  24.377  25.396  1.00  0.00     0.338 C 
ATOM     34  O   UNL A   1      45.642  24.754  24.737  1.00  0.00    -0.246 OA
BRANCH  33  35
ATOM     35  C   UNL A   1      43.896  25.237  26.296  1.00  0.00     0.060 A 
ATOM     36  C   UNL A   1      44.185  26.608  26.344  1.00  0.00     0.016 A 
ATOM     37  C   UNL A   1      42.832  24.706  27.031  1.00  0.00     0.016 A 
ATOM     38  C   UNL A   1      43.422  27.450  27.149  1.00  0.00     0.010 A 
ATOM     39  C   UNL A   1      42.091  25.544  27.864  1.00  0.00     0.010 A 
ATOM     40  C   UNL A   1      42.406  26.911  27.950  1.00  0.00    -0.014 A 
BRANCH  40  41
ATOM     41  C   UNL A   1      41.873  27.722  29.066  1.00  0.00     0.031 A 
ATOM     42  C   UNL A   1      42.597  27.646  30.382  1.00  0.00     0.074 A 
ATOM     43  C   UNL A   1      40.808  28.527  28.914  1.00  0.00     0.049 A 
ATOM     44  N   UNL A   1      42.338  28.251  31.511  1.00  0.00    -0.248 NA
ATOM     45  C   UNL A   1      43.777  26.765  30.425  1.00  0.00     0.031 C 
ATOM     46  C   UNL A   1      40.053  28.713  27.678  1.00  0.00     0.029 A 
ATOM     47  N   UNL A   1      40.181  29.341  29.822  1.00  0.00    -0.354 N 
ATOM     48  C   UNL A   1      43.323  27.826  32.394  1.00  0.00     0.074 A 
ATOM     49  C   UNL A   1      44.162  26.889  31.684  1.00  0.00     0.031 C 
ATOM     50  C   UNL A   1      39.051  29.581  27.909  1.00  0.00     0.029 A 
ATOM     51  C   UNL A   1      39.084  29.991  29.312  1.00  0.00     0.049 A 
ATOM     52  H   UNL A   1      40.487  29.450  30.752  1.00  0.00     0.167 HD
ATOM     53  C   UNL A   1      43.515  28.192  33.682  1.00  0.00     0.037 A 
ATOM     54  C   UNL A   1      38.204  30.810  29.921  1.00  0.00     0.037 A 
ATOM     55  C   UNL A   1      42.670  29.112  34.390  1.00  0.00     0.049 A 
ATOM     56  C   UNL A   1      38.396  31.145  31.379  1.00  0.00     0.074 A 
ATOM     57  C   UNL A   1      42.779  29.552  35.697  1.00  0.00     0.029 A 
ATOM     58  N   UNL A   1      41.549  29.723  33.850  1.00  0.00    -0.354 N 
ATOM     59  N   UNL A   1      39.345  30.763  32.200  1.00  0.00    -0.248 NA
ATOM     60  C   UNL A   1      37.396  32.030  31.993  1.00  0.00     0.031 C 
ATOM     61  C   UNL A   1      41.694  30.394  35.962  1.00  0.00     0.029 A 
ATOM     62  C   UNL A   1      40.941  30.520  34.804  1.00  0.00     0.049 A 
ATOM     63  H   UNL A   1      41.232  29.607  32.925  1.00  0.00     0.167 HD
ATOM     64  C   UNL A   1      39.076  31.383  33.414  1.00  0.00     0.074 A 
ATOM     65  C   UNL A   1      37.880  32.177  33.219  1.00  0.00     0.031 C 
ATOM     66  C   UNL A   1      39.755  31.309  34.586  1.00  0.00     0.037 A 
BRANCH  53  67
ATOM     67  C   UNL A   1      44.667  27.562  34.407  1.00  0.00     0.057 A 
ATOM     68  C   UNL A   1      44.535  26.350  35.098  1.00  0.00     0.134 A 
ATOM     69  C   UNL A   1      45.925  28.176  34.411  1.00  0.00     0.134 A 
ATOM     70  F   UNL A   1      43.350  25.725  35.153  1.00  0.00    -0.206 F 
ATOM     71  C   UNL A   1      45.609  25.783  35.785  1.00  0.00     0.040 A 
ATOM     72  C   UNL A   1      47.012  27.604  35.072  1.00  0.00     0.040 A 
ATOM     73  F   UNL A   1      46.118  29.340  33.772  1.00  0.00    -0.206 F 
ATOM     74  C   UNL A   1      46.854  26.407  35.766  1.00  0.00     0.006 A 
ENDBRANCH  53  67
BRANCH  54  75
ATOM     75  C   UNL A   1      37.052  31.366  29.166  1.00  0.00     0.057 A 
ATOM     76  C   UNL A   1      37.048  32.690  28.712  1.00  0.00     0.134 A 
ATOM     77  C   UNL A   1      35.911  30.595  28.910  1.00  0.00     0.134 A 
ATOM     78  F   UNL A   1      38.100  33.487  28.948  1.00  0.00    -0.206 F 
ATOM     79  C   UNL A   1      35.946  33.233  28.048  1.00  0.00     0.040 A 
ATOM     80  C   UNL A   1      34.812  31.117  28.227  1.00  0.00     0.040 A 
ATOM     81  F   UNL A   1      35.848  29.320  29.322  1.00  0.00    -0.206 F 
ATOM     82  C   UNL A   1      34.825  32.444  27.801  1.00  0.00     0.006 A 
ENDBRANCH  54  75
BRANCH  66  83
ATOM     83  C   UNL A   1      39.247  32.134  35.733  1.00  0.00     0.057 A 
ATOM     84  C   UNL A   1      39.662  33.456  35.937  1.00  0.00     0.134 A 
ATOM     85  C   UNL A   1      38.297  31.610  36.618  1.00  0.00     0.134 A 
ATOM     86  F   UNL A   1      40.577  34.014  35.130  1.00  0.00    -0.206 F 
ATOM     87  C   UNL A   1      39.168  34.219  36.996  1.00  0.00     0.040 A 
ATOM     88  C   UNL A   1      37.774  32.372  37.664  1.00  0.00     0.040 A 
ATOM     89  F   UNL A   1      37.846  30.355  36.472  1.00  0.00    -0.206 F 
ATOM     90  C   UNL A   1      38.217  33.679  37.859  1.00  0.00     0.006 A 
ENDBRANCH  66  83
ENDBRANCH  40  41
ENDBRANCH  33  35
ENDBRANCH  32  33
ENDBRANCH  31  32
ENDBRANCH  30  31
ENDBRANCH  29  30
ENDBRANCH  28  29
ENDBRANCH  27  28
ENDBRANCH  26  27
ENDBRANCH  25  26
ENDBRANCH   1  25
TORSDOF 26
ENDMDL
MODEL 3
REMARK VINA RESULT:      -9.0      1.103      2.514
REMARK SMILES CCOC[C@@H](O)C[C@]1(C(=O)OCCOCCOCCOCCOC(=O)c2ccc(-c3c4nc(c(-c5c(F)cccc5F)c5ccc([nH]5)c(-c5c(F)cccc5F)c5nc(c(-c6c(F)cccc6F)c6ccc3[nH]6)C=C5)C=C4)cc2)CCc2ccccc21
REMARK SMILES IDX 15 1 14 2 13 3 12 4 11 5 9 6 10 7 8 8 80 9 87 10 81 11 82 12
REMARK SMILES IDX 86 13 83 14 85 15 84 16 7 17 5 18 4 19 3 20 2 21 1 22 6 23
REMARK SMILES IDX 16 25 17 26 18 27 19 28 20 29 21 30 22 31 23 32 24 33 25 34
REMARK SMILES IDX 26 35 27 36 79 37 28 38 78 39 29 40 30 41 31 42 72 43 32 44
REMARK SMILES IDX 77 45 71 46 73 47 33 48 76 49 70 50 69 51 34 53 60 54 43 55
REMARK SMILES IDX 59 56 44 57 47 58 58 59 74 60 45 61 46 62 57 64 75 65 48 66
REMARK SMILES IDX 35 67 36 68 41 69 37 70 38 71 40 72 42 73 39 74 61 75 62 76
REMARK SMILES IDX 67 77 63 78 64 79 66 80 68 81 65 82 49 83 50 84 55 85 51 86
REMARK SMILES IDX 52 87 54 88 56 89 53 90
REMARK H PARENT 6 24 73 52 47 63
REMARK Flexibility Score: inf
ROOT
ATOM      1  C   UNL A   1      39.381  20.088  25.597  1.00  0.00     0.188 C 
ENDROOT
BRANCH   1   2
ATOM      2  O   UNL A   1      39.080  21.483  25.584  1.00  0.00    -0.376 OA
BRANCH   2   3
ATOM      3  C   UNL A   1      37.706  21.787  25.805  1.00  0.00     0.202 C 
BRANCH   3   4
ATOM      4  C   UNL A   1      37.089  22.766  24.796  1.00  0.00     0.261 C 
BRANCH   4   5
ATOM      5  O   UNL A   1      36.093  22.238  23.898  1.00  0.00    -0.463 OA
BRANCH   5   6
ATOM      6  C   UNL A   1      35.094  23.056  23.483  1.00  0.00     0.316 C 
ATOM      7  O   UNL A   1      35.008  23.500  22.344  1.00  0.00    -0.251 OA
BRANCH   6   8
ATOM      8  C   UNL A   1      34.111  23.428  24.630  1.00  0.00     0.096 C 
ATOM      9  C   UNL A   1      34.616  24.433  25.718  1.00  0.00     0.028 C 
ATOM     10  C   UNL A   1      33.059  24.327  23.978  1.00  0.00    -0.027 A 
ATOM     11  C   UNL A   1      34.468  25.855  25.158  1.00  0.00     0.037 C 
ATOM     12  C   UNL A   1      33.287  25.679  24.263  1.00  0.00    -0.044 A 
ATOM     13  C   UNL A   1      32.070  23.956  23.076  1.00  0.00     0.005 A 
ATOM     14  C   UNL A   1      32.529  26.676  23.676  1.00  0.00     0.004 A 
ATOM     15  C   UNL A   1      31.296  24.953  22.484  1.00  0.00     0.000 A 
ATOM     16  C   UNL A   1      31.521  26.304  22.784  1.00  0.00     0.000 A 
BRANCH   8  17
ATOM     17  C   UNL A   1      33.473  22.161  25.293  1.00  0.00     0.057 C 
BRANCH  17  18
ATOM     18  C   UNL A   1      33.457  22.029  26.833  1.00  0.00     0.141 C 
BRANCH  18  19
ATOM     19  C   UNL A   1      32.195  22.556  27.541  1.00  0.00     0.191 C 
BRANCH  19  20
ATOM     20  O   UNL A   1      31.576  23.598  26.770  1.00  0.00    -0.379 OA
BRANCH  20  21
ATOM     21  C   UNL A   1      30.154  23.657  26.790  1.00  0.00     0.157 C 
ATOM     22  C   UNL A   1      29.643  25.017  26.351  1.00  0.00     0.035 C 
ENDBRANCH  20  21
ENDBRANCH  19  20
ENDBRANCH  18  19
BRANCH  18  23
ATOM     23  O   UNL A   1      33.525  20.613  27.103  1.00  0.00    -0.391 OA
ATOM     24  H   UNL A   1      34.422  20.383  27.391  1.00  0.00     0.211 HD
ENDBRANCH  18  23
ENDBRANCH  17  18
ENDBRANCH   8  17
ENDBRANCH   6   8
ENDBRANCH   5   6
ENDBRANCH   4   5
ENDBRANCH   3   4
ENDBRANCH   2   3
ENDBRANCH   1   2
BRANCH   1  25
ATOM     25  C   UNL A   1      40.737  19.781  26.227  1.00  0.00     0.188 C 
BRANCH  25  26
ATOM     26  O   UNL A   1      41.679  19.075  25.441  1.00  0.00    -0.377 OA
BRANCH  26  27
ATOM     27  C   UNL A   1      42.841  18.582  26.099  1.00  0.00     0.188 C 
BRANCH  27  28
ATOM     28  C   UNL A   1      44.233  18.821  25.477  1.00  0.00     0.188 C 
BRANCH  28  29
ATOM     29  O   UNL A   1      44.250  19.683  24.348  1.00  0.00    -0.376 OA
BRANCH  29  30
ATOM     30  C   UNL A   1      44.677  21.025  24.510  1.00  0.00     0.202 C 
BRANCH  30  31
ATOM     31  C   UNL A   1      43.761  21.949  25.322  1.00  0.00     0.261 C 
BRANCH  31  32
ATOM     32  O   UNL A   1      44.424  22.932  26.130  1.00  0.00    -0.460 OA
BRANCH  32  33
ATOM     33  C   UNL A   1      44.551  24.182  25.638  1.00  0.00     0.338 C 
ATOM     34  O   UNL A   1      45.050  24.520  24.579  1.00  0.00    -0.246 OA
BRANCH  33  35
ATOM     35  C   UNL A   1      43.768  25.068  26.520  1.00  0.00     0.060 A 
ATOM     36  C   UNL A   1      44.080  26.435  26.548  1.00  0.00     0.016 A 
ATOM     37  C   UNL A   1      42.692  24.567  27.257  1.00  0.00     0.016 A 
ATOM     38  C   UNL A   1      43.326  27.302  27.336  1.00  0.00     0.010 A 
ATOM     39  C   UNL A   1      41.960  25.429  28.073  1.00  0.00     0.010 A 
ATOM     40  C   UNL A   1      42.297  26.792  28.139  1.00  0.00    -0.014 A 
BRANCH  40  41
ATOM     41  C   UNL A   1      41.771  27.629  29.239  1.00  0.00     0.031 A 
ATOM     42  C   UNL A   1      42.484  27.560  30.561  1.00  0.00     0.074 A 
ATOM     43  C   UNL A   1      40.722  28.451  29.068  1.00  0.00     0.049 A 
ATOM     44  N   UNL A   1      42.229  28.186  31.679  1.00  0.00    -0.248 NA
ATOM     45  C   UNL A   1      43.649  26.659  30.626  1.00  0.00     0.031 C 
ATOM     46  C   UNL A   1      39.978  28.632  27.824  1.00  0.00     0.029 A 
ATOM     47  N   UNL A   1      40.103  29.290  29.960  1.00  0.00    -0.354 N 
ATOM     48  C   UNL A   1      43.200  27.758  32.576  1.00  0.00     0.074 A 
ATOM     49  C   UNL A   1      44.028  26.795  31.885  1.00  0.00     0.031 C 
ATOM     50  C   UNL A   1      38.990  29.521  28.036  1.00  0.00     0.029 A 
ATOM     51  C   UNL A   1      39.022  29.951  29.432  1.00  0.00     0.049 A 
ATOM     52  H   UNL A   1      40.405  29.407  30.890  1.00  0.00     0.167 HD
ATOM     53  C   UNL A   1      43.390  28.140  33.859  1.00  0.00     0.037 A 
ATOM     54  C   UNL A   1      38.152  30.794  30.023  1.00  0.00     0.037 A 
ATOM     55  C   UNL A   1      42.557  29.085  34.548  1.00  0.00     0.049 A 
ATOM     56  C   UNL A   1      38.341  31.148  31.477  1.00  0.00     0.074 A 
ATOM     57  C   UNL A   1      42.665  29.543  35.848  1.00  0.00     0.029 A 
ATOM     58  N   UNL A   1      41.451  29.708  33.991  1.00  0.00    -0.354 N 
ATOM     59  N   UNL A   1      39.277  30.761  32.310  1.00  0.00    -0.248 NA
ATOM     60  C   UNL A   1      37.352  32.060  32.071  1.00  0.00     0.031 C 
ATOM     61  C   UNL A   1      41.593  30.408  36.093  1.00  0.00     0.029 A 
ATOM     62  C   UNL A   1      40.851  30.530  34.929  1.00  0.00     0.049 A 
ATOM     63  H   UNL A   1      41.138  29.584  33.065  1.00  0.00     0.167 HD
ATOM     64  C   UNL A   1      39.011  31.405  33.513  1.00  0.00     0.074 A 
ATOM     65  C   UNL A   1      37.831  32.217  33.297  1.00  0.00     0.031 C 
ATOM     66  C   UNL A   1      39.680  31.336  34.690  1.00  0.00     0.037 A 
BRANCH  53  67
ATOM     67  C   UNL A   1      44.526  27.501  34.601  1.00  0.00     0.057 A 
ATOM     68  C   UNL A   1      44.344  26.362  35.398  1.00  0.00     0.134 A 
ATOM     69  C   UNL A   1      45.819  28.030  34.515  1.00  0.00     0.134 A 
ATOM     70  F   UNL A   1      43.125  25.821  35.543  1.00  0.00    -0.206 F 
ATOM     71  C   UNL A   1      45.405  25.787  36.100  1.00  0.00     0.040 A 
ATOM     72  C   UNL A   1      46.892  27.448  35.191  1.00  0.00     0.040 A 
ATOM     73  F   UNL A   1      46.060  29.121  33.773  1.00  0.00    -0.206 F 
ATOM     74  C   UNL A   1      46.685  26.326  35.990  1.00  0.00     0.006 A 
ENDBRANCH  53  67
BRANCH  54  75
ATOM     75  C   UNL A   1      37.015  31.359  29.252  1.00  0.00     0.057 A 
ATOM     76  C   UNL A   1      35.891  30.587  28.939  1.00  0.00     0.134 A 
ATOM     77  C   UNL A   1      37.042  32.677  28.778  1.00  0.00     0.134 A 
ATOM     78  F   UNL A   1      35.816  29.310  29.341  1.00  0.00    -0.206 F 
ATOM     79  C   UNL A   1      34.843  31.097  28.169  1.00  0.00     0.040 A 
ATOM     80  C   UNL A   1      35.992  33.208  28.029  1.00  0.00     0.040 A 
ATOM     81  F   UNL A   1      38.093  33.469  29.039  1.00  0.00    -0.206 F 
ATOM     82  C   UNL A   1      34.891  32.413  27.715  1.00  0.00     0.006 A 
ENDBRANCH  54  75
BRANCH  66  83
ATOM     83  C   UNL A   1      39.180  32.187  35.821  1.00  0.00     0.057 A 
ATOM     84  C   UNL A   1      38.305  31.690  36.794  1.00  0.00     0.134 A 
ATOM     85  C   UNL A   1      39.619  33.511  35.961  1.00  0.00     0.134 A 
ATOM     86  F   UNL A   1      37.841  30.434  36.714  1.00  0.00    -0.206 F 
ATOM     87  C   UNL A   1      37.862  32.487  37.852  1.00  0.00     0.040 A 
ATOM     88  C   UNL A   1      39.206  34.308  37.029  1.00  0.00     0.040 A 
ATOM     89  F   UNL A   1      40.469  34.046  35.071  1.00  0.00    -0.206 F 
ATOM     90  C   UNL A   1      38.318  33.798  37.974  1.00  0.00     0.006 A 
ENDBRANCH  66  83
ENDBRANCH  40  41
ENDBRANCH  33  35
ENDBRANCH  32  33
ENDBRANCH  31  32
ENDBRANCH  30  31
ENDBRANCH  29  30
ENDBRANCH  28  29
ENDBRANCH  27  28
ENDBRANCH  26  27
ENDBRANCH  25  26
ENDBRANCH   1  25
TORSDOF 26
ENDMDL
