MODEL 1
REMARK VINA RESULT:     -10.0      0.000      0.000
REMARK SMILES Cc1ccc(OCC(=O)N[C@H](C)C(=O)OCCOCCOCCOCCOC(=O)c2ccc(-c3c4nc(c(-c5c(F)cccc5F)c5ccc([nH]5)c(-c5c(F)cccc5F)c5nc(c(-c6c(F)cccc6F)c6ccc3[nH]6)C=C5)C=C4)cc2)c(Br)c1
REMARK SMILES IDX 20 1 19 2 18 3 17 4 16 5 15 6 13 7 14 8 11 9 12 10 10 11
REMARK SMILES IDX 8 12 9 13 7 15 6 16 5 17 1 18 2 19 3 20 86 21 4 22 84 23
REMARK SMILES IDX 85 24 21 25 22 26 23 27 24 28 25 29 26 30 27 31 28 32 29 33
REMARK SMILES IDX 30 34 31 35 83 36 32 37 82 38 33 39 34 40 35 41 76 42 36 43
REMARK SMILES IDX 81 44 75 45 77 46 37 47 80 48 74 49 73 50 38 52 64 53 47 54
REMARK SMILES IDX 63 55 48 56 51 57 62 58 78 59 49 60 50 61 61 63 79 64 52 65
REMARK SMILES IDX 39 66 40 67 45 68 41 69 42 70 44 71 46 72 43 73 65 74 66 75
REMARK SMILES IDX 71 76 67 77 68 78 70 79 72 80 69 81 53 82 54 83 59 84 55 85
REMARK SMILES IDX 56 86 58 87 60 88 57 89
REMARK H PARENT 10 14 77 51 51 62
REMARK Flexibility Score: inf
ROOT
ATOM      1  C   UNL A   1      40.963  20.994  26.307  1.00  0.00     0.188 C 
ENDROOT
BRANCH   1   2
ATOM      2  C   UNL A   1      39.534  21.577  26.321  1.00  0.00     0.188 C 
BRANCH   2   3
ATOM      3  O   UNL A   1      38.583  21.154  25.364  1.00  0.00    -0.376 OA
BRANCH   3   4
ATOM      4  C   UNL A   1      37.230  21.576  25.455  1.00  0.00     0.202 C 
BRANCH   4   5
ATOM      5  C   UNL A   1      36.886  23.053  25.603  1.00  0.00     0.261 C 
BRANCH   5   6
ATOM      6  O   UNL A   1      35.485  23.316  25.798  1.00  0.00    -0.462 OA
BRANCH   6   7
ATOM      7  C   UNL A   1      34.737  23.361  24.667  1.00  0.00     0.328 C 
ATOM      8  O   UNL A   1      34.934  24.141  23.738  1.00  0.00    -0.250 OA
BRANCH   7   9
ATOM      9  C   UNL A   1      33.495  22.467  24.709  1.00  0.00     0.189 C 
ATOM     10  C   UNL A   1      33.615  20.977  24.427  1.00  0.00     0.043 C 
BRANCH   9  11
ATOM     11  N   UNL A   1      32.654  22.747  25.875  1.00  0.00    -0.340 N 
ATOM     12  C   UNL A   1      32.109  23.902  26.340  1.00  0.00     0.258 C 
ATOM     13  O   UNL A   1      31.646  23.881  27.485  1.00  0.00    -0.271 OA
ATOM     14  H   UNL A   1      32.446  21.954  26.421  1.00  0.00     0.164 HD
BRANCH  12  15
ATOM     15  C   UNL A   1      31.952  25.161  25.463  1.00  0.00     0.329 C 
BRANCH  15  16
ATOM     16  O   UNL A   1      32.884  26.221  25.535  1.00  0.00    -0.483 OA
BRANCH  16  17
ATOM     17  C   UNL A   1      32.448  27.481  25.824  1.00  0.00     0.134 A 
ATOM     18  C   UNL A   1      31.400  31.606  26.516  1.00  0.00     0.044 C 
ATOM     19  C   UNL A   1      31.767  30.174  26.294  1.00  0.00    -0.050 A 
ATOM     20  C   UNL A   1      31.729  29.244  27.329  1.00  0.00     0.007 A 
ATOM     21  C   UNL A   1      32.106  29.747  25.012  1.00  0.00     0.023 A 
ATOM     22  C   UNL A   1      32.067  27.909  27.095  1.00  0.00     0.048 A 
ATOM     23  C   UNL A   1      32.398  28.405  24.771  1.00  0.00     0.060 A 
ATOM     24  Br  UNL A   1      32.587  27.903  22.956  1.00  0.00    -0.047 Br
ENDBRANCH  16  17
ENDBRANCH  15  16
ENDBRANCH  12  15
ENDBRANCH   9  11
ENDBRANCH   7   9
ENDBRANCH   6   7
ENDBRANCH   5   6
ENDBRANCH   4   5
ENDBRANCH   3   4
ENDBRANCH   2   3
ENDBRANCH   1   2
BRANCH   1  25
ATOM     25  O   UNL A   1      41.177  19.656  25.902  1.00  0.00    -0.377 OA
BRANCH  25  26
ATOM     26  C   UNL A   1      42.341  18.949  26.313  1.00  0.00     0.188 C 
BRANCH  26  27
ATOM     27  C   UNL A   1      43.550  18.755  25.382  1.00  0.00     0.188 C 
BRANCH  27  28
ATOM     28  O   UNL A   1      43.742  19.802  24.455  1.00  0.00    -0.376 OA
BRANCH  28  29
ATOM     29  C   UNL A   1      44.874  20.641  24.599  1.00  0.00     0.202 C 
BRANCH  29  30
ATOM     30  C   UNL A   1      44.918  21.646  25.762  1.00  0.00     0.261 C 
BRANCH  30  31
ATOM     31  O   UNL A   1      43.900  22.660  25.797  1.00  0.00    -0.460 OA
BRANCH  31  32
ATOM     32  C   UNL A   1      44.211  23.895  25.361  1.00  0.00     0.338 C 
ATOM     33  O   UNL A   1      44.879  24.189  24.379  1.00  0.00    -0.246 OA
BRANCH  32  34
ATOM     34  C   UNL A   1      43.476  24.865  26.197  1.00  0.00     0.060 A 
ATOM     35  C   UNL A   1      43.797  26.228  26.131  1.00  0.00     0.016 A 
ATOM     36  C   UNL A   1      42.484  24.416  27.071  1.00  0.00     0.016 A 
ATOM     37  C   UNL A   1      43.160  27.139  26.978  1.00  0.00     0.010 A 
ATOM     38  C   UNL A   1      41.858  25.326  27.927  1.00  0.00     0.010 A 
ATOM     39  C   UNL A   1      42.222  26.685  27.914  1.00  0.00    -0.014 A 
BRANCH  39  40
ATOM     40  C   UNL A   1      41.769  27.572  29.015  1.00  0.00     0.031 A 
ATOM     41  C   UNL A   1      42.498  27.506  30.330  1.00  0.00     0.074 A 
ATOM     42  C   UNL A   1      40.742  28.427  28.862  1.00  0.00     0.049 A 
ATOM     43  N   UNL A   1      42.236  28.113  31.459  1.00  0.00    -0.248 NA
ATOM     44  C   UNL A   1      43.685  26.638  30.372  1.00  0.00     0.031 C 
ATOM     45  C   UNL A   1      40.004  28.646  27.622  1.00  0.00     0.029 A 
ATOM     46  N   UNL A   1      40.139  29.264  29.767  1.00  0.00    -0.354 N 
ATOM     47  C   UNL A   1      43.223  27.698  32.345  1.00  0.00     0.074 A 
ATOM     48  C   UNL A   1      44.062  26.757  31.635  1.00  0.00     0.031 C 
ATOM     49  C   UNL A   1      39.029  29.545  27.850  1.00  0.00     0.029 A 
ATOM     50  C   UNL A   1      39.053  29.933  29.257  1.00  0.00     0.049 A 
ATOM     51  H   UNL A   1      40.453  29.375  30.693  1.00  0.00     0.167 HD
ATOM     52  C   UNL A   1      43.420  28.078  33.630  1.00  0.00     0.037 A 
ATOM     53  C   UNL A   1      38.167  30.746  29.866  1.00  0.00     0.037 A 
ATOM     54  C   UNL A   1      42.578  29.006  34.337  1.00  0.00     0.049 A 
ATOM     55  C   UNL A   1      38.331  31.054  31.330  1.00  0.00     0.074 A 
ATOM     56  C   UNL A   1      42.694  29.457  35.639  1.00  0.00     0.029 A 
ATOM     57  N   UNL A   1      41.452  29.614  33.802  1.00  0.00    -0.354 N 
ATOM     58  N   UNL A   1      39.270  30.665  32.158  1.00  0.00    -0.248 NA
ATOM     59  C   UNL A   1      37.312  31.919  31.942  1.00  0.00     0.031 C 
ATOM     60  C   UNL A   1      41.605  30.291  35.912  1.00  0.00     0.029 A 
ATOM     61  C   UNL A   1      40.846  30.412  34.760  1.00  0.00     0.049 A 
ATOM     62  H   UNL A   1      41.130  29.496  32.880  1.00  0.00     0.167 HD
ATOM     63  C   UNL A   1      38.979  31.272  33.374  1.00  0.00     0.074 A 
ATOM     64  C   UNL A   1      37.779  32.056  33.174  1.00  0.00     0.031 C 
ATOM     65  C   UNL A   1      39.654  31.193  34.547  1.00  0.00     0.037 A 
BRANCH  52  66
ATOM     66  C   UNL A   1      44.579  27.459  34.358  1.00  0.00     0.057 A 
ATOM     67  C   UNL A   1      44.422  26.350  35.201  1.00  0.00     0.134 A 
ATOM     68  C   UNL A   1      45.872  27.976  34.208  1.00  0.00     0.134 A 
ATOM     69  F   UNL A   1      43.207  25.815  35.402  1.00  0.00    -0.206 F 
ATOM     70  C   UNL A   1      45.502  25.798  35.891  1.00  0.00     0.040 A 
ATOM     71  C   UNL A   1      46.966  27.413  34.869  1.00  0.00     0.040 A 
ATOM     72  F   UNL A   1      46.096  29.033  33.415  1.00  0.00    -0.206 F 
ATOM     73  C   UNL A   1      46.780  26.326  35.721  1.00  0.00     0.006 A 
ENDBRANCH  52  66
BRANCH  53  74
ATOM     74  C   UNL A   1      37.026  31.321  29.108  1.00  0.00     0.057 A 
ATOM     75  C   UNL A   1      37.034  32.653  28.681  1.00  0.00     0.134 A 
ATOM     76  C   UNL A   1      35.881  30.565  28.835  1.00  0.00     0.134 A 
ATOM     77  F   UNL A   1      38.083  33.442  28.954  1.00  0.00    -0.206 F 
ATOM     78  C   UNL A   1      35.944  33.213  28.011  1.00  0.00     0.040 A 
ATOM     79  C   UNL A   1      34.796  31.103  28.140  1.00  0.00     0.040 A 
ATOM     80  F   UNL A   1      35.807  29.284  29.228  1.00  0.00    -0.206 F 
ATOM     81  C   UNL A   1      34.824  32.433  27.730  1.00  0.00     0.006 A 
ENDBRANCH  53  74
BRANCH  65  82
ATOM     82  C   UNL A   1      39.140  32.016  35.695  1.00  0.00     0.057 A 
ATOM     83  C   UNL A   1      38.279  31.486  36.666  1.00  0.00     0.134 A 
ATOM     84  C   UNL A   1      39.545  33.348  35.850  1.00  0.00     0.134 A 
ATOM     85  F   UNL A   1      37.841  30.223  36.570  1.00  0.00    -0.206 F 
ATOM     86  C   UNL A   1      37.821  32.261  37.734  1.00  0.00     0.040 A 
ATOM     87  C   UNL A   1      39.119  34.122  36.930  1.00  0.00     0.040 A 
ATOM     88  F   UNL A   1      40.375  33.915  34.961  1.00  0.00    -0.206 F 
ATOM     89  C   UNL A   1      38.248  33.580  37.873  1.00  0.00     0.006 A 
ENDBRANCH  65  82
ENDBRANCH  39  40
ENDBRANCH  32  34
ENDBRANCH  31  32
ENDBRANCH  30  31
ENDBRANCH  29  30
ENDBRANCH  28  29
ENDBRANCH  27  28
ENDBRANCH  26  27
ENDBRANCH  25  26
ENDBRANCH   1  25
TORSDOF 24
ENDMDL
MODEL 2
REMARK VINA RESULT:      -9.9      1.277      2.306
REMARK SMILES Cc1ccc(OCC(=O)N[C@H](C)C(=O)OCCOCCOCCOCCOC(=O)c2ccc(-c3c4nc(c(-c5c(F)cccc5F)c5ccc([nH]5)c(-c5c(F)cccc5F)c5nc(c(-c6c(F)cccc6F)c6ccc3[nH]6)C=C5)C=C4)cc2)c(Br)c1
REMARK SMILES IDX 20 1 19 2 18 3 17 4 16 5 15 6 13 7 14 8 11 9 12 10 10 11
REMARK SMILES IDX 8 12 9 13 7 15 6 16 5 17 1 18 2 19 3 20 86 21 4 22 84 23
REMARK SMILES IDX 85 24 21 25 22 26 23 27 24 28 25 29 26 30 27 31 28 32 29 33
REMARK SMILES IDX 30 34 31 35 83 36 32 37 82 38 33 39 34 40 35 41 76 42 36 43
REMARK SMILES IDX 81 44 75 45 77 46 37 47 80 48 74 49 73 50 38 52 64 53 47 54
REMARK SMILES IDX 63 55 48 56 51 57 62 58 78 59 49 60 50 61 61 63 79 64 52 65
REMARK SMILES IDX 39 66 40 67 45 68 41 69 42 70 44 71 46 72 43 73 65 74 66 75
REMARK SMILES IDX 71 76 67 77 68 78 70 79 72 80 69 81 53 82 54 83 59 84 55 85
REMARK SMILES IDX 56 86 58 87 60 88 57 89
REMARK H PARENT 10 14 77 51 51 62
REMARK Flexibility Score: inf
ROOT
ATOM      1  C   UNL A   1      38.511  21.538  25.595  1.00  0.00     0.188 C 
ENDROOT
BRANCH   1   2
ATOM      2  C   UNL A   1      37.314  21.963  24.719  1.00  0.00     0.188 C 
BRANCH   2   3
ATOM      3  O   UNL A   1      36.410  22.949  25.178  1.00  0.00    -0.376 OA
BRANCH   3   4
ATOM      4  C   UNL A   1      35.261  22.582  25.928  1.00  0.00     0.202 C 
BRANCH   4   5
ATOM      5  C   UNL A   1      34.833  21.123  26.029  1.00  0.00     0.261 C 
BRANCH   5   6
ATOM      6  O   UNL A   1      34.113  20.639  24.881  1.00  0.00    -0.462 OA
BRANCH   6   7
ATOM      7  C   UNL A   1      32.760  20.689  24.978  1.00  0.00     0.328 C 
ATOM      8  O   UNL A   1      32.042  19.706  25.145  1.00  0.00    -0.250 OA
BRANCH   7   9
ATOM      9  C   UNL A   1      32.169  22.070  24.683  1.00  0.00     0.189 C 
ATOM     10  C   UNL A   1      31.765  22.443  23.264  1.00  0.00     0.043 C 
BRANCH   9  11
ATOM     11  N   UNL A   1      31.160  22.460  25.670  1.00  0.00    -0.340 N 
ATOM     12  C   UNL A   1      31.104  23.498  26.544  1.00  0.00     0.258 C 
ATOM     13  O   UNL A   1      30.244  23.439  27.430  1.00  0.00    -0.271 OA
ATOM     14  H   UNL A   1      30.379  21.860  25.706  1.00  0.00     0.164 HD
BRANCH  12  15
ATOM     15  C   UNL A   1      31.977  24.761  26.394  1.00  0.00     0.329 C 
BRANCH  15  16
ATOM     16  O   UNL A   1      31.434  26.051  26.589  1.00  0.00    -0.483 OA
BRANCH  16  17
ATOM     17  C   UNL A   1      30.895  26.720  25.530  1.00  0.00     0.134 A 
ATOM     18  C   UNL A   1      29.138  29.164  22.441  1.00  0.00     0.044 C 
ATOM     19  C   UNL A   1      29.733  28.306  23.511  1.00  0.00    -0.050 A 
ATOM     20  C   UNL A   1      29.354  26.976  23.672  1.00  0.00     0.007 A 
ATOM     21  C   UNL A   1      30.726  28.832  24.336  1.00  0.00     0.023 A 
ATOM     22  C   UNL A   1      29.930  26.191  24.674  1.00  0.00     0.048 A 
ATOM     23  C   UNL A   1      31.333  28.033  25.304  1.00  0.00     0.060 A 
ATOM     24  Br  UNL A   1      32.839  28.776  26.177  1.00  0.00    -0.047 Br
ENDBRANCH  16  17
ENDBRANCH  15  16
ENDBRANCH  12  15
ENDBRANCH   9  11
ENDBRANCH   7   9
ENDBRANCH   6   7
ENDBRANCH   5   6
ENDBRANCH   4   5
ENDBRANCH   3   4
ENDBRANCH   2   3
ENDBRANCH   1   2
BRANCH   1  25
ATOM     25  O   UNL A   1      39.034  20.228  25.492  1.00  0.00    -0.377 OA
BRANCH  25  26
ATOM     26  C   UNL A   1      40.246  19.874  26.149  1.00  0.00     0.188 C 
BRANCH  26  27
ATOM     27  C   UNL A   1      40.869  20.757  27.244  1.00  0.00     0.188 C 
BRANCH  27  28
ATOM     28  O   UNL A   1      42.280  20.716  27.288  1.00  0.00    -0.376 OA
BRANCH  28  29
ATOM     29  C   UNL A   1      42.990  20.417  26.100  1.00  0.00     0.202 C 
BRANCH  29  30
ATOM     30  C   UNL A   1      43.755  21.540  25.382  1.00  0.00     0.261 C 
BRANCH  30  31
ATOM     31  O   UNL A   1      43.053  22.772  25.149  1.00  0.00    -0.460 OA
BRANCH  31  32
ATOM     32  C   UNL A   1      43.764  23.913  25.086  1.00  0.00     0.338 C 
ATOM     33  O   UNL A   1      44.719  24.153  24.360  1.00  0.00    -0.246 OA
BRANCH  32  34
ATOM     34  C   UNL A   1      43.097  24.906  25.952  1.00  0.00     0.060 A 
ATOM     35  C   UNL A   1      43.538  26.237  25.954  1.00  0.00     0.016 A 
ATOM     36  C   UNL A   1      42.051  24.509  26.785  1.00  0.00     0.016 A 
ATOM     37  C   UNL A   1      42.964  27.163  26.830  1.00  0.00     0.010 A 
ATOM     38  C   UNL A   1      41.487  25.432  27.670  1.00  0.00     0.010 A 
ATOM     39  C   UNL A   1      41.969  26.752  27.727  1.00  0.00    -0.014 A 
BRANCH  39  40
ATOM     40  C   UNL A   1      41.571  27.627  28.858  1.00  0.00     0.031 A 
ATOM     41  C   UNL A   1      42.333  27.513  30.150  1.00  0.00     0.074 A 
ATOM     42  C   UNL A   1      40.564  28.512  28.752  1.00  0.00     0.049 A 
ATOM     43  N   UNL A   1      42.118  28.101  31.300  1.00  0.00    -0.248 NA
ATOM     44  C   UNL A   1      43.497  26.612  30.141  1.00  0.00     0.031 C 
ATOM     45  C   UNL A   1      39.798  28.778  27.538  1.00  0.00     0.029 A 
ATOM     46  N   UNL A   1      40.008  29.345  29.691  1.00  0.00    -0.354 N 
ATOM     47  C   UNL A   1      43.117  27.640  32.148  1.00  0.00     0.074 A 
ATOM     48  C   UNL A   1      43.911  26.693  31.396  1.00  0.00     0.031 C 
ATOM     49  C   UNL A   1      38.855  29.698  27.812  1.00  0.00     0.029 A 
ATOM     50  C   UNL A   1      38.927  30.054  29.227  1.00  0.00     0.049 A 
ATOM     51  H   UNL A   1      40.351  29.426  30.611  1.00  0.00     0.167 HD
ATOM     52  C   UNL A   1      43.360  27.986  33.435  1.00  0.00     0.037 A 
ATOM     53  C   UNL A   1      38.081  30.877  29.877  1.00  0.00     0.037 A 
ATOM     54  C   UNL A   1      42.563  28.920  34.185  1.00  0.00     0.049 A 
ATOM     55  C   UNL A   1      38.293  31.147  31.342  1.00  0.00     0.074 A 
ATOM     56  C   UNL A   1      42.727  29.339  35.493  1.00  0.00     0.029 A 
ATOM     57  N   UNL A   1      41.440  29.570  33.695  1.00  0.00    -0.354 N 
ATOM     58  N   UNL A   1      39.243  30.715  32.135  1.00  0.00    -0.248 NA
ATOM     59  C   UNL A   1      37.315  32.026  32.001  1.00  0.00     0.031 C 
ATOM     60  C   UNL A   1      41.669  30.195  35.814  1.00  0.00     0.029 A 
ATOM     61  C   UNL A   1      40.882  30.362  34.686  1.00  0.00     0.049 A 
ATOM     62  H   UNL A   1      41.090  29.481  32.780  1.00  0.00     0.167 HD
ATOM     63  C   UNL A   1      39.003  31.302  33.372  1.00  0.00     0.074 A 
ATOM     64  C   UNL A   1      37.820  32.122  33.222  1.00  0.00     0.031 C 
ATOM     65  C   UNL A   1      39.707  31.180  34.524  1.00  0.00     0.037 A 
BRANCH  52  66
ATOM     66  C   UNL A   1      44.521  27.321  34.118  1.00  0.00     0.057 A 
ATOM     67  C   UNL A   1      45.797  27.900  34.151  1.00  0.00     0.134 A 
ATOM     68  C   UNL A   1      44.358  26.085  34.758  1.00  0.00     0.134 A 
ATOM     69  F   UNL A   1      46.027  29.075  33.543  1.00  0.00    -0.206 F 
ATOM     70  C   UNL A   1      46.874  27.261  34.767  1.00  0.00     0.040 A 
ATOM     71  C   UNL A   1      45.420  25.452  35.406  1.00  0.00     0.040 A 
ATOM     72  F   UNL A   1      43.163  25.476  34.770  1.00  0.00    -0.206 F 
ATOM     73  C   UNL A   1      46.685  26.036  35.403  1.00  0.00     0.006 A 
ENDBRANCH  52  66
BRANCH  53  74
ATOM     74  C   UNL A   1      36.936  31.498  29.164  1.00  0.00     0.057 A 
ATOM     75  C   UNL A   1      35.774  30.772  28.882  1.00  0.00     0.134 A 
ATOM     76  C   UNL A   1      36.997  32.819  28.706  1.00  0.00     0.134 A 
ATOM     77  F   UNL A   1      35.676  29.488  29.253  1.00  0.00    -0.206 F 
ATOM     78  C   UNL A   1      34.715  31.336  28.169  1.00  0.00     0.040 A 
ATOM     79  C   UNL A   1      35.932  33.405  28.017  1.00  0.00     0.040 A 
ATOM     80  F   UNL A   1      38.088  33.565  28.935  1.00  0.00    -0.206 F 
ATOM     81  C   UNL A   1      34.788  32.661  27.743  1.00  0.00     0.006 A 
ENDBRANCH  53  74
BRANCH  65  82
ATOM     82  C   UNL A   1      39.247  31.990  35.702  1.00  0.00     0.057 A 
ATOM     83  C   UNL A   1      39.655  33.315  35.902  1.00  0.00     0.134 A 
ATOM     84  C   UNL A   1      38.349  31.445  36.631  1.00  0.00     0.134 A 
ATOM     85  F   UNL A   1      40.524  33.894  35.060  1.00  0.00    -0.206 F 
ATOM     86  C   UNL A   1      39.207  34.059  36.996  1.00  0.00     0.040 A 
ATOM     87  C   UNL A   1      37.870  32.188  37.710  1.00  0.00     0.040 A 
ATOM     88  F   UNL A   1      37.910  30.184  36.494  1.00  0.00    -0.206 F 
ATOM     89  C   UNL A   1      38.305  33.498  37.899  1.00  0.00     0.006 A 
ENDBRANCH  65  82
ENDBRANCH  39  40
ENDBRANCH  32  34
ENDBRANCH  31  32
ENDBRANCH  30  31
ENDBRANCH  29  30
ENDBRANCH  28  29
ENDBRANCH  27  28
ENDBRANCH  26  27
ENDBRANCH  25  26
ENDBRANCH   1  25
TORSDOF 24
ENDMDL
MODEL 3
REMARK VINA RESULT:      -9.2      2.083      6.956
REMARK SMILES Cc1ccc(OCC(=O)N[C@H](C)C(=O)OCCOCCOCCOCCOC(=O)c2ccc(-c3c4nc(c(-c5c(F)cccc5F)c5ccc([nH]5)c(-c5c(F)cccc5F)c5nc(c(-c6c(F)cccc6F)c6ccc3[nH]6)C=C5)C=C4)cc2)c(Br)c1
REMARK SMILES IDX 20 1 19 2 18 3 17 4 16 5 15 6 13 7 14 8 11 9 12 10 10 11
REMARK SMILES IDX 8 12 9 13 7 15 6 16 5 17 1 18 2 19 3 20 86 21 4 22 84 23
REMARK SMILES IDX 85 24 21 25 22 26 23 27 24 28 25 29 26 30 27 31 28 32 29 33
REMARK SMILES IDX 30 34 31 35 83 36 32 37 82 38 33 39 34 40 35 41 76 42 36 43
REMARK SMILES IDX 81 44 75 45 77 46 37 47 80 48 74 49 73 50 38 52 64 53 47 54
REMARK SMILES IDX 63 55 48 56 51 57 62 58 78 59 49 60 50 61 61 63 79 64 52 65
REMARK SMILES IDX 39 66 40 67 45 68 41 69 42 70 44 71 46 72 43 73 65 74 66 75
REMARK SMILES IDX 71 76 67 77 68 78 70 79 72 80 69 81 53 82 54 83 59 84 55 85
REMARK SMILES IDX 56 86 58 87 60 88 57 89
REMARK H PARENT 10 14 77 51 51 62
REMARK Flexibility Score: inf
ROOT
ATOM      1  C   UNL A   1      35.477  23.628  25.634  1.00  0.00     0.188 C 
ENDROOT
BRANCH   1   2
ATOM      2  C   UNL A   1      34.014  23.985  25.295  1.00  0.00     0.188 C 
BRANCH   2   3
ATOM      3  O   UNL A   1      33.194  24.615  26.260  1.00  0.00    -0.376 OA
BRANCH   3   4
ATOM      4  C   UNL A   1      31.974  24.015  26.673  1.00  0.00     0.202 C 
BRANCH   4   5
ATOM      5  C   UNL A   1      30.714  24.159  25.828  1.00  0.00     0.261 C 
BRANCH   5   6
ATOM      6  O   UNL A   1      30.719  25.300  24.952  1.00  0.00    -0.462 OA
BRANCH   6   7
ATOM      7  C   UNL A   1      30.828  25.020  23.629  1.00  0.00     0.328 C 
ATOM      8  O   UNL A   1      30.350  24.024  23.091  1.00  0.00    -0.250 OA
BRANCH   7   9
ATOM      9  C   UNL A   1      31.760  25.968  22.870  1.00  0.00     0.189 C 
ATOM     10  C   UNL A   1      32.885  25.411  22.011  1.00  0.00     0.043 C 
BRANCH   9  11
ATOM     11  N   UNL A   1      31.026  27.042  22.197  1.00  0.00    -0.340 N 
ATOM     12  C   UNL A   1      30.305  28.086  22.684  1.00  0.00     0.258 C 
ATOM     13  O   UNL A   1      29.589  28.694  21.881  1.00  0.00    -0.271 OA
ATOM     14  H   UNL A   1      31.061  26.999  21.214  1.00  0.00     0.164 HD
BRANCH  12  15
ATOM     15  C   UNL A   1      30.442  28.589  24.136  1.00  0.00     0.329 C 
BRANCH  15  16
ATOM     16  O   UNL A   1      31.278  29.684  24.453  1.00  0.00    -0.483 OA
BRANCH  16  17
ATOM     17  C   UNL A   1      32.257  29.532  25.390  1.00  0.00     0.134 A 
ATOM     18  C   UNL A   1      35.481  29.445  28.253  1.00  0.00     0.044 C 
ATOM     19  C   UNL A   1      34.372  29.462  27.251  1.00  0.00    -0.050 A 
ATOM     20  C   UNL A   1      34.123  28.372  26.422  1.00  0.00     0.007 A 
ATOM     21  C   UNL A   1      33.535  30.574  27.177  1.00  0.00     0.023 A 
ATOM     22  C   UNL A   1      33.075  28.408  25.499  1.00  0.00     0.048 A 
ATOM     23  C   UNL A   1      32.461  30.589  26.288  1.00  0.00     0.060 A 
ATOM     24  Br  UNL A   1      31.250  32.033  26.464  1.00  0.00    -0.047 Br
ENDBRANCH  16  17
ENDBRANCH  15  16
ENDBRANCH  12  15
ENDBRANCH   9  11
ENDBRANCH   7   9
ENDBRANCH   6   7
ENDBRANCH   5   6
ENDBRANCH   4   5
ENDBRANCH   3   4
ENDBRANCH   2   3
ENDBRANCH   1   2
BRANCH   1  25
ATOM     25  O   UNL A   1      35.795  22.345  26.136  1.00  0.00    -0.377 OA
BRANCH  25  26
ATOM     26  C   UNL A   1      36.853  21.582  25.568  1.00  0.00     0.188 C 
BRANCH  26  27
ATOM     27  C   UNL A   1      38.289  22.123  25.471  1.00  0.00     0.188 C 
BRANCH  27  28
ATOM     28  O   UNL A   1      39.130  21.730  26.534  1.00  0.00    -0.376 OA
BRANCH  28  29
ATOM     29  C   UNL A   1      40.450  21.309  26.240  1.00  0.00     0.202 C 
BRANCH  29  30
ATOM     30  C   UNL A   1      41.569  22.358  26.149  1.00  0.00     0.261 C 
BRANCH  30  31
ATOM     31  O   UNL A   1      41.331  23.632  26.769  1.00  0.00    -0.460 OA
BRANCH  31  32
ATOM     32  C   UNL A   1      42.301  24.563  26.716  1.00  0.00     0.338 C 
ATOM     33  O   UNL A   1      43.287  24.566  25.991  1.00  0.00    -0.246 OA
BRANCH  32  34
ATOM     34  C   UNL A   1      41.899  25.682  27.591  1.00  0.00     0.060 A 
ATOM     35  C   UNL A   1      42.751  26.785  27.748  1.00  0.00     0.016 A 
ATOM     36  C   UNL A   1      40.686  25.624  28.279  1.00  0.00     0.016 A 
ATOM     37  C   UNL A   1      42.412  27.809  28.638  1.00  0.00     0.010 A 
ATOM     38  C   UNL A   1      40.356  26.642  29.178  1.00  0.00     0.010 A 
ATOM     39  C   UNL A   1      41.235  27.718  29.393  1.00  0.00    -0.014 A 
BRANCH  39  40
ATOM     40  C   UNL A   1      41.013  28.623  30.548  1.00  0.00     0.031 A 
ATOM     41  C   UNL A   1      39.937  29.670  30.438  1.00  0.00     0.074 A 
ATOM     42  C   UNL A   1      41.737  28.525  31.677  1.00  0.00     0.049 A 
ATOM     43  N   UNL A   1      39.617  30.626  31.272  1.00  0.00    -0.248 NA
ATOM     44  C   UNL A   1      39.110  29.627  29.222  1.00  0.00     0.031 C 
ATOM     45  C   UNL A   1      42.753  27.511  31.943  1.00  0.00     0.029 A 
ATOM     46  N   UNL A   1      41.732  29.302  32.809  1.00  0.00    -0.354 N 
ATOM     47  C   UNL A   1      38.555  31.298  30.680  1.00  0.00     0.074 A 
ATOM     48  C   UNL A   1      38.314  30.668  29.400  1.00  0.00     0.031 C 
ATOM     49  C   UNL A   1      43.289  27.740  33.156  1.00  0.00     0.029 A 
ATOM     50  C   UNL A   1      42.682  28.937  33.731  1.00  0.00     0.049 A 
ATOM     51  H   UNL A   1      41.106  30.050  32.947  1.00  0.00     0.167 HD
ATOM     52  C   UNL A   1      37.835  32.338  31.166  1.00  0.00     0.037 A 
ATOM     53  C   UNL A   1      43.036  29.520  34.894  1.00  0.00     0.037 A 
ATOM     54  C   UNL A   1      38.084  32.970  32.434  1.00  0.00     0.049 A 
ATOM     55  C   UNL A   1      42.307  30.754  35.353  1.00  0.00     0.074 A 
ATOM     56  C   UNL A   1      37.411  34.029  33.018  1.00  0.00     0.029 A 
ATOM     57  N   UNL A   1      39.097  32.609  33.310  1.00  0.00    -0.354 N 
ATOM     58  N   UNL A   1      41.300  31.378  34.793  1.00  0.00    -0.248 NA
ATOM     59  C   UNL A   1      42.764  31.360  36.613  1.00  0.00     0.031 C 
ATOM     60  C   UNL A   1      38.054  34.347  34.218  1.00  0.00     0.029 A 
ATOM     61  C   UNL A   1      39.086  33.445  34.416  1.00  0.00     0.049 A 
ATOM     62  H   UNL A   1      39.729  31.869  33.169  1.00  0.00     0.167 HD
ATOM     63  C   UNL A   1      40.976  32.422  35.651  1.00  0.00     0.074 A 
ATOM     64  C   UNL A   1      41.891  32.344  36.769  1.00  0.00     0.031 C 
ATOM     65  C   UNL A   1      39.999  33.355  35.526  1.00  0.00     0.037 A 
BRANCH  52  66
ATOM     66  C   UNL A   1      36.731  32.874  30.299  1.00  0.00     0.057 A 
ATOM     67  C   UNL A   1      36.980  33.752  29.236  1.00  0.00     0.134 A 
ATOM     68  C   UNL A   1      35.401  32.499  30.528  1.00  0.00     0.134 A 
ATOM     69  F   UNL A   1      38.229  34.165  28.972  1.00  0.00    -0.206 F 
ATOM     70  C   UNL A   1      35.943  34.262  28.452  1.00  0.00     0.040 A 
ATOM     71  C   UNL A   1      34.360  32.977  29.731  1.00  0.00     0.040 A 
ATOM     72  F   UNL A   1      35.092  31.658  31.525  1.00  0.00    -0.206 F 
ATOM     73  C   UNL A   1      34.629  33.869  28.695  1.00  0.00     0.006 A 
ENDBRANCH  52  66
BRANCH  53  74
ATOM     74  C   UNL A   1      44.146  28.964  35.708  1.00  0.00     0.057 A 
ATOM     75  C   UNL A   1      45.466  29.391  35.526  1.00  0.00     0.134 A 
ATOM     76  C   UNL A   1      43.920  27.959  36.655  1.00  0.00     0.134 A 
ATOM     77  F   UNL A   1      45.753  30.318  34.601  1.00  0.00    -0.206 F 
ATOM     78  C   UNL A   1      46.520  28.837  36.255  1.00  0.00     0.040 A 
ATOM     79  C   UNL A   1      44.961  27.417  37.412  1.00  0.00     0.040 A 
ATOM     80  F   UNL A   1      42.678  27.498  36.869  1.00  0.00    -0.206 F 
ATOM     81  C   UNL A   1      46.267  27.853  37.209  1.00  0.00     0.006 A 
ENDBRANCH  53  74
BRANCH  65  82
ATOM     82  C   UNL A   1      39.836  34.337  36.652  1.00  0.00     0.057 A 
ATOM     83  C   UNL A   1      40.370  35.631  36.596  1.00  0.00     0.134 A 
ATOM     84  C   UNL A   1      39.099  33.992  37.792  1.00  0.00     0.134 A 
ATOM     85  F   UNL A   1      41.098  36.022  35.540  1.00  0.00    -0.206 F 
ATOM     86  C   UNL A   1      40.197  36.537  37.645  1.00  0.00     0.040 A 
ATOM     87  C   UNL A   1      38.893  34.898  38.833  1.00  0.00     0.040 A 
ATOM     88  F   UNL A   1      38.553  32.772  37.907  1.00  0.00    -0.206 F 
ATOM     89  C   UNL A   1      39.450  36.174  38.764  1.00  0.00     0.006 A 
ENDBRANCH  65  82
ENDBRANCH  39  40
ENDBRANCH  32  34
ENDBRANCH  31  32
ENDBRANCH  30  31
ENDBRANCH  29  30
ENDBRANCH  28  29
ENDBRANCH  27  28
ENDBRANCH  26  27
ENDBRANCH  25  26
ENDBRANCH   1  25
TORSDOF 24
ENDMDL
