MODEL 1
REMARK VINA RESULT:     -11.5      0.000      0.000
REMARK SMILES C[C@@](NC(=O)[C@H]1COc2ccccc21)(C(=O)OCCOCCOCCOCCOC(=O)c1ccc(-c2c3nc(c(-c4c(F)cccc4F)c4ccc([nH]4)c(-c4c(F)cccc4F)c4nc(c(-c5c(F)cccc5F)c5ccc2[nH]5)C=C4)C=C3)cc1)C(F)(F)F
REMARK SMILES IDX 23 1 22 2 21 3 20 4 19 5 18 6 17 7 15 8 16 9 2 10 1 11 3 12
REMARK SMILES IDX 4 13 5 15 6 16 7 17 14 18 8 19 9 20 13 21 10 22 12 23 11 24
REMARK SMILES IDX 86 25 87 26 88 27 89 28 24 29 25 30 26 31 27 32 28 33 29 34
REMARK SMILES IDX 30 35 31 36 32 37 33 38 85 39 34 40 84 41 35 42 36 43 37 44
REMARK SMILES IDX 78 45 38 46 83 47 77 48 79 49 39 50 82 51 76 52 75 53 40 55
REMARK SMILES IDX 66 56 49 57 65 58 50 59 53 60 64 61 80 62 51 63 52 64 63 66
REMARK SMILES IDX 81 67 54 68 41 69 42 70 47 71 43 72 44 73 46 74 48 75 45 76
REMARK SMILES IDX 67 77 68 78 73 79 69 80 70 81 72 82 74 83 71 84 55 85 56 86
REMARK SMILES IDX 61 87 57 88 58 89 60 90 62 91 59 92
REMARK H PARENT 3 14 79 54 53 65
REMARK Flexibility Score: inf
ROOT
ATOM      1  O   UNL A   1      34.366  34.500  27.966  1.00  0.00    -0.377 OA
ENDROOT
BRANCH   1   2
ATOM      2  C   UNL A   1      35.077  33.279  27.979  1.00  0.00     0.188 C 
BRANCH   2   3
ATOM      3  C   UNL A   1      34.324  31.988  28.473  1.00  0.00     0.188 C 
BRANCH   3   4
ATOM      4  O   UNL A   1      33.438  31.143  27.653  1.00  0.00    -0.376 OA
BRANCH   4   5
ATOM      5  C   UNL A   1      33.685  29.900  26.903  1.00  0.00     0.202 C 
BRANCH   5   6
ATOM      6  C   UNL A   1      33.002  29.343  25.314  1.00  0.00     0.261 C 
BRANCH   6   7
ATOM      7  O   UNL A   1      31.598  27.819  25.285  1.00  0.00    -0.461 OA
BRANCH   7   8
ATOM      8  C   UNL A   1      31.174  26.544  24.830  1.00  0.00     0.341 C 
ATOM      9  O   UNL A   1      30.225  25.888  25.247  1.00  0.00    -0.249 OA
BRANCH   8  10
ATOM     10  C   UNL A   1      31.908  26.228  23.565  1.00  0.00     0.231 C 
ATOM     11  C   UNL A   1      33.407  26.545  23.784  1.00  0.00     0.058 C 
BRANCH  10  12
ATOM     12  N   UNL A   1      31.691  24.807  23.088  1.00  0.00    -0.332 N 
ATOM     13  C   UNL A   1      32.007  23.568  23.592  1.00  0.00     0.232 C 
ATOM     14  H   UNL A   1      31.217  24.760  22.225  1.00  0.00     0.164 HD
ATOM     15  O   UNL A   1      31.601  22.596  22.946  1.00  0.00    -0.274 OA
BRANCH  13  16
ATOM     16  C   UNL A   1      32.831  23.322  24.886  1.00  0.00     0.150 C 
ATOM     17  C   UNL A   1      31.957  21.756  25.796  1.00  0.00     0.248 C 
ATOM     18  C   UNL A   1      34.642  22.786  24.461  1.00  0.00     0.010 A 
ATOM     19  O   UNL A   1      33.362  20.415  25.727  1.00  0.00    -0.492 OA
ATOM     20  C   UNL A   1      34.943  21.131  24.992  1.00  0.00     0.123 A 
ATOM     21  C   UNL A   1      35.656  23.441  23.859  1.00  0.00     0.008 A 
ATOM     22  C   UNL A   1      36.142  20.499  25.016  1.00  0.00     0.047 A 
ATOM     23  C   UNL A   1      36.853  22.659  23.823  1.00  0.00     0.001 A 
ATOM     24  C   UNL A   1      37.091  21.309  24.388  1.00  0.00     0.004 A 
ENDBRANCH  13  16
ENDBRANCH  10  12
BRANCH  10  25
ATOM     25  C   UNL A   1      31.366  27.281  22.582  1.00  0.00     0.422 C 
ATOM     26  F   UNL A   1      30.266  27.929  23.030  1.00  0.00    -0.168 F 
ATOM     27  F   UNL A   1      32.310  28.239  22.387  1.00  0.00    -0.168 F 
ATOM     28  F   UNL A   1      31.082  26.758  21.371  1.00  0.00    -0.168 F 
ENDBRANCH  10  25
ENDBRANCH   8  10
ENDBRANCH   7   8
ENDBRANCH   6   7
ENDBRANCH   5   6
ENDBRANCH   4   5
ENDBRANCH   3   4
ENDBRANCH   2   3
ENDBRANCH   1   2
BRANCH   1  29
ATOM     29  C   UNL A   1      33.240  34.474  28.805  1.00  0.00     0.188 C 
BRANCH  29  30
ATOM     30  C   UNL A   1      33.241  35.574  29.888  1.00  0.00     0.188 C 
BRANCH  30  31
ATOM     31  O   UNL A   1      32.974  35.348  31.271  1.00  0.00    -0.376 OA
BRANCH  31  32
ATOM     32  C   UNL A   1      33.980  35.113  32.240  1.00  0.00     0.202 C 
BRANCH  32  33
ATOM     33  C   UNL A   1      34.377  33.676  32.589  1.00  0.00     0.261 C 
BRANCH  33  34
ATOM     34  O   UNL A   1      35.570  33.208  31.962  1.00  0.00    -0.460 OA
BRANCH  34  35
ATOM     35  C   UNL A   1      36.473  32.649  32.798  1.00  0.00     0.338 C 
ATOM     36  O   UNL A   1      36.528  32.741  34.010  1.00  0.00    -0.246 OA
BRANCH  35  37
ATOM     37  C   UNL A   1      37.295  31.709  32.010  1.00  0.00     0.060 A 
ATOM     38  C   UNL A   1      38.202  30.886  32.697  1.00  0.00     0.016 A 
ATOM     39  C   UNL A   1      37.122  31.585  30.628  1.00  0.00     0.016 A 
ATOM     40  C   UNL A   1      38.944  29.939  32.013  1.00  0.00     0.010 A 
ATOM     41  C   UNL A   1      37.936  30.702  29.924  1.00  0.00     0.010 A 
ATOM     42  C   UNL A   1      38.880  29.923  30.618  1.00  0.00    -0.014 A 
BRANCH  42  43
ATOM     43  C   UNL A   1      40.077  29.437  29.911  1.00  0.00     0.031 A 
ATOM     44  C   UNL A   1      41.206  30.419  29.763  1.00  0.00     0.074 A 
ATOM     45  C   UNL A   1      40.186  28.168  29.500  1.00  0.00     0.049 A 
ATOM     46  N   UNL A   1      42.358  30.282  29.168  1.00  0.00    -0.248 NA
ATOM     47  C   UNL A   1      40.999  31.746  30.374  1.00  0.00     0.031 C 
ATOM     48  C   UNL A   1      39.183  27.124  29.687  1.00  0.00     0.029 A 
ATOM     49  N   UNL A   1      41.210  27.549  28.837  1.00  0.00    -0.354 N 
ATOM     50  C   UNL A   1      43.001  31.505  29.320  1.00  0.00     0.074 A 
ATOM     51  C   UNL A   1      42.106  32.381  30.034  1.00  0.00     0.031 C 
ATOM     52  C   UNL A   1      39.639  25.986  29.132  1.00  0.00     0.029 A 
ATOM     53  C   UNL A   1      40.945  26.240  28.527  1.00  0.00     0.049 A 
ATOM     54  H   UNL A   1      42.055  27.998  28.607  1.00  0.00     0.167 HD
ATOM     55  C   UNL A   1      44.235  31.862  28.902  1.00  0.00     0.037 A 
ATOM     56  C   UNL A   1      41.676  25.369  27.809  1.00  0.00     0.037 A 
ATOM     57  C   UNL A   1      45.105  30.977  28.181  1.00  0.00     0.049 A 
ATOM     58  C   UNL A   1      43.007  25.818  27.264  1.00  0.00     0.074 A 
ATOM     59  C   UNL A   1      46.374  31.222  27.694  1.00  0.00     0.029 A 
ATOM     60  N   UNL A   1      44.779  29.674  27.830  1.00  0.00    -0.354 N 
ATOM     61  N   UNL A   1      43.613  26.974  27.400  1.00  0.00    -0.248 NA
ATOM     62  C   UNL A   1      43.756  24.839  26.467  1.00  0.00     0.031 C 
ATOM     63  C   UNL A   1      46.790  30.088  26.990  1.00  0.00     0.029 A 
ATOM     64  C   UNL A   1      45.813  29.109  27.106  1.00  0.00     0.049 A 
ATOM     65  H   UNL A   1      43.937  29.220  28.063  1.00  0.00     0.167 HD
ATOM     66  C   UNL A   1      44.831  26.850  26.743  1.00  0.00     0.074 A 
ATOM     67  C   UNL A   1      44.876  25.501  26.212  1.00  0.00     0.031 C 
ATOM     68  C   UNL A   1      45.829  27.759  26.596  1.00  0.00     0.037 A 
BRANCH  55  69
ATOM     69  C   UNL A   1      44.660  33.279  29.161  1.00  0.00     0.057 A 
ATOM     70  C   UNL A   1      45.224  33.685  30.379  1.00  0.00     0.134 A 
ATOM     71  C   UNL A   1      44.465  34.263  28.184  1.00  0.00     0.134 A 
ATOM     72  F   UNL A   1      45.412  32.800  31.371  1.00  0.00    -0.206 F 
ATOM     73  C   UNL A   1      45.540  35.022  30.629  1.00  0.00     0.040 A 
ATOM     74  C   UNL A   1      44.811  35.596  28.409  1.00  0.00     0.040 A 
ATOM     75  F   UNL A   1      43.924  33.947  26.998  1.00  0.00    -0.206 F 
ATOM     76  C   UNL A   1      45.338  35.981  29.638  1.00  0.00     0.006 A 
ENDBRANCH  55  69
BRANCH  56  77
ATOM     77  C   UNL A   1      41.166  23.997  27.569  1.00  0.00     0.057 A 
ATOM     78  C   UNL A   1      40.144  23.755  26.645  1.00  0.00     0.134 A 
ATOM     79  C   UNL A   1      41.690  22.892  28.253  1.00  0.00     0.134 A 
ATOM     80  F   UNL A   1      39.591  24.773  25.970  1.00  0.00    -0.206 F 
ATOM     81  C   UNL A   1      39.652  22.469  26.418  1.00  0.00     0.040 A 
ATOM     82  C   UNL A   1      41.226  21.598  28.019  1.00  0.00     0.040 A 
ATOM     83  F   UNL A   1      42.675  23.055  29.150  1.00  0.00    -0.206 F 
ATOM     84  C   UNL A   1      40.198  21.384  27.102  1.00  0.00     0.006 A 
ENDBRANCH  56  77
BRANCH  68  85
ATOM     85  C   UNL A   1      47.072  27.307  25.886  1.00  0.00     0.057 A 
ATOM     86  C   UNL A   1      47.255  27.486  24.510  1.00  0.00     0.134 A 
ATOM     87  C   UNL A   1      48.122  26.721  26.608  1.00  0.00     0.134 A 
ATOM     88  F   UNL A   1      46.287  28.034  23.760  1.00  0.00    -0.206 F 
ATOM     89  C   UNL A   1      48.424  27.067  23.871  1.00  0.00     0.040 A 
ATOM     90  C   UNL A   1      49.307  26.331  25.986  1.00  0.00     0.040 A 
ATOM     91  F   UNL A   1      48.017  26.533  27.932  1.00  0.00    -0.206 F 
ATOM     92  C   UNL A   1      49.457  26.496  24.611  1.00  0.00     0.006 A 
ENDBRANCH  68  85
ENDBRANCH  42  43
ENDBRANCH  35  37
ENDBRANCH  34  35
ENDBRANCH  33  34
ENDBRANCH  32  33
ENDBRANCH  31  32
ENDBRANCH  30  31
ENDBRANCH  29  30
ENDBRANCH   1  29
TORSDOF 23
ENDMDL
MODEL 2
REMARK VINA RESULT:     -11.4      3.319      8.660
REMARK SMILES C[C@@](NC(=O)[C@H]1COc2ccccc21)(C(=O)OCCOCCOCCOCCOC(=O)c1ccc(-c2c3nc(c(-c4c(F)cccc4F)c4ccc([nH]4)c(-c4c(F)cccc4F)c4nc(c(-c5c(F)cccc5F)c5ccc2[nH]5)C=C4)C=C3)cc1)C(F)(F)F
REMARK SMILES IDX 23 1 22 2 21 3 20 4 19 5 18 6 17 7 15 8 16 9 2 10 1 11 3 12
REMARK SMILES IDX 4 13 5 15 6 16 7 17 14 18 8 19 9 20 13 21 10 22 12 23 11 24
REMARK SMILES IDX 86 25 87 26 88 27 89 28 24 29 25 30 26 31 27 32 28 33 29 34
REMARK SMILES IDX 30 35 31 36 32 37 33 38 85 39 34 40 84 41 35 42 36 43 37 44
REMARK SMILES IDX 78 45 38 46 83 47 77 48 79 49 39 50 82 51 76 52 75 53 40 55
REMARK SMILES IDX 66 56 49 57 65 58 50 59 53 60 64 61 80 62 51 63 52 64 63 66
REMARK SMILES IDX 81 67 54 68 41 69 42 70 47 71 43 72 44 73 46 74 48 75 45 76
REMARK SMILES IDX 67 77 68 78 73 79 69 80 70 81 72 82 74 83 71 84 55 85 56 86
REMARK SMILES IDX 61 87 57 88 58 89 60 90 62 91 59 92
REMARK H PARENT 3 14 79 54 53 65
REMARK Flexibility Score: inf
ROOT
ATOM      1  O   UNL A   1      33.357  20.880  25.897  1.00  0.00    -0.377 OA
ENDROOT
BRANCH   1   2
ATOM      2  C   UNL A   1      33.862  21.206  27.176  1.00  0.00     0.188 C 
BRANCH   2   3
ATOM      3  C   UNL A   1      33.450  22.589  27.806  1.00  0.00     0.188 C 
BRANCH   3   4
ATOM      4  O   UNL A   1      32.112  23.202  27.733  1.00  0.00    -0.376 OA
BRANCH   4   5
ATOM      5  C   UNL A   1      31.348  23.760  26.605  1.00  0.00     0.202 C 
BRANCH   5   6
ATOM      6  C   UNL A   1      30.725  22.946  25.104  1.00  0.00     0.261 C 
BRANCH   6   7
ATOM      7  O   UNL A   1      31.773  23.143  23.327  1.00  0.00    -0.461 OA
BRANCH   7   8
ATOM      8  C   UNL A   1      32.744  23.811  22.538  1.00  0.00     0.341 C 
ATOM      9  O   UNL A   1      33.403  23.338  21.618  1.00  0.00    -0.249 OA
BRANCH   8  10
ATOM     10  C   UNL A   1      32.654  25.278  22.825  1.00  0.00     0.231 C 
ATOM     11  C   UNL A   1      33.024  26.047  21.534  1.00  0.00     0.058 C 
BRANCH  10  12
ATOM     12  N   UNL A   1      31.304  25.697  23.371  1.00  0.00    -0.332 N 
ATOM     13  C   UNL A   1      30.685  26.908  23.567  1.00  0.00     0.232 C 
ATOM     14  H   UNL A   1      30.746  24.933  23.644  1.00  0.00     0.164 HD
ATOM     15  O   UNL A   1      29.521  26.866  23.980  1.00  0.00    -0.274 OA
BRANCH  13  16
ATOM     16  C   UNL A   1      31.345  28.293  23.316  1.00  0.00     0.150 C 
ATOM     17  C   UNL A   1      29.854  29.507  22.730  1.00  0.00     0.248 C 
ATOM     18  C   UNL A   1      32.055  29.027  24.961  1.00  0.00     0.010 A 
ATOM     19  O   UNL A   1      29.799  30.805  24.176  1.00  0.00    -0.492 OA
ATOM     20  C   UNL A   1      31.187  30.494  25.414  1.00  0.00     0.123 A 
ATOM     21  C   UNL A   1      33.055  28.621  25.769  1.00  0.00     0.008 A 
ATOM     22  C   UNL A   1      31.527  31.358  26.401  1.00  0.00     0.047 A 
ATOM     23  C   UNL A   1      33.273  29.531  26.851  1.00  0.00     0.001 A 
ATOM     24  C   UNL A   1      32.589  30.817  27.127  1.00  0.00     0.004 A 
ENDBRANCH  13  16
ENDBRANCH  10  12
BRANCH  10  25
ATOM     25  C   UNL A   1      33.802  25.502  23.826  1.00  0.00     0.422 C 
ATOM     26  F   UNL A   1      34.392  26.713  23.714  1.00  0.00    -0.168 F 
ATOM     27  F   UNL A   1      33.310  25.442  25.092  1.00  0.00    -0.168 F 
ATOM     28  F   UNL A   1      34.760  24.556  23.732  1.00  0.00    -0.168 F 
ENDBRANCH  10  25
ENDBRANCH   8  10
ENDBRANCH   7   8
ENDBRANCH   6   7
ENDBRANCH   5   6
ENDBRANCH   4   5
ENDBRANCH   3   4
ENDBRANCH   2   3
ENDBRANCH   1   2
BRANCH   1  29
ATOM     29  C   UNL A   1      34.273  21.164  24.871  1.00  0.00     0.188 C 
BRANCH  29  30
ATOM     30  C   UNL A   1      35.599  20.381  24.982  1.00  0.00     0.188 C 
BRANCH  30  31
ATOM     31  O   UNL A   1      36.885  20.921  24.683  1.00  0.00    -0.376 OA
BRANCH  31  32
ATOM     32  C   UNL A   1      38.104  20.265  24.982  1.00  0.00     0.202 C 
BRANCH  32  33
ATOM     33  C   UNL A   1      39.171  20.986  25.811  1.00  0.00     0.261 C 
BRANCH  33  34
ATOM     34  O   UNL A   1      40.003  20.136  26.598  1.00  0.00    -0.460 OA
BRANCH  34  35
ATOM     35  C   UNL A   1      41.290  20.059  26.190  1.00  0.00     0.338 C 
ATOM     36  O   UNL A   1      41.787  19.247  25.432  1.00  0.00    -0.246 OA
BRANCH  35  37
ATOM     37  C   UNL A   1      41.984  21.274  26.660  1.00  0.00     0.060 A 
ATOM     38  C   UNL A   1      42.011  21.527  28.042  1.00  0.00     0.016 A 
ATOM     39  C   UNL A   1      42.661  22.109  25.767  1.00  0.00     0.016 A 
ATOM     40  C   UNL A   1      42.709  22.614  28.540  1.00  0.00     0.010 A 
ATOM     41  C   UNL A   1      43.282  23.255  26.255  1.00  0.00     0.010 A 
ATOM     42  C   UNL A   1      43.254  23.527  27.635  1.00  0.00    -0.014 A 
BRANCH  42  43
ATOM     43  C   UNL A   1      43.380  24.918  28.101  1.00  0.00     0.031 A 
ATOM     44  C   UNL A   1      44.777  25.403  28.375  1.00  0.00     0.074 A 
ATOM     45  C   UNL A   1      42.320  25.730  28.193  1.00  0.00     0.049 A 
ATOM     46  N   UNL A   1      45.186  26.560  28.818  1.00  0.00    -0.248 NA
ATOM     47  C   UNL A   1      45.864  24.442  28.111  1.00  0.00     0.031 C 
ATOM     48  C   UNL A   1      40.945  25.374  27.856  1.00  0.00     0.029 A 
ATOM     49  N   UNL A   1      42.250  27.034  28.600  1.00  0.00    -0.354 N 
ATOM     50  C   UNL A   1      46.570  26.456  28.900  1.00  0.00     0.074 A 
ATOM     51  C   UNL A   1      46.930  25.120  28.492  1.00  0.00     0.031 C 
ATOM     52  C   UNL A   1      40.156  26.440  28.086  1.00  0.00     0.029 A 
ATOM     53  C   UNL A   1      40.972  27.530  28.618  1.00  0.00     0.049 A 
ATOM     54  H   UNL A   1      43.039  27.565  28.854  1.00  0.00     0.167 HD
ATOM     55  C   UNL A   1      47.462  27.396  29.280  1.00  0.00     0.037 A 
ATOM     56  C   UNL A   1      40.527  28.726  29.046  1.00  0.00     0.037 A 
ATOM     57  C   UNL A   1      47.079  28.716  29.696  1.00  0.00     0.049 A 
ATOM     58  C   UNL A   1      41.527  29.727  29.561  1.00  0.00     0.074 A 
ATOM     59  C   UNL A   1      47.885  29.757  30.113  1.00  0.00     0.029 A 
ATOM     60  N   UNL A   1      45.768  29.167  29.759  1.00  0.00    -0.354 N 
ATOM     61  N   UNL A   1      42.833  29.628  29.647  1.00  0.00    -0.248 NA
ATOM     62  C   UNL A   1      40.990  31.007  30.039  1.00  0.00     0.031 C 
ATOM     63  C   UNL A   1      47.056  30.816  30.494  1.00  0.00     0.029 A 
ATOM     64  C   UNL A   1      45.738  30.464  30.238  1.00  0.00     0.049 A 
ATOM     65  H   UNL A   1      44.976  28.641  29.501  1.00  0.00     0.167 HD
ATOM     66  C   UNL A   1      43.279  30.846  30.148  1.00  0.00     0.074 A 
ATOM     67  C   UNL A   1      42.099  31.667  30.342  1.00  0.00     0.031 C 
ATOM     68  C   UNL A   1      44.545  31.257  30.415  1.00  0.00     0.037 A 
BRANCH  55  69
ATOM     69  C   UNL A   1      48.907  26.991  29.324  1.00  0.00     0.057 A 
ATOM     70  C   UNL A   1      49.507  26.469  30.479  1.00  0.00     0.134 A 
ATOM     71  C   UNL A   1      49.721  27.164  28.199  1.00  0.00     0.134 A 
ATOM     72  F   UNL A   1      48.792  26.305  31.603  1.00  0.00    -0.206 F 
ATOM     73  C   UNL A   1      50.871  26.172  30.524  1.00  0.00     0.040 A 
ATOM     74  C   UNL A   1      51.077  26.836  28.220  1.00  0.00     0.040 A 
ATOM     75  F   UNL A   1      49.216  27.665  27.062  1.00  0.00    -0.206 F 
ATOM     76  C   UNL A   1      51.659  26.351  29.388  1.00  0.00     0.006 A 
ENDBRANCH  55  69
BRANCH  56  77
ATOM     77  C   UNL A   1      39.077  29.034  29.002  1.00  0.00     0.057 A 
ATOM     78  C   UNL A   1      38.269  28.879  30.133  1.00  0.00     0.134 A 
ATOM     79  C   UNL A   1      38.463  29.496  27.831  1.00  0.00     0.134 A 
ATOM     80  F   UNL A   1      38.795  28.425  31.280  1.00  0.00    -0.206 F 
ATOM     81  C   UNL A   1      36.902  29.158  30.100  1.00  0.00     0.040 A 
ATOM     82  C   UNL A   1      37.103  29.803  27.789  1.00  0.00     0.040 A 
ATOM     83  F   UNL A   1      39.182  29.671  26.711  1.00  0.00    -0.206 F 
ATOM     84  C   UNL A   1      36.316  29.629  28.926  1.00  0.00     0.006 A 
ENDBRANCH  56  77
BRANCH  68  85
ATOM     85  C   UNL A   1      44.723  32.670  30.888  1.00  0.00     0.057 A 
ATOM     86  C   UNL A   1      44.870  33.744  30.002  1.00  0.00     0.134 A 
ATOM     87  C   UNL A   1      44.702  32.962  32.260  1.00  0.00     0.134 A 
ATOM     88  F   UNL A   1      44.906  33.534  28.678  1.00  0.00    -0.206 F 
ATOM     89  C   UNL A   1      45.025  35.053  30.464  1.00  0.00     0.040 A 
ATOM     90  C   UNL A   1      44.819  34.269  32.731  1.00  0.00     0.040 A 
ATOM     91  F   UNL A   1      44.550  31.981  33.163  1.00  0.00    -0.206 F 
ATOM     92  C   UNL A   1      44.990  35.318  31.832  1.00  0.00     0.006 A 
ENDBRANCH  68  85
ENDBRANCH  42  43
ENDBRANCH  35  37
ENDBRANCH  34  35
ENDBRANCH  33  34
ENDBRANCH  32  33
ENDBRANCH  31  32
ENDBRANCH  30  31
ENDBRANCH  29  30
ENDBRANCH   1  29
TORSDOF 23
ENDMDL
MODEL 3
REMARK VINA RESULT:     -10.9      3.220      8.801
REMARK SMILES C[C@@](NC(=O)[C@H]1COc2ccccc21)(C(=O)OCCOCCOCCOCCOC(=O)c1ccc(-c2c3nc(c(-c4c(F)cccc4F)c4ccc([nH]4)c(-c4c(F)cccc4F)c4nc(c(-c5c(F)cccc5F)c5ccc2[nH]5)C=C4)C=C3)cc1)C(F)(F)F
REMARK SMILES IDX 23 1 22 2 21 3 20 4 19 5 18 6 17 7 15 8 16 9 2 10 1 11 3 12
REMARK SMILES IDX 4 13 5 15 6 16 7 17 14 18 8 19 9 20 13 21 10 22 12 23 11 24
REMARK SMILES IDX 86 25 87 26 88 27 89 28 24 29 25 30 26 31 27 32 28 33 29 34
REMARK SMILES IDX 30 35 31 36 32 37 33 38 85 39 34 40 84 41 35 42 36 43 37 44
REMARK SMILES IDX 78 45 38 46 83 47 77 48 79 49 39 50 82 51 76 52 75 53 40 55
REMARK SMILES IDX 66 56 49 57 65 58 50 59 53 60 64 61 80 62 51 63 52 64 63 66
REMARK SMILES IDX 81 67 54 68 41 69 42 70 47 71 43 72 44 73 46 74 48 75 45 76
REMARK SMILES IDX 67 77 68 78 73 79 69 80 70 81 72 82 74 83 71 84 55 85 56 86
REMARK SMILES IDX 61 87 57 88 58 89 60 90 62 91 59 92
REMARK H PARENT 3 14 79 54 53 65
REMARK Flexibility Score: inf
ROOT
ATOM      1  O   UNL A   1      33.799  21.895  25.041  1.00  0.00    -0.377 OA
ENDROOT
BRANCH   1   2
ATOM      2  C   UNL A   1      33.629  21.301  26.312  1.00  0.00     0.188 C 
BRANCH   2   3
ATOM      3  C   UNL A   1      33.298  22.240  27.532  1.00  0.00     0.188 C 
BRANCH   3   4
ATOM      4  O   UNL A   1      32.061  23.022  27.704  1.00  0.00    -0.376 OA
BRANCH   4   5
ATOM      5  C   UNL A   1      31.315  23.896  26.782  1.00  0.00     0.202 C 
BRANCH   5   6
ATOM      6  C   UNL A   1      30.609  23.533  25.148  1.00  0.00     0.261 C 
BRANCH   6   7
ATOM      7  O   UNL A   1      31.842  23.528  23.482  1.00  0.00    -0.461 OA
BRANCH   7   8
ATOM      8  C   UNL A   1      32.751  24.195  22.621  1.00  0.00     0.341 C 
ATOM      9  O   UNL A   1      33.425  23.695  21.726  1.00  0.00    -0.249 OA
BRANCH   8  10
ATOM     10  C   UNL A   1      32.566  25.670  22.795  1.00  0.00     0.231 C 
ATOM     11  C   UNL A   1      33.066  26.374  21.510  1.00  0.00     0.058 C 
BRANCH  10  12
ATOM     12  N   UNL A   1      31.142  26.057  23.138  1.00  0.00    -0.332 N 
ATOM     13  C   UNL A   1      30.462  27.249  23.198  1.00  0.00     0.232 C 
ATOM     14  H   UNL A   1      30.579  25.283  23.369  1.00  0.00     0.164 HD
ATOM     15  O   UNL A   1      29.255  27.176  23.455  1.00  0.00    -0.274 OA
BRANCH  13  16
ATOM     16  C   UNL A   1      31.101  28.648  22.976  1.00  0.00     0.150 C 
ATOM     17  C   UNL A   1      29.635  29.803  22.228  1.00  0.00     0.248 C 
ATOM     18  C   UNL A   1      31.635  29.438  24.660  1.00  0.00     0.010 A 
ATOM     19  O   UNL A   1      29.411  31.128  23.632  1.00  0.00    -0.492 OA
ATOM     20  C   UNL A   1      30.687  30.886  24.998  1.00  0.00     0.123 A 
ATOM     21  C   UNL A   1      32.569  29.080  25.566  1.00  0.00     0.008 A 
ATOM     22  C   UNL A   1      30.910  31.781  25.991  1.00  0.00     0.047 A 
ATOM     23  C   UNL A   1      32.660  30.018  26.642  1.00  0.00     0.001 A 
ATOM     24  C   UNL A   1      31.917  31.288  26.824  1.00  0.00     0.004 A 
ENDBRANCH  13  16
ENDBRANCH  10  12
BRANCH  10  25
ATOM     25  C   UNL A   1      33.568  26.012  23.913  1.00  0.00     0.422 C 
ATOM     26  F   UNL A   1      33.015  26.048  25.146  1.00  0.00    -0.168 F 
ATOM     27  F   UNL A   1      34.528  25.051  23.962  1.00  0.00    -0.168 F 
ATOM     28  F   UNL A   1      34.198  27.186  23.699  1.00  0.00    -0.168 F 
ENDBRANCH  10  25
ENDBRANCH   8  10
ENDBRANCH   7   8
ENDBRANCH   6   7
ENDBRANCH   5   6
ENDBRANCH   4   5
ENDBRANCH   3   4
ENDBRANCH   2   3
ENDBRANCH   1   2
BRANCH   1  29
ATOM     29  C   UNL A   1      35.135  21.867  24.610  1.00  0.00     0.188 C 
BRANCH  29  30
ATOM     30  C   UNL A   1      35.911  20.610  25.059  1.00  0.00     0.188 C 
BRANCH  30  31
ATOM     31  O   UNL A   1      37.216  20.258  24.603  1.00  0.00    -0.376 OA
BRANCH  31  32
ATOM     32  C   UNL A   1      38.134  19.490  25.360  1.00  0.00     0.202 C 
BRANCH  32  33
ATOM     33  C   UNL A   1      39.637  19.753  25.224  1.00  0.00     0.261 C 
BRANCH  33  34
ATOM     34  O   UNL A   1      40.371  19.711  26.446  1.00  0.00    -0.460 OA
BRANCH  34  35
ATOM     35  C   UNL A   1      41.692  19.453  26.310  1.00  0.00     0.338 C 
ATOM     36  O   UNL A   1      42.216  18.459  25.843  1.00  0.00    -0.246 OA
BRANCH  35  37
ATOM     37  C   UNL A   1      42.428  20.690  26.640  1.00  0.00     0.060 A 
ATOM     38  C   UNL A   1      42.341  21.181  27.953  1.00  0.00     0.016 A 
ATOM     39  C   UNL A   1      43.248  21.314  25.696  1.00  0.00     0.016 A 
ATOM     40  C   UNL A   1      43.068  22.297  28.332  1.00  0.00     0.010 A 
ATOM     41  C   UNL A   1      43.905  22.491  26.046  1.00  0.00     0.010 A 
ATOM     42  C   UNL A   1      43.765  23.003  27.349  1.00  0.00    -0.014 A 
BRANCH  42  43
ATOM     43  C   UNL A   1      43.950  24.445  27.583  1.00  0.00     0.031 A 
ATOM     44  C   UNL A   1      45.350  24.970  27.421  1.00  0.00     0.074 A 
ATOM     45  C   UNL A   1      42.917  25.256  27.841  1.00  0.00     0.049 A 
ATOM     46  N   UNL A   1      45.812  26.178  27.590  1.00  0.00    -0.248 NA
ATOM     47  C   UNL A   1      46.371  23.987  27.010  1.00  0.00     0.031 C 
ATOM     48  C   UNL A   1      41.517  24.851  27.921  1.00  0.00     0.029 A 
ATOM     49  N   UNL A   1      42.901  26.602  28.081  1.00  0.00    -0.354 N 
ATOM     50  C   UNL A   1      47.174  26.093  27.322  1.00  0.00     0.074 A 
ATOM     51  C   UNL A   1      47.471  24.717  27.010  1.00  0.00     0.031 C 
ATOM     52  C   UNL A   1      40.771  25.933  28.209  1.00  0.00     0.029 A 
ATOM     53  C   UNL A   1      41.652  27.089  28.366  1.00  0.00     0.049 A 
ATOM     54  H   UNL A   1      43.707  27.167  28.051  1.00  0.00     0.167 HD
ATOM     55  C   UNL A   1      48.095  27.081  27.334  1.00  0.00     0.037 A 
ATOM     56  C   UNL A   1      41.284  28.329  28.736  1.00  0.00     0.037 A 
ATOM     57  C   UNL A   1      47.779  28.442  27.661  1.00  0.00     0.049 A 
ATOM     58  C   UNL A   1      42.342  29.396  28.841  1.00  0.00     0.074 A 
ATOM     59  C   UNL A   1      48.622  29.534  27.717  1.00  0.00     0.029 A 
ATOM     60  N   UNL A   1      46.511  28.891  28.003  1.00  0.00    -0.354 N 
ATOM     61  N   UNL A   1      43.629  29.317  28.597  1.00  0.00    -0.248 NA
ATOM     62  C   UNL A   1      41.894  30.726  29.272  1.00  0.00     0.031 C 
ATOM     63  C   UNL A   1      47.876  30.631  28.160  1.00  0.00     0.029 A 
ATOM     64  C   UNL A   1      46.552  30.241  28.302  1.00  0.00     0.049 A 
ATOM     65  H   UNL A   1      45.701  28.331  28.029  1.00  0.00     0.167 HD
ATOM     66  C   UNL A   1      44.139  30.594  28.804  1.00  0.00     0.074 A 
ATOM     67  C   UNL A   1      43.017  31.427  29.190  1.00  0.00     0.031 C 
ATOM     68  C   UNL A   1      45.414  31.043  28.678  1.00  0.00     0.037 A 
BRANCH  55  69
ATOM     69  C   UNL A   1      49.518  26.693  27.053  1.00  0.00     0.057 A 
ATOM     70  C   UNL A   1      50.036  26.624  25.752  1.00  0.00     0.134 A 
ATOM     71  C   UNL A   1      50.373  26.342  28.105  1.00  0.00     0.134 A 
ATOM     72  F   UNL A   1      49.263  26.918  24.694  1.00  0.00    -0.206 F 
ATOM     73  C   UNL A   1      51.338  26.185  25.506  1.00  0.00     0.040 A 
ATOM     74  C   UNL A   1      51.688  25.937  27.874  1.00  0.00     0.040 A 
ATOM     75  F   UNL A   1      49.942  26.377  29.374  1.00  0.00    -0.206 F 
ATOM     76  C   UNL A   1      52.170  25.845  26.571  1.00  0.00     0.006 A 
ENDBRANCH  55  69
BRANCH  56  77
ATOM     77  C   UNL A   1      39.860  28.621  29.031  1.00  0.00     0.057 A 
ATOM     78  C   UNL A   1      39.009  29.142  28.049  1.00  0.00     0.134 A 
ATOM     79  C   UNL A   1      39.312  28.384  30.298  1.00  0.00     0.134 A 
ATOM     80  F   UNL A   1      39.479  29.406  26.821  1.00  0.00    -0.206 F 
ATOM     81  C   UNL A   1      37.670  29.428  28.319  1.00  0.00     0.040 A 
ATOM     82  C   UNL A   1      37.969  28.640  30.575  1.00  0.00     0.040 A 
ATOM     83  F   UNL A   1      40.073  27.881  31.282  1.00  0.00    -0.206 F 
ATOM     84  C   UNL A   1      37.145  29.171  29.584  1.00  0.00     0.006 A 
ENDBRANCH  56  77
BRANCH  68  85
ATOM     85  C   UNL A   1      45.651  32.509  28.903  1.00  0.00     0.057 A 
ATOM     86  C   UNL A   1      46.022  33.025  30.150  1.00  0.00     0.134 A 
ATOM     87  C   UNL A   1      45.547  33.411  27.834  1.00  0.00     0.134 A 
ATOM     88  F   UNL A   1      46.131  32.218  31.216  1.00  0.00    -0.206 F 
ATOM     89  C   UNL A   1      46.246  34.391  30.335  1.00  0.00     0.040 A 
ATOM     90  C   UNL A   1      45.804  34.772  27.998  1.00  0.00     0.040 A 
ATOM     91  F   UNL A   1      45.210  32.980  26.609  1.00  0.00    -0.206 F 
ATOM     92  C   UNL A   1      46.146  35.266  29.254  1.00  0.00     0.006 A 
ENDBRANCH  68  85
ENDBRANCH  42  43
ENDBRANCH  35  37
ENDBRANCH  34  35
ENDBRANCH  33  34
ENDBRANCH  32  33
ENDBRANCH  31  32
ENDBRANCH  30  31
ENDBRANCH  29  30
ENDBRANCH   1  29
TORSDOF 23
ENDMDL
