MODEL 1
REMARK VINA RESULT:     -10.5      0.000      0.000
REMARK SMILES CC1(C)Cc2c(c(N3CCOCC3)nc3sc(C(=O)OCCOCCOCCOCCOC(=O)c4ccc(-c5c6nc(c(-c7c(F)cccc7F)c7ccc([nH]7)c(-c7c(F)cccc7F)c7nc(c(-c8c(F)cccc8F)c8ccc5[nH]8)C=C7)C=C6)cc4)c(N)c23)CS1
REMARK SMILES IDX 27 1 26 2 25 3 24 4 23 5 22 6 21 7 20 8 18 9 19 10 17 11
REMARK SMILES IDX 1 12 2 13 3 14 4 15 93 16 5 17 92 18 6 19 91 20 7 21 15 22
REMARK SMILES IDX 89 23 14 24 16 25 8 26 9 27 13 28 10 29 12 30 11 31 90 32
REMARK SMILES IDX 28 35 29 36 30 37 31 38 32 39 33 40 34 41 35 42 36 43 88 44
REMARK SMILES IDX 37 45 87 46 38 47 39 48 40 49 81 50 41 51 86 52 80 53 82 54
REMARK SMILES IDX 42 55 85 56 79 57 78 58 43 60 69 61 52 62 68 63 53 64 56 65
REMARK SMILES IDX 67 66 83 67 54 68 55 69 66 71 84 72 57 73 44 74 45 75 50 76
REMARK SMILES IDX 46 77 47 78 49 79 51 80 48 81 70 82 71 83 76 84 72 85 73 86
REMARK SMILES IDX 75 87 77 88 74 89 58 90 59 91 64 92 60 93 61 94 63 95 65 96
REMARK SMILES IDX 62 97
REMARK H PARENT 90 33 90 34 82 59 56 70
REMARK Flexibility Score: inf
ROOT
ATOM      1  C   UNL A   1      43.227  26.220  25.361  1.00  0.00     0.188 C 
ENDROOT
BRANCH   1   2
ATOM      2  O   UNL A   1      41.931  26.774  25.554  1.00  0.00    -0.377 OA
BRANCH   2   3
ATOM      3  C   UNL A   1      40.833  25.947  25.918  1.00  0.00     0.188 C 
BRANCH   3   4
ATOM      4  C   UNL A   1      40.051  26.185  27.229  1.00  0.00     0.188 C 
BRANCH   4   5
ATOM      5  O   UNL A   1      40.243  25.181  28.203  1.00  0.00    -0.376 OA
BRANCH   5   6
ATOM      6  C   UNL A   1      41.427  24.423  28.233  1.00  0.00     0.202 C 
BRANCH   6   7
ATOM      7  C   UNL A   1      41.356  22.909  27.992  1.00  0.00     0.261 C 
BRANCH   7   8
ATOM      8  O   UNL A   1      40.142  22.403  27.427  1.00  0.00    -0.459 OA
BRANCH   8   9
ATOM      9  C   UNL A   1      40.207  21.896  26.164  1.00  0.00     0.350 C 
ATOM     10  O   UNL A   1      41.253  21.642  25.584  1.00  0.00    -0.245 OA
BRANCH   9  11
ATOM     11  C   UNL A   1      38.881  21.503  25.727  1.00  0.00     0.138 A 
ATOM     12  C   UNL A   1      33.097  25.231  24.631  1.00  0.00     0.023 C 
ATOM     13  C   UNL A   1      33.399  23.762  24.292  1.00  0.00     0.015 C 
ATOM     14  C   UNL A   1      33.167  23.547  22.788  1.00  0.00     0.023 C 
ATOM     15  C   UNL A   1      34.838  23.411  24.716  1.00  0.00     0.054 C 
ATOM     16  S   UNL A   1      32.254  22.755  25.284  1.00  0.00    -0.150 SA
ATOM     17  C   UNL A   1      35.258  21.954  24.783  1.00  0.00    -0.027 A 
ATOM     18  C   UNL A   1      32.818  21.135  24.742  1.00  0.00     0.109 C 
ATOM     19  C   UNL A   1      34.312  20.897  24.703  1.00  0.00     0.009 A 
ATOM     20  C   UNL A   1      36.610  21.582  25.069  1.00  0.00     0.039 A 
ATOM     21  C   UNL A   1      34.754  19.558  24.684  1.00  0.00     0.134 A 
ATOM     22  C   UNL A   1      36.890  20.220  25.091  1.00  0.00     0.128 A 
ATOM     23  C   UNL A   1      37.808  22.321  25.413  1.00  0.00     0.067 A 
ATOM     24  N   UNL A   1      36.034  19.214  24.863  1.00  0.00    -0.220 NA
ATOM     25  S   UNL A   1      38.502  19.858  25.492  1.00  0.00    -0.106 S 
BRANCH  21  26
ATOM     26  N   UNL A   1      33.857  18.523  24.611  1.00  0.00    -0.352 N 
ATOM     27  C   UNL A   1      32.808  18.257  25.591  1.00  0.00     0.146 C 
ATOM     28  C   UNL A   1      33.712  17.794  23.354  1.00  0.00     0.146 C 
ATOM     29  C   UNL A   1      32.770  16.738  25.853  1.00  0.00     0.181 C 
ATOM     30  C   UNL A   1      33.695  16.297  23.705  1.00  0.00     0.181 C 
ATOM     31  O   UNL A   1      32.634  15.985  24.632  1.00  0.00    -0.378 OA
ENDBRANCH  21  26
BRANCH  23  32
ATOM     32  N   UNL A   1      37.901  23.671  25.446  1.00  0.00    -0.397 N 
ATOM     33  H   UNL A   1      37.099  24.215  25.621  1.00  0.00     0.156 HD
ATOM     34  H   UNL A   1      38.769  24.109  25.295  1.00  0.00     0.156 HD
ENDBRANCH  23  32
ENDBRANCH   9  11
ENDBRANCH   8   9
ENDBRANCH   7   8
ENDBRANCH   6   7
ENDBRANCH   5   6
ENDBRANCH   4   5
ENDBRANCH   3   4
ENDBRANCH   2   3
ENDBRANCH   1   2
BRANCH   1  35
ATOM     35  C   UNL A   1      44.517  26.951  25.824  1.00  0.00     0.188 C 
BRANCH  35  36
ATOM     36  O   UNL A   1      45.616  26.122  26.153  1.00  0.00    -0.376 OA
BRANCH  36  37
ATOM     37  C   UNL A   1      45.580  25.078  27.100  1.00  0.00     0.202 C 
BRANCH  37  38
ATOM     38  C   UNL A   1      46.468  25.110  28.337  1.00  0.00     0.261 C 
BRANCH  38  39
ATOM     39  O   UNL A   1      45.786  25.450  29.520  1.00  0.00    -0.460 OA
BRANCH  39  40
ATOM     40  C   UNL A   1      45.798  26.767  29.792  1.00  0.00     0.338 C 
ATOM     41  O   UNL A   1      46.747  27.526  29.761  1.00  0.00    -0.246 OA
BRANCH  40  42
ATOM     42  C   UNL A   1      44.453  27.131  30.234  1.00  0.00     0.060 A 
ATOM     43  C   UNL A   1      43.447  27.002  29.281  1.00  0.00     0.016 A 
ATOM     44  C   UNL A   1      44.338  27.950  31.368  1.00  0.00     0.016 A 
ATOM     45  C   UNL A   1      42.462  27.952  29.289  1.00  0.00     0.010 A 
ATOM     46  C   UNL A   1      43.367  28.910  31.363  1.00  0.00     0.010 A 
ATOM     47  C   UNL A   1      42.529  28.962  30.257  1.00  0.00    -0.014 A 
BRANCH  47  48
ATOM     48  C   UNL A   1      41.663  30.098  30.092  1.00  0.00     0.031 A 
ATOM     49  C   UNL A   1      42.427  31.322  29.833  1.00  0.00     0.074 A 
ATOM     50  C   UNL A   1      40.323  29.982  30.129  1.00  0.00     0.049 A 
ATOM     51  N   UNL A   1      42.648  32.282  30.662  1.00  0.00    -0.248 NA
ATOM     52  C   UNL A   1      43.219  31.389  28.594  1.00  0.00     0.031 C 
ATOM     53  C   UNL A   1      39.527  28.749  30.099  1.00  0.00     0.029 A 
ATOM     54  N   UNL A   1      39.379  30.960  30.104  1.00  0.00    -0.354 N 
ATOM     55  C   UNL A   1      43.393  33.202  29.942  1.00  0.00     0.074 A 
ATOM     56  C   UNL A   1      43.910  32.513  28.789  1.00  0.00     0.031 C 
ATOM     57  C   UNL A   1      38.239  29.057  29.816  1.00  0.00     0.029 A 
ATOM     58  C   UNL A   1      38.100  30.502  29.807  1.00  0.00     0.049 A 
ATOM     59  H   UNL A   1      39.583  31.907  30.278  1.00  0.00     0.167 HD
ATOM     60  C   UNL A   1      43.226  34.530  30.162  1.00  0.00     0.037 A 
ATOM     61  C   UNL A   1      37.038  31.289  29.513  1.00  0.00     0.037 A 
ATOM     62  C   UNL A   1      42.491  34.779  31.373  1.00  0.00     0.049 A 
ATOM     63  C   UNL A   1      37.309  32.632  30.081  1.00  0.00     0.074 A 
ATOM     64  C   UNL A   1      42.774  34.839  32.719  1.00  0.00     0.029 A 
ATOM     65  N   UNL A   1      41.138  34.605  31.245  1.00  0.00    -0.354 N 
ATOM     66  N   UNL A   1      37.384  32.867  31.362  1.00  0.00    -0.248 NA
ATOM     67  C   UNL A   1      37.857  33.677  29.222  1.00  0.00     0.031 C 
ATOM     68  C   UNL A   1      41.544  34.596  33.401  1.00  0.00     0.029 A 
ATOM     69  C   UNL A   1      40.533  34.426  32.461  1.00  0.00     0.049 A 
ATOM     70  H   UNL A   1      40.660  34.609  30.385  1.00  0.00     0.167 HD
ATOM     71  C   UNL A   1      38.340  33.858  31.472  1.00  0.00     0.074 A 
ATOM     72  C   UNL A   1      38.461  34.434  30.140  1.00  0.00     0.031 C 
ATOM     73  C   UNL A   1      39.190  33.898  32.536  1.00  0.00     0.037 A 
BRANCH  60  74
ATOM     74  C   UNL A   1      43.290  35.547  29.060  1.00  0.00     0.057 A 
ATOM     75  C   UNL A   1      44.294  36.523  29.074  1.00  0.00     0.134 A 
ATOM     76  C   UNL A   1      42.246  35.758  28.134  1.00  0.00     0.134 A 
ATOM     77  F   UNL A   1      45.300  36.459  29.957  1.00  0.00    -0.206 F 
ATOM     78  C   UNL A   1      44.260  37.632  28.218  1.00  0.00     0.040 A 
ATOM     79  C   UNL A   1      42.234  36.824  27.236  1.00  0.00     0.040 A 
ATOM     80  F   UNL A   1      41.140  35.001  28.124  1.00  0.00    -0.206 F 
ATOM     81  C   UNL A   1      43.236  37.778  27.288  1.00  0.00     0.006 A 
ENDBRANCH  60  74
BRANCH  61  82
ATOM     82  C   UNL A   1      35.986  31.077  28.494  1.00  0.00     0.057 A 
ATOM     83  C   UNL A   1      36.056  29.985  27.617  1.00  0.00     0.134 A 
ATOM     84  C   UNL A   1      34.746  31.732  28.571  1.00  0.00     0.134 A 
ATOM     85  F   UNL A   1      37.193  29.284  27.493  1.00  0.00    -0.206 F 
ATOM     86  C   UNL A   1      34.939  29.528  26.907  1.00  0.00     0.040 A 
ATOM     87  C   UNL A   1      33.623  31.288  27.863  1.00  0.00     0.040 A 
ATOM     88  F   UNL A   1      34.554  32.759  29.412  1.00  0.00    -0.206 F 
ATOM     89  C   UNL A   1      33.712  30.168  27.046  1.00  0.00     0.006 A 
ENDBRANCH  61  82
BRANCH  73  90
ATOM     90  C   UNL A   1      38.759  33.214  33.794  1.00  0.00     0.057 A 
ATOM     91  C   UNL A   1      37.858  33.750  34.724  1.00  0.00     0.134 A 
ATOM     92  C   UNL A   1      39.221  31.915  34.030  1.00  0.00     0.134 A 
ATOM     93  F   UNL A   1      37.317  34.963  34.543  1.00  0.00    -0.206 F 
ATOM     94  C   UNL A   1      37.455  33.029  35.853  1.00  0.00     0.040 A 
ATOM     95  C   UNL A   1      38.804  31.173  35.135  1.00  0.00     0.040 A 
ATOM     96  F   UNL A   1      40.062  31.331  33.162  1.00  0.00    -0.206 F 
ATOM     97  C   UNL A   1      37.923  31.733  36.056  1.00  0.00     0.006 A 
ENDBRANCH  73  90
ENDBRANCH  47  48
ENDBRANCH  40  42
ENDBRANCH  39  40
ENDBRANCH  38  39
ENDBRANCH  37  38
ENDBRANCH  36  37
ENDBRANCH  35  36
ENDBRANCH   1  35
TORSDOF 22
ENDMDL
MODEL 2
REMARK VINA RESULT:     -10.2      1.492      2.739
REMARK SMILES CC1(C)Cc2c(c(N3CCOCC3)nc3sc(C(=O)OCCOCCOCCOCCOC(=O)c4ccc(-c5c6nc(c(-c7c(F)cccc7F)c7ccc([nH]7)c(-c7c(F)cccc7F)c7nc(c(-c8c(F)cccc8F)c8ccc5[nH]8)C=C7)C=C6)cc4)c(N)c23)CS1
REMARK SMILES IDX 27 1 26 2 25 3 24 4 23 5 22 6 21 7 20 8 18 9 19 10 17 11
REMARK SMILES IDX 1 12 2 13 3 14 4 15 93 16 5 17 92 18 6 19 91 20 7 21 15 22
REMARK SMILES IDX 89 23 14 24 16 25 8 26 9 27 13 28 10 29 12 30 11 31 90 32
REMARK SMILES IDX 28 35 29 36 30 37 31 38 32 39 33 40 34 41 35 42 36 43 88 44
REMARK SMILES IDX 37 45 87 46 38 47 39 48 40 49 81 50 41 51 86 52 80 53 82 54
REMARK SMILES IDX 42 55 85 56 79 57 78 58 43 60 69 61 52 62 68 63 53 64 56 65
REMARK SMILES IDX 67 66 83 67 54 68 55 69 66 71 84 72 57 73 44 74 45 75 50 76
REMARK SMILES IDX 46 77 47 78 49 79 51 80 48 81 70 82 71 83 76 84 72 85 73 86
REMARK SMILES IDX 75 87 77 88 74 89 58 90 59 91 64 92 60 93 61 94 63 95 65 96
REMARK SMILES IDX 62 97
REMARK H PARENT 90 33 90 34 82 59 56 70
REMARK Flexibility Score: inf
ROOT
ATOM      1  C   UNL A   1      43.081  26.888  25.455  1.00  0.00     0.188 C 
ENDROOT
BRANCH   1   2
ATOM      2  O   UNL A   1      41.824  27.105  26.084  1.00  0.00    -0.377 OA
BRANCH   2   3
ATOM      3  C   UNL A   1      40.841  26.079  26.120  1.00  0.00     0.188 C 
BRANCH   3   4
ATOM      4  C   UNL A   1      39.858  25.952  27.305  1.00  0.00     0.188 C 
BRANCH   4   5
ATOM      5  O   UNL A   1      40.279  25.049  28.307  1.00  0.00    -0.376 OA
BRANCH   5   6
ATOM      6  C   UNL A   1      41.308  24.124  28.057  1.00  0.00     0.202 C 
BRANCH   6   7
ATOM      7  C   UNL A   1      40.985  22.825  27.306  1.00  0.00     0.261 C 
BRANCH   7   8
ATOM      8  O   UNL A   1      39.607  22.581  27.005  1.00  0.00    -0.459 OA
BRANCH   8   9
ATOM      9  C   UNL A   1      39.338  21.787  25.930  1.00  0.00     0.350 C 
ATOM     10  O   UNL A   1      40.170  21.083  25.376  1.00  0.00    -0.245 OA
BRANCH   9  11
ATOM     11  C   UNL A   1      37.905  21.738  25.708  1.00  0.00     0.138 A 
ATOM     12  C   UNL A   1      33.749  16.576  23.558  1.00  0.00     0.023 C 
ATOM     13  C   UNL A   1      33.386  17.957  24.127  1.00  0.00     0.015 C 
ATOM     14  C   UNL A   1      32.472  17.762  25.347  1.00  0.00     0.023 C 
ATOM     15  C   UNL A   1      34.670  18.732  24.480  1.00  0.00     0.054 C 
ATOM     16  S   UNL A   1      32.528  18.856  22.799  1.00  0.00    -0.150 SA
ATOM     17  C   UNL A   1      34.587  20.223  24.750  1.00  0.00    -0.027 A 
ATOM     18  C   UNL A   1      32.251  20.398  23.685  1.00  0.00     0.109 C 
ATOM     19  C   UNL A   1      33.416  20.974  24.458  1.00  0.00     0.009 A 
ATOM     20  C   UNL A   1      35.731  20.966  25.183  1.00  0.00     0.039 A 
ATOM     21  C   UNL A   1      33.353  22.339  24.804  1.00  0.00     0.134 A 
ATOM     22  C   UNL A   1      35.541  22.323  25.417  1.00  0.00     0.128 A 
ATOM     23  C   UNL A   1      37.126  20.636  25.395  1.00  0.00     0.067 A 
ATOM     24  N   UNL A   1      34.399  23.014  25.293  1.00  0.00    -0.220 NA
ATOM     25  S   UNL A   1      36.958  23.144  25.875  1.00  0.00    -0.106 S 
BRANCH  21  26
ATOM     26  N   UNL A   1      32.234  23.083  24.527  1.00  0.00    -0.352 N 
ATOM     27  C   UNL A   1      31.937  23.695  23.235  1.00  0.00     0.146 C 
ATOM     28  C   UNL A   1      31.105  23.042  25.453  1.00  0.00     0.146 C 
ATOM     29  C   UNL A   1      31.401  25.118  23.490  1.00  0.00     0.181 C 
ATOM     30  C   UNL A   1      30.643  24.495  25.658  1.00  0.00     0.181 C 
ATOM     31  O   UNL A   1      30.289  25.117  24.406  1.00  0.00    -0.378 OA
ENDBRANCH  21  26
BRANCH  23  32
ATOM     32  N   UNL A   1      37.651  19.393  25.292  1.00  0.00    -0.397 N 
ATOM     33  H   UNL A   1      38.614  19.251  25.443  1.00  0.00     0.156 HD
ATOM     34  H   UNL A   1      37.071  18.630  25.065  1.00  0.00     0.156 HD
ENDBRANCH  23  32
ENDBRANCH   9  11
ENDBRANCH   8   9
ENDBRANCH   7   8
ENDBRANCH   6   7
ENDBRANCH   5   6
ENDBRANCH   4   5
ENDBRANCH   3   4
ENDBRANCH   2   3
ENDBRANCH   1   2
BRANCH   1  35
ATOM     35  C   UNL A   1      44.302  27.816  25.702  1.00  0.00     0.188 C 
BRANCH  35  36
ATOM     36  O   UNL A   1      45.574  27.199  25.642  1.00  0.00    -0.376 OA
BRANCH  36  37
ATOM     37  C   UNL A   1      45.892  25.955  26.225  1.00  0.00     0.202 C 
BRANCH  37  38
ATOM     38  C   UNL A   1      46.472  25.874  27.631  1.00  0.00     0.261 C 
BRANCH  38  39
ATOM     39  O   UNL A   1      45.501  25.785  28.645  1.00  0.00    -0.460 OA
BRANCH  39  40
ATOM     40  C   UNL A   1      45.706  26.632  29.668  1.00  0.00     0.338 C 
ATOM     41  O   UNL A   1      46.768  26.968  30.156  1.00  0.00    -0.246 OA
BRANCH  40  42
ATOM     42  C   UNL A   1      44.393  27.028  30.175  1.00  0.00     0.060 A 
ATOM     43  C   UNL A   1      43.335  26.900  29.279  1.00  0.00     0.016 A 
ATOM     44  C   UNL A   1      44.353  27.868  31.298  1.00  0.00     0.016 A 
ATOM     45  C   UNL A   1      42.368  27.867  29.322  1.00  0.00     0.010 A 
ATOM     46  C   UNL A   1      43.399  28.845  31.328  1.00  0.00     0.010 A 
ATOM     47  C   UNL A   1      42.505  28.893  30.267  1.00  0.00    -0.014 A 
BRANCH  47  48
ATOM     48  C   UNL A   1      41.650  30.041  30.127  1.00  0.00     0.031 A 
ATOM     49  C   UNL A   1      42.426  31.263  29.895  1.00  0.00     0.074 A 
ATOM     50  C   UNL A   1      40.309  29.938  30.163  1.00  0.00     0.049 A 
ATOM     51  N   UNL A   1      42.658  32.202  30.745  1.00  0.00    -0.248 NA
ATOM     52  C   UNL A   1      43.218  31.348  28.657  1.00  0.00     0.031 C 
ATOM     53  C   UNL A   1      39.500  28.714  30.107  1.00  0.00     0.029 A 
ATOM     54  N   UNL A   1      39.375  30.926  30.160  1.00  0.00    -0.354 N 
ATOM     55  C   UNL A   1      43.412  33.129  30.044  1.00  0.00     0.074 A 
ATOM     56  C   UNL A   1      43.920  32.461  28.875  1.00  0.00     0.031 C 
ATOM     57  C   UNL A   1      38.215  29.042  29.832  1.00  0.00     0.029 A 
ATOM     58  C   UNL A   1      38.091  30.488  29.855  1.00  0.00     0.049 A 
ATOM     59  H   UNL A   1      39.589  31.867  30.356  1.00  0.00     0.167 HD
ATOM     60  C   UNL A   1      43.258  34.454  30.293  1.00  0.00     0.037 A 
ATOM     61  C   UNL A   1      37.037  31.292  29.579  1.00  0.00     0.037 A 
ATOM     62  C   UNL A   1      42.528  34.684  31.510  1.00  0.00     0.049 A 
ATOM     63  C   UNL A   1      37.322  32.619  30.176  1.00  0.00     0.074 A 
ATOM     64  C   UNL A   1      42.812  34.711  32.856  1.00  0.00     0.029 A 
ATOM     65  N   UNL A   1      41.173  34.527  31.380  1.00  0.00    -0.354 N 
ATOM     66  N   UNL A   1      37.401  32.826  31.462  1.00  0.00    -0.248 NA
ATOM     67  C   UNL A   1      37.881  33.678  29.339  1.00  0.00     0.031 C 
ATOM     68  C   UNL A   1      41.580  34.467  33.535  1.00  0.00     0.029 A 
ATOM     69  C   UNL A   1      40.566  34.328  32.592  1.00  0.00     0.049 A 
ATOM     70  H   UNL A   1      40.693  34.554  30.520  1.00  0.00     0.167 HD
ATOM     71  C   UNL A   1      38.367  33.804  31.593  1.00  0.00     0.074 A 
ATOM     72  C   UNL A   1      38.493  34.408  30.274  1.00  0.00     0.031 C 
ATOM     73  C   UNL A   1      39.218  33.811  32.656  1.00  0.00     0.037 A 
BRANCH  60  74
ATOM     74  C   UNL A   1      43.332  35.494  29.213  1.00  0.00     0.057 A 
ATOM     75  C   UNL A   1      42.275  35.630  28.306  1.00  0.00     0.134 A 
ATOM     76  C   UNL A   1      44.517  36.184  28.878  1.00  0.00     0.134 A 
ATOM     77  F   UNL A   1      41.124  34.967  28.491  1.00  0.00    -0.206 F 
ATOM     78  C   UNL A   1      42.389  36.405  27.145  1.00  0.00     0.040 A 
ATOM     79  C   UNL A   1      44.622  37.007  27.757  1.00  0.00     0.040 A 
ATOM     80  F   UNL A   1      45.658  36.014  29.560  1.00  0.00    -0.206 F 
ATOM     81  C   UNL A   1      43.560  37.105  26.874  1.00  0.00     0.006 A 
ENDBRANCH  60  74
BRANCH  61  82
ATOM     82  C   UNL A   1      35.983  31.114  28.556  1.00  0.00     0.057 A 
ATOM     83  C   UNL A   1      36.142  30.174  27.527  1.00  0.00     0.134 A 
ATOM     84  C   UNL A   1      34.681  31.607  28.749  1.00  0.00     0.134 A 
ATOM     85  F   UNL A   1      37.344  29.630  27.284  1.00  0.00    -0.206 F 
ATOM     86  C   UNL A   1      35.059  29.703  26.775  1.00  0.00     0.040 A 
ATOM     87  C   UNL A   1      33.592  31.148  28.001  1.00  0.00     0.040 A 
ATOM     88  F   UNL A   1      34.407  32.474  29.734  1.00  0.00    -0.206 F 
ATOM     89  C   UNL A   1      33.775  30.175  27.027  1.00  0.00     0.006 A 
ENDBRANCH  61  82
BRANCH  73  90
ATOM     90  C   UNL A   1      38.781  33.105  33.900  1.00  0.00     0.057 A 
ATOM     91  C   UNL A   1      37.887  33.630  34.842  1.00  0.00     0.134 A 
ATOM     92  C   UNL A   1      39.229  31.796  34.107  1.00  0.00     0.134 A 
ATOM     93  F   UNL A   1      37.359  34.853  34.690  1.00  0.00    -0.206 F 
ATOM     94  C   UNL A   1      37.477  32.889  35.956  1.00  0.00     0.040 A 
ATOM     95  C   UNL A   1      38.805  31.035  35.195  1.00  0.00     0.040 A 
ATOM     96  F   UNL A   1      40.063  31.222  33.225  1.00  0.00    -0.206 F 
ATOM     97  C   UNL A   1      37.932  31.584  36.129  1.00  0.00     0.006 A 
ENDBRANCH  73  90
ENDBRANCH  47  48
ENDBRANCH  40  42
ENDBRANCH  39  40
ENDBRANCH  38  39
ENDBRANCH  37  38
ENDBRANCH  36  37
ENDBRANCH  35  36
ENDBRANCH   1  35
TORSDOF 22
ENDMDL
MODEL 3
REMARK VINA RESULT:     -10.2      4.579     11.628
REMARK SMILES CC1(C)Cc2c(c(N3CCOCC3)nc3sc(C(=O)OCCOCCOCCOCCOC(=O)c4ccc(-c5c6nc(c(-c7c(F)cccc7F)c7ccc([nH]7)c(-c7c(F)cccc7F)c7nc(c(-c8c(F)cccc8F)c8ccc5[nH]8)C=C7)C=C6)cc4)c(N)c23)CS1
REMARK SMILES IDX 27 1 26 2 25 3 24 4 23 5 22 6 21 7 20 8 18 9 19 10 17 11
REMARK SMILES IDX 1 12 2 13 3 14 4 15 93 16 5 17 92 18 6 19 91 20 7 21 15 22
REMARK SMILES IDX 89 23 14 24 16 25 8 26 9 27 13 28 10 29 12 30 11 31 90 32
REMARK SMILES IDX 28 35 29 36 30 37 31 38 32 39 33 40 34 41 35 42 36 43 88 44
REMARK SMILES IDX 37 45 87 46 38 47 39 48 40 49 81 50 41 51 86 52 80 53 82 54
REMARK SMILES IDX 42 55 85 56 79 57 78 58 43 60 69 61 52 62 68 63 53 64 56 65
REMARK SMILES IDX 67 66 83 67 54 68 55 69 66 71 84 72 57 73 44 74 45 75 50 76
REMARK SMILES IDX 46 77 47 78 49 79 51 80 48 81 70 82 71 83 76 84 72 85 73 86
REMARK SMILES IDX 75 87 77 88 74 89 58 90 59 91 64 92 60 93 61 94 63 95 65 96
REMARK SMILES IDX 62 97
REMARK H PARENT 90 33 90 34 82 59 56 70
REMARK Flexibility Score: inf
ROOT
ATOM      1  C   UNL A   1      34.909  23.906  23.657  1.00  0.00     0.188 C 
ENDROOT
BRANCH   1   2
ATOM      2  O   UNL A   1      34.225  24.625  22.637  1.00  0.00    -0.377 OA
BRANCH   2   3
ATOM      3  C   UNL A   1      33.172  25.523  22.962  1.00  0.00     0.188 C 
BRANCH   3   4
ATOM      4  C   UNL A   1      33.425  26.771  23.838  1.00  0.00     0.188 C 
BRANCH   4   5
ATOM      5  O   UNL A   1      33.124  27.993  23.197  1.00  0.00    -0.376 OA
BRANCH   5   6
ATOM      6  C   UNL A   1      32.032  28.775  23.613  1.00  0.00     0.202 C 
BRANCH   6   7
ATOM      7  C   UNL A   1      31.941  29.222  25.079  1.00  0.00     0.261 C 
BRANCH   7   8
ATOM      8  O   UNL A   1      33.080  29.903  25.616  1.00  0.00    -0.459 OA
BRANCH   8   9
ATOM      9  C   UNL A   1      32.889  30.630  26.753  1.00  0.00     0.350 C 
ATOM     10  O   UNL A   1      31.797  30.813  27.272  1.00  0.00    -0.245 OA
BRANCH   9  11
ATOM     11  C   UNL A   1      34.173  30.942  27.353  1.00  0.00     0.138 A 
ATOM     12  C   UNL A   1      39.634  26.906  28.911  1.00  0.00     0.023 C 
ATOM     13  C   UNL A   1      39.509  28.439  28.925  1.00  0.00     0.015 C 
ATOM     14  C   UNL A   1      40.604  29.030  28.022  1.00  0.00     0.023 C 
ATOM     15  C   UNL A   1      38.095  28.853  28.473  1.00  0.00     0.054 C 
ATOM     16  S   UNL A   1      39.728  28.961  30.653  1.00  0.00    -0.150 SA
ATOM     17  C   UNL A   1      37.627  30.276  28.711  1.00  0.00    -0.027 A 
ATOM     18  C   UNL A   1      39.511  30.729  30.405  1.00  0.00     0.109 C 
ATOM     19  C   UNL A   1      38.348  31.173  29.546  1.00  0.00     0.009 A 
ATOM     20  C   UNL A   1      36.365  30.737  28.217  1.00  0.00     0.039 A 
ATOM     21  C   UNL A   1      37.923  32.511  29.671  1.00  0.00     0.134 A 
ATOM     22  C   UNL A   1      36.041  32.064  28.478  1.00  0.00     0.128 A 
ATOM     23  C   UNL A   1      35.263  30.104  27.522  1.00  0.00     0.067 A 
ATOM     24  N   UNL A   1      36.786  32.966  29.133  1.00  0.00    -0.220 NA
ATOM     25  S   UNL A   1      34.505  32.518  27.908  1.00  0.00    -0.106 S 
BRANCH  21  26
ATOM     26  N   UNL A   1      38.603  33.392  30.474  1.00  0.00    -0.352 N 
ATOM     27  C   UNL A   1      39.682  34.267  30.025  1.00  0.00     0.146 C 
ATOM     28  C   UNL A   1      38.059  33.723  31.788  1.00  0.00     0.146 C 
ATOM     29  C   UNL A   1      40.797  34.239  31.090  1.00  0.00     0.181 C 
ATOM     30  C   UNL A   1      39.229  33.660  32.784  1.00  0.00     0.181 C 
ATOM     31  O   UNL A   1      40.295  34.555  32.403  1.00  0.00    -0.378 OA
ENDBRANCH  21  26
BRANCH  23  32
ATOM     32  N   UNL A   1      35.260  28.825  27.080  1.00  0.00    -0.397 N 
ATOM     33  H   UNL A   1      35.981  28.506  26.490  1.00  0.00     0.156 HD
ATOM     34  H   UNL A   1      34.536  28.213  27.348  1.00  0.00     0.156 HD
ENDBRANCH  23  32
ENDBRANCH   9  11
ENDBRANCH   8   9
ENDBRANCH   7   8
ENDBRANCH   6   7
ENDBRANCH   5   6
ENDBRANCH   4   5
ENDBRANCH   3   4
ENDBRANCH   2   3
ENDBRANCH   1   2
BRANCH   1  35
ATOM     35  C   UNL A   1      35.731  22.623  23.355  1.00  0.00     0.188 C 
BRANCH  35  36
ATOM     36  O   UNL A   1      37.033  22.576  23.909  1.00  0.00    -0.376 OA
BRANCH  36  37
ATOM     37  C   UNL A   1      37.359  22.953  25.228  1.00  0.00     0.202 C 
BRANCH  37  38
ATOM     38  C   UNL A   1      38.120  22.009  26.149  1.00  0.00     0.261 C 
BRANCH  38  39
ATOM     39  O   UNL A   1      39.407  21.676  25.686  1.00  0.00    -0.460 OA
BRANCH  39  40
ATOM     40  C   UNL A   1      40.351  21.703  26.643  1.00  0.00     0.338 C 
ATOM     41  O   UNL A   1      40.380  21.067  27.679  1.00  0.00    -0.246 OA
BRANCH  40  42
ATOM     42  C   UNL A   1      41.326  22.724  26.263  1.00  0.00     0.060 A 
ATOM     43  C   UNL A   1      42.605  22.260  25.969  1.00  0.00     0.016 A 
ATOM     44  C   UNL A   1      41.053  24.053  26.623  1.00  0.00     0.016 A 
ATOM     45  C   UNL A   1      43.654  23.046  26.364  1.00  0.00     0.010 A 
ATOM     46  C   UNL A   1      42.100  24.827  27.036  1.00  0.00     0.010 A 
ATOM     47  C   UNL A   1      43.364  24.254  27.011  1.00  0.00    -0.014 A 
BRANCH  47  48
ATOM     48  C   UNL A   1      44.451  24.934  27.662  1.00  0.00     0.031 A 
ATOM     49  C   UNL A   1      44.365  24.807  29.121  1.00  0.00     0.074 A 
ATOM     50  C   UNL A   1      45.424  25.549  26.967  1.00  0.00     0.049 A 
ATOM     51  N   UNL A   1      43.997  25.718  29.953  1.00  0.00    -0.248 NA
ATOM     52  C   UNL A   1      44.486  23.460  29.702  1.00  0.00     0.031 C 
ATOM     53  C   UNL A   1      45.697  25.454  25.528  1.00  0.00     0.029 A 
ATOM     54  N   UNL A   1      46.445  26.322  27.425  1.00  0.00    -0.354 N 
ATOM     55  C   UNL A   1      44.103  25.119  31.197  1.00  0.00     0.074 A 
ATOM     56  C   UNL A   1      44.169  23.699  30.975  1.00  0.00     0.031 C 
ATOM     57  C   UNL A   1      46.936  25.939  25.277  1.00  0.00     0.029 A 
ATOM     58  C   UNL A   1      47.465  26.517  26.500  1.00  0.00     0.049 A 
ATOM     59  H   UNL A   1      46.461  26.708  28.331  1.00  0.00     0.167 HD
ATOM     60  C   UNL A   1      44.488  25.852  32.272  1.00  0.00     0.037 A 
ATOM     61  C   UNL A   1      48.675  27.059  26.774  1.00  0.00     0.037 A 
ATOM     62  C   UNL A   1      44.429  27.263  32.001  1.00  0.00     0.049 A 
ATOM     63  C   UNL A   1      48.528  27.873  28.004  1.00  0.00     0.074 A 
ATOM     64  C   UNL A   1      43.459  28.239  31.987  1.00  0.00     0.029 A 
ATOM     65  N   UNL A   1      45.491  27.730  31.271  1.00  0.00    -0.354 N 
ATOM     66  N   UNL A   1      47.804  28.957  28.066  1.00  0.00    -0.248 NA
ATOM     67  C   UNL A   1      48.901  27.298  29.294  1.00  0.00     0.031 C 
ATOM     68  C   UNL A   1      43.942  29.278  31.137  1.00  0.00     0.029 A 
ATOM     69  C   UNL A   1      45.207  28.931  30.675  1.00  0.00     0.049 A 
ATOM     70  H   UNL A   1      46.352  27.261  31.185  1.00  0.00     0.167 HD
ATOM     71  C   UNL A   1      47.293  28.954  29.349  1.00  0.00     0.074 A 
ATOM     72  C   UNL A   1      48.129  28.029  30.101  1.00  0.00     0.031 C 
ATOM     73  C   UNL A   1      46.043  29.429  29.607  1.00  0.00     0.037 A 
BRANCH  60  74
ATOM     74  C   UNL A   1      45.363  25.297  33.358  1.00  0.00     0.057 A 
ATOM     75  C   UNL A   1      46.722  25.071  33.108  1.00  0.00     0.134 A 
ATOM     76  C   UNL A   1      44.860  24.736  34.552  1.00  0.00     0.134 A 
ATOM     77  F   UNL A   1      47.291  25.503  31.973  1.00  0.00    -0.206 F 
ATOM     78  C   UNL A   1      47.525  24.338  33.990  1.00  0.00     0.040 A 
ATOM     79  C   UNL A   1      45.664  24.056  35.466  1.00  0.00     0.040 A 
ATOM     80  F   UNL A   1      43.551  24.728  34.838  1.00  0.00    -0.206 F 
ATOM     81  C   UNL A   1      47.001  23.839  35.178  1.00  0.00     0.006 A 
ENDBRANCH  60  74
BRANCH  61  82
ATOM     82  C   UNL A   1      50.004  26.651  26.268  1.00  0.00     0.057 A 
ATOM     83  C   UNL A   1      50.819  27.569  25.590  1.00  0.00     0.134 A 
ATOM     84  C   UNL A   1      50.633  25.479  26.720  1.00  0.00     0.134 A 
ATOM     85  F   UNL A   1      50.311  28.727  25.142  1.00  0.00    -0.206 F 
ATOM     86  C   UNL A   1      52.194  27.364  25.426  1.00  0.00     0.040 A 
ATOM     87  C   UNL A   1      52.006  25.260  26.558  1.00  0.00     0.040 A 
ATOM     88  F   UNL A   1      49.960  24.555  27.420  1.00  0.00    -0.206 F 
ATOM     89  C   UNL A   1      52.796  26.215  25.930  1.00  0.00     0.006 A 
ENDBRANCH  61  82
BRANCH  73  90
ATOM     90  C   UNL A   1      45.456  30.402  28.634  1.00  0.00     0.057 A 
ATOM     91  C   UNL A   1      44.595  30.056  27.583  1.00  0.00     0.134 A 
ATOM     92  C   UNL A   1      45.714  31.763  28.824  1.00  0.00     0.134 A 
ATOM     93  F   UNL A   1      44.243  28.781  27.368  1.00  0.00    -0.206 F 
ATOM     94  C   UNL A   1      44.036  31.026  26.745  1.00  0.00     0.040 A 
ATOM     95  C   UNL A   1      45.140  32.743  28.015  1.00  0.00     0.040 A 
ATOM     96  F   UNL A   1      46.506  32.164  29.831  1.00  0.00    -0.206 F 
ATOM     97  C   UNL A   1      44.303  32.376  26.966  1.00  0.00     0.006 A 
ENDBRANCH  73  90
ENDBRANCH  47  48
ENDBRANCH  40  42
ENDBRANCH  39  40
ENDBRANCH  38  39
ENDBRANCH  37  38
ENDBRANCH  36  37
ENDBRANCH  35  36
ENDBRANCH   1  35
TORSDOF 22
ENDMDL
