MODEL 1
REMARK VINA RESULT:      -9.3      0.000      0.000
REMARK SMILES Cc1cc(C)c2c(OCCCC(=O)OCCOCCOCCOCCOC(=O)c3ccc(-c4c5nc(c(-c6c(F)cccc6F)c6ccc([nH]6)c(-c6c(F)cccc6F)c6nc(c(-c7c(F)cccc7F)c7ccc4[nH]7)C=C6)C=C5)cc3)nsc2n1
REMARK SMILES IDX 19 1 18 2 17 3 16 4 15 5 14 6 12 7 13 8 11 9 10 10 9 11 8 12
REMARK SMILES IDX 7 13 1 14 2 15 3 16 86 17 4 18 85 19 5 20 6 21 84 22 83 23
REMARK SMILES IDX 20 24 21 25 22 26 23 27 24 28 25 29 26 30 27 31 28 32 29 33
REMARK SMILES IDX 30 34 82 35 31 36 81 37 32 38 33 39 34 40 75 41 35 42 80 43
REMARK SMILES IDX 74 44 76 45 36 46 79 47 73 48 72 49 37 51 63 52 46 53 62 54
REMARK SMILES IDX 47 55 50 56 61 57 77 58 48 59 49 60 60 62 78 63 51 64 38 65
REMARK SMILES IDX 39 66 44 67 40 68 41 69 43 70 45 71 42 72 64 73 65 74 70 75
REMARK SMILES IDX 66 76 67 77 69 78 71 79 68 80 52 81 53 82 58 83 54 84 55 85
REMARK SMILES IDX 57 86 59 87 56 88
REMARK H PARENT 76 50 50 61
REMARK Flexibility Score: inf
ROOT
ATOM      1  C   UNL A   1      34.988  34.169  28.617  1.00  0.00     0.188 C 
ENDROOT
BRANCH   1   2
ATOM      2  C   UNL A   1      34.319  32.890  28.063  1.00  0.00     0.188 C 
BRANCH   2   3
ATOM      3  O   UNL A   1      35.126  31.937  27.384  1.00  0.00    -0.376 OA
BRANCH   3   4
ATOM      4  C   UNL A   1      35.472  30.754  28.085  1.00  0.00     0.202 C 
BRANCH   4   5
ATOM      5  C   UNL A   1      34.896  29.450  27.539  1.00  0.00     0.261 C 
BRANCH   5   6
ATOM      6  O   UNL A   1      33.792  29.574  26.594  1.00  0.00    -0.463 OA
BRANCH   6   7
ATOM      7  C   UNL A   1      33.406  28.422  25.991  1.00  0.00     0.305 C 
ATOM      8  O   UNL A   1      34.060  27.876  25.105  1.00  0.00    -0.252 OA
BRANCH   7   9
ATOM      9  C   UNL A   1      32.058  27.836  26.398  1.00  0.00     0.126 C 
BRANCH   9  10
ATOM     10  C   UNL A   1      31.736  26.359  26.650  1.00  0.00     0.053 C 
BRANCH  10  11
ATOM     11  C   UNL A   1      30.449  25.706  26.124  1.00  0.00     0.232 C 
BRANCH  11  12
ATOM     12  O   UNL A   1      30.202  24.321  26.378  1.00  0.00    -0.477 OA
BRANCH  12  13
ATOM     13  C   UNL A   1      31.289  23.525  26.414  1.00  0.00     0.235 A 
ATOM     14  C   UNL A   1      35.775  22.930  23.265  1.00  0.00     0.067 C 
ATOM     15  C   UNL A   1      34.458  22.705  23.954  1.00  0.00     0.039 A 
ATOM     16  C   UNL A   1      33.279  22.906  23.244  1.00  0.00     0.027 A 
ATOM     17  N   UNL A   1      34.498  22.468  25.277  1.00  0.00    -0.240 NA
ATOM     18  C   UNL A   1      32.059  23.111  23.912  1.00  0.00    -0.034 A 
ATOM     19  C   UNL A   1      33.318  22.650  25.896  1.00  0.00     0.147 A 
ATOM     20  C   UNL A   1      30.840  23.447  23.096  1.00  0.00     0.045 C 
ATOM     21  C   UNL A   1      32.120  23.082  25.327  1.00  0.00     0.078 A 
ATOM     22  S   UNL A   1      33.126  22.456  27.579  1.00  0.00    -0.012 S 
ATOM     23  N   UNL A   1      31.627  23.167  27.651  1.00  0.00    -0.153 NA
ENDBRANCH  12  13
ENDBRANCH  11  12
ENDBRANCH  10  11
ENDBRANCH   9  10
ENDBRANCH   7   9
ENDBRANCH   6   7
ENDBRANCH   5   6
ENDBRANCH   4   5
ENDBRANCH   3   4
ENDBRANCH   2   3
ENDBRANCH   1   2
BRANCH   1  24
ATOM     24  O   UNL A   1      35.952  33.975  29.643  1.00  0.00    -0.377 OA
BRANCH  24  25
ATOM     25  C   UNL A   1      35.439  33.383  30.837  1.00  0.00     0.188 C 
BRANCH  25  26
ATOM     26  C   UNL A   1      35.333  34.294  32.085  1.00  0.00     0.188 C 
BRANCH  26  27
ATOM     27  O   UNL A   1      36.522  35.025  32.370  1.00  0.00    -0.376 OA
BRANCH  27  28
ATOM     28  C   UNL A   1      37.724  34.357  32.715  1.00  0.00     0.202 C 
BRANCH  28  29
ATOM     29  C   UNL A   1      38.820  34.441  31.650  1.00  0.00     0.261 C 
BRANCH  29  30
ATOM     30  O   UNL A   1      40.084  33.998  32.118  1.00  0.00    -0.460 OA
BRANCH  30  31
ATOM     31  C   UNL A   1      40.141  32.678  32.384  1.00  0.00     0.338 C 
ATOM     32  O   UNL A   1      40.116  32.139  33.473  1.00  0.00    -0.246 OA
BRANCH  31  33
ATOM     33  C   UNL A   1      40.300  31.942  31.130  1.00  0.00     0.060 A 
ATOM     34  C   UNL A   1      39.345  30.950  30.913  1.00  0.00     0.016 A 
ATOM     35  C   UNL A   1      41.559  31.942  30.515  1.00  0.00     0.016 A 
ATOM     36  C   UNL A   1      39.790  29.768  30.392  1.00  0.00     0.010 A 
ATOM     37  C   UNL A   1      42.006  30.757  29.999  1.00  0.00     0.010 A 
ATOM     38  C   UNL A   1      41.150  29.663  30.083  1.00  0.00    -0.014 A 
BRANCH  38  39
ATOM     39  C   UNL A   1      41.675  28.326  29.982  1.00  0.00     0.031 A 
ATOM     40  C   UNL A   1      42.438  27.887  31.156  1.00  0.00     0.074 A 
ATOM     41  C   UNL A   1      41.441  27.563  28.900  1.00  0.00     0.049 A 
ATOM     42  N   UNL A   1      43.691  27.589  31.225  1.00  0.00    -0.248 NA
ATOM     43  C   UNL A   1      41.728  27.904  32.442  1.00  0.00     0.031 C 
ATOM     44  C   UNL A   1      40.468  27.776  27.824  1.00  0.00     0.029 A 
ATOM     45  N   UNL A   1      41.976  26.353  28.602  1.00  0.00    -0.354 N 
ATOM     46  C   UNL A   1      43.895  27.209  32.542  1.00  0.00     0.074 A 
ATOM     47  C   UNL A   1      42.705  27.558  33.276  1.00  0.00     0.031 C 
ATOM     48  C   UNL A   1      40.327  26.624  27.128  1.00  0.00     0.029 A 
ATOM     49  C   UNL A   1      41.283  25.651  27.633  1.00  0.00     0.049 A 
ATOM     50  H   UNL A   1      42.788  26.005  29.038  1.00  0.00     0.167 HD
ATOM     51  C   UNL A   1      44.940  26.427  32.910  1.00  0.00     0.037 A 
ATOM     52  C   UNL A   1      41.430  24.333  27.365  1.00  0.00     0.037 A 
ATOM     53  C   UNL A   1      45.994  26.415  31.938  1.00  0.00     0.049 A 
ATOM     54  C   UNL A   1      42.734  23.899  27.935  1.00  0.00     0.074 A 
ATOM     55  C   UNL A   1      46.822  27.384  31.405  1.00  0.00     0.029 A 
ATOM     56  N   UNL A   1      46.093  25.335  31.098  1.00  0.00    -0.354 N 
ATOM     57  N   UNL A   1      43.900  24.260  27.477  1.00  0.00    -0.248 NA
ATOM     58  C   UNL A   1      42.740  23.366  29.291  1.00  0.00     0.031 C 
ATOM     59  C   UNL A   1      47.023  27.005  30.048  1.00  0.00     0.029 A 
ATOM     60  C   UNL A   1      46.315  25.821  29.833  1.00  0.00     0.049 A 
ATOM     61  H   UNL A   1      46.017  24.387  31.354  1.00  0.00     0.167 HD
ATOM     62  C   UNL A   1      44.709  24.376  28.600  1.00  0.00     0.074 A 
ATOM     63  C   UNL A   1      43.973  23.710  29.668  1.00  0.00     0.031 C 
ATOM     64  C   UNL A   1      45.767  25.239  28.628  1.00  0.00     0.037 A 
BRANCH  51  65
ATOM     65  C   UNL A   1      44.825  25.445  34.030  1.00  0.00     0.057 A 
ATOM     66  C   UNL A   1      45.501  25.659  35.234  1.00  0.00     0.134 A 
ATOM     67  C   UNL A   1      44.231  24.174  33.873  1.00  0.00     0.134 A 
ATOM     68  F   UNL A   1      46.151  26.810  35.461  1.00  0.00    -0.206 F 
ATOM     69  C   UNL A   1      45.575  24.673  36.224  1.00  0.00     0.040 A 
ATOM     70  C   UNL A   1      44.248  23.205  34.873  1.00  0.00     0.040 A 
ATOM     71  F   UNL A   1      43.681  23.789  32.711  1.00  0.00    -0.206 F 
ATOM     72  C   UNL A   1      44.939  23.447  36.050  1.00  0.00     0.006 A 
ENDBRANCH  51  65
BRANCH  52  73
ATOM     73  C   UNL A   1      40.381  23.370  26.961  1.00  0.00     0.057 A 
ATOM     74  C   UNL A   1      39.045  23.776  26.842  1.00  0.00     0.134 A 
ATOM     75  C   UNL A   1      40.690  22.104  26.431  1.00  0.00     0.134 A 
ATOM     76  F   UNL A   1      38.660  24.983  27.278  1.00  0.00    -0.206 F 
ATOM     77  C   UNL A   1      38.079  22.982  26.211  1.00  0.00     0.040 A 
ATOM     78  C   UNL A   1      39.733  21.294  25.813  1.00  0.00     0.040 A 
ATOM     79  F   UNL A   1      41.949  21.643  26.411  1.00  0.00    -0.206 F 
ATOM     80  C   UNL A   1      38.424  21.739  25.687  1.00  0.00     0.006 A 
ENDBRANCH  52  73
BRANCH  64  81
ATOM     81  C   UNL A   1      46.204  25.849  27.325  1.00  0.00     0.057 A 
ATOM     82  C   UNL A   1      45.638  27.014  26.786  1.00  0.00     0.134 A 
ATOM     83  C   UNL A   1      47.334  25.335  26.678  1.00  0.00     0.134 A 
ATOM     84  F   UNL A   1      44.622  27.636  27.398  1.00  0.00    -0.206 F 
ATOM     85  C   UNL A   1      46.146  27.612  25.629  1.00  0.00     0.040 A 
ATOM     86  C   UNL A   1      47.871  25.943  25.540  1.00  0.00     0.040 A 
ATOM     87  F   UNL A   1      47.967  24.259  27.173  1.00  0.00    -0.206 F 
ATOM     88  C   UNL A   1      47.270  27.079  25.005  1.00  0.00     0.006 A 
ENDBRANCH  64  81
ENDBRANCH  38  39
ENDBRANCH  31  33
ENDBRANCH  30  31
ENDBRANCH  29  30
ENDBRANCH  28  29
ENDBRANCH  27  28
ENDBRANCH  26  27
ENDBRANCH  25  26
ENDBRANCH  24  25
ENDBRANCH   1  24
TORSDOF 24
ENDMDL
MODEL 2
REMARK VINA RESULT:      -9.2      8.561     14.641
REMARK SMILES Cc1cc(C)c2c(OCCCC(=O)OCCOCCOCCOCCOC(=O)c3ccc(-c4c5nc(c(-c6c(F)cccc6F)c6ccc([nH]6)c(-c6c(F)cccc6F)c6nc(c(-c7c(F)cccc7F)c7ccc4[nH]7)C=C6)C=C5)cc3)nsc2n1
REMARK SMILES IDX 19 1 18 2 17 3 16 4 15 5 14 6 12 7 13 8 11 9 10 10 9 11 8 12
REMARK SMILES IDX 7 13 1 14 2 15 3 16 86 17 4 18 85 19 5 20 6 21 84 22 83 23
REMARK SMILES IDX 20 24 21 25 22 26 23 27 24 28 25 29 26 30 27 31 28 32 29 33
REMARK SMILES IDX 30 34 82 35 31 36 81 37 32 38 33 39 34 40 75 41 35 42 80 43
REMARK SMILES IDX 74 44 76 45 36 46 79 47 73 48 72 49 37 51 63 52 46 53 62 54
REMARK SMILES IDX 47 55 50 56 61 57 77 58 48 59 49 60 60 62 78 63 51 64 38 65
REMARK SMILES IDX 39 66 44 67 40 68 41 69 43 70 45 71 42 72 64 73 65 74 70 75
REMARK SMILES IDX 66 76 67 77 69 78 71 79 68 80 52 81 53 82 58 83 54 84 55 85
REMARK SMILES IDX 57 86 59 87 56 88
REMARK H PARENT 76 50 50 61
REMARK Flexibility Score: inf
ROOT
ATOM      1  C   UNL A   1      48.795  18.562  40.789  1.00  0.00     0.188 C 
ENDROOT
BRANCH   1   2
ATOM      2  C   UNL A   1      48.272  18.510  42.242  1.00  0.00     0.188 C 
BRANCH   2   3
ATOM      3  O   UNL A   1      46.876  18.353  42.460  1.00  0.00    -0.376 OA
BRANCH   3   4
ATOM      4  C   UNL A   1      46.004  18.700  41.397  1.00  0.00     0.202 C 
BRANCH   4   5
ATOM      5  C   UNL A   1      45.065  17.602  40.904  1.00  0.00     0.261 C 
BRANCH   5   6
ATOM      6  O   UNL A   1      44.733  17.623  39.483  1.00  0.00    -0.463 OA
BRANCH   6   7
ATOM      7  C   UNL A   1      43.940  16.609  39.054  1.00  0.00     0.305 C 
ATOM      8  O   UNL A   1      43.962  16.182  37.901  1.00  0.00    -0.252 OA
BRANCH   7   9
ATOM      9  C   UNL A   1      42.932  16.040  40.046  1.00  0.00     0.126 C 
BRANCH   9  10
ATOM     10  C   UNL A   1      42.277  14.656  39.999  1.00  0.00     0.053 C 
BRANCH  10  11
ATOM     11  C   UNL A   1      41.570  14.048  41.221  1.00  0.00     0.232 C 
BRANCH  11  12
ATOM     12  O   UNL A   1      42.157  12.934  41.897  1.00  0.00    -0.477 OA
BRANCH  12  13
ATOM     13  C   UNL A   1      42.544  13.153  43.170  1.00  0.00     0.235 A 
ATOM     14  C   UNL A   1      45.898  10.581  46.710  1.00  0.00     0.067 C 
ATOM     15  C   UNL A   1      44.683  11.135  46.019  1.00  0.00     0.039 A 
ATOM     16  C   UNL A   1      43.893  10.284  45.252  1.00  0.00     0.027 A 
ATOM     17  N   UNL A   1      44.516  12.468  46.059  1.00  0.00    -0.240 NA
ATOM     18  C   UNL A   1      43.014  10.793  44.280  1.00  0.00    -0.034 A 
ATOM     19  C   UNL A   1      43.658  12.936  45.135  1.00  0.00     0.147 A 
ATOM     20  C   UNL A   1      42.279   9.822  43.397  1.00  0.00     0.045 C 
ATOM     21  C   UNL A   1      42.987  12.204  44.155  1.00  0.00     0.078 A 
ATOM     22  S   UNL A   1      43.317  14.596  44.957  1.00  0.00    -0.012 S 
ATOM     23  N   UNL A   1      42.546  14.445  43.494  1.00  0.00    -0.153 NA
ENDBRANCH  12  13
ENDBRANCH  11  12
ENDBRANCH  10  11
ENDBRANCH   9  10
ENDBRANCH   7   9
ENDBRANCH   6   7
ENDBRANCH   5   6
ENDBRANCH   4   5
ENDBRANCH   3   4
ENDBRANCH   2   3
ENDBRANCH   1   2
BRANCH   1  24
ATOM     24  O   UNL A   1      50.164  18.913  40.631  1.00  0.00    -0.377 OA
BRANCH  24  25
ATOM     25  C   UNL A   1      50.630  18.891  39.281  1.00  0.00     0.188 C 
BRANCH  25  26
ATOM     26  C   UNL A   1      49.766  19.621  38.224  1.00  0.00     0.188 C 
BRANCH  26  27
ATOM     27  O   UNL A   1      50.438  19.858  36.991  1.00  0.00    -0.376 OA
BRANCH  27  28
ATOM     28  C   UNL A   1      49.732  20.318  35.851  1.00  0.00     0.202 C 
BRANCH  28  29
ATOM     29  C   UNL A   1      48.420  21.037  36.171  1.00  0.00     0.261 C 
BRANCH  29  30
ATOM     30  O   UNL A   1      48.228  22.212  35.399  1.00  0.00    -0.460 OA
BRANCH  30  31
ATOM     31  C   UNL A   1      47.026  22.281  34.791  1.00  0.00     0.338 C 
ATOM     32  O   UNL A   1      46.350  21.360  34.378  1.00  0.00    -0.246 OA
BRANCH  31  33
ATOM     33  C   UNL A   1      46.648  23.686  34.634  1.00  0.00     0.060 A 
ATOM     34  C   UNL A   1      45.367  23.996  35.085  1.00  0.00     0.016 A 
ATOM     35  C   UNL A   1      47.337  24.457  33.689  1.00  0.00     0.016 A 
ATOM     36  C   UNL A   1      44.629  24.847  34.310  1.00  0.00     0.010 A 
ATOM     37  C   UNL A   1      46.597  25.304  32.910  1.00  0.00     0.010 A 
ATOM     38  C   UNL A   1      45.229  25.364  33.158  1.00  0.00    -0.014 A 
BRANCH  38  39
ATOM     39  C   UNL A   1      44.334  25.862  32.146  1.00  0.00     0.031 A 
ATOM     40  C   UNL A   1      44.207  24.990  30.972  1.00  0.00     0.074 A 
ATOM     41  C   UNL A   1      43.664  27.015  32.310  1.00  0.00     0.049 A 
ATOM     42  N   UNL A   1      44.551  25.241  29.754  1.00  0.00    -0.248 NA
ATOM     43  C   UNL A   1      43.751  23.616  31.221  1.00  0.00     0.031 C 
ATOM     44  C   UNL A   1      43.481  27.800  33.536  1.00  0.00     0.029 A 
ATOM     45  N   UNL A   1      42.902  27.674  31.401  1.00  0.00    -0.354 N 
ATOM     46  C   UNL A   1      44.191  24.109  29.041  1.00  0.00     0.074 A 
ATOM     47  C   UNL A   1      43.843  23.092  30.002  1.00  0.00     0.031 C 
ATOM     48  C   UNL A   1      42.481  28.689  33.339  1.00  0.00     0.029 A 
ATOM     49  C   UNL A   1      42.051  28.615  31.952  1.00  0.00     0.049 A 
ATOM     50  H   UNL A   1      42.951  27.497  30.434  1.00  0.00     0.167 HD
ATOM     51  C   UNL A   1      43.983  24.139  27.702  1.00  0.00     0.037 A 
ATOM     52  C   UNL A   1      41.004  29.190  31.316  1.00  0.00     0.037 A 
ATOM     53  C   UNL A   1      44.581  25.281  27.073  1.00  0.00     0.049 A 
ATOM     54  C   UNL A   1      41.205  29.003  29.855  1.00  0.00     0.074 A 
ATOM     55  C   UNL A   1      45.877  25.743  26.949  1.00  0.00     0.029 A 
ATOM     56  N   UNL A   1      43.773  26.341  26.746  1.00  0.00    -0.354 N 
ATOM     57  N   UNL A   1      42.130  29.595  29.151  1.00  0.00    -0.248 NA
ATOM     58  C   UNL A   1      40.612  27.827  29.231  1.00  0.00     0.031 C 
ATOM     59  C   UNL A   1      45.779  27.162  26.992  1.00  0.00     0.029 A 
ATOM     60  C   UNL A   1      44.428  27.486  27.128  1.00  0.00     0.049 A 
ATOM     61  H   UNL A   1      42.888  26.290  26.317  1.00  0.00     0.167 HD
ATOM     62  C   UNL A   1      42.513  28.659  28.200  1.00  0.00     0.074 A 
ATOM     63  C   UNL A   1      41.472  27.639  28.229  1.00  0.00     0.031 C 
ATOM     64  C   UNL A   1      43.774  28.654  27.675  1.00  0.00     0.037 A 
BRANCH  51  65
ATOM     65  C   UNL A   1      42.965  23.263  27.048  1.00  0.00     0.057 A 
ATOM     66  C   UNL A   1      41.606  23.414  27.340  1.00  0.00     0.134 A 
ATOM     67  C   UNL A   1      43.311  22.121  26.295  1.00  0.00     0.134 A 
ATOM     68  F   UNL A   1      41.177  24.431  28.101  1.00  0.00    -0.206 F 
ATOM     69  C   UNL A   1      40.651  22.490  26.903  1.00  0.00     0.040 A 
ATOM     70  C   UNL A   1      42.364  21.226  25.804  1.00  0.00     0.040 A 
ATOM     71  F   UNL A   1      44.591  21.781  26.073  1.00  0.00    -0.206 F 
ATOM     72  C   UNL A   1      41.027  21.399  26.124  1.00  0.00     0.006 A 
ENDBRANCH  51  65
BRANCH  52  73
ATOM     73  C   UNL A   1      39.697  29.577  31.895  1.00  0.00     0.057 A 
ATOM     74  C   UNL A   1      39.222  30.889  31.773  1.00  0.00     0.134 A 
ATOM     75  C   UNL A   1      38.767  28.624  32.349  1.00  0.00     0.134 A 
ATOM     76  F   UNL A   1      40.020  31.861  31.308  1.00  0.00    -0.206 F 
ATOM     77  C   UNL A   1      37.895  31.230  32.062  1.00  0.00     0.040 A 
ATOM     78  C   UNL A   1      37.444  28.953  32.656  1.00  0.00     0.040 A 
ATOM     79  F   UNL A   1      39.081  27.323  32.427  1.00  0.00    -0.206 F 
ATOM     80  C   UNL A   1      36.998  30.258  32.498  1.00  0.00     0.006 A 
ENDBRANCH  52  73
BRANCH  64  81
ATOM     81  C   UNL A   1      44.645  29.851  27.940  1.00  0.00     0.057 A 
ATOM     82  C   UNL A   1      44.582  31.036  27.191  1.00  0.00     0.134 A 
ATOM     83  C   UNL A   1      45.455  29.865  29.081  1.00  0.00     0.134 A 
ATOM     84  F   UNL A   1      43.752  31.150  26.146  1.00  0.00    -0.206 F 
ATOM     85  C   UNL A   1      45.328  32.167  27.537  1.00  0.00     0.040 A 
ATOM     86  C   UNL A   1      46.181  31.000  29.456  1.00  0.00     0.040 A 
ATOM     87  F   UNL A   1      45.516  28.789  29.882  1.00  0.00    -0.206 F 
ATOM     88  C   UNL A   1      46.127  32.152  28.676  1.00  0.00     0.006 A 
ENDBRANCH  64  81
ENDBRANCH  38  39
ENDBRANCH  31  33
ENDBRANCH  30  31
ENDBRANCH  29  30
ENDBRANCH  28  29
ENDBRANCH  27  28
ENDBRANCH  26  27
ENDBRANCH  25  26
ENDBRANCH  24  25
ENDBRANCH   1  24
TORSDOF 24
ENDMDL
MODEL 3
REMARK VINA RESULT:      -9.1      9.046     13.747
REMARK SMILES Cc1cc(C)c2c(OCCCC(=O)OCCOCCOCCOCCOC(=O)c3ccc(-c4c5nc(c(-c6c(F)cccc6F)c6ccc([nH]6)c(-c6c(F)cccc6F)c6nc(c(-c7c(F)cccc7F)c7ccc4[nH]7)C=C6)C=C5)cc3)nsc2n1
REMARK SMILES IDX 19 1 18 2 17 3 16 4 15 5 14 6 12 7 13 8 11 9 10 10 9 11 8 12
REMARK SMILES IDX 7 13 1 14 2 15 3 16 86 17 4 18 85 19 5 20 6 21 84 22 83 23
REMARK SMILES IDX 20 24 21 25 22 26 23 27 24 28 25 29 26 30 27 31 28 32 29 33
REMARK SMILES IDX 30 34 82 35 31 36 81 37 32 38 33 39 34 40 75 41 35 42 80 43
REMARK SMILES IDX 74 44 76 45 36 46 79 47 73 48 72 49 37 51 63 52 46 53 62 54
REMARK SMILES IDX 47 55 50 56 61 57 77 58 48 59 49 60 60 62 78 63 51 64 38 65
REMARK SMILES IDX 39 66 44 67 40 68 41 69 43 70 45 71 42 72 64 73 65 74 70 75
REMARK SMILES IDX 66 76 67 77 69 78 71 79 68 80 52 81 53 82 58 83 54 84 55 85
REMARK SMILES IDX 57 86 59 87 56 88
REMARK H PARENT 76 50 50 61
REMARK Flexibility Score: inf
ROOT
ATOM      1  C   UNL A   1      41.719  41.182  30.273  1.00  0.00     0.188 C 
ENDROOT
BRANCH   1   2
ATOM      2  C   UNL A   1      41.107  40.578  28.989  1.00  0.00     0.188 C 
BRANCH   2   3
ATOM      3  O   UNL A   1      41.806  40.733  27.760  1.00  0.00    -0.376 OA
BRANCH   3   4
ATOM      4  C   UNL A   1      41.060  40.608  26.561  1.00  0.00     0.202 C 
BRANCH   4   5
ATOM      5  C   UNL A   1      41.786  40.974  25.269  1.00  0.00     0.261 C 
BRANCH   5   6
ATOM      6  O   UNL A   1      43.235  41.116  25.358  1.00  0.00    -0.463 OA
BRANCH   6   7
ATOM      7  C   UNL A   1      43.718  42.356  25.093  1.00  0.00     0.305 C 
ATOM      8  O   UNL A   1      44.471  42.960  25.854  1.00  0.00    -0.252 OA
BRANCH   7   9
ATOM      9  C   UNL A   1      43.232  43.039  23.820  1.00  0.00     0.126 C 
BRANCH   9  10
ATOM     10  C   UNL A   1      43.782  44.328  23.200  1.00  0.00     0.053 C 
BRANCH  10  11
ATOM     11  C   UNL A   1      44.579  44.324  21.887  1.00  0.00     0.232 C 
BRANCH  11  12
ATOM     12  O   UNL A   1      43.985  43.794  20.699  1.00  0.00    -0.477 OA
BRANCH  12  13
ATOM     13  C   UNL A   1      44.292  44.430  19.551  1.00  0.00     0.235 A 
ATOM     14  C   UNL A   1      41.757  48.153  16.372  1.00  0.00     0.067 C 
ATOM     15  C   UNL A   1      42.363  46.883  16.900  1.00  0.00     0.039 A 
ATOM     16  C   UNL A   1      41.526  45.893  17.406  1.00  0.00     0.027 A 
ATOM     17  N   UNL A   1      43.703  46.842  16.994  1.00  0.00    -0.240 NA
ATOM     18  C   UNL A   1      42.023  44.895  18.263  1.00  0.00    -0.034 A 
ATOM     19  C   UNL A   1      44.162  45.870  17.802  1.00  0.00     0.147 A 
ATOM     20  C   UNL A   1      41.050  43.926  18.878  1.00  0.00     0.045 C 
ATOM     21  C   UNL A   1      43.409  44.966  18.551  1.00  0.00     0.078 A 
ATOM     22  S   UNL A   1      45.821  45.646  18.117  1.00  0.00    -0.012 S 
ATOM     23  N   UNL A   1      45.602  44.604  19.392  1.00  0.00    -0.153 NA
ENDBRANCH  12  13
ENDBRANCH  11  12
ENDBRANCH  10  11
ENDBRANCH   9  10
ENDBRANCH   7   9
ENDBRANCH   6   7
ENDBRANCH   5   6
ENDBRANCH   4   5
ENDBRANCH   3   4
ENDBRANCH   2   3
ENDBRANCH   1   2
BRANCH   1  24
ATOM     24  O   UNL A   1      43.009  40.707  30.633  1.00  0.00    -0.377 OA
BRANCH  24  25
ATOM     25  C   UNL A   1      43.988  41.729  30.824  1.00  0.00     0.188 C 
BRANCH  25  26
ATOM     26  C   UNL A   1      45.093  41.857  29.748  1.00  0.00     0.188 C 
BRANCH  26  27
ATOM     27  O   UNL A   1      44.810  41.153  28.542  1.00  0.00    -0.376 OA
BRANCH  27  28
ATOM     28  C   UNL A   1      45.789  40.331  27.929  1.00  0.00     0.202 C 
BRANCH  28  29
ATOM     29  C   UNL A   1      45.315  38.908  27.625  1.00  0.00     0.261 C 
BRANCH  29  30
ATOM     30  O   UNL A   1      44.150  38.544  28.350  1.00  0.00    -0.460 OA
BRANCH  30  31
ATOM     31  C   UNL A   1      43.457  37.525  27.804  1.00  0.00     0.338 C 
ATOM     32  O   UNL A   1      42.501  37.594  27.058  1.00  0.00    -0.246 OA
BRANCH  31  33
ATOM     33  C   UNL A   1      43.999  36.259  28.296  1.00  0.00     0.060 A 
ATOM     34  C   UNL A   1      43.815  35.176  27.437  1.00  0.00     0.016 A 
ATOM     35  C   UNL A   1      44.215  36.118  29.673  1.00  0.00     0.016 A 
ATOM     36  C   UNL A   1      43.459  33.987  28.012  1.00  0.00     0.010 A 
ATOM     37  C   UNL A   1      43.853  34.930  30.247  1.00  0.00     0.010 A 
ATOM     38  C   UNL A   1      43.350  33.944  29.405  1.00  0.00    -0.014 A 
BRANCH  38  39
ATOM     39  C   UNL A   1      42.556  32.870  29.944  1.00  0.00     0.031 A 
ATOM     40  C   UNL A   1      42.982  31.532  29.517  1.00  0.00     0.074 A 
ATOM     41  C   UNL A   1      41.539  33.108  30.789  1.00  0.00     0.049 A 
ATOM     42  N   UNL A   1      42.328  30.679  28.804  1.00  0.00    -0.248 NA
ATOM     43  C   UNL A   1      44.368  31.155  29.827  1.00  0.00     0.031 C 
ATOM     44  C   UNL A   1      41.218  34.347  31.507  1.00  0.00     0.029 A 
ATOM     45  N   UNL A   1      40.626  32.226  31.266  1.00  0.00    -0.354 N 
ATOM     46  C   UNL A   1      43.160  29.574  28.719  1.00  0.00     0.074 A 
ATOM     47  C   UNL A   1      44.447  29.968  29.233  1.00  0.00     0.031 C 
ATOM     48  C   UNL A   1      40.332  34.063  32.491  1.00  0.00     0.029 A 
ATOM     49  C   UNL A   1      39.942  32.666  32.384  1.00  0.00     0.049 A 
ATOM     50  H   UNL A   1      40.465  31.347  30.851  1.00  0.00     0.167 HD
ATOM     51  C   UNL A   1      42.682  28.336  28.439  1.00  0.00     0.037 A 
ATOM     52  C   UNL A   1      39.205  31.887  33.209  1.00  0.00     0.037 A 
ATOM     53  C   UNL A   1      41.384  28.366  27.829  1.00  0.00     0.049 A 
ATOM     54  C   UNL A   1      38.884  30.633  32.477  1.00  0.00     0.074 A 
ATOM     55  C   UNL A   1      40.885  28.896  26.655  1.00  0.00     0.029 A 
ATOM     56  N   UNL A   1      40.291  28.095  28.613  1.00  0.00    -0.354 N 
ATOM     57  N   UNL A   1      38.072  30.555  31.459  1.00  0.00    -0.248 NA
ATOM     58  C   UNL A   1      39.791  29.503  32.632  1.00  0.00     0.031 C 
ATOM     59  C   UNL A   1      39.565  29.329  26.969  1.00  0.00     0.029 A 
ATOM     60  C   UNL A   1      39.331  29.029  28.311  1.00  0.00     0.049 A 
ATOM     61  H   UNL A   1      40.211  27.367  29.271  1.00  0.00     0.167 HD
ATOM     62  C   UNL A   1      38.624  29.587  30.631  1.00  0.00     0.074 A 
ATOM     63  C   UNL A   1      39.613  28.902  31.454  1.00  0.00     0.031 C 
ATOM     64  C   UNL A   1      38.429  29.612  29.279  1.00  0.00     0.037 A 
BRANCH  51  65
ATOM     65  C   UNL A   1      43.305  27.109  29.020  1.00  0.00     0.057 A 
ATOM     66  C   UNL A   1      43.687  26.048  28.194  1.00  0.00     0.134 A 
ATOM     67  C   UNL A   1      43.339  26.854  30.408  1.00  0.00     0.134 A 
ATOM     68  F   UNL A   1      43.632  26.163  26.859  1.00  0.00    -0.206 F 
ATOM     69  C   UNL A   1      44.086  24.813  28.718  1.00  0.00     0.040 A 
ATOM     70  C   UNL A   1      43.791  25.651  30.943  1.00  0.00     0.040 A 
ATOM     71  F   UNL A   1      42.860  27.735  31.300  1.00  0.00    -0.206 F 
ATOM     72  C   UNL A   1      44.150  24.616  30.094  1.00  0.00     0.006 A 
ENDBRANCH  51  65
BRANCH  52  73
ATOM     73  C   UNL A   1      39.060  32.008  34.677  1.00  0.00     0.057 A 
ATOM     74  C   UNL A   1      40.184  31.962  35.513  1.00  0.00     0.134 A 
ATOM     75  C   UNL A   1      37.861  32.432  35.279  1.00  0.00     0.134 A 
ATOM     76  F   UNL A   1      41.381  31.611  35.024  1.00  0.00    -0.206 F 
ATOM     77  C   UNL A   1      40.124  32.338  36.861  1.00  0.00     0.040 A 
ATOM     78  C   UNL A   1      37.784  32.796  36.626  1.00  0.00     0.040 A 
ATOM     79  F   UNL A   1      36.740  32.596  34.562  1.00  0.00    -0.206 F 
ATOM     80  C   UNL A   1      38.922  32.764  37.420  1.00  0.00     0.006 A 
ENDBRANCH  52  73
BRANCH  64  81
ATOM     81  C   UNL A   1      37.375  30.542  28.744  1.00  0.00     0.057 A 
ATOM     82  C   UNL A   1      36.083  30.127  28.388  1.00  0.00     0.134 A 
ATOM     83  C   UNL A   1      37.622  31.920  28.738  1.00  0.00     0.134 A 
ATOM     84  F   UNL A   1      35.724  28.840  28.466  1.00  0.00    -0.206 F 
ATOM     85  C   UNL A   1      35.098  31.039  27.998  1.00  0.00     0.040 A 
ATOM     86  C   UNL A   1      36.636  32.844  28.383  1.00  0.00     0.040 A 
ATOM     87  F   UNL A   1      38.816  32.395  29.128  1.00  0.00    -0.206 F 
ATOM     88  C   UNL A   1      35.372  32.404  28.001  1.00  0.00     0.006 A 
ENDBRANCH  64  81
ENDBRANCH  38  39
ENDBRANCH  31  33
ENDBRANCH  30  31
ENDBRANCH  29  30
ENDBRANCH  28  29
ENDBRANCH  27  28
ENDBRANCH  26  27
ENDBRANCH  25  26
ENDBRANCH  24  25
ENDBRANCH   1  24
TORSDOF 24
ENDMDL
