MODEL 1
REMARK VINA RESULT:      -9.9      0.000      0.000
REMARK SMILES Cc1ccc(NC(=O)C[N@H+]2CC[C@@H](C(=O)OCCOCCOCCOCCOC(=O)c3ccc(-c4c5nc(c(-c6c(F)cccc6F)c6ccc([nH]6)c(-c6c(F)cccc6F)c6nc(c(-c7c(F)cccc7F)c7ccc4[nH]7)C=C6)C=C5)cc3)[C@@H]2C)cc1
REMARK SMILES IDX 21 1 20 2 19 3 18 4 17 5 16 6 14 7 15 8 13 9 10 10 11 11
REMARK SMILES IDX 85 12 12 14 86 15 9 16 7 17 6 18 8 20 5 21 1 22 2 23 3 24
REMARK SMILES IDX 88 25 4 26 87 27 22 28 23 29 24 30 25 31 26 32 27 33 28 34
REMARK SMILES IDX 29 35 30 36 31 37 32 38 84 39 33 40 83 41 34 42 35 43 36 44
REMARK SMILES IDX 77 45 37 46 82 47 76 48 78 49 38 50 81 51 75 52 74 53 39 55
REMARK SMILES IDX 65 56 48 57 64 58 49 59 52 60 63 61 79 62 50 63 51 64 62 66
REMARK SMILES IDX 80 67 53 68 40 69 41 70 46 71 42 72 43 73 45 74 47 75 44 76
REMARK SMILES IDX 66 77 67 78 72 79 68 80 69 81 71 82 73 83 70 84 54 85 55 86
REMARK SMILES IDX 60 87 56 88 57 89 59 90 61 91 58 92
REMARK H PARENT 10 13 6 19 78 54 52 65
REMARK Flexibility Score: inf
ROOT
ATOM      1  C   UNL A   1      43.978  18.807  25.000  1.00  0.00     0.188 C 
ENDROOT
BRANCH   1   2
ATOM      2  C   UNL A   1      42.804  18.776  26.004  1.00  0.00     0.188 C 
BRANCH   2   3
ATOM      3  O   UNL A   1      41.550  19.355  25.679  1.00  0.00    -0.376 OA
BRANCH   3   4
ATOM      4  C   UNL A   1      40.976  20.252  26.619  1.00  0.00     0.202 C 
BRANCH   4   5
ATOM      5  C   UNL A   1      40.437  21.550  26.039  1.00  0.00     0.261 C 
BRANCH   5   6
ATOM      6  O   UNL A   1      39.341  22.110  26.807  1.00  0.00    -0.463 OA
BRANCH   6   7
ATOM      7  C   UNL A   1      38.500  22.933  26.133  1.00  0.00     0.315 C 
ATOM      8  O   UNL A   1      38.567  24.160  26.182  1.00  0.00    -0.252 OA
BRANCH   7   9
ATOM      9  C   UNL A   1      37.528  22.249  25.170  1.00  0.00     0.162 C 
ATOM     10  N   UNL A   1      35.155  21.793  25.500  1.00  0.00    -0.324 N 
ATOM     11  C   UNL A   1      35.229  22.803  24.456  1.00  0.00     0.264 C 
ATOM     12  C   UNL A   1      36.504  21.228  25.681  1.00  0.00     0.195 C 
ATOM     13  H   UNL A   1      34.451  21.169  25.105  1.00  0.00     0.348 HD
ATOM     14  C   UNL A   1      36.715  23.183  24.275  1.00  0.00     0.083 C 
ATOM     15  C   UNL A   1      36.603  19.974  24.793  1.00  0.00     0.076 C 
BRANCH  10  16
ATOM     16  C   UNL A   1      34.465  21.990  26.796  1.00  0.00     0.364 C 
BRANCH  16  17
ATOM     17  C   UNL A   1      32.927  22.076  26.883  1.00  0.00     0.279 C 
ATOM     18  N   UNL A   1      32.168  21.484  25.885  1.00  0.00    -0.321 N 
ATOM     19  H   UNL A   1      31.334  21.951  25.648  1.00  0.00     0.170 HD
ATOM     20  O   UNL A   1      32.362  22.823  27.687  1.00  0.00    -0.268 OA
BRANCH  18  21
ATOM     21  C   UNL A   1      32.434  20.309  25.171  1.00  0.00     0.041 A 
ATOM     22  C   UNL A   1      33.926  16.753  23.265  1.00  0.00     0.044 C 
ATOM     23  C   UNL A   1      33.235  17.938  23.859  1.00  0.00    -0.051 A 
ATOM     24  C   UNL A   1      33.070  17.950  25.212  1.00  0.00     0.005 A 
ATOM     25  C   UNL A   1      32.811  19.079  23.172  1.00  0.00     0.005 A 
ATOM     26  C   UNL A   1      32.774  19.150  25.828  1.00  0.00     0.026 A 
ATOM     27  C   UNL A   1      32.316  20.231  23.806  1.00  0.00     0.026 A 
ENDBRANCH  18  21
ENDBRANCH  16  17
ENDBRANCH  10  16
ENDBRANCH   7   9
ENDBRANCH   6   7
ENDBRANCH   5   6
ENDBRANCH   4   5
ENDBRANCH   3   4
ENDBRANCH   2   3
ENDBRANCH   1   2
BRANCH   1  28
ATOM     28  O   UNL A   1      44.078  19.887  24.081  1.00  0.00    -0.377 OA
BRANCH  28  29
ATOM     29  C   UNL A   1      45.016  20.862  24.508  1.00  0.00     0.188 C 
BRANCH  29  30
ATOM     30  C   UNL A   1      44.679  22.236  23.973  1.00  0.00     0.188 C 
BRANCH  30  31
ATOM     31  O   UNL A   1      43.396  22.719  24.304  1.00  0.00    -0.376 OA
BRANCH  31  32
ATOM     32  C   UNL A   1      43.326  23.737  25.299  1.00  0.00     0.202 C 
BRANCH  32  33
ATOM     33  C   UNL A   1      43.690  25.209  24.957  1.00  0.00     0.261 C 
BRANCH  33  34
ATOM     34  O   UNL A   1      45.116  25.493  25.071  1.00  0.00    -0.460 OA
BRANCH  34  35
ATOM     35  C   UNL A   1      45.437  26.738  25.547  1.00  0.00     0.338 C 
ATOM     36  O   UNL A   1      45.966  27.614  24.860  1.00  0.00    -0.246 OA
BRANCH  35  37
ATOM     37  C   UNL A   1      45.443  26.801  27.065  1.00  0.00     0.060 A 
ATOM     38  C   UNL A   1      45.963  27.957  27.662  1.00  0.00     0.016 A 
ATOM     39  C   UNL A   1      45.393  25.644  27.841  1.00  0.00     0.016 A 
ATOM     40  C   UNL A   1      46.700  27.880  28.863  1.00  0.00     0.010 A 
ATOM     41  C   UNL A   1      46.231  25.549  28.966  1.00  0.00     0.010 A 
ATOM     42  C   UNL A   1      46.974  26.639  29.447  1.00  0.00    -0.014 A 
BRANCH  42  43
ATOM     43  C   UNL A   1      48.140  26.393  30.362  1.00  0.00     0.031 A 
ATOM     44  C   UNL A   1      49.562  26.327  29.868  1.00  0.00     0.074 A 
ATOM     45  C   UNL A   1      47.972  26.506  31.711  1.00  0.00     0.049 A 
ATOM     46  N   UNL A   1      50.605  26.160  30.615  1.00  0.00    -0.248 NA
ATOM     47  C   UNL A   1      49.950  26.531  28.482  1.00  0.00     0.031 C 
ATOM     48  C   UNL A   1      49.007  26.594  32.748  1.00  0.00     0.029 A 
ATOM     49  N   UNL A   1      46.788  26.601  32.457  1.00  0.00    -0.354 N 
ATOM     50  C   UNL A   1      51.753  26.420  29.902  1.00  0.00     0.074 A 
ATOM     51  C   UNL A   1      51.266  26.758  28.588  1.00  0.00     0.031 C 
ATOM     52  C   UNL A   1      48.448  26.633  33.960  1.00  0.00     0.029 A 
ATOM     53  C   UNL A   1      47.083  26.264  33.789  1.00  0.00     0.049 A 
ATOM     54  H   UNL A   1      45.904  26.858  32.108  1.00  0.00     0.167 HD
ATOM     55  C   UNL A   1      52.978  26.327  30.508  1.00  0.00     0.037 A 
ATOM     56  C   UNL A   1      46.621  25.101  34.315  1.00  0.00     0.037 A 
ATOM     57  C   UNL A   1      52.941  25.560  31.786  1.00  0.00     0.049 A 
ATOM     58  C   UNL A   1      47.758  24.078  34.459  1.00  0.00     0.074 A 
ATOM     59  C   UNL A   1      53.731  25.482  32.918  1.00  0.00     0.029 A 
ATOM     60  N   UNL A   1      51.919  24.602  32.014  1.00  0.00    -0.354 N 
ATOM     61  N   UNL A   1      48.800  23.973  33.640  1.00  0.00    -0.248 NA
ATOM     62  C   UNL A   1      47.956  23.322  35.693  1.00  0.00     0.031 C 
ATOM     63  C   UNL A   1      53.069  24.672  33.868  1.00  0.00     0.029 A 
ATOM     64  C   UNL A   1      51.909  24.140  33.310  1.00  0.00     0.049 A 
ATOM     65  H   UNL A   1      51.287  24.301  31.321  1.00  0.00     0.167 HD
ATOM     66  C   UNL A   1      49.797  23.222  34.240  1.00  0.00     0.074 A 
ATOM     67  C   UNL A   1      49.204  22.851  35.524  1.00  0.00     0.031 C 
ATOM     68  C   UNL A   1      51.094  23.018  33.806  1.00  0.00     0.037 A 
BRANCH  55  69
ATOM     69  C   UNL A   1      54.255  26.987  29.946  1.00  0.00     0.057 A 
ATOM     70  C   UNL A   1      54.796  28.181  30.484  1.00  0.00     0.134 A 
ATOM     71  C   UNL A   1      54.999  26.500  28.856  1.00  0.00     0.134 A 
ATOM     72  F   UNL A   1      54.147  28.890  31.415  1.00  0.00    -0.206 F 
ATOM     73  C   UNL A   1      55.999  28.773  30.047  1.00  0.00     0.040 A 
ATOM     74  C   UNL A   1      56.144  27.139  28.336  1.00  0.00     0.040 A 
ATOM     75  F   UNL A   1      54.686  25.348  28.255  1.00  0.00    -0.206 F 
ATOM     76  C   UNL A   1      56.674  28.260  28.954  1.00  0.00     0.006 A 
ENDBRANCH  55  69
BRANCH  56  77
ATOM     77  C   UNL A   1      45.118  25.108  34.264  1.00  0.00     0.057 A 
ATOM     78  C   UNL A   1      44.576  24.107  33.416  1.00  0.00     0.134 A 
ATOM     79  C   UNL A   1      44.387  25.356  35.435  1.00  0.00     0.134 A 
ATOM     80  F   UNL A   1      45.172  23.837  32.243  1.00  0.00    -0.206 F 
ATOM     81  C   UNL A   1      43.580  23.214  33.846  1.00  0.00     0.040 A 
ATOM     82  C   UNL A   1      43.368  24.478  35.863  1.00  0.00     0.040 A 
ATOM     83  F   UNL A   1      44.778  26.316  36.285  1.00  0.00    -0.206 F 
ATOM     84  C   UNL A   1      43.020  23.360  35.109  1.00  0.00     0.006 A 
ENDBRANCH  56  77
BRANCH  68  85
ATOM     85  C   UNL A   1      51.931  21.772  34.128  1.00  0.00     0.057 A 
ATOM     86  C   UNL A   1      52.444  20.877  33.189  1.00  0.00     0.134 A 
ATOM     87  C   UNL A   1      52.341  21.497  35.466  1.00  0.00     0.134 A 
ATOM     88  F   UNL A   1      52.331  21.090  31.873  1.00  0.00    -0.206 F 
ATOM     89  C   UNL A   1      53.161  19.731  33.561  1.00  0.00     0.040 A 
ATOM     90  C   UNL A   1      53.012  20.341  35.855  1.00  0.00     0.040 A 
ATOM     91  F   UNL A   1      52.180  22.372  36.469  1.00  0.00    -0.206 F 
ATOM     92  C   UNL A   1      53.417  19.441  34.895  1.00  0.00     0.006 A 
ENDBRANCH  68  85
ENDBRANCH  42  43
ENDBRANCH  35  37
ENDBRANCH  34  35
ENDBRANCH  33  34
ENDBRANCH  32  33
ENDBRANCH  31  32
ENDBRANCH  30  31
ENDBRANCH  29  30
ENDBRANCH  28  29
ENDBRANCH   1  28
TORSDOF 23
ENDMDL
MODEL 2
REMARK VINA RESULT:      -9.8      6.205     11.264
REMARK SMILES Cc1ccc(NC(=O)C[N@H+]2CC[C@@H](C(=O)OCCOCCOCCOCCOC(=O)c3ccc(-c4c5nc(c(-c6c(F)cccc6F)c6ccc([nH]6)c(-c6c(F)cccc6F)c6nc(c(-c7c(F)cccc7F)c7ccc4[nH]7)C=C6)C=C5)cc3)[C@@H]2C)cc1
REMARK SMILES IDX 21 1 20 2 19 3 18 4 17 5 16 6 14 7 15 8 13 9 10 10 11 11
REMARK SMILES IDX 85 12 12 14 86 15 9 16 7 17 6 18 8 20 5 21 1 22 2 23 3 24
REMARK SMILES IDX 88 25 4 26 87 27 22 28 23 29 24 30 25 31 26 32 27 33 28 34
REMARK SMILES IDX 29 35 30 36 31 37 32 38 84 39 33 40 83 41 34 42 35 43 36 44
REMARK SMILES IDX 77 45 37 46 82 47 76 48 78 49 38 50 81 51 75 52 74 53 39 55
REMARK SMILES IDX 65 56 48 57 64 58 49 59 52 60 63 61 79 62 50 63 51 64 62 66
REMARK SMILES IDX 80 67 53 68 40 69 41 70 46 71 42 72 43 73 45 74 47 75 44 76
REMARK SMILES IDX 66 77 67 78 72 79 68 80 69 81 71 82 73 83 70 84 54 85 55 86
REMARK SMILES IDX 60 87 56 88 57 89 59 90 61 91 58 92
REMARK H PARENT 10 13 6 19 78 54 52 65
REMARK Flexibility Score: inf
ROOT
ATOM      1  C   UNL A   1      40.406  20.502  26.485  1.00  0.00     0.188 C 
ENDROOT
BRANCH   1   2
ATOM      2  C   UNL A   1      39.761  21.898  26.329  1.00  0.00     0.188 C 
BRANCH   2   3
ATOM      3  O   UNL A   1      38.426  22.038  25.869  1.00  0.00    -0.376 OA
BRANCH   3   4
ATOM      4  C   UNL A   1      37.854  23.337  25.894  1.00  0.00     0.202 C 
BRANCH   4   5
ATOM      5  C   UNL A   1      36.338  23.381  26.010  1.00  0.00     0.261 C 
BRANCH   5   6
ATOM      6  O   UNL A   1      35.725  24.370  25.143  1.00  0.00    -0.463 OA
BRANCH   6   7
ATOM      7  C   UNL A   1      35.032  23.887  24.083  1.00  0.00     0.315 C 
ATOM      8  O   UNL A   1      35.519  23.737  22.964  1.00  0.00    -0.252 OA
BRANCH   7   9
ATOM      9  C   UNL A   1      33.617  23.388  24.384  1.00  0.00     0.162 C 
ATOM     10  N   UNL A   1      31.521  24.098  23.359  1.00  0.00    -0.324 N 
ATOM     11  C   UNL A   1      31.740  22.729  22.920  1.00  0.00     0.264 C 
ATOM     12  C   UNL A   1      32.442  24.368  24.478  1.00  0.00     0.195 C 
ATOM     13  H   UNL A   1      30.527  24.064  23.587  1.00  0.00     0.348 HD
ATOM     14  C   UNL A   1      33.103  22.269  23.480  1.00  0.00     0.083 C 
ATOM     15  C   UNL A   1      31.681  24.071  25.784  1.00  0.00     0.076 C 
BRANCH  10  16
ATOM     16  C   UNL A   1      31.421  25.257  22.441  1.00  0.00     0.364 C 
BRANCH  16  17
ATOM     17  C   UNL A   1      32.670  25.849  21.755  1.00  0.00     0.279 C 
ATOM     18  N   UNL A   1      32.994  27.177  21.991  1.00  0.00    -0.321 N 
ATOM     19  H   UNL A   1      33.389  27.662  21.230  1.00  0.00     0.170 HD
ATOM     20  O   UNL A   1      33.261  25.250  20.853  1.00  0.00    -0.268 OA
BRANCH  18  21
ATOM     21  C   UNL A   1      32.832  27.916  23.168  1.00  0.00     0.041 A 
ATOM     22  C   UNL A   1      32.300  29.533  27.119  1.00  0.00     0.044 C 
ATOM     23  C   UNL A   1      32.515  29.152  25.689  1.00  0.00    -0.051 A 
ATOM     24  C   UNL A   1      33.677  28.508  25.384  1.00  0.00     0.005 A 
ATOM     25  C   UNL A   1      31.604  29.319  24.643  1.00  0.00     0.005 A 
ATOM     26  C   UNL A   1      33.758  27.832  24.182  1.00  0.00     0.026 A 
ATOM     27  C   UNL A   1      31.795  28.795  23.353  1.00  0.00     0.026 A 
ENDBRANCH  18  21
ENDBRANCH  16  17
ENDBRANCH  10  16
ENDBRANCH   7   9
ENDBRANCH   6   7
ENDBRANCH   5   6
ENDBRANCH   4   5
ENDBRANCH   3   4
ENDBRANCH   2   3
ENDBRANCH   1   2
BRANCH   1  28
ATOM     28  O   UNL A   1      41.809  20.361  26.301  1.00  0.00    -0.377 OA
BRANCH  28  29
ATOM     29  C   UNL A   1      42.532  21.423  26.902  1.00  0.00     0.188 C 
BRANCH  29  30
ATOM     30  C   UNL A   1      43.639  21.927  26.002  1.00  0.00     0.188 C 
BRANCH  30  31
ATOM     31  O   UNL A   1      43.221  22.458  24.765  1.00  0.00    -0.376 OA
BRANCH  31  32
ATOM     32  C   UNL A   1      44.242  22.867  23.859  1.00  0.00     0.202 C 
BRANCH  32  33
ATOM     33  C   UNL A   1      45.685  23.153  24.365  1.00  0.00     0.261 C 
BRANCH  33  34
ATOM     34  O   UNL A   1      45.932  24.564  24.637  1.00  0.00    -0.460 OA
BRANCH  34  35
ATOM     35  C   UNL A   1      45.898  24.928  25.959  1.00  0.00     0.338 C 
ATOM     36  O   UNL A   1      46.681  24.490  26.806  1.00  0.00    -0.246 OA
BRANCH  35  37
ATOM     37  C   UNL A   1      44.591  25.596  26.349  1.00  0.00     0.060 A 
ATOM     38  C   UNL A   1      44.178  26.701  25.593  1.00  0.00     0.016 A 
ATOM     39  C   UNL A   1      44.061  25.460  27.632  1.00  0.00     0.016 A 
ATOM     40  C   UNL A   1      43.524  27.791  26.205  1.00  0.00     0.010 A 
ATOM     41  C   UNL A   1      43.525  26.596  28.264  1.00  0.00     0.010 A 
ATOM     42  C   UNL A   1      43.330  27.813  27.591  1.00  0.00    -0.014 A 
BRANCH  42  43
ATOM     43  C   UNL A   1      43.157  29.077  28.383  1.00  0.00     0.031 A 
ATOM     44  C   UNL A   1      41.804  29.635  28.740  1.00  0.00     0.074 A 
ATOM     45  C   UNL A   1      44.225  29.604  29.049  1.00  0.00     0.049 A 
ATOM     46  N   UNL A   1      41.598  30.694  29.455  1.00  0.00    -0.248 NA
ATOM     47  C   UNL A   1      40.545  28.996  28.393  1.00  0.00     0.031 C 
ATOM     48  C   UNL A   1      44.222  30.638  30.092  1.00  0.00     0.029 A 
ATOM     49  N   UNL A   1      45.586  29.286  28.945  1.00  0.00    -0.354 N 
ATOM     50  C   UNL A   1      40.274  30.774  29.824  1.00  0.00     0.074 A 
ATOM     51  C   UNL A   1      39.681  29.611  29.213  1.00  0.00     0.031 C 
ATOM     52  C   UNL A   1      45.471  30.933  30.457  1.00  0.00     0.029 A 
ATOM     53  C   UNL A   1      46.328  30.354  29.478  1.00  0.00     0.049 A 
ATOM     54  H   UNL A   1      45.958  28.457  28.564  1.00  0.00     0.167 HD
ATOM     55  C   UNL A   1      39.837  31.809  30.608  1.00  0.00     0.037 A 
ATOM     56  C   UNL A   1      47.060  31.149  28.657  1.00  0.00     0.037 A 
ATOM     57  C   UNL A   1      40.788  32.957  30.642  1.00  0.00     0.049 A 
ATOM     58  C   UNL A   1      46.387  32.520  28.483  1.00  0.00     0.074 A 
ATOM     59  C   UNL A   1      41.029  34.018  31.495  1.00  0.00     0.029 A 
ATOM     60  N   UNL A   1      41.701  33.161  29.574  1.00  0.00    -0.354 N 
ATOM     61  N   UNL A   1      45.075  32.731  28.479  1.00  0.00    -0.248 NA
ATOM     62  C   UNL A   1      47.140  33.764  28.611  1.00  0.00     0.031 C 
ATOM     63  C   UNL A   1      42.192  34.689  31.054  1.00  0.00     0.029 A 
ATOM     64  C   UNL A   1      42.636  34.129  29.857  1.00  0.00     0.049 A 
ATOM     65  H   UNL A   1      41.667  32.664  28.725  1.00  0.00     0.167 HD
ATOM     66  C   UNL A   1      44.814  34.078  28.666  1.00  0.00     0.074 A 
ATOM     67  C   UNL A   1      46.150  34.665  28.745  1.00  0.00     0.031 C 
ATOM     68  C   UNL A   1      43.596  34.692  28.892  1.00  0.00     0.037 A 
BRANCH  55  69
ATOM     69  C   UNL A   1      38.517  31.771  31.406  1.00  0.00     0.057 A 
ATOM     70  C   UNL A   1      38.481  31.583  32.810  1.00  0.00     0.134 A 
ATOM     71  C   UNL A   1      37.234  31.899  30.845  1.00  0.00     0.134 A 
ATOM     72  F   UNL A   1      39.582  31.278  33.507  1.00  0.00    -0.206 F 
ATOM     73  C   UNL A   1      37.302  31.616  33.583  1.00  0.00     0.040 A 
ATOM     74  C   UNL A   1      36.038  31.825  31.590  1.00  0.00     0.040 A 
ATOM     75  F   UNL A   1      37.061  32.147  29.544  1.00  0.00    -0.206 F 
ATOM     76  C   UNL A   1      36.067  31.721  32.971  1.00  0.00     0.006 A 
ENDBRANCH  55  69
BRANCH  56  77
ATOM     77  C   UNL A   1      48.088  30.307  27.954  1.00  0.00     0.057 A 
ATOM     78  C   UNL A   1      49.025  29.705  28.834  1.00  0.00     0.134 A 
ATOM     79  C   UNL A   1      47.703  29.514  26.862  1.00  0.00     0.134 A 
ATOM     80  F   UNL A   1      49.499  30.405  29.877  1.00  0.00    -0.206 F 
ATOM     81  C   UNL A   1      49.307  28.328  28.807  1.00  0.00     0.040 A 
ATOM     82  C   UNL A   1      48.003  28.136  26.814  1.00  0.00     0.040 A 
ATOM     83  F   UNL A   1      46.861  30.000  25.939  1.00  0.00    -0.206 F 
ATOM     84  C   UNL A   1      48.735  27.525  27.829  1.00  0.00     0.006 A 
ENDBRANCH  56  77
BRANCH  68  85
ATOM     85  C   UNL A   1      43.267  36.139  28.501  1.00  0.00     0.057 A 
ATOM     86  C   UNL A   1      43.706  37.279  29.174  1.00  0.00     0.134 A 
ATOM     87  C   UNL A   1      42.538  36.423  27.308  1.00  0.00     0.134 A 
ATOM     88  F   UNL A   1      44.567  37.210  30.196  1.00  0.00    -0.206 F 
ATOM     89  C   UNL A   1      43.325  38.572  28.786  1.00  0.00     0.040 A 
ATOM     90  C   UNL A   1      42.113  37.695  26.937  1.00  0.00     0.040 A 
ATOM     91  F   UNL A   1      42.258  35.487  26.389  1.00  0.00    -0.206 F 
ATOM     92  C   UNL A   1      42.499  38.782  27.689  1.00  0.00     0.006 A 
ENDBRANCH  68  85
ENDBRANCH  42  43
ENDBRANCH  35  37
ENDBRANCH  34  35
ENDBRANCH  33  34
ENDBRANCH  32  33
ENDBRANCH  31  32
ENDBRANCH  30  31
ENDBRANCH  29  30
ENDBRANCH  28  29
ENDBRANCH   1  28
TORSDOF 23
ENDMDL
MODEL 3
REMARK VINA RESULT:      -9.6     10.942     14.764
REMARK SMILES Cc1ccc(NC(=O)C[N@H+]2CC[C@@H](C(=O)OCCOCCOCCOCCOC(=O)c3ccc(-c4c5nc(c(-c6c(F)cccc6F)c6ccc([nH]6)c(-c6c(F)cccc6F)c6nc(c(-c7c(F)cccc7F)c7ccc4[nH]7)C=C6)C=C5)cc3)[C@@H]2C)cc1
REMARK SMILES IDX 21 1 20 2 19 3 18 4 17 5 16 6 14 7 15 8 13 9 10 10 11 11
REMARK SMILES IDX 85 12 12 14 86 15 9 16 7 17 6 18 8 20 5 21 1 22 2 23 3 24
REMARK SMILES IDX 88 25 4 26 87 27 22 28 23 29 24 30 25 31 26 32 27 33 28 34
REMARK SMILES IDX 29 35 30 36 31 37 32 38 84 39 33 40 83 41 34 42 35 43 36 44
REMARK SMILES IDX 77 45 37 46 82 47 76 48 78 49 38 50 81 51 75 52 74 53 39 55
REMARK SMILES IDX 65 56 48 57 64 58 49 59 52 60 63 61 79 62 50 63 51 64 62 66
REMARK SMILES IDX 80 67 53 68 40 69 41 70 46 71 42 72 43 73 45 74 47 75 44 76
REMARK SMILES IDX 66 77 67 78 72 79 68 80 69 81 71 82 73 83 70 84 54 85 55 86
REMARK SMILES IDX 60 87 56 88 57 89 59 90 61 91 58 92
REMARK H PARENT 10 13 6 19 78 54 52 65
REMARK Flexibility Score: inf
ROOT
ATOM      1  C   UNL A   1      33.448  34.785  29.423  1.00  0.00     0.188 C 
ENDROOT
BRANCH   1   2
ATOM      2  C   UNL A   1      34.003  33.770  28.398  1.00  0.00     0.188 C 
BRANCH   2   3
ATOM      3  O   UNL A   1      33.142  32.858  27.735  1.00  0.00    -0.376 OA
BRANCH   3   4
ATOM      4  C   UNL A   1      33.653  31.567  27.437  1.00  0.00     0.202 C 
BRANCH   4   5
ATOM      5  C   UNL A   1      32.631  30.560  26.932  1.00  0.00     0.261 C 
BRANCH   5   6
ATOM      6  O   UNL A   1      32.999  29.957  25.665  1.00  0.00    -0.463 OA
BRANCH   6   7
ATOM      7  C   UNL A   1      32.592  28.678  25.473  1.00  0.00     0.315 C 
ATOM      8  O   UNL A   1      31.509  28.244  25.862  1.00  0.00    -0.252 OA
BRANCH   7   9
ATOM      9  C   UNL A   1      33.505  27.811  24.603  1.00  0.00     0.162 C 
ATOM     10  N   UNL A   1      32.881  26.368  22.739  1.00  0.00    -0.324 N 
ATOM     11  C   UNL A   1      33.637  27.467  22.161  1.00  0.00     0.264 C 
ATOM     12  C   UNL A   1      33.089  26.392  24.198  1.00  0.00     0.195 C 
ATOM     13  H   UNL A   1      33.286  25.578  22.236  1.00  0.00     0.348 HD
ATOM     14  C   UNL A   1      33.980  28.451  23.300  1.00  0.00     0.083 C 
ATOM     15  C   UNL A   1      34.264  25.447  24.513  1.00  0.00     0.076 C 
BRANCH  10  16
ATOM     16  C   UNL A   1      31.474  26.056  22.392  1.00  0.00     0.364 C 
BRANCH  16  17
ATOM     17  C   UNL A   1      30.407  25.836  23.484  1.00  0.00     0.279 C 
ATOM     18  N   UNL A   1      29.684  26.927  23.941  1.00  0.00    -0.321 N 
ATOM     19  H   UNL A   1      29.444  26.911  24.896  1.00  0.00     0.170 HD
ATOM     20  O   UNL A   1      30.323  24.772  24.105  1.00  0.00    -0.268 OA
BRANCH  18  21
ATOM     21  C   UNL A   1      29.250  28.047  23.222  1.00  0.00     0.041 A 
ATOM     22  C   UNL A   1      28.330  31.874  21.486  1.00  0.00     0.044 C 
ATOM     23  C   UNL A   1      28.556  30.467  21.939  1.00  0.00    -0.051 A 
ATOM     24  C   UNL A   1      29.822  29.973  21.830  1.00  0.00     0.005 A 
ATOM     25  C   UNL A   1      27.613  29.631  22.543  1.00  0.00     0.005 A 
ATOM     26  C   UNL A   1      30.151  28.842  22.551  1.00  0.00     0.026 A 
ATOM     27  C   UNL A   1      27.924  28.378  23.097  1.00  0.00     0.026 A 
ENDBRANCH  18  21
ENDBRANCH  16  17
ENDBRANCH  10  16
ENDBRANCH   7   9
ENDBRANCH   6   7
ENDBRANCH   5   6
ENDBRANCH   4   5
ENDBRANCH   3   4
ENDBRANCH   2   3
ENDBRANCH   1   2
BRANCH   1  28
ATOM     28  O   UNL A   1      33.726  34.598  30.805  1.00  0.00    -0.377 OA
BRANCH  28  29
ATOM     29  C   UNL A   1      34.434  33.393  31.045  1.00  0.00     0.188 C 
BRANCH  29  30
ATOM     30  C   UNL A   1      34.672  33.167  32.522  1.00  0.00     0.188 C 
BRANCH  30  31
ATOM     31  O   UNL A   1      35.831  33.772  33.050  1.00  0.00    -0.376 OA
BRANCH  31  32
ATOM     32  C   UNL A   1      37.082  33.187  32.696  1.00  0.00     0.202 C 
BRANCH  32  33
ATOM     33  C   UNL A   1      37.287  31.647  32.768  1.00  0.00     0.261 C 
BRANCH  33  34
ATOM     34  O   UNL A   1      38.006  31.106  31.621  1.00  0.00    -0.460 OA
BRANCH  34  35
ATOM     35  C   UNL A   1      37.861  31.801  30.448  1.00  0.00     0.338 C 
ATOM     36  O   UNL A   1      36.895  31.668  29.692  1.00  0.00    -0.246 OA
BRANCH  35  37
ATOM     37  C   UNL A   1      39.157  32.441  29.981  1.00  0.00     0.060 A 
ATOM     38  C   UNL A   1      40.356  31.904  30.469  1.00  0.00     0.016 A 
ATOM     39  C   UNL A   1      39.189  33.747  29.493  1.00  0.00     0.016 A 
ATOM     40  C   UNL A   1      41.455  32.740  30.760  1.00  0.00     0.010 A 
ATOM     41  C   UNL A   1      40.234  34.594  29.900  1.00  0.00     0.010 A 
ATOM     42  C   UNL A   1      41.345  34.128  30.622  1.00  0.00    -0.014 A 
BRANCH  42  43
ATOM     43  C   UNL A   1      42.200  35.106  31.376  1.00  0.00     0.031 A 
ATOM     44  C   UNL A   1      41.993  35.409  32.838  1.00  0.00     0.074 A 
ATOM     45  C   UNL A   1      43.372  35.537  30.828  1.00  0.00     0.049 A 
ATOM     46  N   UNL A   1      42.723  36.209  33.545  1.00  0.00    -0.248 NA
ATOM     47  C   UNL A   1      40.985  34.766  33.665  1.00  0.00     0.031 C 
ATOM     48  C   UNL A   1      44.475  36.244  31.490  1.00  0.00     0.029 A 
ATOM     49  N   UNL A   1      43.849  35.396  29.517  1.00  0.00    -0.354 N 
ATOM     50  C   UNL A   1      42.446  36.054  34.885  1.00  0.00     0.074 A 
ATOM     51  C   UNL A   1      41.416  35.046  34.903  1.00  0.00     0.031 C 
ATOM     52  C   UNL A   1      45.427  36.552  30.607  1.00  0.00     0.029 A 
ATOM     53  C   UNL A   1      44.862  36.348  29.315  1.00  0.00     0.049 A 
ATOM     54  H   UNL A   1      43.528  34.743  28.853  1.00  0.00     0.167 HD
ATOM     55  C   UNL A   1      43.126  36.789  35.820  1.00  0.00     0.037 A 
ATOM     56  C   UNL A   1      44.647  37.405  28.491  1.00  0.00     0.037 A 
ATOM     57  C   UNL A   1      43.821  37.973  35.240  1.00  0.00     0.049 A 
ATOM     58  C   UNL A   1      44.454  38.697  29.300  1.00  0.00     0.074 A 
ATOM     59  C   UNL A   1      44.878  38.782  35.611  1.00  0.00     0.029 A 
ATOM     60  N   UNL A   1      43.359  38.549  34.026  1.00  0.00    -0.354 N 
ATOM     61  N   UNL A   1      43.887  38.770  30.500  1.00  0.00    -0.248 NA
ATOM     62  C   UNL A   1      45.158  39.929  28.954  1.00  0.00     0.031 C 
ATOM     63  C   UNL A   1      45.166  39.660  34.542  1.00  0.00     0.029 A 
ATOM     64  C   UNL A   1      44.226  39.492  33.527  1.00  0.00     0.049 A 
ATOM     65  H   UNL A   1      42.511  38.299  33.591  1.00  0.00     0.167 HD
ATOM     66  C   UNL A   1      44.193  39.983  31.093  1.00  0.00     0.074 A 
ATOM     67  C   UNL A   1      44.994  40.657  30.073  1.00  0.00     0.031 C 
ATOM     68  C   UNL A   1      43.946  40.388  32.391  1.00  0.00     0.037 A 
BRANCH  55  69
ATOM     69  C   UNL A   1      43.199  36.404  37.313  1.00  0.00     0.057 A 
ATOM     70  C   UNL A   1      42.071  36.455  38.169  1.00  0.00     0.134 A 
ATOM     71  C   UNL A   1      44.364  35.984  37.979  1.00  0.00     0.134 A 
ATOM     72  F   UNL A   1      40.908  36.983  37.770  1.00  0.00    -0.206 F 
ATOM     73  C   UNL A   1      42.081  36.041  39.517  1.00  0.00     0.040 A 
ATOM     74  C   UNL A   1      44.416  35.671  39.353  1.00  0.00     0.040 A 
ATOM     75  F   UNL A   1      45.518  35.810  37.327  1.00  0.00    -0.206 F 
ATOM     76  C   UNL A   1      43.265  35.661  40.123  1.00  0.00     0.006 A 
ENDBRANCH  55  69
BRANCH  56  77
ATOM     77  C   UNL A   1      44.348  36.891  27.110  1.00  0.00     0.057 A 
ATOM     78  C   UNL A   1      45.356  36.034  26.594  1.00  0.00     0.134 A 
ATOM     79  C   UNL A   1      43.034  36.534  26.774  1.00  0.00     0.134 A 
ATOM     80  F   UNL A   1      46.649  36.325  26.812  1.00  0.00    -0.206 F 
ATOM     81  C   UNL A   1      45.067  34.764  26.066  1.00  0.00     0.040 A 
ATOM     82  C   UNL A   1      42.736  35.271  26.220  1.00  0.00     0.040 A 
ATOM     83  F   UNL A   1      42.005  37.299  27.165  1.00  0.00    -0.206 F 
ATOM     84  C   UNL A   1      43.746  34.352  25.942  1.00  0.00     0.006 A 
ENDBRANCH  56  77
BRANCH  68  85
ATOM     85  C   UNL A   1      43.740  41.847  32.822  1.00  0.00     0.057 A 
ATOM     86  C   UNL A   1      42.581  42.365  33.399  1.00  0.00     0.134 A 
ATOM     87  C   UNL A   1      44.812  42.785  32.748  1.00  0.00     0.134 A 
ATOM     88  F   UNL A   1      41.546  41.585  33.731  1.00  0.00    -0.206 F 
ATOM     89  C   UNL A   1      42.448  43.723  33.724  1.00  0.00     0.040 A 
ATOM     90  C   UNL A   1      44.681  44.144  33.022  1.00  0.00     0.040 A 
ATOM     91  F   UNL A   1      46.075  42.424  32.476  1.00  0.00    -0.206 F 
ATOM     92  C   UNL A   1      43.484  44.622  33.504  1.00  0.00     0.006 A 
ENDBRANCH  68  85
ENDBRANCH  42  43
ENDBRANCH  35  37
ENDBRANCH  34  35
ENDBRANCH  33  34
ENDBRANCH  32  33
ENDBRANCH  31  32
ENDBRANCH  30  31
ENDBRANCH  29  30
ENDBRANCH  28  29
ENDBRANCH   1  28
TORSDOF 23
ENDMDL
