MODEL 1
REMARK VINA RESULT:     -10.0      0.000      0.000
REMARK SMILES O=C(OCCOCCOCCOCCOC(=O)C1([C@H]2CCC[C@H]2O)CCCCC1)c1ccc(-c2c3nc(c(-c4c(F)cccc4F)c4ccc([nH]4)c(-c4c(F)cccc4F)c4nc(c(-c5c(F)cccc5F)c5ccc2[nH]5)C=C4)C=C3)cc1
REMARK SMILES IDX 9 1 8 2 7 3 6 4 5 5 4 6 3 7 2 8 1 9 30 10 31 11 83 12 32 13
REMARK SMILES IDX 82 14 33 15 34 16 35 17 76 18 36 19 81 20 75 21 77 22 37 23
REMARK SMILES IDX 80 24 74 25 73 26 38 28 64 29 47 30 63 31 48 32 51 33 62 34
REMARK SMILES IDX 78 35 49 36 50 37 61 39 79 40 52 41 39 42 40 43 45 44 41 45
REMARK SMILES IDX 42 46 44 47 46 48 43 49 65 50 66 51 71 52 67 53 68 54 70 55
REMARK SMILES IDX 72 56 69 57 53 58 54 59 59 60 55 61 56 62 58 63 60 64 57 65
REMARK SMILES IDX 10 66 11 67 12 68 13 69 14 70 15 71 16 72 17 73 18 74 25 75
REMARK SMILES IDX 29 76 26 77 28 78 27 79 19 80 20 81 23 82 21 83 22 84 24 85
REMARK H PARENT 77 27 51 38 24 86
REMARK Flexibility Score: inf
ROOT
ATOM      1  O   UNL A   1      34.009  29.724  26.029  1.00  0.00    -0.377 OA
ENDROOT
BRANCH   1   2
ATOM      2  C   UNL A   1      33.933  30.093  27.393  1.00  0.00     0.188 C 
BRANCH   2   3
ATOM      3  C   UNL A   1      33.422  31.505  27.608  1.00  0.00     0.188 C 
BRANCH   3   4
ATOM      4  O   UNL A   1      34.520  32.401  27.666  1.00  0.00    -0.376 OA
BRANCH   4   5
ATOM      5  C   UNL A   1      34.305  33.710  28.175  1.00  0.00     0.202 C 
BRANCH   5   6
ATOM      6  C   UNL A   1      34.094  33.817  29.671  1.00  0.00     0.261 C 
BRANCH   6   7
ATOM      7  O   UNL A   1      34.432  32.677  30.480  1.00  0.00    -0.460 OA
BRANCH   7   8
ATOM      8  C   UNL A   1      35.460  32.351  31.282  1.00  0.00     0.338 C 
ATOM      9  O   UNL A   1      35.405  32.719  32.456  1.00  0.00    -0.246 OA
BRANCH   8  10
ATOM     10  C   UNL A   1      36.645  31.538  30.894  1.00  0.00     0.060 A 
ATOM     11  C   UNL A   1      37.495  30.844  31.752  1.00  0.00     0.016 A 
ATOM     12  C   UNL A   1      36.846  31.385  29.513  1.00  0.00     0.016 A 
ATOM     13  C   UNL A   1      38.515  30.039  31.290  1.00  0.00     0.010 A 
ATOM     14  C   UNL A   1      37.890  30.603  29.025  1.00  0.00     0.010 A 
ATOM     15  C   UNL A   1      38.737  29.958  29.928  1.00  0.00    -0.014 A 
BRANCH  15  16
ATOM     16  C   UNL A   1      40.041  29.446  29.519  1.00  0.00     0.031 A 
ATOM     17  C   UNL A   1      41.172  30.417  29.562  1.00  0.00     0.074 A 
ATOM     18  C   UNL A   1      40.207  28.137  29.286  1.00  0.00     0.049 A 
ATOM     19  N   UNL A   1      42.371  30.314  29.071  1.00  0.00    -0.248 NA
ATOM     20  C   UNL A   1      40.908  31.689  30.261  1.00  0.00     0.031 C 
ATOM     21  C   UNL A   1      39.178  27.109  29.458  1.00  0.00     0.029 A 
ATOM     22  N   UNL A   1      41.307  27.452  28.864  1.00  0.00    -0.354 N 
ATOM     23  C   UNL A   1      42.976  31.535  29.334  1.00  0.00     0.074 A 
ATOM     24  C   UNL A   1      42.030  32.353  30.050  1.00  0.00     0.031 C 
ATOM     25  C   UNL A   1      39.692  25.919  29.107  1.00  0.00     0.029 A 
ATOM     26  C   UNL A   1      41.043  26.132  28.602  1.00  0.00     0.049 A 
ATOM     27  H   UNL A   1      42.197  27.860  28.757  1.00  0.00     0.167 HD
ATOM     28  C   UNL A   1      44.213  31.927  28.960  1.00  0.00     0.037 A 
ATOM     29  C   UNL A   1      41.795  25.238  27.938  1.00  0.00     0.037 A 
ATOM     30  C   UNL A   1      45.095  31.049  28.242  1.00  0.00     0.049 A 
ATOM     31  C   UNL A   1      43.125  25.715  27.425  1.00  0.00     0.074 A 
ATOM     32  C   UNL A   1      46.347  31.301  27.724  1.00  0.00     0.029 A 
ATOM     33  N   UNL A   1      44.787  29.724  27.943  1.00  0.00    -0.354 N 
ATOM     34  N   UNL A   1      43.677  26.902  27.551  1.00  0.00    -0.248 NA
ATOM     35  C   UNL A   1      43.927  24.754  26.664  1.00  0.00     0.031 C 
ATOM     36  C   UNL A   1      46.772  30.143  27.062  1.00  0.00     0.029 A 
ATOM     37  C   UNL A   1      45.815  29.148  27.226  1.00  0.00     0.049 A 
ATOM     38  H   UNL A   1      43.956  29.265  28.204  1.00  0.00     0.167 HD
ATOM     39  C   UNL A   1      44.903  26.828  26.910  1.00  0.00     0.074 A 
ATOM     40  C   UNL A   1      45.009  25.474  26.394  1.00  0.00     0.031 C 
ATOM     41  C   UNL A   1      45.859  27.780  26.761  1.00  0.00     0.037 A 
BRANCH  28  42
ATOM     42  C   UNL A   1      44.570  33.362  29.207  1.00  0.00     0.057 A 
ATOM     43  C   UNL A   1      44.300  34.382  28.283  1.00  0.00     0.134 A 
ATOM     44  C   UNL A   1      45.308  33.709  30.347  1.00  0.00     0.134 A 
ATOM     45  F   UNL A   1      43.635  34.114  27.149  1.00  0.00    -0.206 F 
ATOM     46  C   UNL A   1      44.792  35.678  28.461  1.00  0.00     0.040 A 
ATOM     47  C   UNL A   1      45.778  35.007  30.549  1.00  0.00     0.040 A 
ATOM     48  F   UNL A   1      45.618  32.781  31.266  1.00  0.00    -0.206 F 
ATOM     49  C   UNL A   1      45.534  35.993  29.597  1.00  0.00     0.006 A 
ENDBRANCH  28  42
BRANCH  29  50
ATOM     50  C   UNL A   1      41.258  23.882  27.669  1.00  0.00     0.057 A 
ATOM     51  C   UNL A   1      40.260  23.667  26.715  1.00  0.00     0.134 A 
ATOM     52  C   UNL A   1      41.780  22.752  28.318  1.00  0.00     0.134 A 
ATOM     53  F   UNL A   1      39.711  24.704  26.066  1.00  0.00    -0.206 F 
ATOM     54  C   UNL A   1      39.800  22.381  26.414  1.00  0.00     0.040 A 
ATOM     55  C   UNL A   1      41.349  21.460  28.010  1.00  0.00     0.040 A 
ATOM     56  F   UNL A   1      42.748  22.885  29.238  1.00  0.00    -0.206 F 
ATOM     57  C   UNL A   1      40.353  21.273  27.056  1.00  0.00     0.006 A 
ENDBRANCH  29  50
BRANCH  41  58
ATOM     58  C   UNL A   1      47.119  27.367  26.070  1.00  0.00     0.057 A 
ATOM     59  C   UNL A   1      48.185  26.785  26.763  1.00  0.00     0.134 A 
ATOM     60  C   UNL A   1      47.206  27.448  24.675  1.00  0.00     0.134 A 
ATOM     61  F   UNL A   1      48.157  26.692  28.101  1.00  0.00    -0.206 F 
ATOM     62  C   UNL A   1      49.300  26.295  26.088  1.00  0.00     0.040 A 
ATOM     63  C   UNL A   1      48.303  26.936  23.987  1.00  0.00     0.040 A 
ATOM     64  F   UNL A   1      46.206  27.987  23.960  1.00  0.00    -0.206 F 
ATOM     65  C   UNL A   1      49.354  26.357  24.695  1.00  0.00     0.006 A 
ENDBRANCH  41  58
ENDBRANCH  15  16
ENDBRANCH   8  10
ENDBRANCH   7   8
ENDBRANCH   6   7
ENDBRANCH   5   6
ENDBRANCH   4   5
ENDBRANCH   3   4
ENDBRANCH   2   3
ENDBRANCH   1   2
BRANCH   1  66
ATOM     66  C   UNL A   1      33.522  28.439  25.665  1.00  0.00     0.188 C 
BRANCH  66  67
ATOM     67  C   UNL A   1      33.400  27.992  24.210  1.00  0.00     0.188 C 
BRANCH  67  68
ATOM     68  O   UNL A   1      33.387  26.600  24.042  1.00  0.00    -0.376 OA
BRANCH  68  69
ATOM     69  C   UNL A   1      33.373  25.788  25.204  1.00  0.00     0.202 C 
BRANCH  69  70
ATOM     70  C   UNL A   1      32.243  24.802  25.610  1.00  0.00     0.261 C 
BRANCH  70  71
ATOM     71  O   UNL A   1      32.196  23.484  25.024  1.00  0.00    -0.463 OA
BRANCH  71  72
ATOM     72  C   UNL A   1      32.953  22.518  25.612  1.00  0.00     0.312 C 
ATOM     73  O   UNL A   1      33.270  22.578  26.787  1.00  0.00    -0.252 OA
BRANCH  72  74
ATOM     74  C   UNL A   1      33.374  21.313  24.676  1.00  0.00     0.073 C 
ATOM     75  C   UNL A   1      33.293  19.900  25.359  1.00  0.00     0.019 C 
ATOM     76  C   UNL A   1      32.258  21.323  23.601  1.00  0.00     0.019 C 
ATOM     77  C   UNL A   1      33.250  18.684  24.436  1.00  0.00     0.001 C 
ATOM     78  C   UNL A   1      32.232  20.141  22.642  1.00  0.00     0.001 C 
ATOM     79  C   UNL A   1      32.192  18.801  23.361  1.00  0.00     0.000 C 
BRANCH  74  80
ATOM     80  C   UNL A   1      34.856  21.635  24.184  1.00  0.00     0.035 C 
ATOM     81  C   UNL A   1      35.211  23.037  23.648  1.00  0.00     0.007 C 
ATOM     82  C   UNL A   1      36.062  21.237  25.063  1.00  0.00     0.118 C 
ATOM     83  C   UNL A   1      36.669  23.297  24.031  1.00  0.00     0.003 C 
ATOM     84  C   UNL A   1      37.237  21.933  24.382  1.00  0.00     0.032 C 
BRANCH  82  85
ATOM     85  O   UNL A   1      35.960  21.681  26.401  1.00  0.00    -0.393 OA
ATOM     86  H   UNL A   1      36.541  21.146  26.965  1.00  0.00     0.210 HD
ENDBRANCH  82  85
ENDBRANCH  74  80
ENDBRANCH  72  74
ENDBRANCH  71  72
ENDBRANCH  70  71
ENDBRANCH  69  70
ENDBRANCH  68  69
ENDBRANCH  67  68
ENDBRANCH  66  67
ENDBRANCH   1  66
TORSDOF 22
ENDMDL
MODEL 2
REMARK VINA RESULT:     -10.0      4.318      9.675
REMARK SMILES O=C(OCCOCCOCCOCCOC(=O)C1([C@H]2CCC[C@H]2O)CCCCC1)c1ccc(-c2c3nc(c(-c4c(F)cccc4F)c4ccc([nH]4)c(-c4c(F)cccc4F)c4nc(c(-c5c(F)cccc5F)c5ccc2[nH]5)C=C4)C=C3)cc1
REMARK SMILES IDX 9 1 8 2 7 3 6 4 5 5 4 6 3 7 2 8 1 9 30 10 31 11 83 12 32 13
REMARK SMILES IDX 82 14 33 15 34 16 35 17 76 18 36 19 81 20 75 21 77 22 37 23
REMARK SMILES IDX 80 24 74 25 73 26 38 28 64 29 47 30 63 31 48 32 51 33 62 34
REMARK SMILES IDX 78 35 49 36 50 37 61 39 79 40 52 41 39 42 40 43 45 44 41 45
REMARK SMILES IDX 42 46 44 47 46 48 43 49 65 50 66 51 71 52 67 53 68 54 70 55
REMARK SMILES IDX 72 56 69 57 53 58 54 59 59 60 55 61 56 62 58 63 60 64 57 65
REMARK SMILES IDX 10 66 11 67 12 68 13 69 14 70 15 71 16 72 17 73 18 74 25 75
REMARK SMILES IDX 29 76 26 77 28 78 27 79 19 80 20 81 23 82 21 83 22 84 24 85
REMARK H PARENT 77 27 51 38 24 86
REMARK Flexibility Score: inf
ROOT
ATOM      1  O   UNL A   1      37.543  20.520  24.615  1.00  0.00    -0.377 OA
ENDROOT
BRANCH   1   2
ATOM      2  C   UNL A   1      38.672  20.560  25.467  1.00  0.00     0.188 C 
BRANCH   2   3
ATOM      3  C   UNL A   1      39.298  19.199  25.704  1.00  0.00     0.188 C 
BRANCH   3   4
ATOM      4  O   UNL A   1      40.708  19.335  25.783  1.00  0.00    -0.376 OA
BRANCH   4   5
ATOM      5  C   UNL A   1      41.250  20.315  26.656  1.00  0.00     0.202 C 
BRANCH   5   6
ATOM      6  C   UNL A   1      42.441  21.090  26.130  1.00  0.00     0.261 C 
BRANCH   6   7
ATOM      7  O   UNL A   1      42.189  22.346  25.477  1.00  0.00    -0.460 OA
BRANCH   7   8
ATOM      8  C   UNL A   1      42.745  23.569  25.520  1.00  0.00     0.338 C 
ATOM      9  O   UNL A   1      43.683  23.796  24.754  1.00  0.00    -0.246 OA
BRANCH   8  10
ATOM     10  C   UNL A   1      42.299  24.700  26.378  1.00  0.00     0.060 A 
ATOM     11  C   UNL A   1      42.687  26.033  26.267  1.00  0.00     0.016 A 
ATOM     12  C   UNL A   1      41.306  24.387  27.322  1.00  0.00     0.016 A 
ATOM     13  C   UNL A   1      42.144  27.029  27.052  1.00  0.00     0.010 A 
ATOM     14  C   UNL A   1      40.769  25.371  28.147  1.00  0.00     0.010 A 
ATOM     15  C   UNL A   1      41.219  26.687  28.021  1.00  0.00    -0.014 A 
BRANCH  15  16
ATOM     16  C   UNL A   1      40.992  27.676  29.070  1.00  0.00     0.031 A 
ATOM     17  C   UNL A   1      41.921  27.624  30.235  1.00  0.00     0.074 A 
ATOM     18  C   UNL A   1      40.102  28.659  28.886  1.00  0.00     0.049 A 
ATOM     19  N   UNL A   1      41.841  28.220  31.387  1.00  0.00    -0.248 NA
ATOM     20  C   UNL A   1      43.116  26.773  30.074  1.00  0.00     0.031 C 
ATOM     21  C   UNL A   1      39.331  28.886  27.661  1.00  0.00     0.029 A 
ATOM     22  N   UNL A   1      39.704  29.653  29.729  1.00  0.00    -0.354 N 
ATOM     23  C   UNL A   1      42.928  27.757  32.113  1.00  0.00     0.074 A 
ATOM     24  C   UNL A   1      43.671  26.854  31.270  1.00  0.00     0.031 C 
ATOM     25  C   UNL A   1      38.522  29.941  27.848  1.00  0.00     0.029 A 
ATOM     26  C   UNL A   1      38.659  30.387  29.229  1.00  0.00     0.049 A 
ATOM     27  H   UNL A   1      40.121  29.827  30.604  1.00  0.00     0.167 HD
ATOM     28  C   UNL A   1      43.235  28.051  33.395  1.00  0.00     0.037 A 
ATOM     29  C   UNL A   1      37.855  31.252  29.869  1.00  0.00     0.037 A 
ATOM     30  C   UNL A   1      42.437  28.960  34.170  1.00  0.00     0.049 A 
ATOM     31  C   UNL A   1      38.132  31.488  31.328  1.00  0.00     0.074 A 
ATOM     32  C   UNL A   1      42.558  29.315  35.496  1.00  0.00     0.029 A 
ATOM     33  N   UNL A   1      41.348  29.659  33.656  1.00  0.00    -0.354 N 
ATOM     34  N   UNL A   1      39.082  30.971  32.078  1.00  0.00    -0.248 NA
ATOM     35  C   UNL A   1      37.230  32.398  32.038  1.00  0.00     0.031 C 
ATOM     36  C   UNL A   1      41.505  30.187  35.797  1.00  0.00     0.029 A 
ATOM     37  C   UNL A   1      40.770  30.429  34.643  1.00  0.00     0.049 A 
ATOM     38  H   UNL A   1      41.035  29.610  32.723  1.00  0.00     0.167 HD
ATOM     39  C   UNL A   1      38.911  31.510  33.343  1.00  0.00     0.074 A 
ATOM     40  C   UNL A   1      37.761  32.395  33.254  1.00  0.00     0.031 C 
ATOM     41  C   UNL A   1      39.632  31.305  34.474  1.00  0.00     0.037 A 
BRANCH  28  42
ATOM     42  C   UNL A   1      44.364  27.280  34.012  1.00  0.00     0.057 A 
ATOM     43  C   UNL A   1      44.194  26.009  34.580  1.00  0.00     0.134 A 
ATOM     44  C   UNL A   1      45.623  27.878  34.145  1.00  0.00     0.134 A 
ATOM     45  F   UNL A   1      43.003  25.393  34.528  1.00  0.00    -0.206 F 
ATOM     46  C   UNL A   1      45.220  25.386  35.297  1.00  0.00     0.040 A 
ATOM     47  C   UNL A   1      46.664  27.252  34.833  1.00  0.00     0.040 A 
ATOM     48  F   UNL A   1      45.854  29.100  33.642  1.00  0.00    -0.206 F 
ATOM     49  C   UNL A   1      46.459  26.008  35.425  1.00  0.00     0.006 A 
ENDBRANCH  28  42
BRANCH  29  50
ATOM     50  C   UNL A   1      36.703  31.853  29.154  1.00  0.00     0.057 A 
ATOM     51  C   UNL A   1      35.530  31.130  28.918  1.00  0.00     0.134 A 
ATOM     52  C   UNL A   1      36.724  33.195  28.742  1.00  0.00     0.134 A 
ATOM     53  F   UNL A   1      35.448  29.841  29.277  1.00  0.00    -0.206 F 
ATOM     54  C   UNL A   1      34.421  31.716  28.302  1.00  0.00     0.040 A 
ATOM     55  C   UNL A   1      35.614  33.801  28.149  1.00  0.00     0.040 A 
ATOM     56  F   UNL A   1      37.813  33.950  28.946  1.00  0.00    -0.206 F 
ATOM     57  C   UNL A   1      34.458  33.058  27.925  1.00  0.00     0.006 A 
ENDBRANCH  29  50
BRANCH  41  58
ATOM     58  C   UNL A   1      39.236  32.098  35.679  1.00  0.00     0.057 A 
ATOM     59  C   UNL A   1      39.709  33.395  35.897  1.00  0.00     0.134 A 
ATOM     60  C   UNL A   1      38.275  31.589  36.561  1.00  0.00     0.134 A 
ATOM     61  F   UNL A   1      40.638  33.927  35.089  1.00  0.00    -0.206 F 
ATOM     62  C   UNL A   1      39.236  34.164  36.959  1.00  0.00     0.040 A 
ATOM     63  C   UNL A   1      37.774  32.358  37.608  1.00  0.00     0.040 A 
ATOM     64  F   UNL A   1      37.779  30.354  36.389  1.00  0.00    -0.206 F 
ATOM     65  C   UNL A   1      38.255  33.650  37.808  1.00  0.00     0.006 A 
ENDBRANCH  41  58
ENDBRANCH  15  16
ENDBRANCH   8  10
ENDBRANCH   7   8
ENDBRANCH   6   7
ENDBRANCH   5   6
ENDBRANCH   4   5
ENDBRANCH   3   4
ENDBRANCH   2   3
ENDBRANCH   1   2
BRANCH   1  66
ATOM     66  C   UNL A   1      36.258  20.571  25.220  1.00  0.00     0.188 C 
BRANCH  66  67
ATOM     67  C   UNL A   1      35.744  21.812  25.947  1.00  0.00     0.188 C 
BRANCH  67  68
ATOM     68  O   UNL A   1      34.765  21.541  26.913  1.00  0.00    -0.376 OA
BRANCH  68  69
ATOM     69  C   UNL A   1      33.403  21.672  26.537  1.00  0.00     0.202 C 
BRANCH  69  70
ATOM     70  C   UNL A   1      32.601  23.002  26.480  1.00  0.00     0.261 C 
BRANCH  70  71
ATOM     71  O   UNL A   1      32.704  23.852  25.319  1.00  0.00    -0.463 OA
BRANCH  71  72
ATOM     72  C   UNL A   1      33.572  24.899  25.394  1.00  0.00     0.312 C 
ATOM     73  O   UNL A   1      34.779  24.734  25.372  1.00  0.00    -0.252 OA
BRANCH  72  74
ATOM     74  C   UNL A   1      32.909  26.332  25.494  1.00  0.00     0.073 C 
ATOM     75  C   UNL A   1      31.712  26.425  26.508  1.00  0.00     0.019 C 
ATOM     76  C   UNL A   1      34.048  27.182  26.111  1.00  0.00     0.019 C 
ATOM     77  C   UNL A   1      31.314  27.820  26.988  1.00  0.00     0.001 C 
ATOM     78  C   UNL A   1      33.679  28.593  26.550  1.00  0.00     0.001 C 
ATOM     79  C   UNL A   1      32.491  28.621  27.500  1.00  0.00     0.000 C 
BRANCH  74  80
ATOM     80  C   UNL A   1      32.447  26.708  24.015  1.00  0.00     0.035 C 
ATOM     81  C   UNL A   1      33.312  26.306  22.803  1.00  0.00     0.007 C 
ATOM     82  C   UNL A   1      30.995  26.425  23.568  1.00  0.00     0.118 C 
ATOM     83  C   UNL A   1      32.349  26.037  21.646  1.00  0.00     0.003 C 
ATOM     84  C   UNL A   1      31.036  26.678  22.064  1.00  0.00     0.032 C 
BRANCH  82  85
ATOM     85  O   UNL A   1      30.574  25.099  23.814  1.00  0.00    -0.393 OA
ATOM     86  H   UNL A   1      29.657  25.104  24.132  1.00  0.00     0.210 HD
ENDBRANCH  82  85
ENDBRANCH  74  80
ENDBRANCH  72  74
ENDBRANCH  71  72
ENDBRANCH  70  71
ENDBRANCH  69  70
ENDBRANCH  68  69
ENDBRANCH  67  68
ENDBRANCH  66  67
ENDBRANCH   1  66
TORSDOF 22
ENDMDL
MODEL 3
REMARK VINA RESULT:      -9.8      3.000      9.052
REMARK SMILES O=C(OCCOCCOCCOCCOC(=O)C1([C@H]2CCC[C@H]2O)CCCCC1)c1ccc(-c2c3nc(c(-c4c(F)cccc4F)c4ccc([nH]4)c(-c4c(F)cccc4F)c4nc(c(-c5c(F)cccc5F)c5ccc2[nH]5)C=C4)C=C3)cc1
REMARK SMILES IDX 9 1 8 2 7 3 6 4 5 5 4 6 3 7 2 8 1 9 30 10 31 11 83 12 32 13
REMARK SMILES IDX 82 14 33 15 34 16 35 17 76 18 36 19 81 20 75 21 77 22 37 23
REMARK SMILES IDX 80 24 74 25 73 26 38 28 64 29 47 30 63 31 48 32 51 33 62 34
REMARK SMILES IDX 78 35 49 36 50 37 61 39 79 40 52 41 39 42 40 43 45 44 41 45
REMARK SMILES IDX 42 46 44 47 46 48 43 49 65 50 66 51 71 52 67 53 68 54 70 55
REMARK SMILES IDX 72 56 69 57 53 58 54 59 59 60 55 61 56 62 58 63 60 64 57 65
REMARK SMILES IDX 10 66 11 67 12 68 13 69 14 70 15 71 16 72 17 73 18 74 25 75
REMARK SMILES IDX 29 76 26 77 28 78 27 79 19 80 20 81 23 82 21 83 22 84 24 85
REMARK H PARENT 77 27 51 38 24 86
REMARK Flexibility Score: inf
ROOT
ATOM      1  O   UNL A   1      39.753  22.123  25.931  1.00  0.00    -0.377 OA
ENDROOT
BRANCH   1   2
ATOM      2  C   UNL A   1      40.437  21.218  26.777  1.00  0.00     0.188 C 
BRANCH   2   3
ATOM      3  C   UNL A   1      40.593  19.833  26.178  1.00  0.00     0.188 C 
BRANCH   3   4
ATOM      4  O   UNL A   1      41.971  19.549  25.996  1.00  0.00    -0.376 OA
BRANCH   4   5
ATOM      5  C   UNL A   1      42.463  18.279  26.397  1.00  0.00     0.202 C 
BRANCH   5   6
ATOM      6  C   UNL A   1      43.908  17.985  26.052  1.00  0.00     0.261 C 
BRANCH   6   7
ATOM      7  O   UNL A   1      44.372  18.347  24.740  1.00  0.00    -0.460 OA
BRANCH   7   8
ATOM      8  C   UNL A   1      45.089  19.364  24.231  1.00  0.00     0.338 C 
ATOM      9  O   UNL A   1      45.917  19.096  23.359  1.00  0.00    -0.246 OA
BRANCH   8  10
ATOM     10  C   UNL A   1      44.941  20.801  24.588  1.00  0.00     0.060 A 
ATOM     11  C   UNL A   1      44.549  21.834  23.739  1.00  0.00     0.016 A 
ATOM     12  C   UNL A   1      45.117  21.106  25.948  1.00  0.00     0.016 A 
ATOM     13  C   UNL A   1      44.349  23.122  24.187  1.00  0.00     0.010 A 
ATOM     14  C   UNL A   1      44.952  22.407  26.415  1.00  0.00     0.010 A 
ATOM     15  C   UNL A   1      44.595  23.414  25.516  1.00  0.00    -0.014 A 
BRANCH  15  16
ATOM     16  C   UNL A   1      44.769  24.826  25.842  1.00  0.00     0.031 A 
ATOM     17  C   UNL A   1      46.117  25.403  25.573  1.00  0.00     0.074 A 
ATOM     18  C   UNL A   1      43.713  25.568  26.203  1.00  0.00     0.049 A 
ATOM     19  N   UNL A   1      46.620  26.542  25.944  1.00  0.00    -0.248 NA
ATOM     20  C   UNL A   1      47.029  24.570  24.765  1.00  0.00     0.031 C 
ATOM     21  C   UNL A   1      42.326  25.098  26.257  1.00  0.00     0.029 A 
ATOM     22  N   UNL A   1      43.646  26.874  26.584  1.00  0.00    -0.354 N 
ATOM     23  C   UNL A   1      47.929  26.528  25.484  1.00  0.00     0.074 A 
ATOM     24  C   UNL A   1      48.138  25.286  24.782  1.00  0.00     0.031 C 
ATOM     25  C   UNL A   1      41.545  26.103  26.685  1.00  0.00     0.029 A 
ATOM     26  C   UNL A   1      42.397  27.237  27.020  1.00  0.00     0.049 A 
ATOM     27  H   UNL A   1      44.412  27.493  26.550  1.00  0.00     0.167 HD
ATOM     28  C   UNL A   1      48.870  27.476  25.680  1.00  0.00     0.037 A 
ATOM     29  C   UNL A   1      42.029  28.336  27.698  1.00  0.00     0.037 A 
ATOM     30  C   UNL A   1      48.581  28.687  26.397  1.00  0.00     0.049 A 
ATOM     31  C   UNL A   1      43.107  29.336  28.013  1.00  0.00     0.074 A 
ATOM     32  C   UNL A   1      49.427  29.716  26.750  1.00  0.00     0.029 A 
ATOM     33  N   UNL A   1      47.314  29.014  26.875  1.00  0.00    -0.354 N 
ATOM     34  N   UNL A   1      44.383  29.296  27.697  1.00  0.00    -0.248 NA
ATOM     35  C   UNL A   1      42.715  30.514  28.790  1.00  0.00     0.031 C 
ATOM     36  C   UNL A   1      48.681  30.640  27.492  1.00  0.00     0.029 A 
ATOM     37  C   UNL A   1      47.356  30.221  27.541  1.00  0.00     0.049 A 
ATOM     38  H   UNL A   1      46.507  28.464  26.755  1.00  0.00     0.167 HD
ATOM     39  C   UNL A   1      44.946  30.452  28.211  1.00  0.00     0.074 A 
ATOM     40  C   UNL A   1      43.865  31.172  28.864  1.00  0.00     0.031 C 
ATOM     41  C   UNL A   1      46.229  30.889  28.152  1.00  0.00     0.037 A 
BRANCH  28  42
ATOM     42  C   UNL A   1      50.264  27.145  25.236  1.00  0.00     0.057 A 
ATOM     43  C   UNL A   1      50.726  27.393  23.936  1.00  0.00     0.134 A 
ATOM     44  C   UNL A   1      51.123  26.453  26.100  1.00  0.00     0.134 A 
ATOM     45  F   UNL A   1      49.942  28.013  23.041  1.00  0.00    -0.206 F 
ATOM     46  C   UNL A   1      51.969  26.923  23.499  1.00  0.00     0.040 A 
ATOM     47  C   UNL A   1      52.378  26.006  25.684  1.00  0.00     0.040 A 
ATOM     48  F   UNL A   1      50.741  26.166  27.354  1.00  0.00    -0.206 F 
ATOM     49  C   UNL A   1      52.798  26.227  24.375  1.00  0.00     0.006 A 
ENDBRANCH  28  42
BRANCH  29  50
ATOM     50  C   UNL A   1      40.630  28.472  28.174  1.00  0.00     0.057 A 
ATOM     51  C   UNL A   1      40.255  28.084  29.463  1.00  0.00     0.134 A 
ATOM     52  C   UNL A   1      39.642  29.057  27.366  1.00  0.00     0.134 A 
ATOM     53  F   UNL A   1      41.148  27.510  30.281  1.00  0.00    -0.206 F 
ATOM     54  C   UNL A   1      38.952  28.273  29.934  1.00  0.00     0.040 A 
ATOM     55  C   UNL A   1      38.344  29.275  27.832  1.00  0.00     0.040 A 
ATOM     56  F   UNL A   1      39.936  29.462  26.121  1.00  0.00    -0.206 F 
ATOM     57  C   UNL A   1      37.996  28.879  29.120  1.00  0.00     0.006 A 
ENDBRANCH  29  50
BRANCH  41  58
ATOM     58  C   UNL A   1      46.513  32.230  28.750  1.00  0.00     0.057 A 
ATOM     59  C   UNL A   1      46.950  32.372  30.071  1.00  0.00     0.134 A 
ATOM     60  C   UNL A   1      46.459  33.375  27.946  1.00  0.00     0.134 A 
ATOM     61  F   UNL A   1      47.010  31.309  30.887  1.00  0.00    -0.206 F 
ATOM     62  C   UNL A   1      47.325  33.616  30.574  1.00  0.00     0.040 A 
ATOM     63  C   UNL A   1      46.859  34.618  28.430  1.00  0.00     0.040 A 
ATOM     64  F   UNL A   1      46.059  33.293  26.668  1.00  0.00    -0.206 F 
ATOM     65  C   UNL A   1      47.295  34.740  29.748  1.00  0.00     0.006 A 
ENDBRANCH  41  58
ENDBRANCH  15  16
ENDBRANCH   8  10
ENDBRANCH   7   8
ENDBRANCH   6   7
ENDBRANCH   5   6
ENDBRANCH   4   5
ENDBRANCH   3   4
ENDBRANCH   2   3
ENDBRANCH   1   2
BRANCH   1  66
ATOM     66  C   UNL A   1      38.336  22.177  26.031  1.00  0.00     0.188 C 
BRANCH  66  67
ATOM     67  C   UNL A   1      37.417  21.529  24.997  1.00  0.00     0.188 C 
BRANCH  67  68
ATOM     68  O   UNL A   1      36.074  21.465  25.391  1.00  0.00    -0.376 OA
BRANCH  68  69
ATOM     69  C   UNL A   1      35.212  22.521  24.999  1.00  0.00     0.202 C 
BRANCH  69  70
ATOM     70  C   UNL A   1      34.925  23.811  25.817  1.00  0.00     0.261 C 
BRANCH  70  71
ATOM     71  O   UNL A   1      34.380  24.973  25.157  1.00  0.00    -0.463 OA
BRANCH  71  72
ATOM     72  C   UNL A   1      33.077  25.273  25.410  1.00  0.00     0.312 C 
ATOM     73  O   UNL A   1      32.224  24.407  25.494  1.00  0.00    -0.252 OA
BRANCH  72  74
ATOM     74  C   UNL A   1      32.753  26.810  25.600  1.00  0.00     0.073 C 
ATOM     75  C   UNL A   1      31.841  27.134  26.839  1.00  0.00     0.019 C 
ATOM     76  C   UNL A   1      34.144  27.403  25.938  1.00  0.00     0.019 C 
ATOM     77  C   UNL A   1      31.843  28.575  27.346  1.00  0.00     0.001 C 
ATOM     78  C   UNL A   1      34.168  28.854  26.399  1.00  0.00     0.001 C 
ATOM     79  C   UNL A   1      33.238  29.113  27.575  1.00  0.00     0.000 C 
BRANCH  74  80
ATOM     80  C   UNL A   1      32.074  27.289  24.240  1.00  0.00     0.035 C 
ATOM     81  C   UNL A   1      32.601  26.777  22.884  1.00  0.00     0.007 C 
ATOM     82  C   UNL A   1      30.536  27.261  24.096  1.00  0.00     0.118 C 
ATOM     83  C   UNL A   1      31.396  26.696  21.947  1.00  0.00     0.003 C 
ATOM     84  C   UNL A   1      30.318  27.535  22.611  1.00  0.00     0.032 C 
BRANCH  82  85
ATOM     85  O   UNL A   1      29.957  26.017  24.437  1.00  0.00    -0.393 OA
ATOM     86  H   UNL A   1      28.993  26.073  24.347  1.00  0.00     0.210 HD
ENDBRANCH  82  85
ENDBRANCH  74  80
ENDBRANCH  72  74
ENDBRANCH  71  72
ENDBRANCH  70  71
ENDBRANCH  69  70
ENDBRANCH  68  69
ENDBRANCH  67  68
ENDBRANCH  66  67
ENDBRANCH   1  66
TORSDOF 22
ENDMDL
