MODEL 1
REMARK VINA RESULT:      -9.5      0.000      0.000
REMARK SMILES C[C@@H](C[N@H+](C)[C@H]1CSCC(C)(C)C1)C(=O)OCCOCCOCCOCCOC(=O)c1ccc(-c2c3nc(c(-c4c(F)cccc4F)c4ccc([nH]4)c(-c4c(F)cccc4F)c4nc(c(-c5c(F)cccc5F)c5ccc2[nH]5)C=C4)C=C3)cc1
REMARK SMILES IDX 21 1 20 2 19 3 18 4 17 5 16 6 14 7 15 8 2 9 1 10 3 11 4 12
REMARK SMILES IDX 5 13 6 15 7 16 13 17 8 18 10 19 9 20 11 21 12 22 22 23 23 24
REMARK SMILES IDX 24 25 25 26 26 27 27 28 28 29 29 30 30 31 31 32 32 33 84 34
REMARK SMILES IDX 33 35 83 36 34 37 35 38 36 39 77 40 37 41 82 42 76 43 78 44
REMARK SMILES IDX 38 45 81 46 75 47 74 48 39 50 65 51 48 52 64 53 49 54 52 55
REMARK SMILES IDX 63 56 79 57 50 58 51 59 62 61 80 62 53 63 40 64 41 65 46 66
REMARK SMILES IDX 42 67 43 68 45 69 47 70 44 71 66 72 67 73 72 74 68 75 69 76
REMARK SMILES IDX 71 77 73 78 70 79 54 80 55 81 60 82 56 83 57 84 59 85 61 86
REMARK SMILES IDX 58 87
REMARK H PARENT 4 14 78 49 52 60
REMARK Flexibility Score: inf
ROOT
ATOM      1  C   UNL A   1      30.659  25.480  25.891  1.00  0.00     0.188 C 
ENDROOT
BRANCH   1   2
ATOM      2  C   UNL A   1      30.291  24.077  26.400  1.00  0.00     0.188 C 
BRANCH   2   3
ATOM      3  O   UNL A   1      31.200  23.519  27.329  1.00  0.00    -0.376 OA
BRANCH   3   4
ATOM      4  C   UNL A   1      32.251  22.753  26.764  1.00  0.00     0.202 C 
BRANCH   4   5
ATOM      5  C   UNL A   1      33.552  22.675  27.558  1.00  0.00     0.261 C 
BRANCH   5   6
ATOM      6  O   UNL A   1      34.857  23.026  27.007  1.00  0.00    -0.463 OA
BRANCH   6   7
ATOM      7  C   UNL A   1      35.084  23.805  25.922  1.00  0.00     0.314 C 
ATOM      8  O   UNL A   1      34.325  24.689  25.542  1.00  0.00    -0.252 OA
BRANCH   7   9
ATOM      9  C   UNL A   1      36.347  23.397  25.130  1.00  0.00     0.151 C 
ATOM     10  C   UNL A   1      37.685  23.566  25.847  1.00  0.00     0.026 C 
BRANCH   9  11
ATOM     11  C   UNL A   1      36.267  22.042  24.353  1.00  0.00     0.277 C 
BRANCH  11  12
ATOM     12  N   UNL A   1      36.041  20.762  25.085  1.00  0.00    -0.334 N 
ATOM     13  C   UNL A   1      37.049  19.768  24.681  1.00  0.00     0.333 C 
ATOM     14  H   UNL A   1      36.125  21.058  26.057  1.00  0.00     0.348 HD
BRANCH  12  15
ATOM     15  C   UNL A   1      34.680  20.122  25.033  1.00  0.00     0.194 C 
ATOM     16  C   UNL A   1      33.779  21.046  24.184  1.00  0.00     0.134 C 
ATOM     17  C   UNL A   1      34.720  18.648  24.625  1.00  0.00     0.073 C 
ATOM     18  S   UNL A   1      32.158  20.343  23.745  1.00  0.00    -0.155 SA
ATOM     19  C   UNL A   1      33.491  17.906  24.090  1.00  0.00    -0.021 C 
ATOM     20  C   UNL A   1      32.769  18.784  23.042  1.00  0.00     0.076 C 
ATOM     21  C   UNL A   1      32.523  17.489  25.199  1.00  0.00     0.012 C 
ATOM     22  C   UNL A   1      34.032  16.567  23.502  1.00  0.00     0.012 C 
ENDBRANCH  12  15
ENDBRANCH  11  12
ENDBRANCH   9  11
ENDBRANCH   7   9
ENDBRANCH   6   7
ENDBRANCH   5   6
ENDBRANCH   4   5
ENDBRANCH   3   4
ENDBRANCH   2   3
ENDBRANCH   1   2
BRANCH   1  23
ATOM     23  O   UNL A   1      31.214  26.354  26.855  1.00  0.00    -0.377 OA
BRANCH  23  24
ATOM     24  C   UNL A   1      32.358  27.141  26.554  1.00  0.00     0.188 C 
BRANCH  24  25
ATOM     25  C   UNL A   1      32.466  28.548  27.146  1.00  0.00     0.188 C 
BRANCH  25  26
ATOM     26  O   UNL A   1      33.785  28.965  27.421  1.00  0.00    -0.376 OA
BRANCH  26  27
ATOM     27  C   UNL A   1      34.208  30.298  27.209  1.00  0.00     0.202 C 
BRANCH  27  28
ATOM     28  C   UNL A   1      33.405  31.548  27.621  1.00  0.00     0.261 C 
BRANCH  28  29
ATOM     29  O   UNL A   1      34.000  32.850  27.502  1.00  0.00    -0.460 OA
BRANCH  29  30
ATOM     30  C   UNL A   1      33.649  33.821  28.370  1.00  0.00     0.338 C 
ATOM     31  O   UNL A   1      32.617  34.450  28.379  1.00  0.00    -0.246 OA
BRANCH  30  32
ATOM     32  C   UNL A   1      34.668  33.826  29.458  1.00  0.00     0.060 A 
ATOM     33  C   UNL A   1      35.986  34.190  29.140  1.00  0.00     0.016 A 
ATOM     34  C   UNL A   1      34.347  33.439  30.763  1.00  0.00     0.016 A 
ATOM     35  C   UNL A   1      37.001  34.069  30.089  1.00  0.00     0.010 A 
ATOM     36  C   UNL A   1      35.369  33.280  31.705  1.00  0.00     0.010 A 
ATOM     37  C   UNL A   1      36.708  33.519  31.341  1.00  0.00    -0.014 A 
BRANCH  37  38
ATOM     38  C   UNL A   1      37.804  32.840  32.079  1.00  0.00     0.031 A 
ATOM     39  C   UNL A   1      38.445  31.650  31.406  1.00  0.00     0.074 A 
ATOM     40  C   UNL A   1      38.271  33.282  33.257  1.00  0.00     0.049 A 
ATOM     41  N   UNL A   1      39.393  30.855  31.831  1.00  0.00    -0.248 NA
ATOM     42  C   UNL A   1      37.937  31.310  30.066  1.00  0.00     0.031 C 
ATOM     43  C   UNL A   1      37.793  34.461  33.974  1.00  0.00     0.029 A 
ATOM     44  N   UNL A   1      39.263  32.776  34.059  1.00  0.00    -0.354 N 
ATOM     45  C   UNL A   1      39.573  29.915  30.822  1.00  0.00     0.074 A 
ATOM     46  C   UNL A   1      38.620  30.215  29.780  1.00  0.00     0.031 C 
ATOM     47  C   UNL A   1      38.491  34.584  35.117  1.00  0.00     0.029 A 
ATOM     48  C   UNL A   1      39.439  33.476  35.226  1.00  0.00     0.049 A 
ATOM     49  H   UNL A   1      39.799  31.985  33.818  1.00  0.00     0.167 HD
ATOM     50  C   UNL A   1      40.458  28.892  30.762  1.00  0.00     0.037 A 
ATOM     51  C   UNL A   1      40.261  33.231  36.265  1.00  0.00     0.037 A 
ATOM     52  C   UNL A   1      41.412  28.597  31.797  1.00  0.00     0.049 A 
ATOM     53  C   UNL A   1      41.186  32.039  36.214  1.00  0.00     0.074 A 
ATOM     54  C   UNL A   1      42.363  27.594  31.833  1.00  0.00     0.029 A 
ATOM     55  N   UNL A   1      41.526  29.305  32.983  1.00  0.00    -0.354 N 
ATOM     56  N   UNL A   1      41.356  31.158  35.257  1.00  0.00    -0.248 NA
ATOM     57  C   UNL A   1      42.039  31.814  37.390  1.00  0.00     0.031 C 
ATOM     58  C   UNL A   1      43.009  27.654  33.071  1.00  0.00     0.029 A 
ATOM     59  C   UNL A   1      42.515  28.743  33.773  1.00  0.00     0.049 A 
ATOM     60  H   UNL A   1      40.985  30.090  33.229  1.00  0.00     0.167 HD
ATOM     61  C   UNL A   1      42.366  30.307  35.694  1.00  0.00     0.074 A 
ATOM     62  C   UNL A   1      42.770  30.780  37.001  1.00  0.00     0.031 C 
ATOM     63  C   UNL A   1      42.917  29.237  35.067  1.00  0.00     0.037 A 
BRANCH  50  64
ATOM     64  C   UNL A   1      40.391  27.993  29.559  1.00  0.00     0.057 A 
ATOM     65  C   UNL A   1      39.496  26.918  29.474  1.00  0.00     0.134 A 
ATOM     66  C   UNL A   1      41.249  28.203  28.473  1.00  0.00     0.134 A 
ATOM     67  F   UNL A   1      38.660  26.645  30.488  1.00  0.00    -0.206 F 
ATOM     68  C   UNL A   1      39.482  26.064  28.368  1.00  0.00     0.040 A 
ATOM     69  C   UNL A   1      41.221  27.378  27.347  1.00  0.00     0.040 A 
ATOM     70  F   UNL A   1      42.133  29.213  28.487  1.00  0.00    -0.206 F 
ATOM     71  C   UNL A   1      40.343  26.298  27.298  1.00  0.00     0.006 A 
ENDBRANCH  50  64
BRANCH  51  72
ATOM     72  C   UNL A   1      40.260  34.132  37.447  1.00  0.00     0.057 A 
ATOM     73  C   UNL A   1      39.486  33.844  38.578  1.00  0.00     0.134 A 
ATOM     74  C   UNL A   1      41.006  35.317  37.464  1.00  0.00     0.134 A 
ATOM     75  F   UNL A   1      38.727  32.739  38.612  1.00  0.00    -0.206 F 
ATOM     76  C   UNL A   1      39.442  34.706  39.675  1.00  0.00     0.040 A 
ATOM     77  C   UNL A   1      40.993  36.175  38.565  1.00  0.00     0.040 A 
ATOM     78  F   UNL A   1      41.763  35.656  36.410  1.00  0.00    -0.206 F 
ATOM     79  C   UNL A   1      40.203  35.874  39.673  1.00  0.00     0.006 A 
ENDBRANCH  51  72
BRANCH  63  80
ATOM     80  C   UNL A   1      44.066  28.549  35.750  1.00  0.00     0.057 A 
ATOM     81  C   UNL A   1      45.398  28.934  35.553  1.00  0.00     0.134 A 
ATOM     82  C   UNL A   1      43.825  27.500  36.648  1.00  0.00     0.134 A 
ATOM     83  F   UNL A   1      45.702  29.926  34.703  1.00  0.00    -0.206 F 
ATOM     84  C   UNL A   1      46.450  28.276  36.195  1.00  0.00     0.040 A 
ATOM     85  C   UNL A   1      44.865  26.859  37.322  1.00  0.00     0.040 A 
ATOM     86  F   UNL A   1      42.572  27.089  36.897  1.00  0.00    -0.206 F 
ATOM     87  C   UNL A   1      46.184  27.239  37.087  1.00  0.00     0.006 A 
ENDBRANCH  63  80
ENDBRANCH  37  38
ENDBRANCH  30  32
ENDBRANCH  29  30
ENDBRANCH  28  29
ENDBRANCH  27  28
ENDBRANCH  26  27
ENDBRANCH  25  26
ENDBRANCH  24  25
ENDBRANCH  23  24
ENDBRANCH   1  23
TORSDOF 23
ENDMDL
MODEL 2
REMARK VINA RESULT:      -9.4      1.727      6.833
REMARK SMILES C[C@@H](C[N@H+](C)[C@H]1CSCC(C)(C)C1)C(=O)OCCOCCOCCOCCOC(=O)c1ccc(-c2c3nc(c(-c4c(F)cccc4F)c4ccc([nH]4)c(-c4c(F)cccc4F)c4nc(c(-c5c(F)cccc5F)c5ccc2[nH]5)C=C4)C=C3)cc1
REMARK SMILES IDX 21 1 20 2 19 3 18 4 17 5 16 6 14 7 15 8 2 9 1 10 3 11 4 12
REMARK SMILES IDX 5 13 6 15 7 16 13 17 8 18 10 19 9 20 11 21 12 22 22 23 23 24
REMARK SMILES IDX 24 25 25 26 26 27 27 28 28 29 29 30 30 31 31 32 32 33 84 34
REMARK SMILES IDX 33 35 83 36 34 37 35 38 36 39 77 40 37 41 82 42 76 43 78 44
REMARK SMILES IDX 38 45 81 46 75 47 74 48 39 50 65 51 48 52 64 53 49 54 52 55
REMARK SMILES IDX 63 56 79 57 50 58 51 59 62 61 80 62 53 63 40 64 41 65 46 66
REMARK SMILES IDX 42 67 43 68 45 69 47 70 44 71 66 72 67 73 72 74 68 75 69 76
REMARK SMILES IDX 71 77 73 78 70 79 54 80 55 81 60 82 56 83 57 84 59 85 61 86
REMARK SMILES IDX 58 87
REMARK H PARENT 4 14 78 49 52 60
REMARK Flexibility Score: inf
ROOT
ATOM      1  C   UNL A   1      30.369  26.075  25.994  1.00  0.00     0.188 C 
ENDROOT
BRANCH   1   2
ATOM      2  C   UNL A   1      30.266  24.559  26.225  1.00  0.00     0.188 C 
BRANCH   2   3
ATOM      3  O   UNL A   1      31.096  24.053  27.253  1.00  0.00    -0.376 OA
BRANCH   3   4
ATOM      4  C   UNL A   1      31.794  22.860  26.935  1.00  0.00     0.202 C 
BRANCH   4   5
ATOM      5  C   UNL A   1      33.139  22.644  27.624  1.00  0.00     0.261 C 
BRANCH   5   6
ATOM      6  O   UNL A   1      34.333  22.170  26.931  1.00  0.00    -0.463 OA
BRANCH   6   7
ATOM      7  C   UNL A   1      34.980  22.805  25.924  1.00  0.00     0.314 C 
ATOM      8  O   UNL A   1      35.505  23.908  26.034  1.00  0.00    -0.252 OA
BRANCH   7   9
ATOM      9  C   UNL A   1      34.895  22.056  24.574  1.00  0.00     0.151 C 
ATOM     10  C   UNL A   1      34.401  20.612  24.628  1.00  0.00     0.026 C 
BRANCH   9  11
ATOM     11  C   UNL A   1      34.262  22.847  23.384  1.00  0.00     0.277 C 
BRANCH  11  12
ATOM     12  N   UNL A   1      33.040  23.677  23.591  1.00  0.00    -0.334 N 
ATOM     13  C   UNL A   1      31.837  22.885  23.289  1.00  0.00     0.333 C 
ATOM     14  H   UNL A   1      33.124  23.933  24.575  1.00  0.00     0.348 HD
BRANCH  12  15
ATOM     15  C   UNL A   1      32.933  25.006  22.894  1.00  0.00     0.194 C 
ATOM     16  C   UNL A   1      31.430  25.278  22.668  1.00  0.00     0.134 C 
ATOM     17  C   UNL A   1      33.731  26.116  23.583  1.00  0.00     0.073 C 
ATOM     18  S   UNL A   1      31.034  26.959  22.091  1.00  0.00    -0.155 SA
ATOM     19  C   UNL A   1      33.453  27.603  23.341  1.00  0.00    -0.021 C 
ATOM     20  C   UNL A   1      31.930  27.862  23.386  1.00  0.00     0.076 C 
ATOM     21  C   UNL A   1      34.045  28.108  22.023  1.00  0.00     0.012 C 
ATOM     22  C   UNL A   1      34.239  28.364  24.453  1.00  0.00     0.012 C 
ENDBRANCH  12  15
ENDBRANCH  11  12
ENDBRANCH   9  11
ENDBRANCH   7   9
ENDBRANCH   6   7
ENDBRANCH   5   6
ENDBRANCH   4   5
ENDBRANCH   3   4
ENDBRANCH   2   3
ENDBRANCH   1   2
BRANCH   1  23
ATOM     23  O   UNL A   1      30.746  26.843  27.120  1.00  0.00    -0.377 OA
BRANCH  23  24
ATOM     24  C   UNL A   1      32.015  27.477  27.181  1.00  0.00     0.188 C 
BRANCH  24  25
ATOM     25  C   UNL A   1      32.078  29.005  27.237  1.00  0.00     0.188 C 
BRANCH  25  26
ATOM     26  O   UNL A   1      33.332  29.524  27.617  1.00  0.00    -0.376 OA
BRANCH  26  27
ATOM     27  C   UNL A   1      33.746  30.828  27.252  1.00  0.00     0.202 C 
BRANCH  27  28
ATOM     28  C   UNL A   1      32.927  32.109  27.508  1.00  0.00     0.261 C 
BRANCH  28  29
ATOM     29  O   UNL A   1      33.559  33.393  27.394  1.00  0.00    -0.460 OA
BRANCH  29  30
ATOM     30  C   UNL A   1      33.461  34.274  28.412  1.00  0.00     0.338 C 
ATOM     31  O   UNL A   1      32.534  35.013  28.648  1.00  0.00    -0.246 OA
BRANCH  30  32
ATOM     32  C   UNL A   1      34.607  34.012  29.330  1.00  0.00     0.060 A 
ATOM     33  C   UNL A   1      35.902  34.333  28.894  1.00  0.00     0.016 A 
ATOM     34  C   UNL A   1      34.418  33.421  30.583  1.00  0.00     0.016 A 
ATOM     35  C   UNL A   1      37.012  33.972  29.656  1.00  0.00     0.010 A 
ATOM     36  C   UNL A   1      35.532  33.024  31.331  1.00  0.00     0.010 A 
ATOM     37  C   UNL A   1      36.831  33.230  30.827  1.00  0.00    -0.014 A 
BRANCH  37  38
ATOM     38  C   UNL A   1      37.942  32.353  31.278  1.00  0.00     0.031 A 
ATOM     39  C   UNL A   1      38.459  32.571  32.680  1.00  0.00     0.074 A 
ATOM     40  C   UNL A   1      38.436  31.359  30.523  1.00  0.00     0.049 A 
ATOM     41  N   UNL A   1      39.434  31.978  33.318  1.00  0.00    -0.248 NA
ATOM     42  C   UNL A   1      37.777  33.613  33.468  1.00  0.00     0.031 C 
ATOM     43  C   UNL A   1      37.975  30.994  29.187  1.00  0.00     0.029 A 
ATOM     44  N   UNL A   1      39.449  30.471  30.788  1.00  0.00    -0.354 N 
ATOM     45  C   UNL A   1      39.493  32.589  34.565  1.00  0.00     0.074 A 
ATOM     46  C   UNL A   1      38.481  33.619  34.587  1.00  0.00     0.031 C 
ATOM     47  C   UNL A   1      38.710  29.958  28.744  1.00  0.00     0.029 A 
ATOM     48  C   UNL A   1      39.712  29.611  29.752  1.00  0.00     0.049 A 
ATOM     49  H   UNL A   1      39.939  30.452  31.642  1.00  0.00     0.167 HD
ATOM     50  C   UNL A   1      40.313  32.317  35.607  1.00  0.00     0.037 A 
ATOM     51  C   UNL A   1      40.667  28.667  29.632  1.00  0.00     0.037 A 
ATOM     52  C   UNL A   1      41.316  31.288  35.588  1.00  0.00     0.049 A 
ATOM     53  C   UNL A   1      41.623  28.432  30.776  1.00  0.00     0.074 A 
ATOM     54  C   UNL A   1      42.192  30.918  36.592  1.00  0.00     0.029 A 
ATOM     55  N   UNL A   1      41.579  30.469  34.500  1.00  0.00    -0.354 N 
ATOM     56  N   UNL A   1      41.671  29.009  31.953  1.00  0.00    -0.248 NA
ATOM     57  C   UNL A   1      42.656  27.406  30.572  1.00  0.00     0.031 C 
ATOM     58  C   UNL A   1      43.031  29.918  36.089  1.00  0.00     0.029 A 
ATOM     59  C   UNL A   1      42.626  29.612  34.799  1.00  0.00     0.049 A 
ATOM     60  H   UNL A   1      41.096  30.493  33.643  1.00  0.00     0.167 HD
ATOM     61  C   UNL A   1      42.703  28.383  32.644  1.00  0.00     0.074 A 
ATOM     62  C   UNL A   1      43.253  27.382  31.755  1.00  0.00     0.031 C 
ATOM     63  C   UNL A   1      43.150  28.608  33.907  1.00  0.00     0.037 A 
BRANCH  50  64
ATOM     64  C   UNL A   1      40.187  33.186  36.828  1.00  0.00     0.057 A 
ATOM     65  C   UNL A   1      41.025  34.285  37.058  1.00  0.00     0.134 A 
ATOM     66  C   UNL A   1      39.214  32.904  37.796  1.00  0.00     0.134 A 
ATOM     67  F   UNL A   1      41.993  34.599  36.182  1.00  0.00    -0.206 F 
ATOM     68  C   UNL A   1      40.924  35.050  38.222  1.00  0.00     0.040 A 
ATOM     69  C   UNL A   1      39.081  33.683  38.946  1.00  0.00     0.040 A 
ATOM     70  F   UNL A   1      38.379  31.866  37.641  1.00  0.00    -0.206 F 
ATOM     71  C   UNL A   1      39.945  34.753  39.167  1.00  0.00     0.006 A 
ENDBRANCH  50  64
BRANCH  51  72
ATOM     72  C   UNL A   1      40.769  27.863  28.387  1.00  0.00     0.057 A 
ATOM     73  C   UNL A   1      41.502  28.322  27.286  1.00  0.00     0.134 A 
ATOM     74  C   UNL A   1      40.114  26.631  28.255  1.00  0.00     0.134 A 
ATOM     75  F   UNL A   1      42.128  29.506  27.338  1.00  0.00    -0.206 F 
ATOM     76  C   UNL A   1      41.569  27.595  26.095  1.00  0.00     0.040 A 
ATOM     77  C   UNL A   1      40.195  25.882  27.080  1.00  0.00     0.040 A 
ATOM     78  F   UNL A   1      39.390  26.138  29.269  1.00  0.00    -0.206 F 
ATOM     79  C   UNL A   1      40.918  26.367  25.992  1.00  0.00     0.006 A 
ENDBRANCH  51  72
BRANCH  63  80
ATOM     80  C   UNL A   1      44.237  27.711  34.428  1.00  0.00     0.057 A 
ATOM     81  C   UNL A   1      45.595  28.039  34.331  1.00  0.00     0.134 A 
ATOM     82  C   UNL A   1      43.910  26.508  35.071  1.00  0.00     0.134 A 
ATOM     83  F   UNL A   1      45.980  29.171  33.723  1.00  0.00    -0.206 F 
ATOM     84  C   UNL A   1      46.588  27.186  34.819  1.00  0.00     0.040 A 
ATOM     85  C   UNL A   1      44.892  25.666  35.593  1.00  0.00     0.040 A 
ATOM     86  F   UNL A   1      42.628  26.139  35.214  1.00  0.00    -0.206 F 
ATOM     87  C   UNL A   1      46.236  25.998  35.457  1.00  0.00     0.006 A 
ENDBRANCH  63  80
ENDBRANCH  37  38
ENDBRANCH  30  32
ENDBRANCH  29  30
ENDBRANCH  28  29
ENDBRANCH  27  28
ENDBRANCH  26  27
ENDBRANCH  25  26
ENDBRANCH  24  25
ENDBRANCH  23  24
ENDBRANCH   1  23
TORSDOF 23
ENDMDL
MODEL 3
REMARK VINA RESULT:      -9.1      3.213      8.890
REMARK SMILES C[C@@H](C[N@H+](C)[C@H]1CSCC(C)(C)C1)C(=O)OCCOCCOCCOCCOC(=O)c1ccc(-c2c3nc(c(-c4c(F)cccc4F)c4ccc([nH]4)c(-c4c(F)cccc4F)c4nc(c(-c5c(F)cccc5F)c5ccc2[nH]5)C=C4)C=C3)cc1
REMARK SMILES IDX 21 1 20 2 19 3 18 4 17 5 16 6 14 7 15 8 2 9 1 10 3 11 4 12
REMARK SMILES IDX 5 13 6 15 7 16 13 17 8 18 10 19 9 20 11 21 12 22 22 23 23 24
REMARK SMILES IDX 24 25 25 26 26 27 27 28 28 29 29 30 30 31 31 32 32 33 84 34
REMARK SMILES IDX 33 35 83 36 34 37 35 38 36 39 77 40 37 41 82 42 76 43 78 44
REMARK SMILES IDX 38 45 81 46 75 47 74 48 39 50 65 51 48 52 64 53 49 54 52 55
REMARK SMILES IDX 63 56 79 57 50 58 51 59 62 61 80 62 53 63 40 64 41 65 46 66
REMARK SMILES IDX 42 67 43 68 45 69 47 70 44 71 66 72 67 73 72 74 68 75 69 76
REMARK SMILES IDX 71 77 73 78 70 79 54 80 55 81 60 82 56 83 57 84 59 85 61 86
REMARK SMILES IDX 58 87
REMARK H PARENT 4 14 78 49 52 60
REMARK Flexibility Score: inf
ROOT
ATOM      1  C   UNL A   1      41.907  21.058  27.341  1.00  0.00     0.188 C 
ENDROOT
BRANCH   1   2
ATOM      2  C   UNL A   1      40.516  21.694  27.195  1.00  0.00     0.188 C 
BRANCH   2   3
ATOM      3  O   UNL A   1      39.811  21.329  26.024  1.00  0.00    -0.376 OA
BRANCH   3   4
ATOM      4  C   UNL A   1      38.506  21.872  25.909  1.00  0.00     0.202 C 
BRANCH   4   5
ATOM      5  C   UNL A   1      37.574  21.220  24.891  1.00  0.00     0.261 C 
BRANCH   5   6
ATOM      6  O   UNL A   1      36.438  21.904  24.283  1.00  0.00    -0.463 OA
BRANCH   6   7
ATOM      7  C   UNL A   1      35.591  22.759  24.906  1.00  0.00     0.314 C 
ATOM      8  O   UNL A   1      35.842  23.940  25.116  1.00  0.00    -0.252 OA
BRANCH   7   9
ATOM      9  C   UNL A   1      34.311  22.074  25.437  1.00  0.00     0.151 C 
ATOM     10  C   UNL A   1      34.385  21.495  26.849  1.00  0.00     0.026 C 
BRANCH   9  11
ATOM     11  C   UNL A   1      32.967  22.832  25.186  1.00  0.00     0.277 C 
BRANCH  11  12
ATOM     12  N   UNL A   1      32.690  24.129  25.868  1.00  0.00    -0.334 N 
ATOM     13  C   UNL A   1      31.477  24.013  26.695  1.00  0.00     0.333 C 
ATOM     14  H   UNL A   1      33.542  24.268  26.410  1.00  0.00     0.348 HD
BRANCH  12  15
ATOM     15  C   UNL A   1      32.596  25.382  25.041  1.00  0.00     0.194 C 
ATOM     16  C   UNL A   1      31.093  25.689  24.855  1.00  0.00     0.134 C 
ATOM     17  C   UNL A   1      33.464  26.525  25.574  1.00  0.00     0.073 C 
ATOM     18  S   UNL A   1      30.728  27.316  24.124  1.00  0.00    -0.155 SA
ATOM     19  C   UNL A   1      33.226  27.989  25.191  1.00  0.00    -0.021 C 
ATOM     20  C   UNL A   1      31.717  28.311  25.277  1.00  0.00     0.076 C 
ATOM     21  C   UNL A   1      33.771  28.332  23.803  1.00  0.00     0.012 C 
ATOM     22  C   UNL A   1      34.091  28.828  26.182  1.00  0.00     0.012 C 
ENDBRANCH  12  15
ENDBRANCH  11  12
ENDBRANCH   9  11
ENDBRANCH   7   9
ENDBRANCH   6   7
ENDBRANCH   5   6
ENDBRANCH   4   5
ENDBRANCH   3   4
ENDBRANCH   2   3
ENDBRANCH   1   2
BRANCH   1  23
ATOM     23  O   UNL A   1      41.977  19.670  27.080  1.00  0.00    -0.377 OA
BRANCH  23  24
ATOM     24  C   UNL A   1      42.370  19.185  25.804  1.00  0.00     0.188 C 
BRANCH  24  25
ATOM     25  C   UNL A   1      43.851  19.227  25.419  1.00  0.00     0.188 C 
BRANCH  25  26
ATOM     26  O   UNL A   1      44.169  20.179  24.429  1.00  0.00    -0.376 OA
BRANCH  26  27
ATOM     27  C   UNL A   1      44.621  21.479  24.758  1.00  0.00     0.202 C 
BRANCH  27  28
ATOM     28  C   UNL A   1      43.767  22.758  24.645  1.00  0.00     0.261 C 
BRANCH  28  29
ATOM     29  O   UNL A   1      44.180  23.954  25.323  1.00  0.00    -0.460 OA
BRANCH  29  30
ATOM     30  C   UNL A   1      43.374  25.036  25.311  1.00  0.00     0.338 C 
ATOM     31  O   UNL A   1      42.680  25.415  24.397  1.00  0.00    -0.246 OA
BRANCH  30  32
ATOM     32  C   UNL A   1      43.315  25.555  26.707  1.00  0.00     0.060 A 
ATOM     33  C   UNL A   1      42.324  25.055  27.566  1.00  0.00     0.016 A 
ATOM     34  C   UNL A   1      44.192  26.548  27.156  1.00  0.00     0.016 A 
ATOM     35  C   UNL A   1      42.138  25.614  28.830  1.00  0.00     0.010 A 
ATOM     36  C   UNL A   1      43.983  27.136  28.408  1.00  0.00     0.010 A 
ATOM     37  C   UNL A   1      42.903  26.721  29.212  1.00  0.00    -0.014 A 
BRANCH  37  38
ATOM     38  C   UNL A   1      42.328  27.657  30.211  1.00  0.00     0.031 A 
ATOM     39  C   UNL A   1      43.018  27.732  31.552  1.00  0.00     0.074 A 
ATOM     40  C   UNL A   1      41.289  28.462  29.941  1.00  0.00     0.049 A 
ATOM     41  N   UNL A   1      42.716  28.433  32.615  1.00  0.00    -0.248 NA
ATOM     42  C   UNL A   1      44.216  26.890  31.714  1.00  0.00     0.031 C 
ATOM     43  C   UNL A   1      40.585  28.544  28.664  1.00  0.00     0.029 A 
ATOM     44  N   UNL A   1      40.646  29.372  30.743  1.00  0.00    -0.354 N 
ATOM     45  C   UNL A   1      43.670  28.098  33.569  1.00  0.00     0.074 A 
ATOM     46  C   UNL A   1      44.541  27.111  32.977  1.00  0.00     0.031 C 
ATOM     47  C   UNL A   1      39.599  29.453  28.772  1.00  0.00     0.029 A 
ATOM     48  C   UNL A   1      39.584  29.990  30.132  1.00  0.00     0.049 A 
ATOM     49  H   UNL A   1      40.922  29.564  31.668  1.00  0.00     0.167 HD
ATOM     50  C   UNL A   1      43.816  28.572  34.828  1.00  0.00     0.037 A 
ATOM     51  C   UNL A   1      38.695  30.874  30.628  1.00  0.00     0.037 A 
ATOM     52  C   UNL A   1      42.952  29.560  35.416  1.00  0.00     0.049 A 
ATOM     53  C   UNL A   1      38.827  31.331  32.061  1.00  0.00     0.074 A 
ATOM     54  C   UNL A   1      43.016  30.120  36.678  1.00  0.00     0.029 A 
ATOM     55  N   UNL A   1      41.860  30.127  34.777  1.00  0.00    -0.354 N 
ATOM     56  N   UNL A   1      39.733  31.015  32.956  1.00  0.00    -0.248 NA
ATOM     57  C   UNL A   1      37.812  32.276  32.548  1.00  0.00     0.031 C 
ATOM     58  C   UNL A   1      41.923  30.979  36.827  1.00  0.00     0.029 A 
ATOM     59  C   UNL A   1      41.223  31.012  35.631  1.00  0.00     0.049 A 
ATOM     60  H   UNL A   1      41.578  29.929  33.855  1.00  0.00     0.167 HD
ATOM     61  C   UNL A   1      39.425  31.758  34.091  1.00  0.00     0.074 A 
ATOM     62  C   UNL A   1      38.250  32.541  33.770  1.00  0.00     0.031 C 
ATOM     63  C   UNL A   1      40.063  31.798  35.289  1.00  0.00     0.037 A 
BRANCH  50  64
ATOM     64  C   UNL A   1      44.918  27.982  35.663  1.00  0.00     0.057 A 
ATOM     65  C   UNL A   1      46.204  28.537  35.711  1.00  0.00     0.134 A 
ATOM     66  C   UNL A   1      44.686  26.829  36.424  1.00  0.00     0.134 A 
ATOM     67  F   UNL A   1      46.502  29.629  34.990  1.00  0.00    -0.206 F 
ATOM     68  C   UNL A   1      47.228  27.946  36.454  1.00  0.00     0.040 A 
ATOM     69  C   UNL A   1      45.691  26.249  37.199  1.00  0.00     0.040 A 
ATOM     70  F   UNL A   1      43.479  26.244  36.425  1.00  0.00    -0.206 F 
ATOM     71  C   UNL A   1      46.970  26.802  37.206  1.00  0.00     0.006 A 
ENDBRANCH  50  64
BRANCH  51  72
ATOM     72  C   UNL A   1      37.601  31.395  29.769  1.00  0.00     0.057 A 
ATOM     73  C   UNL A   1      36.448  30.640  29.525  1.00  0.00     0.134 A 
ATOM     74  C   UNL A   1      37.694  32.647  29.147  1.00  0.00     0.134 A 
ATOM     75  F   UNL A   1      36.312  29.422  30.068  1.00  0.00    -0.206 F 
ATOM     76  C   UNL A   1      35.434  31.102  28.683  1.00  0.00     0.040 A 
ATOM     77  C   UNL A   1      36.675  33.133  28.325  1.00  0.00     0.040 A 
ATOM     78  F   UNL A   1      38.775  33.418  29.333  1.00  0.00    -0.206 F 
ATOM     79  C   UNL A   1      35.544  32.355  28.084  1.00  0.00     0.006 A 
ENDBRANCH  51  72
BRANCH  63  80
ATOM     80  C   UNL A   1      39.552  32.770  36.315  1.00  0.00     0.057 A 
ATOM     81  C   UNL A   1      38.525  32.447  37.211  1.00  0.00     0.134 A 
ATOM     82  C   UNL A   1      40.126  34.044  36.426  1.00  0.00     0.134 A 
ATOM     83  F   UNL A   1      37.926  31.247  37.158  1.00  0.00    -0.206 F 
ATOM     84  C   UNL A   1      38.063  33.369  38.154  1.00  0.00     0.040 A 
ATOM     85  C   UNL A   1      39.697  34.960  37.387  1.00  0.00     0.040 A 
ATOM     86  F   UNL A   1      41.125  34.415  35.611  1.00  0.00    -0.206 F 
ATOM     87  C   UNL A   1      38.654  34.627  38.247  1.00  0.00     0.006 A 
ENDBRANCH  63  80
ENDBRANCH  37  38
ENDBRANCH  30  32
ENDBRANCH  29  30
ENDBRANCH  28  29
ENDBRANCH  27  28
ENDBRANCH  26  27
ENDBRANCH  25  26
ENDBRANCH  24  25
ENDBRANCH  23  24
ENDBRANCH   1  23
TORSDOF 23
ENDMDL
