MODEL 1
REMARK VINA RESULT:     -10.1      0.000      0.000
REMARK SMILES COc1cc(Cl)c2c(c1)C=C(C(=O)OCCOCCOCCOCCOC(=O)c1ccc(-c3c4nc(c(-c5c(F)cccc5F)c5ccc([nH]5)c(-c5c(F)cccc5F)c5nc(c(-c6c(F)cccc6F)c6ccc3[nH]6)C=C5)C=C4)cc1)[C@@H](C(F)(F)F)O2
REMARK SMILES IDX 21 1 20 2 19 3 18 4 17 5 16 6 15 7 14 8 12 9 13 10 11 11
REMARK SMILES IDX 3 12 4 13 9 14 5 15 8 16 6 17 7 18 10 19 88 20 83 21 2 22
REMARK SMILES IDX 1 23 84 24 85 25 86 26 87 27 22 28 23 29 24 30 25 31 26 32
REMARK SMILES IDX 27 33 28 34 29 35 30 36 82 37 31 38 81 39 32 40 33 41 34 42
REMARK SMILES IDX 75 43 35 44 80 45 74 46 76 47 36 48 79 49 73 50 72 51 37 53
REMARK SMILES IDX 63 54 46 55 62 56 47 57 50 58 61 59 77 60 48 61 49 62 60 64
REMARK SMILES IDX 78 65 51 66 38 67 39 68 44 69 40 70 41 71 43 72 45 73 42 74
REMARK SMILES IDX 64 75 65 76 70 77 66 78 67 79 69 80 71 81 68 82 52 83 53 84
REMARK SMILES IDX 58 85 54 86 55 87 57 88 59 89 56 90
REMARK H PARENT 76 52 50 63
REMARK Flexibility Score: inf
ROOT
ATOM      1  C   UNL A   1      43.038  19.794  25.731  1.00  0.00     0.188 C 
ENDROOT
BRANCH   1   2
ATOM      2  O   UNL A   1      42.078  20.843  25.601  1.00  0.00    -0.377 OA
BRANCH   2   3
ATOM      3  C   UNL A   1      41.381  21.227  26.775  1.00  0.00     0.188 C 
BRANCH   3   4
ATOM      4  C   UNL A   1      40.117  22.058  26.480  1.00  0.00     0.188 C 
BRANCH   4   5
ATOM      5  O   UNL A   1      39.078  21.395  25.787  1.00  0.00    -0.376 OA
BRANCH   5   6
ATOM      6  C   UNL A   1      37.926  22.055  25.287  1.00  0.00     0.202 C 
BRANCH   6   7
ATOM      7  C   UNL A   1      36.463  21.841  25.721  1.00  0.00     0.261 C 
BRANCH   7   8
ATOM      8  O   UNL A   1      35.446  22.572  25.044  1.00  0.00    -0.460 OA
BRANCH   8   9
ATOM      9  C   UNL A   1      34.221  22.556  25.596  1.00  0.00     0.338 C 
ATOM     10  O   UNL A   1      33.795  21.762  26.415  1.00  0.00    -0.246 OA
BRANCH   9  11
ATOM     11  C   UNL A   1      33.520  23.784  25.165  1.00  0.00     0.087 C 
ATOM     12  C   UNL A   1      31.855  28.134  26.304  1.00  0.00     0.121 A 
ATOM     13  C   UNL A   1      31.184  28.215  25.086  1.00  0.00     0.070 A 
ATOM     14  C   UNL A   1      32.682  27.051  26.584  1.00  0.00     0.058 A 
ATOM     15  C   UNL A   1      31.339  27.193  24.149  1.00  0.00     0.087 A 
ATOM     16  C   UNL A   1      32.787  25.999  25.668  1.00  0.00     0.022 A 
ATOM     17  Cl  UNL A   1      30.482  27.323  22.653  1.00  0.00    -0.080 Cl
ATOM     18  C   UNL A   1      32.141  26.078  24.431  1.00  0.00     0.146 A 
ATOM     19  C   UNL A   1      33.500  24.793  26.043  1.00  0.00     0.027 C 
ATOM     20  O   UNL A   1      32.250  25.106  23.475  1.00  0.00    -0.474 OA
ATOM     21  C   UNL A   1      32.941  23.865  23.778  1.00  0.00     0.316 C 
BRANCH  12  22
ATOM     22  O   UNL A   1      31.764  29.113  27.253  1.00  0.00    -0.497 OA
ATOM     23  C   UNL A   1      32.028  30.403  26.701  1.00  0.00     0.278 C 
ENDBRANCH  12  22
BRANCH  21  24
ATOM     24  C   UNL A   1      31.985  22.701  23.482  1.00  0.00     0.430 C 
ATOM     25  F   UNL A   1      32.589  21.739  22.743  1.00  0.00    -0.167 F 
ATOM     26  F   UNL A   1      31.549  22.101  24.614  1.00  0.00    -0.167 F 
ATOM     27  F   UNL A   1      30.893  23.113  22.799  1.00  0.00    -0.167 F 
ENDBRANCH  21  24
ENDBRANCH   9  11
ENDBRANCH   8   9
ENDBRANCH   7   8
ENDBRANCH   6   7
ENDBRANCH   5   6
ENDBRANCH   4   5
ENDBRANCH   3   4
ENDBRANCH   2   3
ENDBRANCH   1   2
BRANCH   1  28
ATOM     28  C   UNL A   1      44.430  19.915  25.065  1.00  0.00     0.188 C 
BRANCH  28  29
ATOM     29  O   UNL A   1      44.496  20.902  24.045  1.00  0.00    -0.376 OA
BRANCH  29  30
ATOM     30  C   UNL A   1      45.415  21.971  24.171  1.00  0.00     0.202 C 
BRANCH  30  31
ATOM     31  C   UNL A   1      44.828  23.379  24.324  1.00  0.00     0.261 C 
BRANCH  31  32
ATOM     32  O   UNL A   1      43.867  23.549  25.373  1.00  0.00    -0.460 OA
BRANCH  32  33
ATOM     33  C   UNL A   1      44.320  23.531  26.643  1.00  0.00     0.338 C 
ATOM     34  O   UNL A   1      45.195  22.821  27.109  1.00  0.00    -0.246 OA
BRANCH  33  35
ATOM     35  C   UNL A   1      43.676  24.653  27.347  1.00  0.00     0.060 A 
ATOM     36  C   UNL A   1      44.235  25.937  27.264  1.00  0.00     0.016 A 
ATOM     37  C   UNL A   1      42.513  24.426  28.086  1.00  0.00     0.016 A 
ATOM     38  C   UNL A   1      43.644  26.997  27.950  1.00  0.00     0.010 A 
ATOM     39  C   UNL A   1      41.941  25.480  28.796  1.00  0.00     0.010 A 
ATOM     40  C   UNL A   1      42.525  26.758  28.757  1.00  0.00    -0.014 A 
BRANCH  40  41
ATOM     41  C   UNL A   1      42.097  27.770  29.748  1.00  0.00     0.031 A 
ATOM     42  C   UNL A   1      42.813  27.807  31.066  1.00  0.00     0.074 A 
ATOM     43  C   UNL A   1      41.078  28.605  29.499  1.00  0.00     0.049 A 
ATOM     44  N   UNL A   1      42.558  28.515  32.135  1.00  0.00    -0.248 NA
ATOM     45  C   UNL A   1      43.971  26.908  31.196  1.00  0.00     0.031 C 
ATOM     46  C   UNL A   1      40.333  28.684  28.245  1.00  0.00     0.029 A 
ATOM     47  N   UNL A   1      40.476  29.529  30.314  1.00  0.00    -0.354 N 
ATOM     48  C   UNL A   1      43.522  28.146  33.065  1.00  0.00     0.074 A 
ATOM     49  C   UNL A   1      44.340  27.126  32.447  1.00  0.00     0.031 C 
ATOM     50  C   UNL A   1      39.347  29.586  28.386  1.00  0.00     0.029 A 
ATOM     51  C   UNL A   1      39.371  30.115  29.749  1.00  0.00     0.049 A 
ATOM     52  H   UNL A   1      40.804  29.750  31.216  1.00  0.00     0.167 HD
ATOM     53  C   UNL A   1      43.710  28.618  34.320  1.00  0.00     0.037 A 
ATOM     54  C   UNL A   1      38.465  30.950  30.290  1.00  0.00     0.037 A 
ATOM     55  C   UNL A   1      42.861  29.599  34.942  1.00  0.00     0.049 A 
ATOM     56  C   UNL A   1      38.622  31.381  31.725  1.00  0.00     0.074 A 
ATOM     57  C   UNL A   1      42.965  30.161  36.201  1.00  0.00     0.029 A 
ATOM     58  N   UNL A   1      41.727  30.143  34.353  1.00  0.00    -0.354 N 
ATOM     59  N   UNL A   1      39.559  31.066  32.589  1.00  0.00    -0.248 NA
ATOM     60  C   UNL A   1      37.591  32.279  32.262  1.00  0.00     0.031 C 
ATOM     61  C   UNL A   1      41.855  30.992  36.400  1.00  0.00     0.029 A 
ATOM     62  C   UNL A   1      41.095  30.999  35.241  1.00  0.00     0.049 A 
ATOM     63  H   UNL A   1      41.418  29.951  33.439  1.00  0.00     0.167 HD
ATOM     64  C   UNL A   1      39.238  31.735  33.765  1.00  0.00     0.074 A 
ATOM     65  C   UNL A   1      38.034  32.495  33.492  1.00  0.00     0.031 C 
ATOM     66  C   UNL A   1      39.879  31.724  34.962  1.00  0.00     0.037 A 
BRANCH  53  67
ATOM     67  C   UNL A   1      44.844  28.020  35.104  1.00  0.00     0.057 A 
ATOM     68  C   UNL A   1      46.112  28.612  35.087  1.00  0.00     0.134 A 
ATOM     69  C   UNL A   1      44.672  26.889  35.916  1.00  0.00     0.134 A 
ATOM     70  F   UNL A   1      46.349  29.695  34.332  1.00  0.00    -0.206 F 
ATOM     71  C   UNL A   1      47.163  28.112  35.858  1.00  0.00     0.040 A 
ATOM     72  C   UNL A   1      45.705  26.401  36.718  1.00  0.00     0.040 A 
ATOM     73  F   UNL A   1      43.477  26.282  35.995  1.00  0.00    -0.206 F 
ATOM     74  C   UNL A   1      46.956  27.014  36.689  1.00  0.00     0.006 A 
ENDBRANCH  53  67
BRANCH  54  75
ATOM     75  C   UNL A   1      37.309  31.406  29.479  1.00  0.00     0.057 A 
ATOM     76  C   UNL A   1      37.318  32.649  28.834  1.00  0.00     0.134 A 
ATOM     77  C   UNL A   1      36.166  30.613  29.334  1.00  0.00     0.134 A 
ATOM     78  F   UNL A   1      38.385  33.456  28.932  1.00  0.00    -0.206 F 
ATOM     79  C   UNL A   1      36.227  33.094  28.087  1.00  0.00     0.040 A 
ATOM     80  C   UNL A   1      35.077  31.034  28.570  1.00  0.00     0.040 A 
ATOM     81  F   UNL A   1      36.109  29.402  29.908  1.00  0.00    -0.206 F 
ATOM     82  C   UNL A   1      35.102  32.282  27.949  1.00  0.00     0.006 A 
ENDBRANCH  54  75
BRANCH  66  83
ATOM     83  C   UNL A   1      39.284  32.558  36.062  1.00  0.00     0.057 A 
ATOM     84  C   UNL A   1      38.291  32.035  36.902  1.00  0.00     0.134 A 
ATOM     85  C   UNL A   1      39.680  33.884  36.280  1.00  0.00     0.134 A 
ATOM     86  F   UNL A   1      37.856  30.776  36.743  1.00  0.00    -0.206 F 
ATOM     87  C   UNL A   1      37.715  32.801  37.918  1.00  0.00     0.040 A 
ATOM     88  C   UNL A   1      39.134  34.649  37.313  1.00  0.00     0.040 A 
ATOM     89  F   UNL A   1      40.634  34.443  35.521  1.00  0.00    -0.206 F 
ATOM     90  C   UNL A   1      38.144  34.109  38.132  1.00  0.00     0.006 A 
ENDBRANCH  66  83
ENDBRANCH  40  41
ENDBRANCH  33  35
ENDBRANCH  32  33
ENDBRANCH  31  32
ENDBRANCH  30  31
ENDBRANCH  29  30
ENDBRANCH  28  29
ENDBRANCH   1  28
TORSDOF 22
ENDMDL
MODEL 2
REMARK VINA RESULT:     -10.0      1.546      6.295
REMARK SMILES COc1cc(Cl)c2c(c1)C=C(C(=O)OCCOCCOCCOCCOC(=O)c1ccc(-c3c4nc(c(-c5c(F)cccc5F)c5ccc([nH]5)c(-c5c(F)cccc5F)c5nc(c(-c6c(F)cccc6F)c6ccc3[nH]6)C=C5)C=C4)cc1)[C@@H](C(F)(F)F)O2
REMARK SMILES IDX 21 1 20 2 19 3 18 4 17 5 16 6 15 7 14 8 12 9 13 10 11 11
REMARK SMILES IDX 3 12 4 13 9 14 5 15 8 16 6 17 7 18 10 19 88 20 83 21 2 22
REMARK SMILES IDX 1 23 84 24 85 25 86 26 87 27 22 28 23 29 24 30 25 31 26 32
REMARK SMILES IDX 27 33 28 34 29 35 30 36 82 37 31 38 81 39 32 40 33 41 34 42
REMARK SMILES IDX 75 43 35 44 80 45 74 46 76 47 36 48 79 49 73 50 72 51 37 53
REMARK SMILES IDX 63 54 46 55 62 56 47 57 50 58 61 59 77 60 48 61 49 62 60 64
REMARK SMILES IDX 78 65 51 66 38 67 39 68 44 69 40 70 41 71 43 72 45 73 42 74
REMARK SMILES IDX 64 75 65 76 70 77 66 78 67 79 69 80 71 81 68 82 52 83 53 84
REMARK SMILES IDX 58 85 54 86 55 87 57 88 59 89 56 90
REMARK H PARENT 76 52 50 63
REMARK Flexibility Score: inf
ROOT
ATOM      1  C   UNL A   1      44.153  20.911  25.343  1.00  0.00     0.188 C 
ENDROOT
BRANCH   1   2
ATOM      2  O   UNL A   1      42.737  20.737  25.385  1.00  0.00    -0.377 OA
BRANCH   2   3
ATOM      3  C   UNL A   1      42.084  21.063  26.601  1.00  0.00     0.188 C 
BRANCH   3   4
ATOM      4  C   UNL A   1      40.675  21.649  26.389  1.00  0.00     0.188 C 
BRANCH   4   5
ATOM      5  O   UNL A   1      39.640  20.719  26.132  1.00  0.00    -0.376 OA
BRANCH   5   6
ATOM      6  C   UNL A   1      38.479  21.029  25.378  1.00  0.00     0.202 C 
BRANCH   6   7
ATOM      7  C   UNL A   1      37.449  22.139  25.663  1.00  0.00     0.261 C 
BRANCH   7   8
ATOM      8  O   UNL A   1      36.154  22.020  25.082  1.00  0.00    -0.460 OA
BRANCH   8   9
ATOM      9  C   UNL A   1      35.142  22.618  25.735  1.00  0.00     0.338 C 
ATOM     10  O   UNL A   1      34.848  22.489  26.910  1.00  0.00    -0.246 OA
BRANCH   9  11
ATOM     11  C   UNL A   1      34.538  23.605  24.816  1.00  0.00     0.087 C 
ATOM     12  C   UNL A   1      33.166  28.132  24.033  1.00  0.00     0.121 A 
ATOM     13  C   UNL A   1      32.525  27.753  22.857  1.00  0.00     0.070 A 
ATOM     14  C   UNL A   1      33.910  27.209  24.762  1.00  0.00     0.058 A 
ATOM     15  C   UNL A   1      32.624  26.432  22.417  1.00  0.00     0.087 A 
ATOM     16  C   UNL A   1      33.956  25.873  24.352  1.00  0.00     0.022 A 
ATOM     17  Cl  UNL A   1      31.804  25.996  20.959  1.00  0.00    -0.080 Cl
ATOM     18  C   UNL A   1      33.339  25.482  23.160  1.00  0.00     0.146 A 
ATOM     19  C   UNL A   1      34.575  24.882  25.211  1.00  0.00     0.027 C 
ATOM     20  O   UNL A   1      33.396  24.202  22.682  1.00  0.00    -0.474 OA
ATOM     21  C   UNL A   1      33.990  23.151  23.489  1.00  0.00     0.316 C 
BRANCH  12  22
ATOM     22  O   UNL A   1      33.129  29.415  24.503  1.00  0.00    -0.497 OA
ATOM     23  C   UNL A   1      32.019  29.620  25.378  1.00  0.00     0.278 C 
ENDBRANCH  12  22
BRANCH  21  24
ATOM     24  C   UNL A   1      32.960  22.024  23.644  1.00  0.00     0.430 C 
ATOM     25  F   UNL A   1      32.208  21.883  22.526  1.00  0.00    -0.167 F 
ATOM     26  F   UNL A   1      33.548  20.826  23.867  1.00  0.00    -0.167 F 
ATOM     27  F   UNL A   1      32.118  22.257  24.676  1.00  0.00    -0.167 F 
ENDBRANCH  21  24
ENDBRANCH   9  11
ENDBRANCH   8   9
ENDBRANCH   7   8
ENDBRANCH   6   7
ENDBRANCH   5   6
ENDBRANCH   4   5
ENDBRANCH   3   4
ENDBRANCH   2   3
ENDBRANCH   1   2
BRANCH   1  28
ATOM     28  C   UNL A   1      44.786  22.001  24.444  1.00  0.00     0.188 C 
BRANCH  28  29
ATOM     29  O   UNL A   1      44.452  23.328  24.825  1.00  0.00    -0.376 OA
BRANCH  29  30
ATOM     30  C   UNL A   1      44.847  23.805  26.096  1.00  0.00     0.202 C 
BRANCH  30  31
ATOM     31  C   UNL A   1      43.748  24.384  26.995  1.00  0.00     0.261 C 
BRANCH  31  32
ATOM     32  O   UNL A   1      42.469  24.579  26.378  1.00  0.00    -0.460 OA
BRANCH  32  33
ATOM     33  C   UNL A   1      42.230  25.776  25.805  1.00  0.00     0.338 C 
ATOM     34  O   UNL A   1      42.300  26.059  24.621  1.00  0.00    -0.246 OA
BRANCH  33  35
ATOM     35  C   UNL A   1      41.702  26.661  26.857  1.00  0.00     0.060 A 
ATOM     36  C   UNL A   1      42.227  27.953  27.004  1.00  0.00     0.016 A 
ATOM     37  C   UNL A   1      40.680  26.206  27.692  1.00  0.00     0.016 A 
ATOM     38  C   UNL A   1      41.749  28.786  28.014  1.00  0.00     0.010 A 
ATOM     39  C   UNL A   1      40.226  27.027  28.722  1.00  0.00     0.010 A 
ATOM     40  C   UNL A   1      40.783  28.304  28.906  1.00  0.00    -0.014 A 
BRANCH  40  41
ATOM     41  C   UNL A   1      40.517  29.025  30.170  1.00  0.00     0.031 A 
ATOM     42  C   UNL A   1      39.432  30.062  30.171  1.00  0.00     0.074 A 
ATOM     43  C   UNL A   1      41.242  28.793  31.274  1.00  0.00     0.049 A 
ATOM     44  N   UNL A   1      39.083  30.903  31.108  1.00  0.00    -0.248 NA
ATOM     45  C   UNL A   1      38.643  30.169  28.933  1.00  0.00     0.031 C 
ATOM     46  C   UNL A   1      42.295  27.789  31.401  1.00  0.00     0.029 A 
ATOM     47  N   UNL A   1      41.217  29.419  32.494  1.00  0.00    -0.354 N 
ATOM     48  C   UNL A   1      38.034  31.641  30.573  1.00  0.00     0.074 A 
ATOM     49  C   UNL A   1      37.832  31.174  29.219  1.00  0.00     0.031 C 
ATOM     50  C   UNL A   1      42.841  27.889  32.625  1.00  0.00     0.029 A 
ATOM     51  C   UNL A   1      42.201  28.989  33.347  1.00  0.00     0.049 A 
ATOM     52  H   UNL A   1      40.556  30.109  32.733  1.00  0.00     0.167 HD
ATOM     53  C   UNL A   1      37.302  32.618  31.160  1.00  0.00     0.037 A 
ATOM     54  C   UNL A   1      42.565  29.460  34.554  1.00  0.00     0.037 A 
ATOM     55  C   UNL A   1      37.542  33.107  32.492  1.00  0.00     0.049 A 
ATOM     56  C   UNL A   1      41.815  30.623  35.149  1.00  0.00     0.074 A 
ATOM     57  C   UNL A   1      36.856  34.082  33.193  1.00  0.00     0.029 A 
ATOM     58  N   UNL A   1      38.573  32.674  33.314  1.00  0.00    -0.354 N 
ATOM     59  N   UNL A   1      40.795  31.290  34.661  1.00  0.00    -0.248 NA
ATOM     60  C   UNL A   1      42.270  31.101  36.461  1.00  0.00     0.031 C 
ATOM     61  C   UNL A   1      37.515  34.287  34.412  1.00  0.00     0.029 A 
ATOM     62  C   UNL A   1      38.572  33.395  34.498  1.00  0.00     0.049 A 
ATOM     63  H   UNL A   1      39.211  31.959  33.090  1.00  0.00     0.167 HD
ATOM     64  C   UNL A   1      40.480  32.257  35.609  1.00  0.00     0.074 A 
ATOM     65  C   UNL A   1      41.401  32.070  36.712  1.00  0.00     0.031 C 
ATOM     66  C   UNL A   1      39.517  33.215  35.573  1.00  0.00     0.037 A 
BRANCH  53  67
ATOM     67  C   UNL A   1      36.223  33.248  30.326  1.00  0.00     0.057 A 
ATOM     68  C   UNL A   1      36.546  34.151  29.307  1.00  0.00     0.134 A 
ATOM     69  C   UNL A   1      34.868  32.927  30.496  1.00  0.00     0.134 A 
ATOM     70  F   UNL A   1      37.821  34.506  29.089  1.00  0.00    -0.206 F 
ATOM     71  C   UNL A   1      35.566  34.699  28.476  1.00  0.00     0.040 A 
ATOM     72  C   UNL A   1      33.883  33.441  29.649  1.00  0.00     0.040 A 
ATOM     73  F   UNL A   1      34.488  32.054  31.441  1.00  0.00    -0.206 F 
ATOM     74  C   UNL A   1      34.233  34.331  28.637  1.00  0.00     0.006 A 
ENDBRANCH  53  67
BRANCH  54  75
ATOM     75  C   UNL A   1      43.717  28.853  35.264  1.00  0.00     0.057 A 
ATOM     76  C   UNL A   1      43.535  27.836  36.210  1.00  0.00     0.134 A 
ATOM     77  C   UNL A   1      45.028  29.276  35.017  1.00  0.00     0.134 A 
ATOM     78  F   UNL A   1      42.304  27.385  36.492  1.00  0.00    -0.206 F 
ATOM     79  C   UNL A   1      44.612  27.276  36.898  1.00  0.00     0.040 A 
ATOM     80  C   UNL A   1      46.117  28.707  35.678  1.00  0.00     0.040 A 
ATOM     81  F   UNL A   1      45.267  30.228  34.103  1.00  0.00    -0.206 F 
ATOM     82  C   UNL A   1      45.910  27.708  36.628  1.00  0.00     0.006 A 
ENDBRANCH  54  75
BRANCH  66  83
ATOM     83  C   UNL A   1      39.419  34.129  36.762  1.00  0.00     0.057 A 
ATOM     84  C   UNL A   1      40.005  35.402  36.738  1.00  0.00     0.134 A 
ATOM     85  C   UNL A   1      38.761  33.744  37.937  1.00  0.00     0.134 A 
ATOM     86  F   UNL A   1      40.660  35.832  35.650  1.00  0.00    -0.206 F 
ATOM     87  C   UNL A   1      39.938  36.258  37.840  1.00  0.00     0.040 A 
ATOM     88  C   UNL A   1      38.660  34.604  39.034  1.00  0.00     0.040 A 
ATOM     89  F   UNL A   1      38.168  32.545  38.024  1.00  0.00    -0.206 F 
ATOM     90  C   UNL A   1      39.256  35.863  38.989  1.00  0.00     0.006 A 
ENDBRANCH  66  83
ENDBRANCH  40  41
ENDBRANCH  33  35
ENDBRANCH  32  33
ENDBRANCH  31  32
ENDBRANCH  30  31
ENDBRANCH  29  30
ENDBRANCH  28  29
ENDBRANCH   1  28
TORSDOF 22
ENDMDL
MODEL 3
REMARK VINA RESULT:      -9.9      1.096      6.112
REMARK SMILES COc1cc(Cl)c2c(c1)C=C(C(=O)OCCOCCOCCOCCOC(=O)c1ccc(-c3c4nc(c(-c5c(F)cccc5F)c5ccc([nH]5)c(-c5c(F)cccc5F)c5nc(c(-c6c(F)cccc6F)c6ccc3[nH]6)C=C5)C=C4)cc1)[C@@H](C(F)(F)F)O2
REMARK SMILES IDX 21 1 20 2 19 3 18 4 17 5 16 6 15 7 14 8 12 9 13 10 11 11
REMARK SMILES IDX 3 12 4 13 9 14 5 15 8 16 6 17 7 18 10 19 88 20 83 21 2 22
REMARK SMILES IDX 1 23 84 24 85 25 86 26 87 27 22 28 23 29 24 30 25 31 26 32
REMARK SMILES IDX 27 33 28 34 29 35 30 36 82 37 31 38 81 39 32 40 33 41 34 42
REMARK SMILES IDX 75 43 35 44 80 45 74 46 76 47 36 48 79 49 73 50 72 51 37 53
REMARK SMILES IDX 63 54 46 55 62 56 47 57 50 58 61 59 77 60 48 61 49 62 60 64
REMARK SMILES IDX 78 65 51 66 38 67 39 68 44 69 40 70 41 71 43 72 45 73 42 74
REMARK SMILES IDX 64 75 65 76 70 77 66 78 67 79 69 80 71 81 68 82 52 83 53 84
REMARK SMILES IDX 58 85 54 86 55 87 57 88 59 89 56 90
REMARK H PARENT 76 52 50 63
REMARK Flexibility Score: inf
ROOT
ATOM      1  C   UNL A   1      42.492  22.419  25.896  1.00  0.00     0.188 C 
ENDROOT
BRANCH   1   2
ATOM      2  O   UNL A   1      41.118  22.061  25.750  1.00  0.00    -0.377 OA
BRANCH   2   3
ATOM      3  C   UNL A   1      40.729  20.787  26.239  1.00  0.00     0.188 C 
BRANCH   3   4
ATOM      4  C   UNL A   1      39.290  20.403  25.840  1.00  0.00     0.188 C 
BRANCH   4   5
ATOM      5  O   UNL A   1      38.401  21.475  25.595  1.00  0.00    -0.376 OA
BRANCH   5   6
ATOM      6  C   UNL A   1      37.321  21.401  24.678  1.00  0.00     0.202 C 
BRANCH   6   7
ATOM      7  C   UNL A   1      35.877  20.949  24.969  1.00  0.00     0.261 C 
BRANCH   7   8
ATOM      8  O   UNL A   1      34.833  21.910  24.848  1.00  0.00    -0.460 OA
BRANCH   8   9
ATOM      9  C   UNL A   1      34.650  22.737  25.892  1.00  0.00     0.338 C 
ATOM     10  O   UNL A   1      35.274  22.751  26.938  1.00  0.00    -0.246 OA
BRANCH   9  11
ATOM     11  C   UNL A   1      33.661  23.758  25.485  1.00  0.00     0.087 C 
ATOM     12  C   UNL A   1      32.479  28.396  25.198  1.00  0.00     0.121 A 
ATOM     13  C   UNL A   1      31.182  28.060  24.818  1.00  0.00     0.070 A 
ATOM     14  C   UNL A   1      33.445  27.408  25.364  1.00  0.00     0.058 A 
ATOM     15  C   UNL A   1      30.853  26.719  24.614  1.00  0.00     0.087 A 
ATOM     16  C   UNL A   1      33.097  26.062  25.219  1.00  0.00     0.022 A 
ATOM     17  Cl  UNL A   1      29.230  26.340  24.155  1.00  0.00    -0.080 Cl
ATOM     18  C   UNL A   1      31.806  25.710  24.813  1.00  0.00     0.146 A 
ATOM     19  C   UNL A   1      34.055  25.033  25.572  1.00  0.00     0.027 C 
ATOM     20  O   UNL A   1      31.423  24.414  24.603  1.00  0.00    -0.474 OA
ATOM     21  C   UNL A   1      32.324  23.327  24.943  1.00  0.00     0.316 C 
BRANCH  12  22
ATOM     22  O   UNL A   1      32.871  29.691  25.388  1.00  0.00    -0.497 OA
ATOM     23  C   UNL A   1      31.804  30.491  25.901  1.00  0.00     0.278 C 
ENDBRANCH  12  22
BRANCH  21  24
ATOM     24  C   UNL A   1      31.591  22.378  25.900  1.00  0.00     0.430 C 
ATOM     25  F   UNL A   1      31.818  21.080  25.583  1.00  0.00    -0.167 F 
ATOM     26  F   UNL A   1      31.994  22.538  27.182  1.00  0.00    -0.167 F 
ATOM     27  F   UNL A   1      30.253  22.576  25.872  1.00  0.00    -0.167 F 
ENDBRANCH  21  24
ENDBRANCH   9  11
ENDBRANCH   8   9
ENDBRANCH   7   8
ENDBRANCH   6   7
ENDBRANCH   5   6
ENDBRANCH   4   5
ENDBRANCH   3   4
ENDBRANCH   2   3
ENDBRANCH   1   2
BRANCH   1  28
ATOM     28  C   UNL A   1      43.600  21.342  25.795  1.00  0.00     0.188 C 
BRANCH  28  29
ATOM     29  O   UNL A   1      44.173  21.225  24.500  1.00  0.00    -0.376 OA
BRANCH  29  30
ATOM     30  C   UNL A   1      44.572  22.393  23.810  1.00  0.00     0.202 C 
BRANCH  30  31
ATOM     31  C   UNL A   1      45.193  23.518  24.647  1.00  0.00     0.261 C 
BRANCH  31  32
ATOM     32  O   UNL A   1      44.364  24.664  24.876  1.00  0.00    -0.460 OA
BRANCH  32  33
ATOM     33  C   UNL A   1      44.974  25.819  25.210  1.00  0.00     0.338 C 
ATOM     34  O   UNL A   1      45.959  26.315  24.691  1.00  0.00    -0.246 OA
BRANCH  33  35
ATOM     35  C   UNL A   1      44.133  26.473  26.227  1.00  0.00     0.060 A 
ATOM     36  C   UNL A   1      44.352  27.820  26.546  1.00  0.00     0.016 A 
ATOM     37  C   UNL A   1      43.122  25.745  26.857  1.00  0.00     0.016 A 
ATOM     38  C   UNL A   1      43.577  28.437  27.526  1.00  0.00     0.010 A 
ATOM     39  C   UNL A   1      42.368  26.353  27.859  1.00  0.00     0.010 A 
ATOM     40  C   UNL A   1      42.617  27.689  28.219  1.00  0.00    -0.014 A 
BRANCH  40  41
ATOM     41  C   UNL A   1      42.034  28.211  29.473  1.00  0.00     0.031 A 
ATOM     42  C   UNL A   1      40.750  28.982  29.382  1.00  0.00     0.074 A 
ATOM     43  C   UNL A   1      42.647  28.041  30.654  1.00  0.00     0.049 A 
ATOM     44  N   UNL A   1      40.101  29.634  30.310  1.00  0.00    -0.248 NA
ATOM     45  C   UNL A   1      40.121  29.031  28.053  1.00  0.00     0.031 C 
ATOM     46  C   UNL A   1      43.877  27.283  30.869  1.00  0.00     0.029 A 
ATOM     47  N   UNL A   1      42.324  28.528  31.895  1.00  0.00    -0.354 N 
ATOM     48  C   UNL A   1      38.987  30.172  29.677  1.00  0.00     0.074 A 
ATOM     49  C   UNL A   1      39.071  29.803  28.281  1.00  0.00     0.031 C 
ATOM     50  C   UNL A   1      44.225  27.384  32.164  1.00  0.00     0.029 A 
ATOM     51  C   UNL A   1      43.264  28.245  32.852  1.00  0.00     0.049 A 
ATOM     52  H   UNL A   1      41.498  29.032  32.079  1.00  0.00     0.167 HD
ATOM     53  C   UNL A   1      37.982  30.907  30.212  1.00  0.00     0.037 A 
ATOM     54  C   UNL A   1      43.353  28.668  34.127  1.00  0.00     0.037 A 
ATOM     55  C   UNL A   1      37.932  31.309  31.592  1.00  0.00     0.049 A 
ATOM     56  C   UNL A   1      42.287  29.578  34.679  1.00  0.00     0.074 A 
ATOM     57  C   UNL A   1      36.958  32.040  32.246  1.00  0.00     0.029 A 
ATOM     58  N   UNL A   1      38.923  31.035  32.526  1.00  0.00    -0.354 N 
ATOM     59  N   UNL A   1      41.212  30.049  34.092  1.00  0.00    -0.248 NA
ATOM     60  C   UNL A   1      42.451  30.018  36.071  1.00  0.00     0.031 C 
ATOM     61  C   UNL A   1      37.392  32.267  33.558  1.00  0.00     0.029 A 
ATOM     62  C   UNL A   1      38.605  31.624  33.740  1.00  0.00     0.049 A 
ATOM     63  H   UNL A   1      39.731  30.501  32.353  1.00  0.00     0.167 HD
ATOM     64  C   UNL A   1      40.566  30.831  35.043  1.00  0.00     0.074 A 
ATOM     65  C   UNL A   1      41.358  30.746  36.254  1.00  0.00     0.031 C 
ATOM     66  C   UNL A   1      39.422  31.554  34.928  1.00  0.00     0.037 A 
BRANCH  53  67
ATOM     67  C   UNL A   1      36.903  31.362  29.271  1.00  0.00     0.057 A 
ATOM     68  C   UNL A   1      35.863  30.497  28.908  1.00  0.00     0.134 A 
ATOM     69  C   UNL A   1      36.861  32.668  28.762  1.00  0.00     0.134 A 
ATOM     70  F   UNL A   1      35.840  29.233  29.356  1.00  0.00    -0.206 F 
ATOM     71  C   UNL A   1      34.814  30.918  28.088  1.00  0.00     0.040 A 
ATOM     72  C   UNL A   1      35.800  33.110  27.969  1.00  0.00     0.040 A 
ATOM     73  F   UNL A   1      37.815  33.555  29.083  1.00  0.00    -0.206 F 
ATOM     74  C   UNL A   1      34.773  32.232  27.630  1.00  0.00     0.006 A 
ENDBRANCH  53  67
BRANCH  54  75
ATOM     75  C   UNL A   1      44.514  28.263  34.957  1.00  0.00     0.057 A 
ATOM     76  C   UNL A   1      45.649  29.076  35.069  1.00  0.00     0.134 A 
ATOM     77  C   UNL A   1      44.519  27.051  35.656  1.00  0.00     0.134 A 
ATOM     78  F   UNL A   1      45.706  30.251  34.424  1.00  0.00    -0.206 F 
ATOM     79  C   UNL A   1      46.753  28.691  35.830  1.00  0.00     0.040 A 
ATOM     80  C   UNL A   1      45.605  26.665  36.442  1.00  0.00     0.040 A 
ATOM     81  F   UNL A   1      43.450  26.242  35.609  1.00  0.00    -0.206 F 
ATOM     82  C   UNL A   1      46.731  27.483  36.525  1.00  0.00     0.006 A 
ENDBRANCH  54  75
BRANCH  66  83
ATOM     83  C   UNL A   1      38.967  32.308  36.145  1.00  0.00     0.057 A 
ATOM     84  C   UNL A   1      39.363  33.637  36.356  1.00  0.00     0.134 A 
ATOM     85  C   UNL A   1      38.151  31.717  37.119  1.00  0.00     0.134 A 
ATOM     86  F   UNL A   1      40.152  34.262  35.471  1.00  0.00    -0.206 F 
ATOM     87  C   UNL A   1      38.963  34.347  37.490  1.00  0.00     0.040 A 
ATOM     88  C   UNL A   1      37.719  32.428  38.241  1.00  0.00     0.040 A 
ATOM     89  F   UNL A   1      37.726  30.454  36.974  1.00  0.00    -0.206 F 
ATOM     90  C   UNL A   1      38.131  33.746  38.432  1.00  0.00     0.006 A 
ENDBRANCH  66  83
ENDBRANCH  40  41
ENDBRANCH  33  35
ENDBRANCH  32  33
ENDBRANCH  31  32
ENDBRANCH  30  31
ENDBRANCH  29  30
ENDBRANCH  28  29
ENDBRANCH   1  28
TORSDOF 22
ENDMDL
