MODEL 1
REMARK VINA RESULT:      -9.2      0.000      0.000
REMARK SMILES CCn1cccc1C(=O)N1CC[C@H](C(=O)OCCOCCOCCOCCOC(=O)c2ccc(-c3c4nc(c(-c5c(F)cccc5F)c5ccc([nH]5)c(-c5c(F)cccc5F)c5nc(c(-c6c(F)cccc6F)c6ccc3[nH]6)C=C5)C=C4)cc2)[C@H]1C
REMARK SMILES IDX 21 1 20 2 19 3 18 4 17 5 16 6 14 7 15 8 13 9 10 10 11 11
REMARK SMILES IDX 85 12 12 13 86 14 8 15 9 16 7 17 3 18 4 19 5 20 6 21 2 22
REMARK SMILES IDX 1 23 22 24 23 25 24 26 25 27 26 28 27 29 28 30 29 31 30 32
REMARK SMILES IDX 31 33 32 34 84 35 33 36 83 37 34 38 35 39 36 40 77 41 37 42
REMARK SMILES IDX 82 43 76 44 78 45 38 46 81 47 75 48 74 49 39 51 65 52 48 53
REMARK SMILES IDX 64 54 49 55 52 56 63 57 79 58 50 59 51 60 62 62 80 63 53 64
REMARK SMILES IDX 40 65 41 66 46 67 42 68 43 69 45 70 47 71 44 72 66 73 67 74
REMARK SMILES IDX 72 75 68 76 69 77 71 78 73 79 70 80 54 81 55 82 60 83 56 84
REMARK SMILES IDX 57 85 59 86 61 87 58 88
REMARK H PARENT 78 50 52 61
REMARK Flexibility Score: inf
ROOT
ATOM      1  C   UNL A   1      39.026  21.761  25.870  1.00  0.00     0.188 C 
ENDROOT
BRANCH   1   2
ATOM      2  C   UNL A   1      37.574  22.051  25.420  1.00  0.00     0.188 C 
BRANCH   2   3
ATOM      3  O   UNL A   1      37.255  23.217  24.673  1.00  0.00    -0.376 OA
BRANCH   3   4
ATOM      4  C   UNL A   1      36.649  23.086  23.399  1.00  0.00     0.202 C 
BRANCH   4   5
ATOM      5  C   UNL A   1      35.131  22.863  23.313  1.00  0.00     0.261 C 
BRANCH   5   6
ATOM      6  O   UNL A   1      34.402  23.706  22.401  1.00  0.00    -0.463 OA
BRANCH   6   7
ATOM      7  C   UNL A   1      33.362  24.408  22.916  1.00  0.00     0.311 C 
ATOM      8  O   UNL A   1      32.250  23.940  23.132  1.00  0.00    -0.252 OA
BRANCH   7   9
ATOM      9  C   UNL A   1      33.695  25.856  23.246  1.00  0.00     0.123 C 
ATOM     10  N   UNL A   1      32.554  27.855  23.926  1.00  0.00    -0.334 N 
ATOM     11  C   UNL A   1      32.541  27.848  22.473  1.00  0.00     0.121 C 
ATOM     12  C   UNL A   1      32.929  26.517  24.414  1.00  0.00     0.096 C 
ATOM     13  C   UNL A   1      33.547  26.805  22.049  1.00  0.00     0.039 C 
ATOM     14  C   UNL A   1      33.806  26.480  25.657  1.00  0.00     0.032 C 
BRANCH  10  15
ATOM     15  C   UNL A   1      31.520  28.595  24.518  1.00  0.00     0.270 C 
ATOM     16  O   UNL A   1      31.690  29.089  25.636  1.00  0.00    -0.267 OA
BRANCH  15  17
ATOM     17  C   UNL A   1      30.239  28.730  23.838  1.00  0.00     0.107 A 
ATOM     18  N   UNL A   1      29.240  27.801  23.589  1.00  0.00    -0.344 N 
ATOM     19  C   UNL A   1      28.178  28.425  22.961  1.00  0.00     0.086 A 
ATOM     20  C   UNL A   1      28.437  29.769  22.885  1.00  0.00     0.020 A 
ATOM     21  C   UNL A   1      29.713  29.962  23.444  1.00  0.00     0.033 A 
BRANCH  18  22
ATOM     22  C   UNL A   1      29.203  26.377  23.874  1.00  0.00     0.119 C 
ATOM     23  C   UNL A   1      29.654  25.931  25.251  1.00  0.00     0.027 C 
ENDBRANCH  18  22
ENDBRANCH  15  17
ENDBRANCH  10  15
ENDBRANCH   7   9
ENDBRANCH   6   7
ENDBRANCH   5   6
ENDBRANCH   4   5
ENDBRANCH   3   4
ENDBRANCH   2   3
ENDBRANCH   1   2
BRANCH   1  24
ATOM     24  O   UNL A   1      39.437  22.394  27.068  1.00  0.00    -0.377 OA
BRANCH  24  25
ATOM     25  C   UNL A   1      40.659  21.917  27.618  1.00  0.00     0.188 C 
BRANCH  25  26
ATOM     26  C   UNL A   1      41.552  21.062  26.692  1.00  0.00     0.188 C 
BRANCH  26  27
ATOM     27  O   UNL A   1      42.553  21.791  25.988  1.00  0.00    -0.376 OA
BRANCH  27  28
ATOM     28  C   UNL A   1      43.065  23.016  26.482  1.00  0.00     0.202 C 
BRANCH  28  29
ATOM     29  C   UNL A   1      42.795  24.245  25.609  1.00  0.00     0.261 C 
BRANCH  29  30
ATOM     30  O   UNL A   1      41.648  24.987  25.993  1.00  0.00    -0.460 OA
BRANCH  30  31
ATOM     31  C   UNL A   1      41.678  26.257  25.555  1.00  0.00     0.338 C 
ATOM     32  O   UNL A   1      42.317  26.732  24.638  1.00  0.00    -0.246 OA
BRANCH  31  33
ATOM     33  C   UNL A   1      40.921  27.095  26.465  1.00  0.00     0.060 A 
ATOM     34  C   UNL A   1      41.356  28.421  26.521  1.00  0.00     0.016 A 
ATOM     35  C   UNL A   1      40.342  26.414  27.540  1.00  0.00     0.016 A 
ATOM     36  C   UNL A   1      41.447  28.995  27.760  1.00  0.00     0.010 A 
ATOM     37  C   UNL A   1      40.482  26.969  28.784  1.00  0.00     0.010 A 
ATOM     38  C   UNL A   1      41.082  28.229  28.877  1.00  0.00    -0.014 A 
BRANCH  38  39
ATOM     39  C   UNL A   1      41.195  28.884  30.171  1.00  0.00     0.031 A 
ATOM     40  C   UNL A   1      42.288  28.177  30.975  1.00  0.00     0.074 A 
ATOM     41  C   UNL A   1      40.269  29.861  30.414  1.00  0.00     0.049 A 
ATOM     42  N   UNL A   1      42.355  27.945  32.245  1.00  0.00    -0.248 NA
ATOM     43  C   UNL A   1      43.419  27.522  30.251  1.00  0.00     0.031 C 
ATOM     44  C   UNL A   1      39.294  30.385  29.425  1.00  0.00     0.029 A 
ATOM     45  N   UNL A   1      39.936  30.597  31.527  1.00  0.00    -0.354 N 
ATOM     46  C   UNL A   1      43.602  27.339  32.491  1.00  0.00     0.074 A 
ATOM     47  C   UNL A   1      44.139  26.964  31.224  1.00  0.00     0.031 C 
ATOM     48  C   UNL A   1      38.447  31.267  30.001  1.00  0.00     0.029 A 
ATOM     49  C   UNL A   1      38.780  31.416  31.404  1.00  0.00     0.049 A 
ATOM     50  H   UNL A   1      40.465  30.560  32.357  1.00  0.00     0.167 HD
ATOM     51  C   UNL A   1      44.184  27.339  33.722  1.00  0.00     0.037 A 
ATOM     52  C   UNL A   1      38.118  32.108  32.385  1.00  0.00     0.037 A 
ATOM     53  C   UNL A   1      43.303  27.942  34.665  1.00  0.00     0.049 A 
ATOM     54  C   UNL A   1      38.936  31.912  33.590  1.00  0.00     0.074 A 
ATOM     55  C   UNL A   1      42.118  27.517  35.208  1.00  0.00     0.029 A 
ATOM     56  N   UNL A   1      43.407  29.304  34.813  1.00  0.00    -0.354 N 
ATOM     57  N   UNL A   1      40.086  32.475  33.808  1.00  0.00    -0.248 NA
ATOM     58  C   UNL A   1      38.497  30.913  34.573  1.00  0.00     0.031 C 
ATOM     59  C   UNL A   1      41.336  28.689  35.237  1.00  0.00     0.029 A 
ATOM     60  C   UNL A   1      42.136  29.802  34.947  1.00  0.00     0.049 A 
ATOM     61  H   UNL A   1      44.242  29.827  34.821  1.00  0.00     0.167 HD
ATOM     62  C   UNL A   1      40.638  31.647  34.755  1.00  0.00     0.074 A 
ATOM     63  C   UNL A   1      39.540  30.956  35.395  1.00  0.00     0.031 C 
ATOM     64  C   UNL A   1      41.902  31.182  34.590  1.00  0.00     0.037 A 
BRANCH  51  65
ATOM     65  C   UNL A   1      45.598  27.095  34.145  1.00  0.00     0.057 A 
ATOM     66  C   UNL A   1      45.830  26.113  35.133  1.00  0.00     0.134 A 
ATOM     67  C   UNL A   1      46.651  27.987  33.909  1.00  0.00     0.134 A 
ATOM     68  F   UNL A   1      44.909  25.173  35.404  1.00  0.00    -0.206 F 
ATOM     69  C   UNL A   1      46.971  26.112  35.937  1.00  0.00     0.040 A 
ATOM     70  C   UNL A   1      47.821  27.962  34.676  1.00  0.00     0.040 A 
ATOM     71  F   UNL A   1      46.553  28.970  33.006  1.00  0.00    -0.206 F 
ATOM     72  C   UNL A   1      47.963  27.056  35.723  1.00  0.00     0.006 A 
ENDBRANCH  51  65
BRANCH  52  73
ATOM     73  C   UNL A   1      36.814  32.854  32.582  1.00  0.00     0.057 A 
ATOM     74  C   UNL A   1      35.528  32.355  32.366  1.00  0.00     0.134 A 
ATOM     75  C   UNL A   1      36.826  34.185  33.095  1.00  0.00     0.134 A 
ATOM     76  F   UNL A   1      35.330  31.176  31.769  1.00  0.00    -0.206 F 
ATOM     77  C   UNL A   1      34.366  33.067  32.741  1.00  0.00     0.040 A 
ATOM     78  C   UNL A   1      35.689  34.882  33.514  1.00  0.00     0.040 A 
ATOM     79  F   UNL A   1      37.958  34.890  33.219  1.00  0.00    -0.206 F 
ATOM     80  C   UNL A   1      34.444  34.313  33.354  1.00  0.00     0.006 A 
ENDBRANCH  52  73
BRANCH  64  81
ATOM     81  C   UNL A   1      42.780  32.051  33.711  1.00  0.00     0.057 A 
ATOM     82  C   UNL A   1      43.105  33.351  34.117  1.00  0.00     0.134 A 
ATOM     83  C   UNL A   1      43.220  31.697  32.426  1.00  0.00     0.134 A 
ATOM     84  F   UNL A   1      42.744  33.784  35.335  1.00  0.00    -0.206 F 
ATOM     85  C   UNL A   1      43.802  34.244  33.290  1.00  0.00     0.040 A 
ATOM     86  C   UNL A   1      43.919  32.573  31.585  1.00  0.00     0.040 A 
ATOM     87  F   UNL A   1      42.981  30.484  31.935  1.00  0.00    -0.206 F 
ATOM     88  C   UNL A   1      44.208  33.859  32.016  1.00  0.00     0.006 A 
ENDBRANCH  64  81
ENDBRANCH  38  39
ENDBRANCH  31  33
ENDBRANCH  30  31
ENDBRANCH  29  30
ENDBRANCH  28  29
ENDBRANCH  27  28
ENDBRANCH  26  27
ENDBRANCH  25  26
ENDBRANCH  24  25
ENDBRANCH   1  24
TORSDOF 23
ENDMDL
MODEL 2
REMARK VINA RESULT:      -9.0      2.803      6.828
REMARK SMILES CCn1cccc1C(=O)N1CC[C@H](C(=O)OCCOCCOCCOCCOC(=O)c2ccc(-c3c4nc(c(-c5c(F)cccc5F)c5ccc([nH]5)c(-c5c(F)cccc5F)c5nc(c(-c6c(F)cccc6F)c6ccc3[nH]6)C=C5)C=C4)cc2)[C@H]1C
REMARK SMILES IDX 21 1 20 2 19 3 18 4 17 5 16 6 14 7 15 8 13 9 10 10 11 11
REMARK SMILES IDX 85 12 12 13 86 14 8 15 9 16 7 17 3 18 4 19 5 20 6 21 2 22
REMARK SMILES IDX 1 23 22 24 23 25 24 26 25 27 26 28 27 29 28 30 29 31 30 32
REMARK SMILES IDX 31 33 32 34 84 35 33 36 83 37 34 38 35 39 36 40 77 41 37 42
REMARK SMILES IDX 82 43 76 44 78 45 38 46 81 47 75 48 74 49 39 51 65 52 48 53
REMARK SMILES IDX 64 54 49 55 52 56 63 57 79 58 50 59 51 60 62 62 80 63 53 64
REMARK SMILES IDX 40 65 41 66 46 67 42 68 43 69 45 70 47 71 44 72 66 73 67 74
REMARK SMILES IDX 72 75 68 76 69 77 71 78 73 79 70 80 54 81 55 82 60 83 56 84
REMARK SMILES IDX 57 85 59 86 61 87 58 88
REMARK H PARENT 78 50 52 61
REMARK Flexibility Score: inf
ROOT
ATOM      1  C   UNL A   1      39.844  21.157  25.833  1.00  0.00     0.188 C 
ENDROOT
BRANCH   1   2
ATOM      2  C   UNL A   1      38.434  20.702  25.385  1.00  0.00     0.188 C 
BRANCH   2   3
ATOM      3  O   UNL A   1      37.304  21.551  25.537  1.00  0.00    -0.376 OA
BRANCH   3   4
ATOM      4  C   UNL A   1      36.221  21.442  24.631  1.00  0.00     0.202 C 
BRANCH   4   5
ATOM      5  C   UNL A   1      34.838  21.035  25.163  1.00  0.00     0.261 C 
BRANCH   5   6
ATOM      6  O   UNL A   1      33.700  21.397  24.359  1.00  0.00    -0.463 OA
BRANCH   6   7
ATOM      7  C   UNL A   1      33.497  22.722  24.148  1.00  0.00     0.311 C 
ATOM      8  O   UNL A   1      33.355  23.233  23.042  1.00  0.00    -0.252 OA
BRANCH   7   9
ATOM      9  C   UNL A   1      33.425  23.548  25.424  1.00  0.00     0.123 C 
ATOM     10  N   UNL A   1      32.275  25.486  26.250  1.00  0.00    -0.334 N 
ATOM     11  C   UNL A   1      33.492  25.968  25.620  1.00  0.00     0.121 C 
ATOM     12  C   UNL A   1      32.041  24.088  25.848  1.00  0.00     0.096 C 
ATOM     13  C   UNL A   1      34.372  24.755  25.424  1.00  0.00     0.039 C 
ATOM     14  C   UNL A   1      31.464  23.172  26.917  1.00  0.00     0.032 C 
BRANCH  10  15
ATOM     15  C   UNL A   1      31.233  26.424  26.307  1.00  0.00     0.270 C 
ATOM     16  O   UNL A   1      30.065  26.030  26.366  1.00  0.00    -0.267 OA
BRANCH  15  17
ATOM     17  C   UNL A   1      31.531  27.847  26.241  1.00  0.00     0.107 A 
ATOM     18  N   UNL A   1      31.478  28.739  25.179  1.00  0.00    -0.344 N 
ATOM     19  C   UNL A   1      31.794  30.007  25.629  1.00  0.00     0.086 A 
ATOM     20  C   UNL A   1      31.960  29.967  26.989  1.00  0.00     0.020 A 
ATOM     21  C   UNL A   1      31.781  28.626  27.372  1.00  0.00     0.033 A 
BRANCH  18  22
ATOM     22  C   UNL A   1      31.173  28.500  23.779  1.00  0.00     0.119 C 
ATOM     23  C   UNL A   1      29.759  28.791  23.315  1.00  0.00     0.027 C 
ENDBRANCH  18  22
ENDBRANCH  15  17
ENDBRANCH  10  15
ENDBRANCH   7   9
ENDBRANCH   6   7
ENDBRANCH   5   6
ENDBRANCH   4   5
ENDBRANCH   3   4
ENDBRANCH   2   3
ENDBRANCH   1   2
BRANCH   1  24
ATOM     24  O   UNL A   1      40.057  21.214  27.232  1.00  0.00    -0.377 OA
BRANCH  24  25
ATOM     25  C   UNL A   1      41.300  20.686  27.678  1.00  0.00     0.188 C 
BRANCH  25  26
ATOM     26  C   UNL A   1      42.232  20.094  26.599  1.00  0.00     0.188 C 
BRANCH  26  27
ATOM     27  O   UNL A   1      43.254  20.975  26.144  1.00  0.00    -0.376 OA
BRANCH  27  28
ATOM     28  C   UNL A   1      43.393  22.284  26.668  1.00  0.00     0.202 C 
BRANCH  28  29
ATOM     29  C   UNL A   1      42.695  23.391  25.873  1.00  0.00     0.261 C 
BRANCH  29  30
ATOM     30  O   UNL A   1      41.994  24.327  26.677  1.00  0.00    -0.460 OA
BRANCH  30  31
ATOM     31  C   UNL A   1      41.843  25.520  26.078  1.00  0.00     0.338 C 
ATOM     32  O   UNL A   1      42.316  25.912  25.030  1.00  0.00    -0.246 OA
BRANCH  31  33
ATOM     33  C   UNL A   1      41.118  26.412  26.963  1.00  0.00     0.060 A 
ATOM     34  C   UNL A   1      40.618  27.558  26.340  1.00  0.00     0.016 A 
ATOM     35  C   UNL A   1      41.521  26.359  28.301  1.00  0.00     0.016 A 
ATOM     36  C   UNL A   1      40.767  28.744  27.005  1.00  0.00     0.010 A 
ATOM     37  C   UNL A   1      41.717  27.552  28.945  1.00  0.00     0.010 A 
ATOM     38  C   UNL A   1      41.386  28.728  28.264  1.00  0.00    -0.014 A 
BRANCH  38  39
ATOM     39  C   UNL A   1      41.520  30.013  28.932  1.00  0.00     0.031 A 
ATOM     40  C   UNL A   1      40.144  30.429  29.458  1.00  0.00     0.074 A 
ATOM     41  C   UNL A   1      42.757  30.589  28.847  1.00  0.00     0.049 A 
ATOM     42  N   UNL A   1      39.618  31.606  29.541  1.00  0.00    -0.248 NA
ATOM     43  C   UNL A   1      39.157  29.373  29.834  1.00  0.00     0.031 C 
ATOM     44  C   UNL A   1      43.967  29.946  28.276  1.00  0.00     0.029 A 
ATOM     45  N   UNL A   1      43.255  31.824  29.194  1.00  0.00    -0.354 N 
ATOM     46  C   UNL A   1      38.367  31.457  30.172  1.00  0.00     0.074 A 
ATOM     47  C   UNL A   1      38.072  30.062  30.185  1.00  0.00     0.031 C 
ATOM     48  C   UNL A   1      45.004  30.812  28.240  1.00  0.00     0.029 A 
ATOM     49  C   UNL A   1      44.590  32.091  28.783  1.00  0.00     0.049 A 
ATOM     50  H   UNL A   1      42.721  32.481  29.697  1.00  0.00     0.167 HD
ATOM     51  C   UNL A   1      37.735  32.491  30.793  1.00  0.00     0.037 A 
ATOM     52  C   UNL A   1      45.275  33.277  28.828  1.00  0.00     0.037 A 
ATOM     53  C   UNL A   1      38.485  33.688  30.609  1.00  0.00     0.049 A 
ATOM     54  C   UNL A   1      44.359  34.204  29.510  1.00  0.00     0.074 A 
ATOM     55  C   UNL A   1      38.704  34.467  29.503  1.00  0.00     0.029 A 
ATOM     56  N   UNL A   1      39.453  33.952  31.548  1.00  0.00    -0.354 N 
ATOM     57  N   UNL A   1      44.085  34.180  30.778  1.00  0.00    -0.248 NA
ATOM     58  C   UNL A   1      43.594  35.152  28.689  1.00  0.00     0.031 C 
ATOM     59  C   UNL A   1      40.063  34.822  29.620  1.00  0.00     0.029 A 
ATOM     60  C   UNL A   1      40.542  34.459  30.885  1.00  0.00     0.049 A 
ATOM     61  H   UNL A   1      39.380  33.802  32.519  1.00  0.00     0.167 HD
ATOM     62  C   UNL A   1      42.892  34.859  30.829  1.00  0.00     0.074 A 
ATOM     63  C   UNL A   1      42.829  35.680  29.640  1.00  0.00     0.031 C 
ATOM     64  C   UNL A   1      41.841  34.326  31.502  1.00  0.00     0.037 A 
BRANCH  51  65
ATOM     65  C   UNL A   1      36.628  32.509  31.800  1.00  0.00     0.057 A 
ATOM     66  C   UNL A   1      35.403  33.101  31.422  1.00  0.00     0.134 A 
ATOM     67  C   UNL A   1      36.816  32.314  33.173  1.00  0.00     0.134 A 
ATOM     68  F   UNL A   1      35.094  33.285  30.127  1.00  0.00    -0.206 F 
ATOM     69  C   UNL A   1      34.493  33.602  32.353  1.00  0.00     0.040 A 
ATOM     70  C   UNL A   1      35.885  32.769  34.115  1.00  0.00     0.040 A 
ATOM     71  F   UNL A   1      37.938  31.773  33.662  1.00  0.00    -0.206 F 
ATOM     72  C   UNL A   1      34.745  33.456  33.708  1.00  0.00     0.006 A 
ENDBRANCH  51  65
BRANCH  52  73
ATOM     73  C   UNL A   1      46.560  33.881  28.302  1.00  0.00     0.057 A 
ATOM     74  C   UNL A   1      47.526  34.562  29.047  1.00  0.00     0.134 A 
ATOM     75  C   UNL A   1      46.912  33.725  26.929  1.00  0.00     0.134 A 
ATOM     76  F   UNL A   1      47.306  34.911  30.318  1.00  0.00    -0.206 F 
ATOM     77  C   UNL A   1      48.775  34.941  28.504  1.00  0.00     0.040 A 
ATOM     78  C   UNL A   1      48.160  34.050  26.389  1.00  0.00     0.040 A 
ATOM     79  F   UNL A   1      46.051  33.239  26.025  1.00  0.00    -0.206 F 
ATOM     80  C   UNL A   1      49.111  34.648  27.186  1.00  0.00     0.006 A 
ENDBRANCH  52  73
BRANCH  64  81
ATOM     81  C   UNL A   1      42.227  33.351  32.598  1.00  0.00     0.057 A 
ATOM     82  C   UNL A   1      42.957  33.799  33.705  1.00  0.00     0.134 A 
ATOM     83  C   UNL A   1      42.008  31.966  32.544  1.00  0.00     0.134 A 
ATOM     84  F   UNL A   1      43.207  35.108  33.859  1.00  0.00    -0.206 F 
ATOM     85  C   UNL A   1      43.453  32.923  34.682  1.00  0.00     0.040 A 
ATOM     86  C   UNL A   1      42.494  31.074  33.510  1.00  0.00     0.040 A 
ATOM     87  F   UNL A   1      41.318  31.424  31.545  1.00  0.00    -0.206 F 
ATOM     88  C   UNL A   1      43.228  31.553  34.584  1.00  0.00     0.006 A 
ENDBRANCH  64  81
ENDBRANCH  38  39
ENDBRANCH  31  33
ENDBRANCH  30  31
ENDBRANCH  29  30
ENDBRANCH  28  29
ENDBRANCH  27  28
ENDBRANCH  26  27
ENDBRANCH  25  26
ENDBRANCH  24  25
ENDBRANCH   1  24
TORSDOF 23
ENDMDL
MODEL 3
REMARK VINA RESULT:      -9.0      2.021      2.667
REMARK SMILES CCn1cccc1C(=O)N1CC[C@H](C(=O)OCCOCCOCCOCCOC(=O)c2ccc(-c3c4nc(c(-c5c(F)cccc5F)c5ccc([nH]5)c(-c5c(F)cccc5F)c5nc(c(-c6c(F)cccc6F)c6ccc3[nH]6)C=C5)C=C4)cc2)[C@H]1C
REMARK SMILES IDX 21 1 20 2 19 3 18 4 17 5 16 6 14 7 15 8 13 9 10 10 11 11
REMARK SMILES IDX 85 12 12 13 86 14 8 15 9 16 7 17 3 18 4 19 5 20 6 21 2 22
REMARK SMILES IDX 1 23 22 24 23 25 24 26 25 27 26 28 27 29 28 30 29 31 30 32
REMARK SMILES IDX 31 33 32 34 84 35 33 36 83 37 34 38 35 39 36 40 77 41 37 42
REMARK SMILES IDX 82 43 76 44 78 45 38 46 81 47 75 48 74 49 39 51 65 52 48 53
REMARK SMILES IDX 64 54 49 55 52 56 63 57 79 58 50 59 51 60 62 62 80 63 53 64
REMARK SMILES IDX 40 65 41 66 46 67 42 68 43 69 45 70 47 71 44 72 66 73 67 74
REMARK SMILES IDX 72 75 68 76 69 77 71 78 73 79 70 80 54 81 55 82 60 83 56 84
REMARK SMILES IDX 57 85 59 86 61 87 58 88
REMARK H PARENT 78 50 52 61
REMARK Flexibility Score: inf
ROOT
ATOM      1  C   UNL A   1      39.543  20.955  25.806  1.00  0.00     0.188 C 
ENDROOT
BRANCH   1   2
ATOM      2  C   UNL A   1      38.087  21.477  25.760  1.00  0.00     0.188 C 
BRANCH   2   3
ATOM      3  O   UNL A   1      37.756  22.676  25.072  1.00  0.00    -0.376 OA
BRANCH   3   4
ATOM      4  C   UNL A   1      36.788  22.644  24.039  1.00  0.00     0.202 C 
BRANCH   4   5
ATOM      5  C   UNL A   1      35.297  22.634  24.410  1.00  0.00     0.261 C 
BRANCH   5   6
ATOM      6  O   UNL A   1      34.391  23.247  23.474  1.00  0.00    -0.463 OA
BRANCH   6   7
ATOM      7  C   UNL A   1      33.418  24.037  23.993  1.00  0.00     0.311 C 
ATOM      8  O   UNL A   1      32.439  23.619  24.603  1.00  0.00    -0.252 OA
BRANCH   7   9
ATOM      9  C   UNL A   1      33.653  25.525  23.786  1.00  0.00     0.123 C 
ATOM     10  N   UNL A   1      32.412  27.577  23.905  1.00  0.00    -0.334 N 
ATOM     11  C   UNL A   1      32.257  27.080  22.548  1.00  0.00     0.121 C 
ATOM     12  C   UNL A   1      32.950  26.502  24.756  1.00  0.00     0.096 C 
ATOM     13  C   UNL A   1      33.305  26.008  22.372  1.00  0.00     0.039 C 
ATOM     14  C   UNL A   1      33.945  26.930  25.826  1.00  0.00     0.032 C 
BRANCH  10  15
ATOM     15  C   UNL A   1      31.380  28.420  24.343  1.00  0.00     0.270 C 
ATOM     16  O   UNL A   1      31.405  28.863  25.495  1.00  0.00    -0.267 OA
BRANCH  15  17
ATOM     17  C   UNL A   1      30.263  28.723  23.459  1.00  0.00     0.107 A 
ATOM     18  N   UNL A   1      29.046  28.082  23.279  1.00  0.00    -0.344 N 
ATOM     19  C   UNL A   1      28.286  28.788  22.366  1.00  0.00     0.086 A 
ATOM     20  C   UNL A   1      28.957  29.932  22.021  1.00  0.00     0.020 A 
ATOM     21  C   UNL A   1      30.181  29.900  22.713  1.00  0.00     0.033 A 
BRANCH  18  22
ATOM     22  C   UNL A   1      28.543  26.857  23.878  1.00  0.00     0.119 C 
ATOM     23  C   UNL A   1      29.506  25.691  23.989  1.00  0.00     0.027 C 
ENDBRANCH  18  22
ENDBRANCH  15  17
ENDBRANCH  10  15
ENDBRANCH   7   9
ENDBRANCH   6   7
ENDBRANCH   5   6
ENDBRANCH   4   5
ENDBRANCH   3   4
ENDBRANCH   2   3
ENDBRANCH   1   2
BRANCH   1  24
ATOM     24  O   UNL A   1      40.325  21.406  26.897  1.00  0.00    -0.377 OA
BRANCH  24  25
ATOM     25  C   UNL A   1      41.479  20.624  27.180  1.00  0.00     0.188 C 
BRANCH  25  26
ATOM     26  C   UNL A   1      41.883  19.572  26.126  1.00  0.00     0.188 C 
BRANCH  26  27
ATOM     27  O   UNL A   1      42.970  19.953  25.287  1.00  0.00    -0.376 OA
BRANCH  27  28
ATOM     28  C   UNL A   1      43.968  20.856  25.730  1.00  0.00     0.202 C 
BRANCH  28  29
ATOM     29  C   UNL A   1      44.187  22.085  24.844  1.00  0.00     0.261 C 
BRANCH  29  30
ATOM     30  O   UNL A   1      43.254  23.130  25.064  1.00  0.00    -0.460 OA
BRANCH  30  31
ATOM     31  C   UNL A   1      43.804  24.352  24.959  1.00  0.00     0.338 C 
ATOM     32  O   UNL A   1      44.965  24.650  24.761  1.00  0.00    -0.246 OA
BRANCH  31  33
ATOM     33  C   UNL A   1      42.809  25.356  25.286  1.00  0.00     0.060 A 
ATOM     34  C   UNL A   1      43.284  26.669  25.248  1.00  0.00     0.016 A 
ATOM     35  C   UNL A   1      41.793  24.913  26.138  1.00  0.00     0.016 A 
ATOM     36  C   UNL A   1      42.907  27.496  26.270  1.00  0.00     0.010 A 
ATOM     37  C   UNL A   1      41.458  25.725  27.189  1.00  0.00     0.010 A 
ATOM     38  C   UNL A   1      42.062  26.984  27.265  1.00  0.00    -0.014 A 
BRANCH  38  39
ATOM     39  C   UNL A   1      41.689  27.903  28.329  1.00  0.00     0.031 A 
ATOM     40  C   UNL A   1      42.557  27.602  29.553  1.00  0.00     0.074 A 
ATOM     41  C   UNL A   1      40.623  28.713  28.053  1.00  0.00     0.049 A 
ATOM     42  N   UNL A   1      42.256  27.656  30.808  1.00  0.00    -0.248 NA
ATOM     43  C   UNL A   1      43.928  27.039  29.355  1.00  0.00     0.031 C 
ATOM     44  C   UNL A   1      39.946  28.824  26.737  1.00  0.00     0.029 A 
ATOM     45  N   UNL A   1      39.875  29.588  28.808  1.00  0.00    -0.354 N 
ATOM     46  C   UNL A   1      43.429  27.365  31.530  1.00  0.00     0.074 A 
ATOM     47  C   UNL A   1      44.373  26.845  30.596  1.00  0.00     0.031 C 
ATOM     48  C   UNL A   1      38.862  29.628  26.816  1.00  0.00     0.029 A 
ATOM     49  C   UNL A   1      38.724  30.127  28.170  1.00  0.00     0.049 A 
ATOM     50  H   UNL A   1      40.123  29.827  29.730  1.00  0.00     0.167 HD
ATOM     51  C   UNL A   1      43.597  27.734  32.830  1.00  0.00     0.037 A 
ATOM     52  C   UNL A   1      37.712  30.868  28.723  1.00  0.00     0.037 A 
ATOM     53  C   UNL A   1      42.402  28.339  33.312  1.00  0.00     0.049 A 
ATOM     54  C   UNL A   1      38.135  31.088  30.114  1.00  0.00     0.074 A 
ATOM     55  C   UNL A   1      41.168  27.819  33.602  1.00  0.00     0.029 A 
ATOM     56  N   UNL A   1      42.290  29.697  33.130  1.00  0.00    -0.354 N 
ATOM     57  N   UNL A   1      39.084  31.893  30.484  1.00  0.00    -0.248 NA
ATOM     58  C   UNL A   1      37.537  30.250  31.162  1.00  0.00     0.031 C 
ATOM     59  C   UNL A   1      40.279  28.799  33.117  1.00  0.00     0.029 A 
ATOM     60  C   UNL A   1      40.989  29.959  32.781  1.00  0.00     0.049 A 
ATOM     61  H   UNL A   1      43.011  30.360  33.230  1.00  0.00     0.167 HD
ATOM     62  C   UNL A   1      39.412  31.402  31.725  1.00  0.00     0.074 A 
ATOM     63  C   UNL A   1      38.262  30.662  32.197  1.00  0.00     0.031 C 
ATOM     64  C   UNL A   1      40.712  31.164  32.033  1.00  0.00     0.037 A 
BRANCH  51  65
ATOM     65  C   UNL A   1      44.830  27.858  33.669  1.00  0.00     0.057 A 
ATOM     66  C   UNL A   1      44.874  27.143  34.887  1.00  0.00     0.134 A 
ATOM     67  C   UNL A   1      45.774  28.881  33.526  1.00  0.00     0.134 A 
ATOM     68  F   UNL A   1      44.049  26.107  35.110  1.00  0.00    -0.206 F 
ATOM     69  C   UNL A   1      45.698  27.519  35.947  1.00  0.00     0.040 A 
ATOM     70  C   UNL A   1      46.642  29.233  34.567  1.00  0.00     0.040 A 
ATOM     71  F   UNL A   1      45.831  29.640  32.424  1.00  0.00    -0.206 F 
ATOM     72  C   UNL A   1      46.572  28.584  35.796  1.00  0.00     0.006 A 
ENDBRANCH  51  65
BRANCH  52  73
ATOM     73  C   UNL A   1      36.331  31.376  28.361  1.00  0.00     0.057 A 
ATOM     74  C   UNL A   1      35.249  30.606  27.929  1.00  0.00     0.134 A 
ATOM     75  C   UNL A   1      36.019  32.759  28.512  1.00  0.00     0.134 A 
ATOM     76  F   UNL A   1      35.394  29.317  27.610  1.00  0.00    -0.206 F 
ATOM     77  C   UNL A   1      33.950  31.143  27.779  1.00  0.00     0.040 A 
ATOM     78  C   UNL A   1      34.731  33.295  28.415  1.00  0.00     0.040 A 
ATOM     79  F   UNL A   1      36.960  33.677  28.767  1.00  0.00    -0.206 F 
ATOM     80  C   UNL A   1      33.679  32.478  28.063  1.00  0.00     0.006 A 
ENDBRANCH  52  73
BRANCH  64  81
ATOM     81  C   UNL A   1      41.707  31.982  31.234  1.00  0.00     0.057 A 
ATOM     82  C   UNL A   1      42.635  31.338  30.406  1.00  0.00     0.134 A 
ATOM     83  C   UNL A   1      41.861  33.372  31.339  1.00  0.00     0.134 A 
ATOM     84  F   UNL A   1      42.565  30.010  30.226  1.00  0.00    -0.206 F 
ATOM     85  C   UNL A   1      43.660  32.031  29.746  1.00  0.00     0.040 A 
ATOM     86  C   UNL A   1      42.878  34.083  30.686  1.00  0.00     0.040 A 
ATOM     87  F   UNL A   1      41.033  34.095  32.087  1.00  0.00    -0.206 F 
ATOM     88  C   UNL A   1      43.789  33.408  29.888  1.00  0.00     0.006 A 
ENDBRANCH  64  81
ENDBRANCH  38  39
ENDBRANCH  31  33
ENDBRANCH  30  31
ENDBRANCH  29  30
ENDBRANCH  28  29
ENDBRANCH  27  28
ENDBRANCH  26  27
ENDBRANCH  25  26
ENDBRANCH  24  25
ENDBRANCH   1  24
TORSDOF 23
ENDMDL
