MODEL 1
REMARK VINA RESULT:     -10.4      0.000      0.000
REMARK SMILES CCn1c(-c2ccccc2)c(C(=O)OCCOCCOCCOCCOC(=O)c2ccc(-c3c4nc(c(-c5c(F)cccc5F)c5ccc([nH]5)c(-c5c(F)cccc5F)c5nc(c(-c6c(F)cccc6F)c6ccc3[nH]6)C=C5)C=C4)cc2)c2ccc(N)cc21
REMARK SMILES IDX 21 1 20 2 19 3 18 4 17 5 16 6 15 7 14 8 12 9 13 10 11 11
REMARK SMILES IDX 3 12 4 13 89 14 83 15 88 16 84 17 86 18 85 19 2 20 1 21 5 22
REMARK SMILES IDX 6 23 10 24 7 25 9 26 8 27 87 28 22 31 23 32 24 33 25 34
REMARK SMILES IDX 26 35 27 36 28 37 29 38 30 39 82 40 31 41 81 42 32 43 33 44
REMARK SMILES IDX 34 45 75 46 35 47 80 48 74 49 76 50 36 51 79 52 73 53 72 54
REMARK SMILES IDX 37 56 63 57 46 58 62 59 47 60 50 61 61 62 77 63 48 64 49 65
REMARK SMILES IDX 60 67 78 68 51 69 38 70 39 71 44 72 40 73 41 74 43 75 45 76
REMARK SMILES IDX 42 77 64 78 65 79 70 80 66 81 67 82 69 83 71 84 68 85 52 86
REMARK SMILES IDX 53 87 58 88 54 89 55 90 57 91 59 92 56 93
REMARK H PARENT 87 29 87 30 76 55 50 66
REMARK Flexibility Score: inf
ROOT
ATOM      1  C   UNL A   1      41.464  21.149  27.572  1.00  0.00     0.188 C 
ENDROOT
BRANCH   1   2
ATOM      2  O   UNL A   1      41.027  21.810  26.394  1.00  0.00    -0.377 OA
BRANCH   2   3
ATOM      3  C   UNL A   1      39.777  22.465  26.431  1.00  0.00     0.188 C 
BRANCH   3   4
ATOM      4  C   UNL A   1      38.617  21.744  25.725  1.00  0.00     0.188 C 
BRANCH   4   5
ATOM      5  O   UNL A   1      37.605  22.617  25.227  1.00  0.00    -0.376 OA
BRANCH   5   6
ATOM      6  C   UNL A   1      36.715  22.052  24.273  1.00  0.00     0.202 C 
BRANCH   6   7
ATOM      7  C   UNL A   1      36.507  22.870  22.994  1.00  0.00     0.261 C 
BRANCH   7   8
ATOM      8  O   UNL A   1      35.607  23.979  23.086  1.00  0.00    -0.460 OA
BRANCH   8   9
ATOM      9  C   UNL A   1      34.275  23.773  22.888  1.00  0.00     0.341 C 
ATOM     10  O   UNL A   1      33.779  23.423  21.837  1.00  0.00    -0.246 OA
BRANCH   9  11
ATOM     11  C   UNL A   1      33.535  23.975  24.137  1.00  0.00     0.093 A 
ATOM     12  N   UNL A   1      32.300  23.611  25.968  1.00  0.00    -0.340 N 
ATOM     13  C   UNL A   1      32.910  22.982  24.894  1.00  0.00     0.064 A 
ATOM     14  C   UNL A   1      32.597  24.964  25.964  1.00  0.00     0.051 A 
ATOM     15  C   UNL A   1      33.442  25.194  24.879  1.00  0.00     0.015 A 
ATOM     16  C   UNL A   1      32.221  26.011  26.830  1.00  0.00     0.052 A 
ATOM     17  C   UNL A   1      34.006  26.478  24.720  1.00  0.00     0.013 A 
ATOM     18  C   UNL A   1      32.746  27.295  26.626  1.00  0.00     0.033 A 
ATOM     19  C   UNL A   1      33.676  27.501  25.613  1.00  0.00     0.026 A 
BRANCH  12  20
ATOM     20  C   UNL A   1      31.440  22.960  26.948  1.00  0.00     0.119 C 
ATOM     21  C   UNL A   1      29.980  22.851  26.534  1.00  0.00     0.027 C 
ENDBRANCH  12  20
BRANCH  13  22
ATOM     22  C   UNL A   1      32.989  21.526  24.726  1.00  0.00    -0.001 A 
ATOM     23  C   UNL A   1      33.909  20.783  25.483  1.00  0.00     0.010 A 
ATOM     24  C   UNL A   1      32.226  20.873  23.757  1.00  0.00     0.010 A 
ATOM     25  C   UNL A   1      34.115  19.426  25.225  1.00  0.00     0.001 A 
ATOM     26  C   UNL A   1      32.407  19.506  23.523  1.00  0.00     0.001 A 
ATOM     27  C   UNL A   1      33.363  18.788  24.241  1.00  0.00     0.000 A 
ENDBRANCH  13  22
BRANCH  18  28
ATOM     28  N   UNL A   1      32.450  28.318  27.517  1.00  0.00    -0.399 N 
ATOM     29  H   UNL A   1      33.085  29.062  27.641  1.00  0.00     0.156 HD
ATOM     30  H   UNL A   1      31.607  28.302  28.023  1.00  0.00     0.156 HD
ENDBRANCH  18  28
ENDBRANCH   9  11
ENDBRANCH   8   9
ENDBRANCH   7   8
ENDBRANCH   6   7
ENDBRANCH   5   6
ENDBRANCH   4   5
ENDBRANCH   3   4
ENDBRANCH   2   3
ENDBRANCH   1   2
BRANCH   1  31
ATOM     31  C   UNL A   1      41.791  19.643  27.565  1.00  0.00     0.188 C 
BRANCH  31  32
ATOM     32  O   UNL A   1      41.999  19.112  26.260  1.00  0.00    -0.376 OA
BRANCH  32  33
ATOM     33  C   UNL A   1      43.295  18.586  25.997  1.00  0.00     0.202 C 
BRANCH  33  34
ATOM     34  C   UNL A   1      43.914  19.069  24.678  1.00  0.00     0.261 C 
BRANCH  34  35
ATOM     35  O   UNL A   1      44.170  20.484  24.664  1.00  0.00    -0.460 OA
BRANCH  35  36
ATOM     36  C   UNL A   1      45.380  20.916  25.099  1.00  0.00     0.338 C 
ATOM     37  O   UNL A   1      46.438  20.321  25.008  1.00  0.00    -0.246 OA
BRANCH  36  38
ATOM     38  C   UNL A   1      45.232  22.376  25.344  1.00  0.00     0.060 A 
ATOM     39  C   UNL A   1      46.067  23.044  26.244  1.00  0.00     0.016 A 
ATOM     40  C   UNL A   1      44.039  22.977  24.914  1.00  0.00     0.016 A 
ATOM     41  C   UNL A   1      45.625  24.227  26.833  1.00  0.00     0.010 A 
ATOM     42  C   UNL A   1      43.606  24.168  25.501  1.00  0.00     0.010 A 
ATOM     43  C   UNL A   1      44.363  24.763  26.513  1.00  0.00    -0.014 A 
BRANCH  43  44
ATOM     44  C   UNL A   1      43.946  25.986  27.223  1.00  0.00     0.031 A 
ATOM     45  C   UNL A   1      44.831  27.172  27.014  1.00  0.00     0.074 A 
ATOM     46  C   UNL A   1      42.801  26.186  27.911  1.00  0.00     0.049 A 
ATOM     47  N   UNL A   1      45.438  27.901  27.898  1.00  0.00    -0.248 NA
ATOM     48  C   UNL A   1      45.095  27.561  25.622  1.00  0.00     0.031 C 
ATOM     49  C   UNL A   1      41.624  25.321  28.001  1.00  0.00     0.029 A 
ATOM     50  N   UNL A   1      42.416  27.304  28.609  1.00  0.00    -0.354 N 
ATOM     51  C   UNL A   1      46.061  28.923  27.187  1.00  0.00     0.074 A 
ATOM     52  C   UNL A   1      45.886  28.621  25.787  1.00  0.00     0.031 C 
ATOM     53  C   UNL A   1      40.589  26.032  28.507  1.00  0.00     0.029 A 
ATOM     54  C   UNL A   1      41.059  27.355  28.893  1.00  0.00     0.049 A 
ATOM     55  H   UNL A   1      43.047  28.007  28.884  1.00  0.00     0.167 HD
ATOM     56  C   UNL A   1      46.570  30.040  27.771  1.00  0.00     0.037 A 
ATOM     57  C   UNL A   1      40.351  28.420  29.346  1.00  0.00     0.037 A 
ATOM     58  C   UNL A   1      46.760  29.899  29.186  1.00  0.00     0.049 A 
ATOM     59  C   UNL A   1      41.284  29.426  29.904  1.00  0.00     0.074 A 
ATOM     60  C   UNL A   1      47.503  29.064  29.997  1.00  0.00     0.029 A 
ATOM     61  N   UNL A   1      45.914  30.563  30.038  1.00  0.00    -0.354 N 
ATOM     62  N   UNL A   1      41.888  29.331  31.053  1.00  0.00    -0.248 NA
ATOM     63  C   UNL A   1      41.821  30.434  29.002  1.00  0.00     0.031 C 
ATOM     64  C   UNL A   1      46.727  28.905  31.183  1.00  0.00     0.029 A 
ATOM     65  C   UNL A   1      45.567  29.659  31.011  1.00  0.00     0.049 A 
ATOM     66  H   UNL A   1      45.615  31.498  29.965  1.00  0.00     0.167 HD
ATOM     67  C   UNL A   1      43.123  29.929  30.852  1.00  0.00     0.074 A 
ATOM     68  C   UNL A   1      42.972  30.700  29.624  1.00  0.00     0.031 C 
ATOM     69  C   UNL A   1      44.231  29.527  31.543  1.00  0.00     0.037 A 
BRANCH  56  70
ATOM     70  C   UNL A   1      46.662  31.370  27.081  1.00  0.00     0.057 A 
ATOM     71  C   UNL A   1      45.527  32.122  26.717  1.00  0.00     0.134 A 
ATOM     72  C   UNL A   1      47.889  32.049  27.007  1.00  0.00     0.134 A 
ATOM     73  F   UNL A   1      44.287  31.630  26.848  1.00  0.00    -0.206 F 
ATOM     74  C   UNL A   1      45.606  33.449  26.291  1.00  0.00     0.040 A 
ATOM     75  C   UNL A   1      47.976  33.394  26.628  1.00  0.00     0.040 A 
ATOM     76  F   UNL A   1      49.031  31.444  27.366  1.00  0.00    -0.206 F 
ATOM     77  C   UNL A   1      46.832  34.098  26.268  1.00  0.00     0.006 A 
ENDBRANCH  56  70
BRANCH  57  78
ATOM     78  C   UNL A   1      38.923  28.739  29.136  1.00  0.00     0.057 A 
ATOM     79  C   UNL A   1      38.479  29.301  27.927  1.00  0.00     0.134 A 
ATOM     80  C   UNL A   1      38.001  28.737  30.191  1.00  0.00     0.134 A 
ATOM     81  F   UNL A   1      39.310  29.440  26.883  1.00  0.00    -0.206 F 
ATOM     82  C   UNL A   1      37.191  29.822  27.772  1.00  0.00     0.040 A 
ATOM     83  C   UNL A   1      36.710  29.265  30.053  1.00  0.00     0.040 A 
ATOM     84  F   UNL A   1      38.348  28.270  31.399  1.00  0.00    -0.206 F 
ATOM     85  C   UNL A   1      36.303  29.815  28.840  1.00  0.00     0.006 A 
ENDBRANCH  57  78
BRANCH  69  86
ATOM     86  C   UNL A   1      44.046  28.652  32.754  1.00  0.00     0.057 A 
ATOM     87  C   UNL A   1      44.222  29.210  34.030  1.00  0.00     0.134 A 
ATOM     88  C   UNL A   1      43.800  27.272  32.707  1.00  0.00     0.134 A 
ATOM     89  F   UNL A   1      44.511  30.514  34.166  1.00  0.00    -0.206 F 
ATOM     90  C   UNL A   1      44.143  28.441  35.195  1.00  0.00     0.040 A 
ATOM     91  C   UNL A   1      43.634  26.512  33.870  1.00  0.00     0.040 A 
ATOM     92  F   UNL A   1      43.781  26.601  31.546  1.00  0.00    -0.206 F 
ATOM     93  C   UNL A   1      43.830  27.089  35.119  1.00  0.00     0.006 A 
ENDBRANCH  69  86
ENDBRANCH  43  44
ENDBRANCH  36  38
ENDBRANCH  35  36
ENDBRANCH  34  35
ENDBRANCH  33  34
ENDBRANCH  32  33
ENDBRANCH  31  32
ENDBRANCH   1  31
TORSDOF 23
ENDMDL
MODEL 2
REMARK VINA RESULT:     -10.2      1.490      3.365
REMARK SMILES CCn1c(-c2ccccc2)c(C(=O)OCCOCCOCCOCCOC(=O)c2ccc(-c3c4nc(c(-c5c(F)cccc5F)c5ccc([nH]5)c(-c5c(F)cccc5F)c5nc(c(-c6c(F)cccc6F)c6ccc3[nH]6)C=C5)C=C4)cc2)c2ccc(N)cc21
REMARK SMILES IDX 21 1 20 2 19 3 18 4 17 5 16 6 15 7 14 8 12 9 13 10 11 11
REMARK SMILES IDX 3 12 4 13 89 14 83 15 88 16 84 17 86 18 85 19 2 20 1 21 5 22
REMARK SMILES IDX 6 23 10 24 7 25 9 26 8 27 87 28 22 31 23 32 24 33 25 34
REMARK SMILES IDX 26 35 27 36 28 37 29 38 30 39 82 40 31 41 81 42 32 43 33 44
REMARK SMILES IDX 34 45 75 46 35 47 80 48 74 49 76 50 36 51 79 52 73 53 72 54
REMARK SMILES IDX 37 56 63 57 46 58 62 59 47 60 50 61 61 62 77 63 48 64 49 65
REMARK SMILES IDX 60 67 78 68 51 69 38 70 39 71 44 72 40 73 41 74 43 75 45 76
REMARK SMILES IDX 42 77 64 78 65 79 70 80 66 81 67 82 69 83 71 84 68 85 52 86
REMARK SMILES IDX 53 87 58 88 54 89 55 90 57 91 59 92 56 93
REMARK H PARENT 87 29 87 30 76 55 50 66
REMARK Flexibility Score: inf
ROOT
ATOM      1  C   UNL A   1      39.143  22.371  26.307  1.00  0.00     0.188 C 
ENDROOT
BRANCH   1   2
ATOM      2  O   UNL A   1      38.067  22.663  25.428  1.00  0.00    -0.377 OA
BRANCH   2   3
ATOM      3  C   UNL A   1      37.531  21.603  24.666  1.00  0.00     0.188 C 
BRANCH   3   4
ATOM      4  C   UNL A   1      36.466  20.741  25.365  1.00  0.00     0.188 C 
BRANCH   4   5
ATOM      5  O   UNL A   1      35.194  21.373  25.488  1.00  0.00    -0.376 OA
BRANCH   5   6
ATOM      6  C   UNL A   1      34.777  21.673  26.814  1.00  0.00     0.202 C 
BRANCH   6   7
ATOM      7  C   UNL A   1      33.954  22.954  26.978  1.00  0.00     0.261 C 
BRANCH   7   8
ATOM      8  O   UNL A   1      32.718  22.831  27.690  1.00  0.00    -0.460 OA
BRANCH   8   9
ATOM      9  C   UNL A   1      31.552  23.146  27.059  1.00  0.00     0.341 C 
ATOM     10  O   UNL A   1      30.487  23.309  27.617  1.00  0.00    -0.246 OA
BRANCH   9  11
ATOM     11  C   UNL A   1      31.779  23.318  25.622  1.00  0.00     0.093 A 
ATOM     12  N   UNL A   1      32.159  24.238  23.617  1.00  0.00    -0.340 N 
ATOM     13  C   UNL A   1      32.052  24.523  24.969  1.00  0.00     0.064 A 
ATOM     14  C   UNL A   1      32.053  22.873  23.403  1.00  0.00     0.051 A 
ATOM     15  C   UNL A   1      31.907  22.274  24.653  1.00  0.00     0.015 A 
ATOM     16  C   UNL A   1      32.097  22.102  22.225  1.00  0.00     0.052 A 
ATOM     17  C   UNL A   1      31.909  20.865  24.732  1.00  0.00     0.013 A 
ATOM     18  C   UNL A   1      32.042  20.703  22.315  1.00  0.00     0.033 A 
ATOM     19  C   UNL A   1      32.009  20.100  23.567  1.00  0.00     0.026 A 
BRANCH  12  20
ATOM     20  C   UNL A   1      32.327  25.227  22.559  1.00  0.00     0.119 C 
ATOM     21  C   UNL A   1      31.133  26.150  22.364  1.00  0.00     0.027 C 
ENDBRANCH  12  20
BRANCH  13  22
ATOM     22  C   UNL A   1      32.343  25.832  25.564  1.00  0.00    -0.001 A 
ATOM     23  C   UNL A   1      33.663  26.310  25.594  1.00  0.00     0.010 A 
ATOM     24  C   UNL A   1      31.340  26.577  26.184  1.00  0.00     0.010 A 
ATOM     25  C   UNL A   1      33.986  27.474  26.295  1.00  0.00     0.001 A 
ATOM     26  C   UNL A   1      31.657  27.762  26.856  1.00  0.00     0.001 A 
ATOM     27  C   UNL A   1      32.980  28.199  26.929  1.00  0.00     0.000 A 
ENDBRANCH  13  22
BRANCH  18  28
ATOM     28  N   UNL A   1      32.165  19.925  21.172  1.00  0.00    -0.399 N 
ATOM     29  H   UNL A   1      31.418  19.352  20.883  1.00  0.00     0.156 HD
ATOM     30  H   UNL A   1      32.998  19.947  20.648  1.00  0.00     0.156 HD
ENDBRANCH  18  28
ENDBRANCH   9  11
ENDBRANCH   8   9
ENDBRANCH   7   8
ENDBRANCH   6   7
ENDBRANCH   5   6
ENDBRANCH   4   5
ENDBRANCH   3   4
ENDBRANCH   2   3
ENDBRANCH   1   2
BRANCH   1  31
ATOM     31  C   UNL A   1      39.969  21.079  26.152  1.00  0.00     0.188 C 
BRANCH  31  32
ATOM     32  O   UNL A   1      41.356  21.256  26.421  1.00  0.00    -0.376 OA
BRANCH  32  33
ATOM     33  C   UNL A   1      42.043  20.122  26.940  1.00  0.00     0.202 C 
BRANCH  33  34
ATOM     34  C   UNL A   1      42.905  19.383  25.908  1.00  0.00     0.261 C 
BRANCH  34  35
ATOM     35  O   UNL A   1      43.327  20.226  24.821  1.00  0.00    -0.460 OA
BRANCH  35  36
ATOM     36  C   UNL A   1      44.634  20.586  24.767  1.00  0.00     0.338 C 
ATOM     37  O   UNL A   1      45.534  19.969  24.231  1.00  0.00    -0.246 OA
BRANCH  36  38
ATOM     38  C   UNL A   1      44.678  22.027  25.135  1.00  0.00     0.060 A 
ATOM     39  C   UNL A   1      45.435  22.470  26.223  1.00  0.00     0.016 A 
ATOM     40  C   UNL A   1      43.692  22.857  24.581  1.00  0.00     0.016 A 
ATOM     41  C   UNL A   1      45.089  23.665  26.852  1.00  0.00     0.010 A 
ATOM     42  C   UNL A   1      43.356  24.059  25.210  1.00  0.00     0.010 A 
ATOM     43  C   UNL A   1      44.006  24.435  26.389  1.00  0.00    -0.014 A 
BRANCH  43  44
ATOM     44  C   UNL A   1      43.670  25.655  27.144  1.00  0.00     0.031 A 
ATOM     45  C   UNL A   1      44.612  26.799  26.953  1.00  0.00     0.074 A 
ATOM     46  C   UNL A   1      42.551  25.893  27.863  1.00  0.00     0.049 A 
ATOM     47  N   UNL A   1      45.274  27.466  27.845  1.00  0.00    -0.248 NA
ATOM     48  C   UNL A   1      44.869  27.217  25.568  1.00  0.00     0.031 C 
ATOM     49  C   UNL A   1      41.331  25.089  27.951  1.00  0.00     0.029 A 
ATOM     50  N   UNL A   1      42.240  27.007  28.602  1.00  0.00    -0.354 N 
ATOM     51  C   UNL A   1      45.938  28.476  27.152  1.00  0.00     0.074 A 
ATOM     52  C   UNL A   1      45.718  28.228  25.748  1.00  0.00     0.031 C 
ATOM     53  C   UNL A   1      40.346  25.838  28.501  1.00  0.00     0.029 A 
ATOM     54  C   UNL A   1      40.894  27.121  28.917  1.00  0.00     0.049 A 
ATOM     55  H   UNL A   1      42.913  27.667  28.885  1.00  0.00     0.167 HD
ATOM     56  C   UNL A   1      46.517  29.546  27.760  1.00  0.00     0.037 A 
ATOM     57  C   UNL A   1      40.253  28.208  29.417  1.00  0.00     0.037 A 
ATOM     58  C   UNL A   1      46.727  29.350  29.165  1.00  0.00     0.049 A 
ATOM     59  C   UNL A   1      41.249  29.145  29.986  1.00  0.00     0.074 A 
ATOM     60  C   UNL A   1      47.441  28.451  29.934  1.00  0.00     0.029 A 
ATOM     61  N   UNL A   1      45.935  30.030  30.055  1.00  0.00    -0.354 N 
ATOM     62  N   UNL A   1      41.870  28.981  31.118  1.00  0.00    -0.248 NA
ATOM     63  C   UNL A   1      41.821  30.150  29.104  1.00  0.00     0.031 C 
ATOM     64  C   UNL A   1      46.680  28.296  31.131  1.00  0.00     0.029 A 
ATOM     65  C   UNL A   1      45.559  29.116  31.007  1.00  0.00     0.049 A 
ATOM     66  H   UNL A   1      45.685  30.982  30.017  1.00  0.00     0.167 HD
ATOM     67  C   UNL A   1      43.130  29.519  30.909  1.00  0.00     0.074 A 
ATOM     68  C   UNL A   1      42.997  30.335  29.708  1.00  0.00     0.031 C 
ATOM     69  C   UNL A   1      44.229  29.037  31.563  1.00  0.00     0.037 A 
BRANCH  56  70
ATOM     70  C   UNL A   1      46.666  30.890  27.109  1.00  0.00     0.057 A 
ATOM     71  C   UNL A   1      45.564  31.687  26.742  1.00  0.00     0.134 A 
ATOM     72  C   UNL A   1      47.915  31.531  27.081  1.00  0.00     0.134 A 
ATOM     73  F   UNL A   1      44.306  31.232  26.831  1.00  0.00    -0.206 F 
ATOM     74  C   UNL A   1      45.695  33.022  26.354  1.00  0.00     0.040 A 
ATOM     75  C   UNL A   1      48.053  32.882  26.741  1.00  0.00     0.040 A 
ATOM     76  F   UNL A   1      49.030  30.880  27.447  1.00  0.00    -0.206 F 
ATOM     77  C   UNL A   1      46.941  33.631  26.376  1.00  0.00     0.006 A 
ENDBRANCH  56  70
BRANCH  57  78
ATOM     78  C   UNL A   1      38.840  28.609  29.248  1.00  0.00     0.057 A 
ATOM     79  C   UNL A   1      38.394  29.198  28.052  1.00  0.00     0.134 A 
ATOM     80  C   UNL A   1      37.949  28.656  30.329  1.00  0.00     0.134 A 
ATOM     81  F   UNL A   1      39.203  29.290  26.985  1.00  0.00    -0.206 F 
ATOM     82  C   UNL A   1      37.135  29.791  27.934  1.00  0.00     0.040 A 
ATOM     83  C   UNL A   1      36.688  29.257  30.227  1.00  0.00     0.040 A 
ATOM     84  F   UNL A   1      38.303  28.168  31.526  1.00  0.00    -0.206 F 
ATOM     85  C   UNL A   1      36.279  29.833  29.027  1.00  0.00     0.006 A 
ENDBRANCH  57  78
BRANCH  69  86
ATOM     86  C   UNL A   1      44.021  28.135  32.751  1.00  0.00     0.057 A 
ATOM     87  C   UNL A   1      43.852  26.759  32.539  1.00  0.00     0.134 A 
ATOM     88  C   UNL A   1      43.884  28.583  34.073  1.00  0.00     0.134 A 
ATOM     89  F   UNL A   1      43.916  26.250  31.298  1.00  0.00    -0.206 F 
ATOM     90  C   UNL A   1      43.576  25.873  33.586  1.00  0.00     0.040 A 
ATOM     91  C   UNL A   1      43.694  27.694  35.137  1.00  0.00     0.040 A 
ATOM     92  F   UNL A   1      43.858  29.890  34.374  1.00  0.00    -0.206 F 
ATOM     93  C   UNL A   1      43.515  26.338  34.894  1.00  0.00     0.006 A 
ENDBRANCH  69  86
ENDBRANCH  43  44
ENDBRANCH  36  38
ENDBRANCH  35  36
ENDBRANCH  34  35
ENDBRANCH  33  34
ENDBRANCH  32  33
ENDBRANCH  31  32
ENDBRANCH   1  31
TORSDOF 23
ENDMDL
MODEL 3
REMARK VINA RESULT:      -9.9      1.478      2.623
REMARK SMILES CCn1c(-c2ccccc2)c(C(=O)OCCOCCOCCOCCOC(=O)c2ccc(-c3c4nc(c(-c5c(F)cccc5F)c5ccc([nH]5)c(-c5c(F)cccc5F)c5nc(c(-c6c(F)cccc6F)c6ccc3[nH]6)C=C5)C=C4)cc2)c2ccc(N)cc21
REMARK SMILES IDX 21 1 20 2 19 3 18 4 17 5 16 6 15 7 14 8 12 9 13 10 11 11
REMARK SMILES IDX 3 12 4 13 89 14 83 15 88 16 84 17 86 18 85 19 2 20 1 21 5 22
REMARK SMILES IDX 6 23 10 24 7 25 9 26 8 27 87 28 22 31 23 32 24 33 25 34
REMARK SMILES IDX 26 35 27 36 28 37 29 38 30 39 82 40 31 41 81 42 32 43 33 44
REMARK SMILES IDX 34 45 75 46 35 47 80 48 74 49 76 50 36 51 79 52 73 53 72 54
REMARK SMILES IDX 37 56 63 57 46 58 62 59 47 60 50 61 61 62 77 63 48 64 49 65
REMARK SMILES IDX 60 67 78 68 51 69 38 70 39 71 44 72 40 73 41 74 43 75 45 76
REMARK SMILES IDX 42 77 64 78 65 79 70 80 66 81 67 82 69 83 71 84 68 85 52 86
REMARK SMILES IDX 53 87 58 88 54 89 55 90 57 91 59 92 56 93
REMARK H PARENT 87 29 87 30 76 55 50 66
REMARK Flexibility Score: inf
ROOT
ATOM      1  C   UNL A   1      38.486  22.686  25.892  1.00  0.00     0.188 C 
ENDROOT
BRANCH   1   2
ATOM      2  O   UNL A   1      37.608  22.756  24.778  1.00  0.00    -0.377 OA
BRANCH   2   3
ATOM      3  C   UNL A   1      37.028  21.553  24.319  1.00  0.00     0.188 C 
BRANCH   3   4
ATOM      4  C   UNL A   1      35.836  21.027  25.135  1.00  0.00     0.188 C 
BRANCH   4   5
ATOM      5  O   UNL A   1      34.631  21.768  24.952  1.00  0.00    -0.376 OA
BRANCH   5   6
ATOM      6  C   UNL A   1      33.750  21.802  26.067  1.00  0.00     0.202 C 
BRANCH   6   7
ATOM      7  C   UNL A   1      34.019  22.908  27.093  1.00  0.00     0.261 C 
BRANCH   7   8
ATOM      8  O   UNL A   1      33.515  24.209  26.774  1.00  0.00    -0.460 OA
BRANCH   8   9
ATOM      9  C   UNL A   1      34.255  25.033  25.980  1.00  0.00     0.341 C 
ATOM     10  O   UNL A   1      35.452  24.934  25.807  1.00  0.00    -0.246 OA
BRANCH   9  11
ATOM     11  C   UNL A   1      33.392  26.016  25.319  1.00  0.00     0.093 A 
ATOM     12  N   UNL A   1      32.020  27.007  23.855  1.00  0.00    -0.340 N 
ATOM     13  C   UNL A   1      32.663  25.814  24.145  1.00  0.00     0.064 A 
ATOM     14  C   UNL A   1      32.247  27.933  24.860  1.00  0.00     0.051 A 
ATOM     15  C   UNL A   1      33.027  27.301  25.828  1.00  0.00     0.015 A 
ATOM     16  C   UNL A   1      31.818  29.265  25.024  1.00  0.00     0.052 A 
ATOM     17  C   UNL A   1      33.295  27.985  27.033  1.00  0.00     0.013 A 
ATOM     18  C   UNL A   1      32.140  29.951  26.204  1.00  0.00     0.033 A 
ATOM     19  C   UNL A   1      32.821  29.287  27.218  1.00  0.00     0.026 A 
BRANCH  12  20
ATOM     20  C   UNL A   1      31.241  27.273  22.651  1.00  0.00     0.119 C 
ATOM     21  C   UNL A   1      29.750  27.457  22.892  1.00  0.00     0.027 C 
ENDBRANCH  12  20
BRANCH  13  22
ATOM     22  C   UNL A   1      32.450  24.560  23.412  1.00  0.00    -0.001 A 
ATOM     23  C   UNL A   1      31.443  23.672  23.823  1.00  0.00     0.010 A 
ATOM     24  C   UNL A   1      33.292  24.191  22.363  1.00  0.00     0.010 A 
ATOM     25  C   UNL A   1      31.328  22.406  23.244  1.00  0.00     0.001 A 
ATOM     26  C   UNL A   1      33.154  22.937  21.759  1.00  0.00     0.001 A 
ATOM     27  C   UNL A   1      32.188  22.038  22.212  1.00  0.00     0.000 A 
ENDBRANCH  13  22
BRANCH  18  28
ATOM     28  N   UNL A   1      31.657  31.236  26.417  1.00  0.00    -0.399 N 
ATOM     29  H   UNL A   1      32.274  31.955  26.684  1.00  0.00     0.156 HD
ATOM     30  H   UNL A   1      30.699  31.427  26.300  1.00  0.00     0.156 HD
ENDBRANCH  18  28
ENDBRANCH   9  11
ENDBRANCH   8   9
ENDBRANCH   7   8
ENDBRANCH   6   7
ENDBRANCH   5   6
ENDBRANCH   4   5
ENDBRANCH   3   4
ENDBRANCH   2   3
ENDBRANCH   1   2
BRANCH   1  31
ATOM     31  C   UNL A   1      39.356  21.440  26.143  1.00  0.00     0.188 C 
BRANCH  31  32
ATOM     32  O   UNL A   1      40.732  21.741  26.359  1.00  0.00    -0.376 OA
BRANCH  32  33
ATOM     33  C   UNL A   1      41.463  20.803  27.140  1.00  0.00     0.202 C 
BRANCH  33  34
ATOM     34  C   UNL A   1      42.486  19.982  26.343  1.00  0.00     0.261 C 
BRANCH  34  35
ATOM     35  O   UNL A   1      42.983  20.676  25.186  1.00  0.00    -0.460 OA
BRANCH  35  36
ATOM     36  C   UNL A   1      44.299  21.006  25.160  1.00  0.00     0.338 C 
ATOM     37  O   UNL A   1      45.190  20.388  24.609  1.00  0.00    -0.246 OA
BRANCH  36  38
ATOM     38  C   UNL A   1      44.375  22.430  25.585  1.00  0.00     0.060 A 
ATOM     39  C   UNL A   1      45.012  22.794  26.774  1.00  0.00     0.016 A 
ATOM     40  C   UNL A   1      43.512  23.332  24.945  1.00  0.00     0.016 A 
ATOM     41  C   UNL A   1      44.654  23.987  27.400  1.00  0.00     0.010 A 
ATOM     42  C   UNL A   1      43.165  24.531  25.573  1.00  0.00     0.010 A 
ATOM     43  C   UNL A   1      43.681  24.832  26.836  1.00  0.00    -0.014 A 
BRANCH  43  44
ATOM     44  C   UNL A   1      43.319  26.046  27.590  1.00  0.00     0.031 A 
ATOM     45  C   UNL A   1      44.285  27.179  27.469  1.00  0.00     0.074 A 
ATOM     46  C   UNL A   1      42.164  26.289  28.249  1.00  0.00     0.049 A 
ATOM     47  N   UNL A   1      44.905  27.824  28.407  1.00  0.00    -0.248 NA
ATOM     48  C   UNL A   1      44.625  27.614  26.107  1.00  0.00     0.031 C 
ATOM     49  C   UNL A   1      40.931  25.501  28.257  1.00  0.00     0.029 A 
ATOM     50  N   UNL A   1      41.827  27.397  28.986  1.00  0.00    -0.354 N 
ATOM     51  C   UNL A   1      45.619  28.834  27.768  1.00  0.00     0.074 A 
ATOM     52  C   UNL A   1      45.476  28.610  26.350  1.00  0.00     0.031 C 
ATOM     53  C   UNL A   1      39.927  26.255  28.762  1.00  0.00     0.029 A 
ATOM     54  C   UNL A   1      40.467  27.525  29.227  1.00  0.00     0.049 A 
ATOM     55  H   UNL A   1      42.492  28.043  29.317  1.00  0.00     0.167 HD
ATOM     56  C   UNL A   1      46.178  29.887  28.423  1.00  0.00     0.037 A 
ATOM     57  C   UNL A   1      39.813  28.613  29.707  1.00  0.00     0.037 A 
ATOM     58  C   UNL A   1      46.305  29.669  29.835  1.00  0.00     0.049 A 
ATOM     59  C   UNL A   1      40.788  29.528  30.345  1.00  0.00     0.074 A 
ATOM     60  C   UNL A   1      46.963  28.749  30.629  1.00  0.00     0.029 A 
ATOM     61  N   UNL A   1      45.473  30.347  30.689  1.00  0.00    -0.354 N 
ATOM     62  N   UNL A   1      41.342  29.339  31.507  1.00  0.00    -0.248 NA
ATOM     63  C   UNL A   1      41.422  30.538  29.512  1.00  0.00     0.031 C 
ATOM     64  C   UNL A   1      46.135  28.587  31.779  1.00  0.00     0.029 A 
ATOM     65  C   UNL A   1      45.033  29.424  31.605  1.00  0.00     0.049 A 
ATOM     66  H   UNL A   1      45.239  31.302  30.652  1.00  0.00     0.167 HD
ATOM     67  C   UNL A   1      42.619  29.862  31.377  1.00  0.00     0.074 A 
ATOM     68  C   UNL A   1      42.564  30.698  30.183  1.00  0.00     0.031 C 
ATOM     69  C   UNL A   1      43.673  29.356  32.084  1.00  0.00     0.037 A 
BRANCH  56  70
ATOM     70  C   UNL A   1      46.380  31.239  27.802  1.00  0.00     0.057 A 
ATOM     71  C   UNL A   1      47.654  31.750  27.483  1.00  0.00     0.134 A 
ATOM     72  C   UNL A   1      45.291  31.944  27.265  1.00  0.00     0.134 A 
ATOM     73  F   UNL A   1      48.777  31.111  27.840  1.00  0.00    -0.206 F 
ATOM     74  C   UNL A   1      47.833  32.894  26.702  1.00  0.00     0.040 A 
ATOM     75  C   UNL A   1      45.460  33.062  26.440  1.00  0.00     0.040 A 
ATOM     76  F   UNL A   1      44.033  31.526  27.472  1.00  0.00    -0.206 F 
ATOM     77  C   UNL A   1      46.734  33.540  26.157  1.00  0.00     0.006 A 
ENDBRANCH  56  70
BRANCH  57  78
ATOM     78  C   UNL A   1      38.417  29.036  29.465  1.00  0.00     0.057 A 
ATOM     79  C   UNL A   1      38.037  29.603  28.237  1.00  0.00     0.134 A 
ATOM     80  C   UNL A   1      37.481  29.127  30.504  1.00  0.00     0.134 A 
ATOM     81  F   UNL A   1      38.893  29.654  27.205  1.00  0.00    -0.206 F 
ATOM     82  C   UNL A   1      36.796  30.217  28.048  1.00  0.00     0.040 A 
ATOM     83  C   UNL A   1      36.237  29.749  30.331  1.00  0.00     0.040 A 
ATOM     84  F   UNL A   1      37.771  28.663  31.727  1.00  0.00    -0.206 F 
ATOM     85  C   UNL A   1      35.893  30.301  29.100  1.00  0.00     0.006 A 
ENDBRANCH  57  78
BRANCH  69  86
ATOM     86  C   UNL A   1      43.387  28.440  33.245  1.00  0.00     0.057 A 
ATOM     87  C   UNL A   1      43.337  27.056  33.023  1.00  0.00     0.134 A 
ATOM     88  C   UNL A   1      43.065  28.875  34.539  1.00  0.00     0.134 A 
ATOM     89  F   UNL A   1      43.581  26.555  31.801  1.00  0.00    -0.206 F 
ATOM     90  C   UNL A   1      43.000  26.151  34.035  1.00  0.00     0.040 A 
ATOM     91  C   UNL A   1      42.811  27.974  35.578  1.00  0.00     0.040 A 
ATOM     92  F   UNL A   1      42.916  30.177  34.826  1.00  0.00    -0.206 F 
ATOM     93  C   UNL A   1      42.753  26.609  35.324  1.00  0.00     0.006 A 
ENDBRANCH  69  86
ENDBRANCH  43  44
ENDBRANCH  36  38
ENDBRANCH  35  36
ENDBRANCH  34  35
ENDBRANCH  33  34
ENDBRANCH  32  33
ENDBRANCH  31  32
ENDBRANCH   1  31
TORSDOF 23
ENDMDL
