MODEL 1
REMARK VINA RESULT:      -9.6      0.000      0.000
REMARK SMILES CCC[C@H](Cn1c(C)cc(=O)cc1C)C(=O)OCCOCCOCCOCCOC(=O)c1ccc(-c2c3nc(c(-c4c(F)cccc4F)c4ccc([nH]4)c(-c4c(F)cccc4F)c4nc(c(-c5c(F)cccc5F)c5ccc2[nH]5)C=C4)C=C3)cc1
REMARK SMILES IDX 23 1 22 2 21 3 20 4 19 5 18 6 17 7 15 8 16 9 4 10 3 11 2 12
REMARK SMILES IDX 1 13 5 14 6 15 7 16 13 17 8 18 9 19 12 20 14 21 10 22 11 23
REMARK SMILES IDX 24 24 25 25 26 26 27 27 28 28 29 29 30 30 31 31 32 32 33 33
REMARK SMILES IDX 85 34 34 35 84 36 35 37 36 38 37 39 78 40 38 41 83 42 77 43
REMARK SMILES IDX 79 44 39 45 82 46 76 47 75 48 40 50 66 51 49 52 65 53 50 54
REMARK SMILES IDX 53 55 64 56 80 57 51 58 52 59 63 61 81 62 54 63 41 64 42 65
REMARK SMILES IDX 47 66 43 67 44 68 46 69 48 70 45 71 67 72 68 73 73 74 69 75
REMARK SMILES IDX 70 76 72 77 74 78 71 79 55 80 56 81 61 82 57 83 58 84 60 85
REMARK SMILES IDX 62 86 59 87
REMARK H PARENT 79 49 53 60
REMARK Flexibility Score: inf
ROOT
ATOM      1  O   UNL A   1      41.267  19.882  26.517  1.00  0.00    -0.377 OA
ENDROOT
BRANCH   1   2
ATOM      2  C   UNL A   1      41.313  21.293  26.507  1.00  0.00     0.188 C 
BRANCH   2   3
ATOM      3  C   UNL A   1      39.987  22.012  26.763  1.00  0.00     0.188 C 
BRANCH   3   4
ATOM      4  O   UNL A   1      38.879  21.762  25.917  1.00  0.00    -0.376 OA
BRANCH   4   5
ATOM      5  C   UNL A   1      37.808  22.692  25.850  1.00  0.00     0.202 C 
BRANCH   5   6
ATOM      6  C   UNL A   1      37.006  22.934  24.557  1.00  0.00     0.261 C 
BRANCH   6   7
ATOM      7  O   UNL A   1      36.024  23.999  24.562  1.00  0.00    -0.463 OA
BRANCH   7   8
ATOM      8  C   UNL A   1      35.052  23.920  23.623  1.00  0.00     0.310 C 
ATOM      9  O   UNL A   1      35.141  23.216  22.619  1.00  0.00    -0.252 OA
BRANCH   8  10
ATOM     10  C   UNL A   1      33.852  24.847  23.820  1.00  0.00     0.119 C 
BRANCH  10  11
ATOM     11  C   UNL A   1      33.880  25.933  22.728  1.00  0.00     0.017 C 
BRANCH  11  12
ATOM     12  C   UNL A   1      32.611  26.198  21.911  1.00  0.00    -0.002 C 
ATOM     13  C   UNL A   1      32.550  25.555  20.535  1.00  0.00     0.004 C 
ENDBRANCH  11  12
ENDBRANCH  10  11
BRANCH  10  14
ATOM     14  C   UNL A   1      33.524  25.373  25.228  1.00  0.00     0.137 C 
BRANCH  14  15
ATOM     15  N   UNL A   1      32.389  24.651  25.910  1.00  0.00    -0.348 N 
ATOM     16  C   UNL A   1      32.577  23.468  26.687  1.00  0.00     0.018 A 
ATOM     17  C   UNL A   1      31.072  25.191  25.868  1.00  0.00     0.018 A 
ATOM     18  C   UNL A   1      33.938  22.944  27.070  1.00  0.00     0.064 C 
ATOM     19  C   UNL A   1      31.545  22.751  27.171  1.00  0.00     0.073 A 
ATOM     20  C   UNL A   1      29.997  24.520  26.322  1.00  0.00     0.073 A 
ATOM     21  C   UNL A   1      30.820  26.594  25.367  1.00  0.00     0.064 C 
ATOM     22  C   UNL A   1      30.167  23.193  26.928  1.00  0.00     0.182 A 
ATOM     23  O   UNL A   1      29.207  22.512  27.267  1.00  0.00    -0.290 OA
ENDBRANCH  14  15
ENDBRANCH  10  14
ENDBRANCH   8  10
ENDBRANCH   7   8
ENDBRANCH   6   7
ENDBRANCH   5   6
ENDBRANCH   4   5
ENDBRANCH   3   4
ENDBRANCH   2   3
ENDBRANCH   1   2
BRANCH   1  24
ATOM     24  C   UNL A   1      42.244  19.195  25.744  1.00  0.00     0.188 C 
BRANCH  24  25
ATOM     25  C   UNL A   1      43.677  19.763  25.710  1.00  0.00     0.188 C 
BRANCH  25  26
ATOM     26  O   UNL A   1      44.066  20.298  24.454  1.00  0.00    -0.376 OA
BRANCH  26  27
ATOM     27  C   UNL A   1      44.857  21.477  24.416  1.00  0.00     0.202 C 
BRANCH  27  28
ATOM     28  C   UNL A   1      44.188  22.805  24.015  1.00  0.00     0.261 C 
BRANCH  28  29
ATOM     29  O   UNL A   1      43.759  23.665  25.085  1.00  0.00    -0.460 OA
BRANCH  29  30
ATOM     30  C   UNL A   1      44.400  24.834  25.268  1.00  0.00     0.338 C 
ATOM     31  O   UNL A   1      45.369  25.249  24.654  1.00  0.00    -0.246 OA
BRANCH  30  32
ATOM     32  C   UNL A   1      43.596  25.648  26.204  1.00  0.00     0.060 A 
ATOM     33  C   UNL A   1      43.938  26.994  26.392  1.00  0.00     0.016 A 
ATOM     34  C   UNL A   1      42.526  25.087  26.905  1.00  0.00     0.016 A 
ATOM     35  C   UNL A   1      43.240  27.774  27.311  1.00  0.00     0.010 A 
ATOM     36  C   UNL A   1      41.852  25.858  27.858  1.00  0.00     0.010 A 
ATOM     37  C   UNL A   1      42.238  27.191  28.093  1.00  0.00    -0.014 A 
BRANCH  37  38
ATOM     38  C   UNL A   1      41.807  27.886  29.330  1.00  0.00     0.031 A 
ATOM     39  C   UNL A   1      40.577  28.751  29.251  1.00  0.00     0.074 A 
ATOM     40  C   UNL A   1      42.435  27.706  30.504  1.00  0.00     0.049 A 
ATOM     41  N   UNL A   1      40.017  29.487  30.174  1.00  0.00    -0.248 NA
ATOM     42  C   UNL A   1      39.883  28.782  27.952  1.00  0.00     0.031 C 
ATOM     43  C   UNL A   1      43.583  26.831  30.725  1.00  0.00     0.029 A 
ATOM     44  N   UNL A   1      42.184  28.256  31.736  1.00  0.00    -0.354 N 
ATOM     45  C   UNL A   1      38.909  30.066  29.568  1.00  0.00     0.074 A 
ATOM     46  C   UNL A   1      38.894  29.628  28.192  1.00  0.00     0.031 C 
ATOM     47  C   UNL A   1      43.942  26.906  32.019  1.00  0.00     0.029 A 
ATOM     48  C   UNL A   1      43.073  27.862  32.705  1.00  0.00     0.049 A 
ATOM     49  H   UNL A   1      41.437  28.873  31.908  1.00  0.00     0.167 HD
ATOM     50  C   UNL A   1      37.978  30.882  30.115  1.00  0.00     0.037 A 
ATOM     51  C   UNL A   1      43.181  28.249  33.991  1.00  0.00     0.037 A 
ATOM     52  C   UNL A   1      37.995  31.320  31.483  1.00  0.00     0.049 A 
ATOM     53  C   UNL A   1      42.200  29.250  34.548  1.00  0.00     0.074 A 
ATOM     54  C   UNL A   1      37.102  32.156  32.130  1.00  0.00     0.029 A 
ATOM     55  N   UNL A   1      38.958  30.960  32.414  1.00  0.00    -0.354 N 
ATOM     56  N   UNL A   1      41.159  29.800  33.968  1.00  0.00    -0.248 NA
ATOM     57  C   UNL A   1      42.409  29.685  35.937  1.00  0.00     0.031 C 
ATOM     58  C   UNL A   1      37.556  32.347  33.438  1.00  0.00     0.029 A 
ATOM     59  C   UNL A   1      38.698  31.583  33.624  1.00  0.00     0.049 A 
ATOM     60  H   UNL A   1      39.712  30.352  32.242  1.00  0.00     0.167 HD
ATOM     61  C   UNL A   1      40.582  30.629  34.924  1.00  0.00     0.074 A 
ATOM     62  C   UNL A   1      41.374  30.490  36.129  1.00  0.00     0.031 C 
ATOM     63  C   UNL A   1      39.498  31.438  34.814  1.00  0.00     0.037 A 
BRANCH  50  64
ATOM     64  C   UNL A   1      36.876  31.373  29.222  1.00  0.00     0.057 A 
ATOM     65  C   UNL A   1      35.788  30.562  28.874  1.00  0.00     0.134 A 
ATOM     66  C   UNL A   1      36.882  32.687  28.739  1.00  0.00     0.134 A 
ATOM     67  F   UNL A   1      35.732  29.286  29.286  1.00  0.00    -0.206 F 
ATOM     68  C   UNL A   1      34.752  31.037  28.069  1.00  0.00     0.040 A 
ATOM     69  C   UNL A   1      35.838  33.183  27.956  1.00  0.00     0.040 A 
ATOM     70  F   UNL A   1      37.896  33.516  29.032  1.00  0.00    -0.206 F 
ATOM     71  C   UNL A   1      34.770  32.356  27.616  1.00  0.00     0.006 A 
ENDBRANCH  50  64
BRANCH  51  72
ATOM     72  C   UNL A   1      44.267  27.700  34.844  1.00  0.00     0.057 A 
ATOM     73  C   UNL A   1      44.073  26.548  35.613  1.00  0.00     0.134 A 
ATOM     74  C   UNL A   1      45.522  28.318  34.918  1.00  0.00     0.134 A 
ATOM     75  F   UNL A   1      42.886  25.925  35.609  1.00  0.00    -0.206 F 
ATOM     76  C   UNL A   1      45.083  26.032  36.430  1.00  0.00     0.040 A 
ATOM     77  C   UNL A   1      46.549  27.799  35.708  1.00  0.00     0.040 A 
ATOM     78  F   UNL A   1      45.774  29.429  34.211  1.00  0.00    -0.206 F 
ATOM     79  C   UNL A   1      46.329  26.655  36.471  1.00  0.00     0.006 A 
ENDBRANCH  51  72
BRANCH  63  80
ATOM     80  C   UNL A   1      39.093  32.230  36.025  1.00  0.00     0.057 A 
ATOM     81  C   UNL A   1      38.256  31.692  37.010  1.00  0.00     0.134 A 
ATOM     82  C   UNL A   1      39.600  33.518  36.243  1.00  0.00     0.134 A 
ATOM     83  F   UNL A   1      37.730  30.466  36.861  1.00  0.00    -0.206 F 
ATOM     84  C   UNL A   1      37.918  32.415  38.156  1.00  0.00     0.040 A 
ATOM     85  C   UNL A   1      39.296  34.238  37.399  1.00  0.00     0.040 A 
ATOM     86  F   UNL A   1      40.421  34.089  35.348  1.00  0.00    -0.206 F 
ATOM     87  C   UNL A   1      38.447  33.688  38.357  1.00  0.00     0.006 A 
ENDBRANCH  63  80
ENDBRANCH  37  38
ENDBRANCH  30  32
ENDBRANCH  29  30
ENDBRANCH  28  29
ENDBRANCH  27  28
ENDBRANCH  26  27
ENDBRANCH  25  26
ENDBRANCH  24  25
ENDBRANCH   1  24
TORSDOF 24
ENDMDL
MODEL 2
REMARK VINA RESULT:      -9.5      1.286      6.447
REMARK SMILES CCC[C@H](Cn1c(C)cc(=O)cc1C)C(=O)OCCOCCOCCOCCOC(=O)c1ccc(-c2c3nc(c(-c4c(F)cccc4F)c4ccc([nH]4)c(-c4c(F)cccc4F)c4nc(c(-c5c(F)cccc5F)c5ccc2[nH]5)C=C4)C=C3)cc1
REMARK SMILES IDX 23 1 22 2 21 3 20 4 19 5 18 6 17 7 15 8 16 9 4 10 3 11 2 12
REMARK SMILES IDX 1 13 5 14 6 15 7 16 13 17 8 18 9 19 12 20 14 21 10 22 11 23
REMARK SMILES IDX 24 24 25 25 26 26 27 27 28 28 29 29 30 30 31 31 32 32 33 33
REMARK SMILES IDX 85 34 34 35 84 36 35 37 36 38 37 39 78 40 38 41 83 42 77 43
REMARK SMILES IDX 79 44 39 45 82 46 76 47 75 48 40 50 66 51 49 52 65 53 50 54
REMARK SMILES IDX 53 55 64 56 80 57 51 58 52 59 63 61 81 62 54 63 41 64 42 65
REMARK SMILES IDX 47 66 43 67 44 68 46 69 48 70 45 71 67 72 68 73 73 74 69 75
REMARK SMILES IDX 70 76 72 77 74 78 71 79 55 80 56 81 61 82 57 83 58 84 60 85
REMARK SMILES IDX 62 86 59 87
REMARK H PARENT 79 49 53 60
REMARK Flexibility Score: inf
ROOT
ATOM      1  O   UNL A   1      40.496  20.272  26.209  1.00  0.00    -0.377 OA
ENDROOT
BRANCH   1   2
ATOM      2  C   UNL A   1      40.615  21.678  26.198  1.00  0.00     0.188 C 
BRANCH   2   3
ATOM      3  C   UNL A   1      39.408  22.461  26.721  1.00  0.00     0.188 C 
BRANCH   3   4
ATOM      4  O   UNL A   1      38.289  22.670  25.879  1.00  0.00    -0.376 OA
BRANCH   4   5
ATOM      5  C   UNL A   1      37.474  23.820  26.048  1.00  0.00     0.202 C 
BRANCH   5   6
ATOM      6  C   UNL A   1      35.969  23.820  25.715  1.00  0.00     0.261 C 
BRANCH   6   7
ATOM      7  O   UNL A   1      35.570  24.277  24.399  1.00  0.00    -0.463 OA
BRANCH   7   8
ATOM      8  C   UNL A   1      34.858  23.401  23.652  1.00  0.00     0.310 C 
ATOM      9  O   UNL A   1      35.082  23.195  22.461  1.00  0.00    -0.252 OA
BRANCH   8  10
ATOM     10  C   UNL A   1      33.669  22.737  24.348  1.00  0.00     0.119 C 
BRANCH  10  11
ATOM     11  C   UNL A   1      33.892  21.214  24.367  1.00  0.00     0.017 C 
BRANCH  11  12
ATOM     12  C   UNL A   1      32.884  20.324  25.103  1.00  0.00    -0.002 C 
ATOM     13  C   UNL A   1      32.539  19.003  24.434  1.00  0.00     0.004 C 
ENDBRANCH  11  12
ENDBRANCH  10  11
BRANCH  10  14
ATOM     14  C   UNL A   1      32.239  23.164  23.974  1.00  0.00     0.137 C 
BRANCH  14  15
ATOM     15  N   UNL A   1      31.882  24.569  24.389  1.00  0.00    -0.348 N 
ATOM     16  C   UNL A   1      32.000  25.690  23.513  1.00  0.00     0.018 A 
ATOM     17  C   UNL A   1      31.324  24.813  25.676  1.00  0.00     0.018 A 
ATOM     18  C   UNL A   1      32.291  25.556  22.040  1.00  0.00     0.064 C 
ATOM     19  C   UNL A   1      31.818  26.957  23.933  1.00  0.00     0.073 A 
ATOM     20  C   UNL A   1      31.130  26.054  26.160  1.00  0.00     0.073 A 
ATOM     21  C   UNL A   1      30.848  23.675  26.548  1.00  0.00     0.064 C 
ATOM     22  C   UNL A   1      31.461  27.222  25.332  1.00  0.00     0.182 A 
ATOM     23  O   UNL A   1      31.388  28.363  25.769  1.00  0.00    -0.290 OA
ENDBRANCH  14  15
ENDBRANCH  10  14
ENDBRANCH   8  10
ENDBRANCH   7   8
ENDBRANCH   6   7
ENDBRANCH   5   6
ENDBRANCH   4   5
ENDBRANCH   3   4
ENDBRANCH   2   3
ENDBRANCH   1   2
BRANCH   1  24
ATOM     24  C   UNL A   1      41.694  19.518  26.072  1.00  0.00     0.188 C 
BRANCH  24  25
ATOM     25  C   UNL A   1      43.035  20.277  26.057  1.00  0.00     0.188 C 
BRANCH  25  26
ATOM     26  O   UNL A   1      43.800  20.094  24.875  1.00  0.00    -0.376 OA
BRANCH  26  27
ATOM     27  C   UNL A   1      44.839  21.013  24.570  1.00  0.00     0.202 C 
BRANCH  27  28
ATOM     28  C   UNL A   1      44.470  22.361  23.922  1.00  0.00     0.261 C 
BRANCH  28  29
ATOM     29  O   UNL A   1      43.829  23.334  24.765  1.00  0.00    -0.460 OA
BRANCH  29  30
ATOM     30  C   UNL A   1      44.503  24.454  25.083  1.00  0.00     0.338 C 
ATOM     31  O   UNL A   1      45.568  24.831  24.622  1.00  0.00    -0.246 OA
BRANCH  30  32
ATOM     32  C   UNL A   1      43.626  25.281  25.939  1.00  0.00     0.060 A 
ATOM     33  C   UNL A   1      43.736  26.675  25.868  1.00  0.00     0.016 A 
ATOM     34  C   UNL A   1      42.716  24.687  26.818  1.00  0.00     0.016 A 
ATOM     35  C   UNL A   1      42.969  27.483  26.703  1.00  0.00     0.010 A 
ATOM     36  C   UNL A   1      41.976  25.497  27.686  1.00  0.00     0.010 A 
ATOM     37  C   UNL A   1      42.134  26.895  27.660  1.00  0.00    -0.014 A 
BRANCH  37  38
ATOM     38  C   UNL A   1      41.664  27.721  28.797  1.00  0.00     0.031 A 
ATOM     39  C   UNL A   1      42.466  27.678  30.070  1.00  0.00     0.074 A 
ATOM     40  C   UNL A   1      40.604  28.541  28.691  1.00  0.00     0.049 A 
ATOM     41  N   UNL A   1      42.250  28.276  31.212  1.00  0.00    -0.248 NA
ATOM     42  C   UNL A   1      43.685  26.849  30.045  1.00  0.00     0.031 C 
ATOM     43  C   UNL A   1      39.799  28.733  27.489  1.00  0.00     0.029 A 
ATOM     44  N   UNL A   1      40.029  29.370  29.622  1.00  0.00    -0.354 N 
ATOM     45  C   UNL A   1      43.300  27.896  32.037  1.00  0.00     0.074 A 
ATOM     46  C   UNL A   1      44.135  26.990  31.282  1.00  0.00     0.031 C 
ATOM     47  C   UNL A   1      38.826  29.623  27.757  1.00  0.00     0.029 A 
ATOM     48  C   UNL A   1      38.921  30.033  29.158  1.00  0.00     0.049 A 
ATOM     49  H   UNL A   1      40.380  29.479  30.536  1.00  0.00     0.167 HD
ATOM     50  C   UNL A   1      43.556  28.280  33.310  1.00  0.00     0.037 A 
ATOM     51  C   UNL A   1      38.071  30.858  29.801  1.00  0.00     0.037 A 
ATOM     52  C   UNL A   1      42.723  29.179  34.061  1.00  0.00     0.049 A 
ATOM     53  C   UNL A   1      38.310  31.180  31.254  1.00  0.00     0.074 A 
ATOM     54  C   UNL A   1      42.891  29.622  35.361  1.00  0.00     0.029 A 
ATOM     55  N   UNL A   1      41.565  29.770  33.580  1.00  0.00    -0.354 N 
ATOM     56  N   UNL A   1      39.301  30.812  32.032  1.00  0.00    -0.248 NA
ATOM     57  C   UNL A   1      37.313  32.030  31.920  1.00  0.00     0.031 C 
ATOM     58  C   UNL A   1      41.802  30.437  35.686  1.00  0.00     0.029 A 
ATOM     59  C   UNL A   1      40.989  30.550  34.569  1.00  0.00     0.049 A 
ATOM     60  H   UNL A   1      41.207  29.653  32.671  1.00  0.00     0.167 HD
ATOM     61  C   UNL A   1      39.056  31.399  33.269  1.00  0.00     0.074 A 
ATOM     62  C   UNL A   1      37.836  32.167  33.130  1.00  0.00     0.031 C 
ATOM     63  C   UNL A   1      39.771  31.306  34.418  1.00  0.00     0.037 A 
BRANCH  50  64
ATOM     64  C   UNL A   1      44.771  27.707  33.976  1.00  0.00     0.057 A 
ATOM     65  C   UNL A   1      46.040  28.282  33.824  1.00  0.00     0.134 A 
ATOM     66  C   UNL A   1      44.665  26.591  34.816  1.00  0.00     0.134 A 
ATOM     67  F   UNL A   1      46.214  29.339  33.016  1.00  0.00    -0.206 F 
ATOM     68  C   UNL A   1      47.160  27.761  34.473  1.00  0.00     0.040 A 
ATOM     69  C   UNL A   1      45.773  26.079  35.493  1.00  0.00     0.040 A 
ATOM     70  F   UNL A   1      43.480  25.991  35.004  1.00  0.00    -0.206 F 
ATOM     71  C   UNL A   1      47.026  26.662  35.320  1.00  0.00     0.006 A 
ENDBRANCH  50  64
BRANCH  51  72
ATOM     72  C   UNL A   1      36.904  31.431  29.081  1.00  0.00     0.057 A 
ATOM     73  C   UNL A   1      36.911  32.754  28.626  1.00  0.00     0.134 A 
ATOM     74  C   UNL A   1      35.750  30.674  28.838  1.00  0.00     0.134 A 
ATOM     75  F   UNL A   1      37.974  33.540  28.851  1.00  0.00    -0.206 F 
ATOM     76  C   UNL A   1      35.813  33.307  27.962  1.00  0.00     0.040 A 
ATOM     77  C   UNL A   1      34.657  31.204  28.152  1.00  0.00     0.040 A 
ATOM     78  F   UNL A   1      35.675  29.401  29.253  1.00  0.00    -0.206 F 
ATOM     79  C   UNL A   1      34.685  32.527  27.716  1.00  0.00     0.006 A 
ENDBRANCH  51  72
BRANCH  63  80
ATOM     80  C   UNL A   1      39.265  32.058  35.616  1.00  0.00     0.057 A 
ATOM     81  C   UNL A   1      39.584  33.405  35.829  1.00  0.00     0.134 A 
ATOM     82  C   UNL A   1      38.397  31.449  36.532  1.00  0.00     0.134 A 
ATOM     83  F   UNL A   1      40.416  34.047  34.995  1.00  0.00    -0.206 F 
ATOM     84  C   UNL A   1      39.075  34.112  36.920  1.00  0.00     0.040 A 
ATOM     85  C   UNL A   1      37.857  32.153  37.608  1.00  0.00     0.040 A 
ATOM     86  F   UNL A   1      38.037  30.164  36.381  1.00  0.00    -0.206 F 
ATOM     87  C   UNL A   1      38.201  33.488  37.808  1.00  0.00     0.006 A 
ENDBRANCH  63  80
ENDBRANCH  37  38
ENDBRANCH  30  32
ENDBRANCH  29  30
ENDBRANCH  28  29
ENDBRANCH  27  28
ENDBRANCH  26  27
ENDBRANCH  25  26
ENDBRANCH  24  25
ENDBRANCH   1  24
TORSDOF 24
ENDMDL
MODEL 3
REMARK VINA RESULT:      -9.3      1.294      2.183
REMARK SMILES CCC[C@H](Cn1c(C)cc(=O)cc1C)C(=O)OCCOCCOCCOCCOC(=O)c1ccc(-c2c3nc(c(-c4c(F)cccc4F)c4ccc([nH]4)c(-c4c(F)cccc4F)c4nc(c(-c5c(F)cccc5F)c5ccc2[nH]5)C=C4)C=C3)cc1
REMARK SMILES IDX 23 1 22 2 21 3 20 4 19 5 18 6 17 7 15 8 16 9 4 10 3 11 2 12
REMARK SMILES IDX 1 13 5 14 6 15 7 16 13 17 8 18 9 19 12 20 14 21 10 22 11 23
REMARK SMILES IDX 24 24 25 25 26 26 27 27 28 28 29 29 30 30 31 31 32 32 33 33
REMARK SMILES IDX 85 34 34 35 84 36 35 37 36 38 37 39 78 40 38 41 83 42 77 43
REMARK SMILES IDX 79 44 39 45 82 46 76 47 75 48 40 50 66 51 49 52 65 53 50 54
REMARK SMILES IDX 53 55 64 56 80 57 51 58 52 59 63 61 81 62 54 63 41 64 42 65
REMARK SMILES IDX 47 66 43 67 44 68 46 69 48 70 45 71 67 72 68 73 73 74 69 75
REMARK SMILES IDX 70 76 72 77 74 78 71 79 55 80 56 81 61 82 57 83 58 84 60 85
REMARK SMILES IDX 62 86 59 87
REMARK H PARENT 79 49 53 60
REMARK Flexibility Score: inf
ROOT
ATOM      1  O   UNL A   1      39.649  20.461  26.253  1.00  0.00    -0.377 OA
ENDROOT
BRANCH   1   2
ATOM      2  C   UNL A   1      39.638  21.863  26.417  1.00  0.00     0.188 C 
BRANCH   2   3
ATOM      3  C   UNL A   1      38.472  22.609  25.764  1.00  0.00     0.188 C 
BRANCH   3   4
ATOM      4  O   UNL A   1      37.169  22.059  25.820  1.00  0.00    -0.376 OA
BRANCH   4   5
ATOM      5  C   UNL A   1      36.391  21.943  24.637  1.00  0.00     0.202 C 
BRANCH   5   6
ATOM      6  C   UNL A   1      35.503  23.090  24.118  1.00  0.00     0.261 C 
BRANCH   6   7
ATOM      7  O   UNL A   1      35.129  23.075  22.719  1.00  0.00    -0.463 OA
BRANCH   7   8
ATOM      8  C   UNL A   1      33.819  23.283  22.447  1.00  0.00     0.310 C 
ATOM      9  O   UNL A   1      33.428  23.986  21.518  1.00  0.00    -0.252 OA
BRANCH   8  10
ATOM     10  C   UNL A   1      32.824  22.672  23.434  1.00  0.00     0.119 C 
BRANCH  10  11
ATOM     11  C   UNL A   1      32.757  21.152  23.194  1.00  0.00     0.017 C 
BRANCH  11  12
ATOM     12  C   UNL A   1      33.231  20.204  24.301  1.00  0.00    -0.002 C 
ATOM     13  C   UNL A   1      32.492  18.880  24.414  1.00  0.00     0.004 C 
ENDBRANCH  11  12
ENDBRANCH  10  11
BRANCH  10  14
ATOM     14  C   UNL A   1      31.454  23.341  23.640  1.00  0.00     0.137 C 
BRANCH  14  15
ATOM     15  N   UNL A   1      31.484  24.548  24.545  1.00  0.00    -0.348 N 
ATOM     16  C   UNL A   1      31.438  25.887  24.053  1.00  0.00     0.018 A 
ATOM     17  C   UNL A   1      31.474  24.380  25.959  1.00  0.00     0.018 A 
ATOM     18  C   UNL A   1      31.151  26.225  22.612  1.00  0.00     0.064 C 
ATOM     19  C   UNL A   1      31.610  26.956  24.854  1.00  0.00     0.073 A 
ATOM     20  C   UNL A   1      31.654  25.404  26.813  1.00  0.00     0.073 A 
ATOM     21  C   UNL A   1      31.186  23.034  26.582  1.00  0.00     0.064 C 
ATOM     22  C   UNL A   1      31.829  26.767  26.293  1.00  0.00     0.182 A 
ATOM     23  O   UNL A   1      32.089  27.710  27.031  1.00  0.00    -0.290 OA
ENDBRANCH  14  15
ENDBRANCH  10  14
ENDBRANCH   8  10
ENDBRANCH   7   8
ENDBRANCH   6   7
ENDBRANCH   5   6
ENDBRANCH   4   5
ENDBRANCH   3   4
ENDBRANCH   2   3
ENDBRANCH   1   2
BRANCH   1  24
ATOM     24  C   UNL A   1      40.920  19.828  26.164  1.00  0.00     0.188 C 
BRANCH  24  25
ATOM     25  C   UNL A   1      42.177  20.675  26.448  1.00  0.00     0.188 C 
BRANCH  25  26
ATOM     26  O   UNL A   1      42.958  20.966  25.299  1.00  0.00    -0.376 OA
BRANCH  26  27
ATOM     27  C   UNL A   1      44.020  21.906  25.401  1.00  0.00     0.202 C 
BRANCH  27  28
ATOM     28  C   UNL A   1      44.172  22.972  24.301  1.00  0.00     0.261 C 
BRANCH  28  29
ATOM     29  O   UNL A   1      43.634  24.277  24.581  1.00  0.00    -0.460 OA
BRANCH  29  30
ATOM     30  C   UNL A   1      44.427  25.183  25.182  1.00  0.00     0.338 C 
ATOM     31  O   UNL A   1      45.573  25.476  24.884  1.00  0.00    -0.246 OA
BRANCH  30  32
ATOM     32  C   UNL A   1      43.597  25.940  26.144  1.00  0.00     0.060 A 
ATOM     33  C   UNL A   1      43.833  27.312  26.304  1.00  0.00     0.016 A 
ATOM     34  C   UNL A   1      42.607  25.301  26.895  1.00  0.00     0.016 A 
ATOM     35  C   UNL A   1      43.112  28.043  27.244  1.00  0.00     0.010 A 
ATOM     36  C   UNL A   1      41.912  26.026  27.868  1.00  0.00     0.010 A 
ATOM     37  C   UNL A   1      42.195  27.389  28.074  1.00  0.00    -0.014 A 
BRANCH  37  38
ATOM     38  C   UNL A   1      41.760  28.062  29.321  1.00  0.00     0.031 A 
ATOM     39  C   UNL A   1      40.512  28.902  29.261  1.00  0.00     0.074 A 
ATOM     40  C   UNL A   1      42.400  27.882  30.489  1.00  0.00     0.049 A 
ATOM     41  N   UNL A   1      39.943  29.616  30.197  1.00  0.00    -0.248 NA
ATOM     42  C   UNL A   1      39.808  28.933  27.968  1.00  0.00     0.031 C 
ATOM     43  C   UNL A   1      43.567  27.028  30.692  1.00  0.00     0.029 A 
ATOM     44  N   UNL A   1      42.147  28.413  31.729  1.00  0.00    -0.354 N 
ATOM     45  C   UNL A   1      38.820  30.180  29.605  1.00  0.00     0.074 A 
ATOM     46  C   UNL A   1      38.803  29.756  28.224  1.00  0.00     0.031 C 
ATOM     47  C   UNL A   1      43.935  27.097  31.984  1.00  0.00     0.029 A 
ATOM     48  C   UNL A   1      43.051  28.028  32.687  1.00  0.00     0.049 A 
ATOM     49  H   UNL A   1      41.389  29.013  31.913  1.00  0.00     0.167 HD
ATOM     50  C   UNL A   1      37.876  30.970  30.167  1.00  0.00     0.037 A 
ATOM     51  C   UNL A   1      43.161  28.403  33.977  1.00  0.00     0.037 A 
ATOM     52  C   UNL A   1      37.895  31.394  31.541  1.00  0.00     0.049 A 
ATOM     53  C   UNL A   1      42.164  29.377  34.551  1.00  0.00     0.074 A 
ATOM     54  C   UNL A   1      36.990  32.204  32.203  1.00  0.00     0.029 A 
ATOM     55  N   UNL A   1      38.872  31.044  32.461  1.00  0.00    -0.354 N 
ATOM     56  N   UNL A   1      41.108  29.912  33.985  1.00  0.00    -0.248 NA
ATOM     57  C   UNL A   1      42.375  29.801  35.943  1.00  0.00     0.031 C 
ATOM     58  C   UNL A   1      37.450  32.390  33.510  1.00  0.00     0.029 A 
ATOM     59  C   UNL A   1      38.609  31.648  33.679  1.00  0.00     0.049 A 
ATOM     60  H   UNL A   1      39.637  30.453  32.275  1.00  0.00     0.167 HD
ATOM     61  C   UNL A   1      40.521  30.719  34.954  1.00  0.00     0.074 A 
ATOM     62  C   UNL A   1      41.325  30.583  36.152  1.00  0.00     0.031 C 
ATOM     63  C   UNL A   1      39.420  31.506  34.861  1.00  0.00     0.037 A 
BRANCH  50  64
ATOM     64  C   UNL A   1      36.758  31.448  29.288  1.00  0.00     0.057 A 
ATOM     65  C   UNL A   1      36.736  32.744  28.757  1.00  0.00     0.134 A 
ATOM     66  C   UNL A   1      35.712  30.586  28.933  1.00  0.00     0.134 A 
ATOM     67  F   UNL A   1      37.696  33.626  29.075  1.00  0.00    -0.206 F 
ATOM     68  C   UNL A   1      35.708  33.170  27.914  1.00  0.00     0.040 A 
ATOM     69  C   UNL A   1      34.694  30.991  28.068  1.00  0.00     0.040 A 
ATOM     70  F   UNL A   1      35.671  29.333  29.408  1.00  0.00    -0.206 F 
ATOM     71  C   UNL A   1      34.689  32.288  27.558  1.00  0.00     0.006 A 
ENDBRANCH  50  64
BRANCH  51  72
ATOM     72  C   UNL A   1      44.265  27.867  34.815  1.00  0.00     0.057 A 
ATOM     73  C   UNL A   1      44.132  26.655  35.501  1.00  0.00     0.134 A 
ATOM     74  C   UNL A   1      45.476  28.557  34.959  1.00  0.00     0.134 A 
ATOM     75  F   UNL A   1      42.987  25.960  35.428  1.00  0.00    -0.206 F 
ATOM     76  C   UNL A   1      45.157  26.150  36.305  1.00  0.00     0.040 A 
ATOM     77  C   UNL A   1      46.519  28.051  35.736  1.00  0.00     0.040 A 
ATOM     78  F   UNL A   1      45.667  29.727  34.334  1.00  0.00    -0.206 F 
ATOM     79  C   UNL A   1      46.360  26.846  36.415  1.00  0.00     0.006 A 
ENDBRANCH  51  72
BRANCH  63  80
ATOM     80  C   UNL A   1      39.009  32.277  36.084  1.00  0.00     0.057 A 
ATOM     81  C   UNL A   1      38.201  31.706  37.076  1.00  0.00     0.134 A 
ATOM     82  C   UNL A   1      39.480  33.578  36.305  1.00  0.00     0.134 A 
ATOM     83  F   UNL A   1      37.710  30.467  36.925  1.00  0.00    -0.206 F 
ATOM     84  C   UNL A   1      37.858  32.410  38.232  1.00  0.00     0.040 A 
ATOM     85  C   UNL A   1      39.170  34.280  37.471  1.00  0.00     0.040 A 
ATOM     86  F   UNL A   1      40.271  34.180  35.403  1.00  0.00    -0.206 F 
ATOM     87  C   UNL A   1      38.351  33.698  38.436  1.00  0.00     0.006 A 
ENDBRANCH  63  80
ENDBRANCH  37  38
ENDBRANCH  30  32
ENDBRANCH  29  30
ENDBRANCH  28  29
ENDBRANCH  27  28
ENDBRANCH  26  27
ENDBRANCH  25  26
ENDBRANCH  24  25
ENDBRANCH   1  24
TORSDOF 24
ENDMDL
