MODEL 1
REMARK VINA RESULT:     -11.2      0.000      0.000
REMARK SMILES O=C(OCCOCCOCCOCCOC(=O)c1cc(N2CCN(c3ccc(F)cc3)CC2)ccc1NC(=O)C1CCCC1)c1ccc(-c2c3nc(c(-c4c(F)cccc4F)c4ccc([nH]4)c(-c4c(F)cccc4F)c4nc(c(-c5c(F)cccc5F)c5ccc2[nH]5)C=C4)C=C3)cc1
REMARK SMILES IDX 9 1 8 2 7 3 6 4 5 5 4 6 3 7 2 8 1 9 45 10 46 11 98 12 47 13
REMARK SMILES IDX 97 14 48 15 49 16 50 17 91 18 51 19 96 20 90 21 92 22 52 23
REMARK SMILES IDX 95 24 89 25 88 26 53 28 79 29 62 30 78 31 63 32 66 33 77 34
REMARK SMILES IDX 93 35 64 36 65 37 76 39 94 40 67 41 54 42 55 43 60 44 56 45
REMARK SMILES IDX 57 46 59 47 61 48 58 49 80 50 81 51 86 52 82 53 83 54 85 55
REMARK SMILES IDX 87 56 84 57 68 58 69 59 74 60 70 61 71 62 73 63 75 64 72 65
REMARK SMILES IDX 10 66 11 67 12 68 13 69 14 70 15 71 16 72 17 73 18 74 19 75
REMARK SMILES IDX 36 76 20 77 35 78 34 79 37 80 38 81 39 83 40 84 41 85 44 86
REMARK SMILES IDX 42 87 43 88 21 89 22 90 33 91 23 92 32 93 24 94 25 95 26 96
REMARK SMILES IDX 31 97 27 98 30 99 28 100 29 101
REMARK H PARENT 92 27 66 38 37 82
REMARK Flexibility Score: inf
ROOT
ATOM      1  O   UNL A   1      32.164  27.092  22.717  1.00  0.00    -0.377 OA
ENDROOT
BRANCH   1   2
ATOM      2  C   UNL A   1      32.216  28.485  23.027  1.00  0.00     0.188 C 
BRANCH   2   3
ATOM      3  C   UNL A   1      30.851  29.164  23.159  1.00  0.00     0.188 C 
BRANCH   3   4
ATOM      4  O   UNL A   1      30.773  29.876  24.398  1.00  0.00    -0.376 OA
BRANCH   4   5
ATOM      5  C   UNL A   1      31.966  29.861  25.180  1.00  0.00     0.202 C 
BRANCH   5   6
ATOM      6  C   UNL A   1      31.776  30.436  26.582  1.00  0.00     0.261 C 
BRANCH   6   7
ATOM      7  O   UNL A   1      31.904  31.864  26.589  1.00  0.00    -0.460 OA
BRANCH   7   8
ATOM      8  C   UNL A   1      32.727  32.616  27.360  1.00  0.00     0.338 C 
ATOM      9  O   UNL A   1      32.432  33.798  27.536  1.00  0.00    -0.246 OA
BRANCH   8  10
ATOM     10  C   UNL A   1      33.960  32.103  28.044  1.00  0.00     0.060 A 
ATOM     11  C   UNL A   1      34.275  30.761  28.275  1.00  0.00     0.016 A 
ATOM     12  C   UNL A   1      34.916  33.066  28.417  1.00  0.00     0.016 A 
ATOM     13  C   UNL A   1      35.465  30.380  28.883  1.00  0.00     0.010 A 
ATOM     14  C   UNL A   1      36.126  32.695  29.014  1.00  0.00     0.010 A 
ATOM     15  C   UNL A   1      36.392  31.346  29.261  1.00  0.00    -0.014 A 
BRANCH  15  16
ATOM     16  C   UNL A   1      37.572  30.914  30.028  1.00  0.00     0.031 A 
ATOM     17  C   UNL A   1      38.596  30.074  29.329  1.00  0.00     0.074 A 
ATOM     18  C   UNL A   1      37.763  31.368  31.279  1.00  0.00     0.049 A 
ATOM     19  N   UNL A   1      39.678  29.522  29.804  1.00  0.00    -0.248 NA
ATOM     20  C   UNL A   1      38.379  29.842  27.890  1.00  0.00     0.031 C 
ATOM     21  C   UNL A   1      36.877  32.295  31.986  1.00  0.00     0.029 A 
ATOM     22  N   UNL A   1      38.773  31.124  32.171  1.00  0.00    -0.354 N 
ATOM     23  C   UNL A   1      40.253  28.852  28.733  1.00  0.00     0.074 A 
ATOM     24  C   UNL A   1      39.411  29.073  27.580  1.00  0.00     0.031 C 
ATOM     25  C   UNL A   1      37.384  32.540  33.206  1.00  0.00     0.029 A 
ATOM     26  C   UNL A   1      38.590  31.740  33.387  1.00  0.00     0.049 A 
ATOM     27  H   UNL A   1      39.554  30.563  31.962  1.00  0.00     0.167 HD
ATOM     28  C   UNL A   1      41.379  28.105  28.729  1.00  0.00     0.037 A 
ATOM     29  C   UNL A   1      39.301  31.622  34.524  1.00  0.00     0.037 A 
ATOM     30  C   UNL A   1      42.195  27.904  29.894  1.00  0.00     0.049 A 
ATOM     31  C   UNL A   1      40.493  30.701  34.516  1.00  0.00     0.074 A 
ATOM     32  C   UNL A   1      43.335  27.134  30.032  1.00  0.00     0.029 A 
ATOM     33  N   UNL A   1      41.945  28.485  31.130  1.00  0.00    -0.354 N 
ATOM     34  N   UNL A   1      41.012  30.026  33.516  1.00  0.00    -0.248 NA
ATOM     35  C   UNL A   1      41.187  30.503  35.796  1.00  0.00     0.031 C 
ATOM     36  C   UNL A   1      43.748  27.215  31.366  1.00  0.00     0.029 A 
ATOM     37  C   UNL A   1      42.892  28.069  32.047  1.00  0.00     0.049 A 
ATOM     38  H   UNL A   1      41.203  29.102  31.325  1.00  0.00     0.167 HD
ATOM     39  C   UNL A   1      42.090  29.330  34.042  1.00  0.00     0.074 A 
ATOM     40  C   UNL A   1      42.172  29.689  35.444  1.00  0.00     0.031 C 
ATOM     41  C   UNL A   1      42.934  28.461  33.432  1.00  0.00     0.037 A 
BRANCH  28  42
ATOM     42  C   UNL A   1      41.733  27.403  27.455  1.00  0.00     0.057 A 
ATOM     43  C   UNL A   1      42.485  28.016  26.447  1.00  0.00     0.134 A 
ATOM     44  C   UNL A   1      41.298  26.090  27.232  1.00  0.00     0.134 A 
ATOM     45  F   UNL A   1      42.906  29.282  26.586  1.00  0.00    -0.206 F 
ATOM     46  C   UNL A   1      42.782  27.352  25.254  1.00  0.00     0.040 A 
ATOM     47  C   UNL A   1      41.603  25.410  26.052  1.00  0.00     0.040 A 
ATOM     48  F   UNL A   1      40.562  25.451  28.155  1.00  0.00    -0.206 F 
ATOM     49  C   UNL A   1      42.344  26.043  25.057  1.00  0.00     0.006 A 
ENDBRANCH  28  42
BRANCH  29  50
ATOM     50  C   UNL A   1      38.869  32.310  35.768  1.00  0.00     0.057 A 
ATOM     51  C   UNL A   1      39.218  33.640  36.032  1.00  0.00     0.134 A 
ATOM     52  C   UNL A   1      38.134  31.636  36.754  1.00  0.00     0.134 A 
ATOM     53  F   UNL A   1      39.943  34.337  35.144  1.00  0.00    -0.206 F 
ATOM     54  C   UNL A   1      38.875  34.265  37.235  1.00  0.00     0.040 A 
ATOM     55  C   UNL A   1      37.759  32.257  37.946  1.00  0.00     0.040 A 
ATOM     56  F   UNL A   1      37.768  30.358  36.572  1.00  0.00    -0.206 F 
ATOM     57  C   UNL A   1      38.138  33.573  38.194  1.00  0.00     0.006 A 
ENDBRANCH  29  50
BRANCH  41  58
ATOM     58  C   UNL A   1      44.011  27.860  34.280  1.00  0.00     0.057 A 
ATOM     59  C   UNL A   1      45.243  28.501  34.462  1.00  0.00     0.134 A 
ATOM     60  C   UNL A   1      43.792  26.658  34.964  1.00  0.00     0.134 A 
ATOM     61  F   UNL A   1      45.514  29.647  33.820  1.00  0.00    -0.206 F 
ATOM     62  C   UNL A   1      46.228  27.957  35.285  1.00  0.00     0.040 A 
ATOM     63  C   UNL A   1      44.760  26.119  35.810  1.00  0.00     0.040 A 
ATOM     64  F   UNL A   1      42.627  26.004  34.836  1.00  0.00    -0.206 F 
ATOM     65  C   UNL A   1      45.983  26.767  35.969  1.00  0.00     0.006 A 
ENDBRANCH  41  58
ENDBRANCH  15  16
ENDBRANCH   8  10
ENDBRANCH   7   8
ENDBRANCH   6   7
ENDBRANCH   5   6
ENDBRANCH   4   5
ENDBRANCH   3   4
ENDBRANCH   2   3
ENDBRANCH   1   2
BRANCH   1  66
ATOM     66  C   UNL A   1      33.072  26.628  21.725  1.00  0.00     0.188 C 
BRANCH  66  67
ATOM     67  C   UNL A   1      32.834  25.247  21.080  1.00  0.00     0.188 C 
BRANCH  67  68
ATOM     68  O   UNL A   1      33.625  24.187  21.603  1.00  0.00    -0.376 OA
BRANCH  68  69
ATOM     69  C   UNL A   1      33.091  23.541  22.757  1.00  0.00     0.202 C 
BRANCH  69  70
ATOM     70  C   UNL A   1      32.744  22.067  22.532  1.00  0.00     0.261 C 
BRANCH  70  71
ATOM     71  O   UNL A   1      32.257  21.398  23.707  1.00  0.00    -0.460 OA
BRANCH  71  72
ATOM     72  C   UNL A   1      33.013  20.433  24.283  1.00  0.00     0.340 C 
ATOM     73  O   UNL A   1      33.081  19.264  23.946  1.00  0.00    -0.246 OA
BRANCH  72  74
ATOM     74  C   UNL A   1      33.933  21.114  25.238  1.00  0.00     0.085 A 
ATOM     75  C   UNL A   1      35.308  21.059  24.946  1.00  0.00     0.043 A 
ATOM     76  C   UNL A   1      33.468  21.920  26.294  1.00  0.00     0.055 A 
ATOM     77  C   UNL A   1      36.225  21.891  25.604  1.00  0.00     0.038 A 
ATOM     78  C   UNL A   1      34.380  22.754  26.940  1.00  0.00     0.029 A 
ATOM     79  C   UNL A   1      35.736  22.750  26.589  1.00  0.00     0.028 A 
BRANCH  76  80
ATOM     80  N   UNL A   1      32.096  21.954  26.592  1.00  0.00    -0.325 N 
ATOM     81  C   UNL A   1      31.099  22.831  26.308  1.00  0.00     0.227 C 
ATOM     82  H   UNL A   1      31.793  21.178  27.116  1.00  0.00     0.169 HD
ATOM     83  O   UNL A   1      29.956  22.509  26.660  1.00  0.00    -0.274 OA
BRANCH  81  84
ATOM     84  C   UNL A   1      31.302  24.180  25.631  1.00  0.00     0.079 C 
ATOM     85  C   UNL A   1      30.195  24.710  24.727  1.00  0.00     0.013 C 
ATOM     86  C   UNL A   1      31.676  25.269  26.625  1.00  0.00     0.013 C 
ATOM     87  C   UNL A   1      29.976  26.171  25.090  1.00  0.00     0.001 C 
ATOM     88  C   UNL A   1      30.959  26.535  26.192  1.00  0.00     0.001 C 
ENDBRANCH  81  84
ENDBRANCH  76  80
BRANCH  77  89
ATOM     89  N   UNL A   1      37.557  21.852  25.249  1.00  0.00    -0.368 N 
ATOM     90  C   UNL A   1      38.543  22.836  25.744  1.00  0.00     0.138 C 
ATOM     91  C   UNL A   1      38.113  20.543  24.853  1.00  0.00     0.138 C 
ATOM     92  C   UNL A   1      39.508  22.254  26.810  1.00  0.00     0.138 C 
ATOM     93  C   UNL A   1      39.001  19.967  25.979  1.00  0.00     0.138 C 
ATOM     94  N   UNL A   1      40.026  20.938  26.396  1.00  0.00    -0.368 N 
BRANCH  94  95
ATOM     95  C   UNL A   1      41.359  20.770  26.083  1.00  0.00     0.037 A 
ATOM     96  C   UNL A   1      41.887  19.485  25.878  1.00  0.00     0.029 A 
ATOM     97  C   UNL A   1      42.230  21.859  25.922  1.00  0.00     0.029 A 
ATOM     98  C   UNL A   1      43.221  19.295  25.504  1.00  0.00     0.041 A 
ATOM     99  C   UNL A   1      43.570  21.678  25.566  1.00  0.00     0.041 A 
ATOM    100  C   UNL A   1      44.051  20.395  25.352  1.00  0.00     0.123 A 
ATOM    101  F   UNL A   1      45.329  20.219  24.991  1.00  0.00    -0.207 F 
ENDBRANCH  94  95
ENDBRANCH  77  89
ENDBRANCH  72  74
ENDBRANCH  71  72
ENDBRANCH  70  71
ENDBRANCH  69  70
ENDBRANCH  68  69
ENDBRANCH  67  68
ENDBRANCH  66  67
ENDBRANCH   1  66
TORSDOF 24
ENDMDL
MODEL 2
REMARK VINA RESULT:     -10.3      1.454      5.899
REMARK SMILES O=C(OCCOCCOCCOCCOC(=O)c1cc(N2CCN(c3ccc(F)cc3)CC2)ccc1NC(=O)C1CCCC1)c1ccc(-c2c3nc(c(-c4c(F)cccc4F)c4ccc([nH]4)c(-c4c(F)cccc4F)c4nc(c(-c5c(F)cccc5F)c5ccc2[nH]5)C=C4)C=C3)cc1
REMARK SMILES IDX 9 1 8 2 7 3 6 4 5 5 4 6 3 7 2 8 1 9 45 10 46 11 98 12 47 13
REMARK SMILES IDX 97 14 48 15 49 16 50 17 91 18 51 19 96 20 90 21 92 22 52 23
REMARK SMILES IDX 95 24 89 25 88 26 53 28 79 29 62 30 78 31 63 32 66 33 77 34
REMARK SMILES IDX 93 35 64 36 65 37 76 39 94 40 67 41 54 42 55 43 60 44 56 45
REMARK SMILES IDX 57 46 59 47 61 48 58 49 80 50 81 51 86 52 82 53 83 54 85 55
REMARK SMILES IDX 87 56 84 57 68 58 69 59 74 60 70 61 71 62 73 63 75 64 72 65
REMARK SMILES IDX 10 66 11 67 12 68 13 69 14 70 15 71 16 72 17 73 18 74 19 75
REMARK SMILES IDX 36 76 20 77 35 78 34 79 37 80 38 81 39 83 40 84 41 85 44 86
REMARK SMILES IDX 42 87 43 88 21 89 22 90 33 91 23 92 32 93 24 94 25 95 26 96
REMARK SMILES IDX 31 97 27 98 30 99 28 100 29 101
REMARK H PARENT 92 27 66 38 37 82
REMARK Flexibility Score: inf
ROOT
ATOM      1  O   UNL A   1      32.549  26.905  22.757  1.00  0.00    -0.377 OA
ENDROOT
BRANCH   1   2
ATOM      2  C   UNL A   1      33.648  27.479  23.464  1.00  0.00     0.188 C 
BRANCH   2   3
ATOM      3  C   UNL A   1      33.642  29.008  23.530  1.00  0.00     0.188 C 
BRANCH   3   4
ATOM      4  O   UNL A   1      33.294  29.442  24.849  1.00  0.00    -0.376 OA
BRANCH   4   5
ATOM      5  C   UNL A   1      31.928  29.814  25.022  1.00  0.00     0.202 C 
BRANCH   5   6
ATOM      6  C   UNL A   1      31.683  30.642  26.282  1.00  0.00     0.261 C 
BRANCH   6   7
ATOM      7  O   UNL A   1      32.738  30.475  27.238  1.00  0.00    -0.460 OA
BRANCH   7   8
ATOM      8  C   UNL A   1      33.637  31.403  27.647  1.00  0.00     0.338 C 
ATOM      9  O   UNL A   1      33.316  32.589  27.572  1.00  0.00    -0.246 OA
BRANCH   8  10
ATOM     10  C   UNL A   1      34.988  31.089  28.219  1.00  0.00     0.060 A 
ATOM     11  C   UNL A   1      35.409  29.845  28.699  1.00  0.00     0.016 A 
ATOM     12  C   UNL A   1      35.935  32.129  28.196  1.00  0.00     0.016 A 
ATOM     13  C   UNL A   1      36.699  29.640  29.174  1.00  0.00     0.010 A 
ATOM     14  C   UNL A   1      37.242  31.931  28.655  1.00  0.00     0.010 A 
ATOM     15  C   UNL A   1      37.618  30.683  29.160  1.00  0.00    -0.014 A 
BRANCH  15  16
ATOM     16  C   UNL A   1      38.926  30.466  29.801  1.00  0.00     0.031 A 
ATOM     17  C   UNL A   1      39.139  31.031  31.171  1.00  0.00     0.074 A 
ATOM     18  C   UNL A   1      39.842  29.681  29.209  1.00  0.00     0.049 A 
ATOM     19  N   UNL A   1      40.214  31.029  31.909  1.00  0.00    -0.248 NA
ATOM     20  C   UNL A   1      37.972  31.671  31.804  1.00  0.00     0.031 C 
ATOM     21  C   UNL A   1      39.661  28.985  27.933  1.00  0.00     0.029 A 
ATOM     22  N   UNL A   1      41.102  29.323  29.609  1.00  0.00    -0.354 N 
ATOM     23  C   UNL A   1      39.864  31.693  33.077  1.00  0.00     0.074 A 
ATOM     24  C   UNL A   1      38.476  32.075  32.959  1.00  0.00     0.031 C 
ATOM     25  C   UNL A   1      40.773  28.284  27.655  1.00  0.00     0.029 A 
ATOM     26  C   UNL A   1      41.763  28.533  28.698  1.00  0.00     0.049 A 
ATOM     27  H   UNL A   1      41.496  29.603  30.466  1.00  0.00     0.167 HD
ATOM     28  C   UNL A   1      40.648  31.967  34.143  1.00  0.00     0.037 A 
ATOM     29  C   UNL A   1      43.040  28.108  28.698  1.00  0.00     0.037 A 
ATOM     30  C   UNL A   1      42.026  31.572  34.230  1.00  0.00     0.049 A 
ATOM     31  C   UNL A   1      43.918  28.517  29.851  1.00  0.00     0.074 A 
ATOM     32  C   UNL A   1      42.940  31.829  35.235  1.00  0.00     0.029 A 
ATOM     33  N   UNL A   1      42.687  30.833  33.258  1.00  0.00    -0.354 N 
ATOM     34  N   UNL A   1      43.602  29.188  30.935  1.00  0.00    -0.248 NA
ATOM     35  C   UNL A   1      45.335  28.135  29.775  1.00  0.00     0.031 C 
ATOM     36  C   UNL A   1      44.168  31.281  34.848  1.00  0.00     0.029 A 
ATOM     37  C   UNL A   1      44.008  30.647  33.624  1.00  0.00     0.049 A 
ATOM     38  H   UNL A   1      42.278  30.492  32.431  1.00  0.00     0.167 HD
ATOM     39  C   UNL A   1      44.773  29.304  31.669  1.00  0.00     0.074 A 
ATOM     40  C   UNL A   1      45.802  28.607  30.922  1.00  0.00     0.031 C 
ATOM     41  C   UNL A   1      44.992  29.938  32.848  1.00  0.00     0.037 A 
BRANCH  28  42
ATOM     42  C   UNL A   1      40.049  32.788  35.242  1.00  0.00     0.057 A 
ATOM     43  C   UNL A   1      40.156  34.183  35.278  1.00  0.00     0.134 A 
ATOM     44  C   UNL A   1      39.363  32.164  36.292  1.00  0.00     0.134 A 
ATOM     45  F   UNL A   1      40.826  34.840  34.319  1.00  0.00    -0.206 F 
ATOM     46  C   UNL A   1      39.612  34.929  36.327  1.00  0.00     0.040 A 
ATOM     47  C   UNL A   1      38.801  32.899  37.336  1.00  0.00     0.040 A 
ATOM     48  F   UNL A   1      39.236  30.828  36.322  1.00  0.00    -0.206 F 
ATOM     49  C   UNL A   1      38.928  34.286  37.358  1.00  0.00     0.006 A 
ENDBRANCH  28  42
BRANCH  29  50
ATOM     50  C   UNL A   1      43.587  27.334  27.552  1.00  0.00     0.057 A 
ATOM     51  C   UNL A   1      44.137  27.968  26.432  1.00  0.00     0.134 A 
ATOM     52  C   UNL A   1      43.527  25.933  27.528  1.00  0.00     0.134 A 
ATOM     53  F   UNL A   1      44.203  29.307  26.378  1.00  0.00    -0.206 F 
ATOM     54  C   UNL A   1      44.584  27.243  25.324  1.00  0.00     0.040 A 
ATOM     55  C   UNL A   1      43.997  25.196  26.440  1.00  0.00     0.040 A 
ATOM     56  F   UNL A   1      43.008  25.258  28.564  1.00  0.00    -0.206 F 
ATOM     57  C   UNL A   1      44.518  25.851  25.329  1.00  0.00     0.006 A 
ENDBRANCH  29  50
BRANCH  41  58
ATOM     58  C   UNL A   1      46.385  29.890  33.392  1.00  0.00     0.057 A 
ATOM     59  C   UNL A   1      46.813  28.842  34.216  1.00  0.00     0.134 A 
ATOM     60  C   UNL A   1      47.321  30.870  33.040  1.00  0.00     0.134 A 
ATOM     61  F   UNL A   1      45.956  27.883  34.597  1.00  0.00    -0.206 F 
ATOM     62  C   UNL A   1      48.124  28.780  34.687  1.00  0.00     0.040 A 
ATOM     63  C   UNL A   1      48.641  30.803  33.484  1.00  0.00     0.040 A 
ATOM     64  F   UNL A   1      46.971  31.892  32.244  1.00  0.00    -0.206 F 
ATOM     65  C   UNL A   1      49.044  29.759  34.312  1.00  0.00     0.006 A 
ENDBRANCH  41  58
ENDBRANCH  15  16
ENDBRANCH   8  10
ENDBRANCH   7   8
ENDBRANCH   6   7
ENDBRANCH   5   6
ENDBRANCH   4   5
ENDBRANCH   3   4
ENDBRANCH   2   3
ENDBRANCH   1   2
BRANCH   1  66
ATOM     66  C   UNL A   1      32.858  26.227  21.545  1.00  0.00     0.188 C 
BRANCH  66  67
ATOM     67  C   UNL A   1      32.899  24.685  21.540  1.00  0.00     0.188 C 
BRANCH  67  68
ATOM     68  O   UNL A   1      33.274  24.083  22.774  1.00  0.00    -0.376 OA
BRANCH  68  69
ATOM     69  C   UNL A   1      33.590  22.695  22.704  1.00  0.00     0.202 C 
BRANCH  69  70
ATOM     70  C   UNL A   1      32.363  21.781  22.744  1.00  0.00     0.261 C 
BRANCH  70  71
ATOM     71  O   UNL A   1      32.136  21.169  24.024  1.00  0.00    -0.460 OA
BRANCH  71  72
ATOM     72  C   UNL A   1      33.048  20.294  24.514  1.00  0.00     0.340 C 
ATOM     73  O   UNL A   1      33.207  19.138  24.163  1.00  0.00    -0.246 OA
BRANCH  72  74
ATOM     74  C   UNL A   1      33.980  21.075  25.374  1.00  0.00     0.085 A 
ATOM     75  C   UNL A   1      35.350  20.997  25.063  1.00  0.00     0.043 A 
ATOM     76  C   UNL A   1      33.530  21.982  26.351  1.00  0.00     0.055 A 
ATOM     77  C   UNL A   1      36.273  21.898  25.613  1.00  0.00     0.038 A 
ATOM     78  C   UNL A   1      34.447  22.884  26.890  1.00  0.00     0.029 A 
ATOM     79  C   UNL A   1      35.797  22.851  26.513  1.00  0.00     0.028 A 
BRANCH  76  80
ATOM     80  N   UNL A   1      32.163  22.039  26.671  1.00  0.00    -0.325 N 
ATOM     81  C   UNL A   1      31.170  22.917  26.379  1.00  0.00     0.227 C 
ATOM     82  H   UNL A   1      31.863  21.282  27.224  1.00  0.00     0.169 HD
ATOM     83  O   UNL A   1      30.031  22.618  26.760  1.00  0.00    -0.274 OA
BRANCH  81  84
ATOM     84  C   UNL A   1      31.374  24.244  25.658  1.00  0.00     0.079 C 
ATOM     85  C   UNL A   1      30.327  24.684  24.642  1.00  0.00     0.013 C 
ATOM     86  C   UNL A   1      31.618  25.390  26.627  1.00  0.00     0.013 C 
ATOM     87  C   UNL A   1      30.019  26.148  24.916  1.00  0.00     0.001 C 
ATOM     88  C   UNL A   1      30.890  26.603  26.077  1.00  0.00     0.001 C 
ENDBRANCH  81  84
ENDBRANCH  76  80
BRANCH  77  89
ATOM     89  N   UNL A   1      37.599  21.830  25.237  1.00  0.00    -0.368 N 
ATOM     90  C   UNL A   1      38.611  22.797  25.710  1.00  0.00     0.138 C 
ATOM     91  C   UNL A   1      38.122  20.507  24.841  1.00  0.00     0.138 C 
ATOM     92  C   UNL A   1      39.582  22.202  26.764  1.00  0.00     0.138 C 
ATOM     93  C   UNL A   1      39.016  19.921  25.956  1.00  0.00     0.138 C 
ATOM     94  N   UNL A   1      40.066  20.874  26.351  1.00  0.00    -0.368 N 
BRANCH  94  95
ATOM     95  C   UNL A   1      41.391  20.678  26.018  1.00  0.00     0.037 A 
ATOM     96  C   UNL A   1      42.258  21.772  25.870  1.00  0.00     0.029 A 
ATOM     97  C   UNL A   1      41.935  19.395  25.847  1.00  0.00     0.029 A 
ATOM     98  C   UNL A   1      43.617  21.595  25.588  1.00  0.00     0.041 A 
ATOM     99  C   UNL A   1      43.288  19.209  25.547  1.00  0.00     0.041 A 
ATOM    100  C   UNL A   1      44.118  20.313  25.429  1.00  0.00     0.123 A 
ATOM    101  F   UNL A   1      45.420  20.136  25.163  1.00  0.00    -0.207 F 
ENDBRANCH  94  95
ENDBRANCH  77  89
ENDBRANCH  72  74
ENDBRANCH  71  72
ENDBRANCH  70  71
ENDBRANCH  69  70
ENDBRANCH  68  69
ENDBRANCH  67  68
ENDBRANCH  66  67
ENDBRANCH   1  66
TORSDOF 24
ENDMDL
MODEL 3
REMARK VINA RESULT:      -9.2      5.726      7.568
REMARK SMILES O=C(OCCOCCOCCOCCOC(=O)c1cc(N2CCN(c3ccc(F)cc3)CC2)ccc1NC(=O)C1CCCC1)c1ccc(-c2c3nc(c(-c4c(F)cccc4F)c4ccc([nH]4)c(-c4c(F)cccc4F)c4nc(c(-c5c(F)cccc5F)c5ccc2[nH]5)C=C4)C=C3)cc1
REMARK SMILES IDX 9 1 8 2 7 3 6 4 5 5 4 6 3 7 2 8 1 9 45 10 46 11 98 12 47 13
REMARK SMILES IDX 97 14 48 15 49 16 50 17 91 18 51 19 96 20 90 21 92 22 52 23
REMARK SMILES IDX 95 24 89 25 88 26 53 28 79 29 62 30 78 31 63 32 66 33 77 34
REMARK SMILES IDX 93 35 64 36 65 37 76 39 94 40 67 41 54 42 55 43 60 44 56 45
REMARK SMILES IDX 57 46 59 47 61 48 58 49 80 50 81 51 86 52 82 53 83 54 85 55
REMARK SMILES IDX 87 56 84 57 68 58 69 59 74 60 70 61 71 62 73 63 75 64 72 65
REMARK SMILES IDX 10 66 11 67 12 68 13 69 14 70 15 71 16 72 17 73 18 74 19 75
REMARK SMILES IDX 36 76 20 77 35 78 34 79 37 80 38 81 39 83 40 84 41 85 44 86
REMARK SMILES IDX 42 87 43 88 21 89 22 90 33 91 23 92 32 93 24 94 25 95 26 96
REMARK SMILES IDX 31 97 27 98 30 99 28 100 29 101
REMARK H PARENT 92 27 66 38 37 82
REMARK Flexibility Score: inf
ROOT
ATOM      1  O   UNL A   1      32.809  31.195  27.296  1.00  0.00    -0.377 OA
ENDROOT
BRANCH   1   2
ATOM      2  C   UNL A   1      34.160  30.745  27.402  1.00  0.00     0.188 C 
BRANCH   2   3
ATOM      3  C   UNL A   1      35.086  31.673  28.190  1.00  0.00     0.188 C 
BRANCH   3   4
ATOM      4  O   UNL A   1      34.450  32.092  29.401  1.00  0.00    -0.376 OA
BRANCH   4   5
ATOM      5  C   UNL A   1      35.225  31.911  30.585  1.00  0.00     0.202 C 
BRANCH   5   6
ATOM      6  C   UNL A   1      35.986  30.587  30.612  1.00  0.00     0.261 C 
BRANCH   6   7
ATOM      7  O   UNL A   1      36.399  30.241  31.941  1.00  0.00    -0.460 OA
BRANCH   7   8
ATOM      8  C   UNL A   1      37.653  29.959  32.370  1.00  0.00     0.338 C 
ATOM      9  O   UNL A   1      37.779  29.154  33.293  1.00  0.00    -0.246 OA
BRANCH   8  10
ATOM     10  C   UNL A   1      38.906  30.533  31.778  1.00  0.00     0.060 A 
ATOM     11  C   UNL A   1      39.882  31.261  32.466  1.00  0.00     0.016 A 
ATOM     12  C   UNL A   1      39.149  30.244  30.423  1.00  0.00     0.016 A 
ATOM     13  C   UNL A   1      41.034  31.720  31.838  1.00  0.00     0.010 A 
ATOM     14  C   UNL A   1      40.313  30.685  29.784  1.00  0.00     0.010 A 
ATOM     15  C   UNL A   1      41.251  31.439  30.494  1.00  0.00    -0.014 A 
BRANCH  15  16
ATOM     16  C   UNL A   1      42.409  32.062  29.832  1.00  0.00     0.031 A 
ATOM     17  C   UNL A   1      43.542  31.176  29.416  1.00  0.00     0.074 A 
ATOM     18  C   UNL A   1      42.379  33.368  29.514  1.00  0.00     0.049 A 
ATOM     19  N   UNL A   1      44.688  31.493  28.881  1.00  0.00    -0.248 NA
ATOM     20  C   UNL A   1      43.346  29.728  29.615  1.00  0.00     0.031 C 
ATOM     21  C   UNL A   1      41.256  34.274  29.767  1.00  0.00     0.029 A 
ATOM     22  N   UNL A   1      43.312  34.157  28.894  1.00  0.00    -0.354 N 
ATOM     23  C   UNL A   1      45.362  30.292  28.708  1.00  0.00     0.074 A 
ATOM     24  C   UNL A   1      44.496  29.237  29.183  1.00  0.00     0.031 C 
ATOM     25  C   UNL A   1      41.569  35.497  29.307  1.00  0.00     0.029 A 
ATOM     26  C   UNL A   1      42.932  35.473  28.787  1.00  0.00     0.049 A 
ATOM     27  H   UNL A   1      44.170  33.813  28.557  1.00  0.00     0.167 HD
ATOM     28  C   UNL A   1      46.603  30.100  28.210  1.00  0.00     0.037 A 
ATOM     29  C   UNL A   1      43.637  36.538  28.360  1.00  0.00     0.037 A 
ATOM     30  C   UNL A   1      47.439  31.172  27.745  1.00  0.00     0.049 A 
ATOM     31  C   UNL A   1      45.054  36.307  27.906  1.00  0.00     0.074 A 
ATOM     32  C   UNL A   1      48.733  31.115  27.261  1.00  0.00     0.029 A 
ATOM     33  N   UNL A   1      47.052  32.505  27.716  1.00  0.00    -0.354 N 
ATOM     34  N   UNL A   1      45.712  35.176  27.788  1.00  0.00    -0.248 NA
ATOM     35  C   UNL A   1      45.839  37.497  27.550  1.00  0.00     0.031 C 
ATOM     36  C   UNL A   1      49.144  32.422  26.979  1.00  0.00     0.029 A 
ATOM     37  C   UNL A   1      48.092  33.287  27.247  1.00  0.00     0.049 A 
ATOM     38  H   UNL A   1      46.169  32.843  27.988  1.00  0.00     0.167 HD
ATOM     39  C   UNL A   1      46.980  35.516  27.341  1.00  0.00     0.074 A 
ATOM     40  C   UNL A   1      46.991  36.956  27.179  1.00  0.00     0.031 C 
ATOM     41  C   UNL A   1      48.050  34.718  27.096  1.00  0.00     0.037 A 
BRANCH  28  42
ATOM     42  C   UNL A   1      47.140  28.702  28.221  1.00  0.00     0.057 A 
ATOM     43  C   UNL A   1      47.031  27.850  27.116  1.00  0.00     0.134 A 
ATOM     44  C   UNL A   1      47.766  28.199  29.368  1.00  0.00     0.134 A 
ATOM     45  F   UNL A   1      46.416  28.262  25.997  1.00  0.00    -0.206 F 
ATOM     46  C   UNL A   1      47.515  26.541  27.156  1.00  0.00     0.040 A 
ATOM     47  C   UNL A   1      48.268  26.898  29.415  1.00  0.00     0.040 A 
ATOM     48  F   UNL A   1      47.890  28.962  30.465  1.00  0.00    -0.206 F 
ATOM     49  C   UNL A   1      48.140  26.063  28.307  1.00  0.00     0.006 A 
ENDBRANCH  28  42
BRANCH  29  50
ATOM     50  C   UNL A   1      43.062  37.907  28.418  1.00  0.00     0.057 A 
ATOM     51  C   UNL A   1      42.265  38.415  27.386  1.00  0.00     0.134 A 
ATOM     52  C   UNL A   1      43.336  38.765  29.493  1.00  0.00     0.134 A 
ATOM     53  F   UNL A   1      41.983  37.657  26.315  1.00  0.00    -0.206 F 
ATOM     54  C   UNL A   1      41.785  39.727  27.406  1.00  0.00     0.040 A 
ATOM     55  C   UNL A   1      42.838  40.068  29.541  1.00  0.00     0.040 A 
ATOM     56  F   UNL A   1      44.096  38.349  30.517  1.00  0.00    -0.206 F 
ATOM     57  C   UNL A   1      42.068  40.557  28.489  1.00  0.00     0.006 A 
ENDBRANCH  29  50
BRANCH  41  58
ATOM     58  C   UNL A   1      49.299  35.392  26.622  1.00  0.00     0.057 A 
ATOM     59  C   UNL A   1      49.515  35.661  25.265  1.00  0.00     0.134 A 
ATOM     60  C   UNL A   1      50.267  35.825  27.536  1.00  0.00     0.134 A 
ATOM     61  F   UNL A   1      48.629  35.257  24.342  1.00  0.00    -0.206 F 
ATOM     62  C   UNL A   1      50.661  36.326  24.831  1.00  0.00     0.040 A 
ATOM     63  C   UNL A   1      51.404  36.513  27.116  1.00  0.00     0.040 A 
ATOM     64  F   UNL A   1      50.109  35.604  28.851  1.00  0.00    -0.206 F 
ATOM     65  C   UNL A   1      51.605  36.762  25.761  1.00  0.00     0.006 A 
ENDBRANCH  41  58
ENDBRANCH  15  16
ENDBRANCH   8  10
ENDBRANCH   7   8
ENDBRANCH   6   7
ENDBRANCH   5   6
ENDBRANCH   4   5
ENDBRANCH   3   4
ENDBRANCH   2   3
ENDBRANCH   1   2
BRANCH   1  66
ATOM     66  C   UNL A   1      31.953  30.443  26.444  1.00  0.00     0.188 C 
BRANCH  66  67
ATOM     67  C   UNL A   1      32.577  29.432  25.460  1.00  0.00     0.188 C 
BRANCH  67  68
ATOM     68  O   UNL A   1      31.986  28.138  25.463  1.00  0.00    -0.376 OA
BRANCH  68  69
ATOM     69  C   UNL A   1      32.615  27.183  26.315  1.00  0.00     0.202 C 
BRANCH  69  70
ATOM     70  C   UNL A   1      34.088  26.936  25.982  1.00  0.00     0.261 C 
BRANCH  70  71
ATOM     71  O   UNL A   1      34.422  25.548  25.815  1.00  0.00    -0.460 OA
BRANCH  71  72
ATOM     72  C   UNL A   1      34.518  25.033  24.565  1.00  0.00     0.340 C 
ATOM     73  O   UNL A   1      34.066  25.517  23.543  1.00  0.00    -0.246 OA
BRANCH  72  74
ATOM     74  C   UNL A   1      35.488  23.904  24.634  1.00  0.00     0.085 A 
ATOM     75  C   UNL A   1      36.612  24.080  25.462  1.00  0.00     0.043 A 
ATOM     76  C   UNL A   1      35.237  22.652  24.043  1.00  0.00     0.055 A 
ATOM     77  C   UNL A   1      37.427  22.997  25.822  1.00  0.00     0.038 A 
ATOM     78  C   UNL A   1      36.043  21.574  24.409  1.00  0.00     0.029 A 
ATOM     79  C   UNL A   1      37.112  21.743  25.298  1.00  0.00     0.028 A 
BRANCH  76  80
ATOM     80  N   UNL A   1      34.124  22.490  23.201  1.00  0.00    -0.325 N 
ATOM     81  C   UNL A   1      32.800  22.296  23.427  1.00  0.00     0.227 C 
ATOM     82  H   UNL A   1      34.354  22.525  22.244  1.00  0.00     0.169 HD
ATOM     83  O   UNL A   1      32.062  22.276  22.434  1.00  0.00    -0.274 OA
BRANCH  81  84
ATOM     84  C   UNL A   1      32.184  22.066  24.801  1.00  0.00     0.079 C 
ATOM     85  C   UNL A   1      33.010  21.332  25.851  1.00  0.00     0.013 C 
ATOM     86  C   UNL A   1      31.658  23.354  25.415  1.00  0.00     0.013 C 
ATOM     87  C   UNL A   1      32.887  22.114  27.150  1.00  0.00     0.001 C 
ATOM     88  C   UNL A   1      31.973  23.304  26.900  1.00  0.00     0.001 C 
ENDBRANCH  81  84
ENDBRANCH  76  80
BRANCH  77  89
ATOM     89  N   UNL A   1      38.484  23.197  26.685  1.00  0.00    -0.368 N 
ATOM     90  C   UNL A   1      39.630  22.268  26.769  1.00  0.00     0.138 C 
ATOM     91  C   UNL A   1      38.762  24.585  27.103  1.00  0.00     0.138 C 
ATOM     92  C   UNL A   1      40.926  22.833  26.129  1.00  0.00     0.138 C 
ATOM     93  C   UNL A   1      40.012  25.131  26.379  1.00  0.00     0.138 C 
ATOM     94  N   UNL A   1      41.161  24.226  26.547  1.00  0.00    -0.368 N 
BRANCH  94  95
ATOM     95  C   UNL A   1      42.231  24.549  27.357  1.00  0.00     0.037 A 
ATOM     96  C   UNL A   1      42.227  25.741  28.099  1.00  0.00     0.029 A 
ATOM     97  C   UNL A   1      43.339  23.701  27.501  1.00  0.00     0.029 A 
ATOM     98  C   UNL A   1      43.275  26.062  28.970  1.00  0.00     0.041 A 
ATOM     99  C   UNL A   1      44.399  24.022  28.356  1.00  0.00     0.041 A 
ATOM    100  C   UNL A   1      44.352  25.198  29.088  1.00  0.00     0.123 A 
ATOM    101  F   UNL A   1      45.356  25.498  29.923  1.00  0.00    -0.207 F 
ENDBRANCH  94  95
ENDBRANCH  77  89
ENDBRANCH  72  74
ENDBRANCH  71  72
ENDBRANCH  70  71
ENDBRANCH  69  70
ENDBRANCH  68  69
ENDBRANCH  67  68
ENDBRANCH  66  67
ENDBRANCH   1  66
TORSDOF 24
ENDMDL
