MODEL 1
REMARK VINA RESULT:     -10.7      0.000      0.000
REMARK SMILES NS(=O)(=O)c1ccc(-c2cc(Cl)cc3c2O[C@@H](C(F)(F)F)C(C(=O)OCCOCCOCCOCCOC(=O)c2ccc(-c4c5nc(c(-c6c(F)cccc6F)c6ccc([nH]6)c(-c6c(F)cccc6F)c6nc(c(-c7c(F)cccc7F)c7ccc4[nH]7)C=C6)C=C5)cc2)=C3)cc1
REMARK SMILES IDX 30 1 29 2 28 3 27 4 26 5 25 6 23 7 24 8 22 9 9 10 10 11
REMARK SMILES IDX 15 12 11 13 14 14 16 15 12 16 13 17 94 18 17 19 8 20 5 21
REMARK SMILES IDX 6 22 96 23 7 24 95 25 2 26 3 27 4 28 1 29 18 32 19 33 20 34
REMARK SMILES IDX 21 35 31 36 32 37 33 38 34 39 35 40 36 41 37 42 38 43 39 44
REMARK SMILES IDX 40 45 41 46 93 47 42 48 92 49 43 50 44 51 45 52 86 53 46 54
REMARK SMILES IDX 91 55 85 56 87 57 47 58 90 59 84 60 83 61 48 63 74 64 57 65
REMARK SMILES IDX 73 66 58 67 61 68 72 69 88 70 59 71 60 72 71 74 89 75 62 76
REMARK SMILES IDX 49 77 50 78 55 79 51 80 52 81 54 82 56 83 53 84 75 85 76 86
REMARK SMILES IDX 81 87 77 88 78 89 80 90 82 91 79 92 63 93 64 94 69 95 65 96
REMARK SMILES IDX 66 97 68 98 70 99 67 100
REMARK H PARENT 1 30 1 31 87 62 61 73
REMARK Flexibility Score: inf
ROOT
ATOM      1  C   UNL A   1      32.898  30.547  27.092  1.00  0.00     0.188 C 
ENDROOT
BRANCH   1   2
ATOM      2  C   UNL A   1      34.177  29.852  27.580  1.00  0.00     0.188 C 
BRANCH   2   3
ATOM      3  O   UNL A   1      34.715  28.916  26.650  1.00  0.00    -0.376 OA
BRANCH   3   4
ATOM      4  C   UNL A   1      34.014  28.726  25.423  1.00  0.00     0.202 C 
BRANCH   4   5
ATOM      5  C   UNL A   1      33.564  27.301  25.076  1.00  0.00     0.261 C 
BRANCH   5   6
ATOM      6  O   UNL A   1      32.309  27.327  24.359  1.00  0.00    -0.460 OA
BRANCH   6   7
ATOM      7  C   UNL A   1      32.372  27.004  23.057  1.00  0.00     0.338 C 
ATOM      8  O   UNL A   1      33.045  27.595  22.223  1.00  0.00    -0.246 OA
BRANCH   7   9
ATOM      9  C   UNL A   1      31.677  25.727  22.752  1.00  0.00     0.087 C 
ATOM     10  C   UNL A   1      33.135  22.404  24.771  1.00  0.00     0.026 A 
ATOM     11  C   UNL A   1      34.515  22.623  25.000  1.00  0.00     0.033 A 
ATOM     12  C   UNL A   1      32.477  23.383  23.995  1.00  0.00     0.135 A 
ATOM     13  C   UNL A   1      35.232  23.560  24.258  1.00  0.00     0.042 A 
ATOM     14  C   UNL A   1      33.234  24.143  23.087  1.00  0.00     0.019 A 
ATOM     15  O   UNL A   1      31.169  23.770  24.279  1.00  0.00    -0.475 OA
ATOM     16  Cl  UNL A   1      36.906  23.790  24.562  1.00  0.00    -0.084 Cl
ATOM     17  C   UNL A   1      34.614  24.246  23.224  1.00  0.00     0.032 A 
ATOM     18  C   UNL A   1      32.515  24.931  22.064  1.00  0.00     0.027 C 
ATOM     19  C   UNL A   1      30.642  24.982  23.577  1.00  0.00     0.316 C 
BRANCH  10  20
ATOM     20  C   UNL A   1      32.714  20.964  24.858  1.00  0.00    -0.015 A 
ATOM     21  C   UNL A   1      32.877  18.122  24.794  1.00  0.00     0.082 A 
ATOM     22  C   UNL A   1      32.989  18.800  26.009  1.00  0.00     0.022 A 
ATOM     23  C   UNL A   1      32.600  18.833  23.627  1.00  0.00     0.022 A 
ATOM     24  C   UNL A   1      32.894  20.205  26.038  1.00  0.00     0.010 A 
ATOM     25  C   UNL A   1      32.510  20.236  23.665  1.00  0.00     0.010 A 
BRANCH  21  26
ATOM     26  S   UNL A   1      33.135  16.368  24.721  1.00  0.00     0.238 S 
ATOM     27  O   UNL A   1      33.542  16.003  23.382  1.00  0.00    -0.207 OA
ATOM     28  O   UNL A   1      32.053  15.712  25.413  1.00  0.00    -0.207 OA
BRANCH  26  29
ATOM     29  N   UNL A   1      34.508  16.125  25.666  1.00  0.00    -0.225 NA
ATOM     30  H   UNL A   1      35.131  15.467  25.197  1.00  0.00     0.137 HD
ATOM     31  H   UNL A   1      34.234  15.747  26.573  1.00  0.00     0.137 HD
ENDBRANCH  26  29
ENDBRANCH  21  26
ENDBRANCH  10  20
BRANCH  19  32
ATOM     32  C   UNL A   1      29.606  25.824  24.366  1.00  0.00     0.430 C 
ATOM     33  F   UNL A   1      28.434  25.859  23.675  1.00  0.00    -0.167 F 
ATOM     34  F   UNL A   1      29.326  25.263  25.567  1.00  0.00    -0.167 F 
ATOM     35  F   UNL A   1      29.939  27.101  24.597  1.00  0.00    -0.167 F 
ENDBRANCH  19  32
ENDBRANCH   7   9
ENDBRANCH   6   7
ENDBRANCH   5   6
ENDBRANCH   4   5
ENDBRANCH   3   4
ENDBRANCH   2   3
ENDBRANCH   1   2
BRANCH   1  36
ATOM     36  O   UNL A   1      32.873  31.928  27.396  1.00  0.00    -0.377 OA
BRANCH  36  37
ATOM     37  C   UNL A   1      34.061  32.503  27.931  1.00  0.00     0.188 C 
BRANCH  37  38
ATOM     38  C   UNL A   1      34.035  33.855  28.682  1.00  0.00     0.188 C 
BRANCH  38  39
ATOM     39  O   UNL A   1      35.292  34.259  29.221  1.00  0.00    -0.376 OA
BRANCH  39  40
ATOM     40  C   UNL A   1      35.501  34.045  30.610  1.00  0.00     0.202 C 
BRANCH  40  41
ATOM     41  C   UNL A   1      36.587  33.007  30.923  1.00  0.00     0.261 C 
BRANCH  41  42
ATOM     42  O   UNL A   1      36.374  31.719  30.328  1.00  0.00    -0.460 OA
BRANCH  42  43
ATOM     43  C   UNL A   1      36.671  30.642  31.087  1.00  0.00     0.338 C 
ATOM     44  O   UNL A   1      35.999  30.161  31.980  1.00  0.00    -0.246 OA
BRANCH  43  45
ATOM     45  C   UNL A   1      37.876  30.005  30.520  1.00  0.00     0.060 A 
ATOM     46  C   UNL A   1      38.724  29.298  31.383  1.00  0.00     0.016 A 
ATOM     47  C   UNL A   1      38.163  30.095  29.155  1.00  0.00     0.016 A 
ATOM     48  C   UNL A   1      39.892  28.721  30.888  1.00  0.00     0.010 A 
ATOM     49  C   UNL A   1      39.343  29.534  28.664  1.00  0.00     0.010 A 
ATOM     50  C   UNL A   1      40.231  28.881  29.538  1.00  0.00    -0.014 A 
BRANCH  50  51
ATOM     51  C   UNL A   1      41.612  28.573  29.099  1.00  0.00     0.031 A 
ATOM     52  C   UNL A   1      41.901  27.179  28.615  1.00  0.00     0.074 A 
ATOM     53  C   UNL A   1      42.576  29.509  29.095  1.00  0.00     0.049 A 
ATOM     54  N   UNL A   1      43.020  26.669  28.167  1.00  0.00    -0.248 NA
ATOM     55  C   UNL A   1      40.775  26.230  28.639  1.00  0.00     0.031 C 
ATOM     56  C   UNL A   1      42.412  30.899  29.517  1.00  0.00     0.029 A 
ATOM     57  N   UNL A   1      43.894  29.421  28.722  1.00  0.00    -0.354 N 
ATOM     58  C   UNL A   1      42.731  25.349  27.855  1.00  0.00     0.074 A 
ATOM     59  C   UNL A   1      41.344  25.121  28.194  1.00  0.00     0.031 C 
ATOM     60  C   UNL A   1      43.592  31.532  29.390  1.00  0.00     0.029 A 
ATOM     61  C   UNL A   1      44.594  30.589  28.896  1.00  0.00     0.049 A 
ATOM     62  H   UNL A   1      44.298  28.598  28.364  1.00  0.00     0.167 HD
ATOM     63  C   UNL A   1      43.545  24.408  27.321  1.00  0.00     0.037 A 
ATOM     64  C   UNL A   1      45.899  30.854  28.690  1.00  0.00     0.037 A 
ATOM     65  C   UNL A   1      44.925  24.630  26.988  1.00  0.00     0.049 A 
ATOM     66  C   UNL A   1      46.801  29.772  28.155  1.00  0.00     0.074 A 
ATOM     67  C   UNL A   1      45.827  23.747  26.422  1.00  0.00     0.029 A 
ATOM     68  N   UNL A   1      45.605  25.818  27.204  1.00  0.00    -0.354 N 
ATOM     69  N   UNL A   1      46.507  28.539  27.816  1.00  0.00    -0.248 NA
ATOM     70  C   UNL A   1      48.219  30.119  27.970  1.00  0.00     0.031 C 
ATOM     71  C   UNL A   1      47.067  24.387  26.337  1.00  0.00     0.029 A 
ATOM     72  C   UNL A   1      46.924  25.683  26.807  1.00  0.00     0.049 A 
ATOM     73  H   UNL A   1      45.209  26.636  27.583  1.00  0.00     0.167 HD
ATOM     74  C   UNL A   1      47.690  27.977  27.352  1.00  0.00     0.074 A 
ATOM     75  C   UNL A   1      48.705  29.005  27.441  1.00  0.00     0.031 C 
ATOM     76  C   UNL A   1      47.918  26.721  26.893  1.00  0.00     0.037 A 
BRANCH  63  77
ATOM     77  C   UNL A   1      42.963  23.048  27.084  1.00  0.00     0.057 A 
ATOM     78  C   UNL A   1      42.717  22.157  28.137  1.00  0.00     0.134 A 
ATOM     79  C   UNL A   1      42.619  22.636  25.792  1.00  0.00     0.134 A 
ATOM     80  F   UNL A   1      43.043  22.485  29.396  1.00  0.00    -0.206 F 
ATOM     81  C   UNL A   1      42.163  20.896  27.909  1.00  0.00     0.040 A 
ATOM     82  C   UNL A   1      42.044  21.387  25.554  1.00  0.00     0.040 A 
ATOM     83  F   UNL A   1      42.831  23.441  24.740  1.00  0.00    -0.206 F 
ATOM     84  C   UNL A   1      41.817  20.512  26.614  1.00  0.00     0.006 A 
ENDBRANCH  63  77
BRANCH  64  85
ATOM     85  C   UNL A   1      46.447  32.199  29.001  1.00  0.00     0.057 A 
ATOM     86  C   UNL A   1      46.515  33.202  28.027  1.00  0.00     0.134 A 
ATOM     87  C   UNL A   1      46.959  32.499  30.270  1.00  0.00     0.134 A 
ATOM     88  F   UNL A   1      46.067  32.967  26.785  1.00  0.00    -0.206 F 
ATOM     89  C   UNL A   1      47.093  34.444  28.294  1.00  0.00     0.040 A 
ATOM     90  C   UNL A   1      47.516  33.745  30.559  1.00  0.00     0.040 A 
ATOM     91  F   UNL A   1      46.928  31.581  31.247  1.00  0.00    -0.206 F 
ATOM     92  C   UNL A   1      47.592  34.720  29.566  1.00  0.00     0.006 A 
ENDBRANCH  64  85
BRANCH  76  93
ATOM     93  C   UNL A   1      49.305  26.398  26.420  1.00  0.00     0.057 A 
ATOM     94  C   UNL A   1      50.207  25.677  27.212  1.00  0.00     0.134 A 
ATOM     95  C   UNL A   1      49.726  26.770  25.136  1.00  0.00     0.134 A 
ATOM     96  F   UNL A   1      49.870  25.300  28.455  1.00  0.00    -0.206 F 
ATOM     97  C   UNL A   1      51.485  25.355  26.752  1.00  0.00     0.040 A 
ATOM     98  C   UNL A   1      50.990  26.431  24.655  1.00  0.00     0.040 A 
ATOM     99  F   UNL A   1      48.905  27.453  24.323  1.00  0.00    -0.206 F 
ATOM    100  C   UNL A   1      51.876  25.726  25.467  1.00  0.00     0.006 A 
ENDBRANCH  76  93
ENDBRANCH  50  51
ENDBRANCH  43  45
ENDBRANCH  42  43
ENDBRANCH  41  42
ENDBRANCH  40  41
ENDBRANCH  39  40
ENDBRANCH  38  39
ENDBRANCH  37  38
ENDBRANCH  36  37
ENDBRANCH   1  36
TORSDOF 24
ENDMDL
MODEL 2
REMARK VINA RESULT:     -10.3      0.639      5.847
REMARK SMILES NS(=O)(=O)c1ccc(-c2cc(Cl)cc3c2O[C@@H](C(F)(F)F)C(C(=O)OCCOCCOCCOCCOC(=O)c2ccc(-c4c5nc(c(-c6c(F)cccc6F)c6ccc([nH]6)c(-c6c(F)cccc6F)c6nc(c(-c7c(F)cccc7F)c7ccc4[nH]7)C=C6)C=C5)cc2)=C3)cc1
REMARK SMILES IDX 30 1 29 2 28 3 27 4 26 5 25 6 23 7 24 8 22 9 9 10 10 11
REMARK SMILES IDX 15 12 11 13 14 14 16 15 12 16 13 17 94 18 17 19 8 20 5 21
REMARK SMILES IDX 6 22 96 23 7 24 95 25 2 26 3 27 4 28 1 29 18 32 19 33 20 34
REMARK SMILES IDX 21 35 31 36 32 37 33 38 34 39 35 40 36 41 37 42 38 43 39 44
REMARK SMILES IDX 40 45 41 46 93 47 42 48 92 49 43 50 44 51 45 52 86 53 46 54
REMARK SMILES IDX 91 55 85 56 87 57 47 58 90 59 84 60 83 61 48 63 74 64 57 65
REMARK SMILES IDX 73 66 58 67 61 68 72 69 88 70 59 71 60 72 71 74 89 75 62 76
REMARK SMILES IDX 49 77 50 78 55 79 51 80 52 81 54 82 56 83 53 84 75 85 76 86
REMARK SMILES IDX 81 87 77 88 78 89 80 90 82 91 79 92 63 93 64 94 69 95 65 96
REMARK SMILES IDX 66 97 68 98 70 99 67 100
REMARK H PARENT 1 30 1 31 87 62 61 73
REMARK Flexibility Score: inf
ROOT
ATOM      1  C   UNL A   1      32.924  30.492  26.865  1.00  0.00     0.188 C 
ENDROOT
BRANCH   1   2
ATOM      2  C   UNL A   1      34.107  29.771  27.526  1.00  0.00     0.188 C 
BRANCH   2   3
ATOM      3  O   UNL A   1      34.740  28.810  26.685  1.00  0.00    -0.376 OA
BRANCH   3   4
ATOM      4  C   UNL A   1      34.138  28.540  25.420  1.00  0.00     0.202 C 
BRANCH   4   5
ATOM      5  C   UNL A   1      33.611  27.120  25.175  1.00  0.00     0.261 C 
BRANCH   5   6
ATOM      6  O   UNL A   1      32.221  27.158  24.781  1.00  0.00    -0.460 OA
BRANCH   6   7
ATOM      7  C   UNL A   1      31.972  26.921  23.483  1.00  0.00     0.338 C 
ATOM      8  O   UNL A   1      32.427  27.575  22.555  1.00  0.00    -0.246 OA
BRANCH   7   9
ATOM      9  C   UNL A   1      31.225  25.656  23.266  1.00  0.00     0.087 C 
ATOM     10  C   UNL A   1      33.104  22.237  24.691  1.00  0.00     0.026 A 
ATOM     11  C   UNL A   1      34.500  22.461  24.612  1.00  0.00     0.033 A 
ATOM     12  C   UNL A   1      32.287  23.252  24.148  1.00  0.00     0.135 A 
ATOM     13  C   UNL A   1      35.029  23.450  23.784  1.00  0.00     0.042 A 
ATOM     14  C   UNL A   1      32.817  24.075  23.139  1.00  0.00     0.019 A 
ATOM     15  O   UNL A   1      31.079  23.603  24.746  1.00  0.00    -0.475 OA
ATOM     16  Cl  UNL A   1      36.729  23.684  23.712  1.00  0.00    -0.084 Cl
ATOM     17  C   UNL A   1      34.191  24.189  22.963  1.00  0.00     0.032 A 
ATOM     18  C   UNL A   1      31.883  24.914  22.358  1.00  0.00     0.027 C 
ATOM     19  C   UNL A   1      30.406  24.848  24.259  1.00  0.00     0.316 C 
BRANCH  10  20
ATOM     20  C   UNL A   1      32.714  20.789  24.783  1.00  0.00    -0.015 A 
ATOM     21  C   UNL A   1      32.942  17.951  24.753  1.00  0.00     0.082 A 
ATOM     22  C   UNL A   1      33.009  18.643  25.963  1.00  0.00     0.022 A 
ATOM     23  C   UNL A   1      32.677  18.644  23.572  1.00  0.00     0.022 A 
ATOM     24  C   UNL A   1      32.882  20.046  25.974  1.00  0.00     0.010 A 
ATOM     25  C   UNL A   1      32.554  20.045  23.593  1.00  0.00     0.010 A 
BRANCH  21  26
ATOM     26  S   UNL A   1      33.240  16.203  24.704  1.00  0.00     0.238 S 
ATOM     27  O   UNL A   1      33.657  15.828  23.371  1.00  0.00    -0.207 OA
ATOM     28  O   UNL A   1      32.173  15.531  25.405  1.00  0.00    -0.207 OA
BRANCH  26  29
ATOM     29  N   UNL A   1      34.618  16.005  25.653  1.00  0.00    -0.225 NA
ATOM     30  H   UNL A   1      35.049  15.104  25.443  1.00  0.00     0.137 HD
ATOM     31  H   UNL A   1      34.360  16.037  26.639  1.00  0.00     0.137 HD
ENDBRANCH  26  29
ENDBRANCH  21  26
ENDBRANCH  10  20
BRANCH  19  32
ATOM     32  C   UNL A   1      29.579  25.627  25.314  1.00  0.00     0.430 C 
ATOM     33  F   UNL A   1      29.255  24.791  26.339  1.00  0.00    -0.167 F 
ATOM     34  F   UNL A   1      30.298  26.638  25.857  1.00  0.00    -0.167 F 
ATOM     35  F   UNL A   1      28.423  26.153  24.885  1.00  0.00    -0.167 F 
ENDBRANCH  19  32
ENDBRANCH   7   9
ENDBRANCH   6   7
ENDBRANCH   5   6
ENDBRANCH   4   5
ENDBRANCH   3   4
ENDBRANCH   2   3
ENDBRANCH   1   2
BRANCH   1  36
ATOM     36  O   UNL A   1      32.865  31.866  27.195  1.00  0.00    -0.377 OA
BRANCH  36  37
ATOM     37  C   UNL A   1      33.963  32.415  27.917  1.00  0.00     0.188 C 
BRANCH  37  38
ATOM     38  C   UNL A   1      33.786  33.638  28.846  1.00  0.00     0.188 C 
BRANCH  38  39
ATOM     39  O   UNL A   1      34.971  34.043  29.528  1.00  0.00    -0.376 OA
BRANCH  39  40
ATOM     40  C   UNL A   1      35.055  33.744  30.915  1.00  0.00     0.202 C 
BRANCH  40  41
ATOM     41  C   UNL A   1      36.237  32.840  31.287  1.00  0.00     0.261 C 
BRANCH  41  42
ATOM     42  O   UNL A   1      36.276  31.587  30.588  1.00  0.00    -0.460 OA
BRANCH  42  43
ATOM     43  C   UNL A   1      36.782  30.531  31.261  1.00  0.00     0.338 C 
ATOM     44  O   UNL A   1      36.181  29.763  31.989  1.00  0.00    -0.246 OA
BRANCH  43  45
ATOM     45  C   UNL A   1      38.174  30.330  30.812  1.00  0.00     0.060 A 
ATOM     46  C   UNL A   1      38.482  30.577  29.468  1.00  0.00     0.016 A 
ATOM     47  C   UNL A   1      39.165  29.911  31.704  1.00  0.00     0.016 A 
ATOM     48  C   UNL A   1      39.776  30.357  29.001  1.00  0.00     0.010 A 
ATOM     49  C   UNL A   1      40.456  29.671  31.231  1.00  0.00     0.010 A 
ATOM     50  C   UNL A   1      40.754  29.854  29.869  1.00  0.00    -0.014 A 
BRANCH  50  51
ATOM     51  C   UNL A   1      42.007  29.302  29.303  1.00  0.00     0.031 A 
ATOM     52  C   UNL A   1      43.192  30.222  29.188  1.00  0.00     0.074 A 
ATOM     53  C   UNL A   1      42.107  28.015  28.932  1.00  0.00     0.049 A 
ATOM     54  N   UNL A   1      44.396  29.975  28.743  1.00  0.00    -0.248 NA
ATOM     55  C   UNL A   1      42.989  31.610  29.638  1.00  0.00     0.031 C 
ATOM     56  C   UNL A   1      41.038  27.021  29.018  1.00  0.00     0.029 A 
ATOM     57  N   UNL A   1      43.169  27.326  28.403  1.00  0.00    -0.354 N 
ATOM     58  C   UNL A   1      45.092  31.170  28.862  1.00  0.00     0.074 A 
ATOM     59  C   UNL A   1      44.170  32.152  29.389  1.00  0.00     0.031 C 
ATOM     60  C   UNL A   1      41.497  25.849  28.544  1.00  0.00     0.029 A 
ATOM     61  C   UNL A   1      42.883  26.016  28.107  1.00  0.00     0.049 A 
ATOM     62  H   UNL A   1      44.052  27.732  28.250  1.00  0.00     0.167 HD
ATOM     63  C   UNL A   1      46.388  31.427  28.570  1.00  0.00     0.037 A 
ATOM     64  C   UNL A   1      43.653  25.069  27.536  1.00  0.00     0.037 A 
ATOM     65  C   UNL A   1      47.305  30.455  28.041  1.00  0.00     0.049 A 
ATOM     66  C   UNL A   1      45.075  25.398  27.160  1.00  0.00     0.074 A 
ATOM     67  C   UNL A   1      48.644  30.612  27.734  1.00  0.00     0.029 A 
ATOM     68  N   UNL A   1      46.971  29.146  27.730  1.00  0.00    -0.354 N 
ATOM     69  N   UNL A   1      45.740  26.517  27.323  1.00  0.00    -0.248 NA
ATOM     70  C   UNL A   1      45.859  24.327  26.523  1.00  0.00     0.031 C 
ATOM     71  C   UNL A   1      49.110  29.410  27.193  1.00  0.00     0.029 A 
ATOM     72  C   UNL A   1      48.072  28.492  27.208  1.00  0.00     0.049 A 
ATOM     73  H   UNL A   1      46.082  28.743  27.861  1.00  0.00     0.167 HD
ATOM     74  C   UNL A   1      47.020  26.277  26.839  1.00  0.00     0.074 A 
ATOM     75  C   UNL A   1      47.045  24.902  26.387  1.00  0.00     0.031 C 
ATOM     76  C   UNL A   1      48.081  27.119  26.773  1.00  0.00     0.037 A 
BRANCH  63  77
ATOM     77  C   UNL A   1      46.883  32.823  28.800  1.00  0.00     0.057 A 
ATOM     78  C   UNL A   1      46.806  33.806  27.805  1.00  0.00     0.134 A 
ATOM     79  C   UNL A   1      47.414  33.195  30.039  1.00  0.00     0.134 A 
ATOM     80  F   UNL A   1      46.324  33.507  26.589  1.00  0.00    -0.206 F 
ATOM     81  C   UNL A   1      47.257  35.108  28.031  1.00  0.00     0.040 A 
ATOM     82  C   UNL A   1      47.848  34.498  30.285  1.00  0.00     0.040 A 
ATOM     83  F   UNL A   1      47.518  32.300  31.034  1.00  0.00    -0.206 F 
ATOM     84  C   UNL A   1      47.773  35.458  29.278  1.00  0.00     0.006 A 
ENDBRANCH  63  77
BRANCH  64  85
ATOM     85  C   UNL A   1      43.101  23.717  27.266  1.00  0.00     0.057 A 
ATOM     86  C   UNL A   1      43.059  22.735  28.263  1.00  0.00     0.134 A 
ATOM     87  C   UNL A   1      42.645  23.361  25.991  1.00  0.00     0.134 A 
ATOM     88  F   UNL A   1      43.508  23.006  29.497  1.00  0.00    -0.206 F 
ATOM     89  C   UNL A   1      42.606  21.442  27.996  1.00  0.00     0.040 A 
ATOM     90  C   UNL A   1      42.165  22.079  25.717  1.00  0.00     0.040 A 
ATOM     91  F   UNL A   1      42.662  24.254  24.991  1.00  0.00    -0.206 F 
ATOM     92  C   UNL A   1      42.153  21.112  26.720  1.00  0.00     0.006 A 
ENDBRANCH  64  85
BRANCH  76  93
ATOM     93  C   UNL A   1      49.367  26.570  26.226  1.00  0.00     0.057 A 
ATOM     94  C   UNL A   1      49.777  26.821  24.911  1.00  0.00     0.134 A 
ATOM     95  C   UNL A   1      50.228  25.824  27.041  1.00  0.00     0.134 A 
ATOM     96  F   UNL A   1      48.994  27.520  24.076  1.00  0.00    -0.206 F 
ATOM     97  C   UNL A   1      50.990  26.333  24.420  1.00  0.00     0.040 A 
ATOM     98  C   UNL A   1      51.454  25.353  26.570  1.00  0.00     0.040 A 
ATOM     99  F   UNL A   1      49.899  25.558  28.315  1.00  0.00    -0.206 F 
ATOM    100  C   UNL A   1      51.834  25.602  25.254  1.00  0.00     0.006 A 
ENDBRANCH  76  93
ENDBRANCH  50  51
ENDBRANCH  43  45
ENDBRANCH  42  43
ENDBRANCH  41  42
ENDBRANCH  40  41
ENDBRANCH  39  40
ENDBRANCH  38  39
ENDBRANCH  37  38
ENDBRANCH  36  37
ENDBRANCH   1  36
TORSDOF 24
ENDMDL
MODEL 3
REMARK VINA RESULT:      -9.9      5.850     11.355
REMARK SMILES NS(=O)(=O)c1ccc(-c2cc(Cl)cc3c2O[C@@H](C(F)(F)F)C(C(=O)OCCOCCOCCOCCOC(=O)c2ccc(-c4c5nc(c(-c6c(F)cccc6F)c6ccc([nH]6)c(-c6c(F)cccc6F)c6nc(c(-c7c(F)cccc7F)c7ccc4[nH]7)C=C6)C=C5)cc2)=C3)cc1
REMARK SMILES IDX 30 1 29 2 28 3 27 4 26 5 25 6 23 7 24 8 22 9 9 10 10 11
REMARK SMILES IDX 15 12 11 13 14 14 16 15 12 16 13 17 94 18 17 19 8 20 5 21
REMARK SMILES IDX 6 22 96 23 7 24 95 25 2 26 3 27 4 28 1 29 18 32 19 33 20 34
REMARK SMILES IDX 21 35 31 36 32 37 33 38 34 39 35 40 36 41 37 42 38 43 39 44
REMARK SMILES IDX 40 45 41 46 93 47 42 48 92 49 43 50 44 51 45 52 86 53 46 54
REMARK SMILES IDX 91 55 85 56 87 57 47 58 90 59 84 60 83 61 48 63 74 64 57 65
REMARK SMILES IDX 73 66 58 67 61 68 72 69 88 70 59 71 60 72 71 74 89 75 62 76
REMARK SMILES IDX 49 77 50 78 55 79 51 80 52 81 54 82 56 83 53 84 75 85 76 86
REMARK SMILES IDX 81 87 77 88 78 89 80 90 82 91 79 92 63 93 64 94 69 95 65 96
REMARK SMILES IDX 66 97 68 98 70 99 67 100
REMARK H PARENT 1 30 1 31 87 62 61 73
REMARK Flexibility Score: inf
ROOT
ATOM      1  C   UNL A   1      39.717  22.427  26.870  1.00  0.00     0.188 C 
ENDROOT
BRANCH   1   2
ATOM      2  C   UNL A   1      40.588  23.658  27.157  1.00  0.00     0.188 C 
BRANCH   2   3
ATOM      3  O   UNL A   1      39.985  24.598  28.041  1.00  0.00    -0.376 OA
BRANCH   3   4
ATOM      4  C   UNL A   1      40.845  25.507  28.726  1.00  0.00     0.202 C 
BRANCH   4   5
ATOM      5  C   UNL A   1      40.402  26.974  28.813  1.00  0.00     0.261 C 
BRANCH   5   6
ATOM      6  O   UNL A   1      39.515  27.167  29.938  1.00  0.00    -0.460 OA
BRANCH   6   7
ATOM      7  C   UNL A   1      39.315  28.440  30.315  1.00  0.00     0.338 C 
ATOM      8  O   UNL A   1      40.195  29.285  30.412  1.00  0.00    -0.246 OA
BRANCH   7   9
ATOM      9  C   UNL A   1      37.875  28.783  30.430  1.00  0.00     0.087 C 
ATOM     10  C   UNL A   1      37.085  32.624  31.798  1.00  0.00     0.026 A 
ATOM     11  C   UNL A   1      38.149  32.991  32.657  1.00  0.00     0.033 A 
ATOM     12  C   UNL A   1      37.116  31.299  31.312  1.00  0.00     0.135 A 
ATOM     13  C   UNL A   1      38.984  32.031  33.227  1.00  0.00     0.042 A 
ATOM     14  C   UNL A   1      37.789  30.321  32.065  1.00  0.00     0.019 A 
ATOM     15  O   UNL A   1      36.713  30.997  30.013  1.00  0.00    -0.475 OA
ATOM     16  Cl  UNL A   1      40.259  32.518  34.268  1.00  0.00    -0.084 Cl
ATOM     17  C   UNL A   1      38.737  30.683  33.016  1.00  0.00     0.032 A 
ATOM     18  C   UNL A   1      37.559  28.900  31.731  1.00  0.00     0.027 C 
ATOM     19  C   UNL A   1      37.017  29.624  29.500  1.00  0.00     0.316 C 
BRANCH  10  20
ATOM     20  C   UNL A   1      35.831  33.432  31.985  1.00  0.00    -0.015 A 
ATOM     21  C   UNL A   1      34.068  35.667  31.996  1.00  0.00     0.082 A 
ATOM     22  C   UNL A   1      34.070  34.785  30.914  1.00  0.00     0.022 A 
ATOM     23  C   UNL A   1      34.869  35.402  33.106  1.00  0.00     0.022 A 
ATOM     24  C   UNL A   1      34.935  33.673  30.919  1.00  0.00     0.010 A 
ATOM     25  C   UNL A   1      35.730  34.291  33.102  1.00  0.00     0.010 A 
BRANCH  21  26
ATOM     26  S   UNL A   1      33.091  37.147  31.943  1.00  0.00     0.238 S 
ATOM     27  O   UNL A   1      31.993  37.025  32.876  1.00  0.00    -0.207 OA
ATOM     28  O   UNL A   1      32.903  37.528  30.565  1.00  0.00    -0.207 OA
BRANCH  26  29
ATOM     29  N   UNL A   1      34.097  38.316  32.618  1.00  0.00    -0.225 NA
ATOM     30  H   UNL A   1      33.988  39.194  32.108  1.00  0.00     0.137 HD
ATOM     31  H   UNL A   1      35.067  38.007  32.558  1.00  0.00     0.137 HD
ENDBRANCH  26  29
ENDBRANCH  21  26
ENDBRANCH  10  20
BRANCH  19  32
ATOM     32  C   UNL A   1      37.284  29.516  27.976  1.00  0.00     0.430 C 
ATOM     33  F   UNL A   1      37.599  28.228  27.665  1.00  0.00    -0.167 F 
ATOM     34  F   UNL A   1      36.178  29.824  27.258  1.00  0.00    -0.167 F 
ATOM     35  F   UNL A   1      38.285  30.268  27.499  1.00  0.00    -0.167 F 
ENDBRANCH  19  32
ENDBRANCH   7   9
ENDBRANCH   6   7
ENDBRANCH   5   6
ENDBRANCH   4   5
ENDBRANCH   3   4
ENDBRANCH   2   3
ENDBRANCH   1   2
BRANCH   1  36
ATOM     36  O   UNL A   1      40.478  21.275  26.562  1.00  0.00    -0.377 OA
BRANCH  36  37
ATOM     37  C   UNL A   1      41.839  21.469  26.188  1.00  0.00     0.188 C 
BRANCH  37  38
ATOM     38  C   UNL A   1      42.775  20.273  25.901  1.00  0.00     0.188 C 
BRANCH  38  39
ATOM     39  O   UNL A   1      43.584  20.416  24.736  1.00  0.00    -0.376 OA
BRANCH  39  40
ATOM     40  C   UNL A   1      44.904  19.894  24.793  1.00  0.00     0.202 C 
BRANCH  40  41
ATOM     41  C   UNL A   1      45.998  20.968  24.845  1.00  0.00     0.261 C 
BRANCH  41  42
ATOM     42  O   UNL A   1      45.640  22.152  25.573  1.00  0.00    -0.460 OA
BRANCH  42  43
ATOM     43  C   UNL A   1      45.989  23.334  25.019  1.00  0.00     0.338 C 
ATOM     44  O   UNL A   1      46.343  23.536  23.873  1.00  0.00    -0.246 OA
BRANCH  43  45
ATOM     45  C   UNL A   1      45.680  24.400  25.993  1.00  0.00     0.060 A 
ATOM     46  C   UNL A   1      46.738  25.156  26.512  1.00  0.00     0.016 A 
ATOM     47  C   UNL A   1      44.362  24.658  26.382  1.00  0.00     0.016 A 
ATOM     48  C   UNL A   1      46.485  26.141  27.464  1.00  0.00     0.010 A 
ATOM     49  C   UNL A   1      44.112  25.631  27.351  1.00  0.00     0.010 A 
ATOM     50  C   UNL A   1      45.178  26.347  27.924  1.00  0.00    -0.014 A 
BRANCH  50  51
ATOM     51  C   UNL A   1      44.963  27.135  29.160  1.00  0.00     0.031 A 
ATOM     52  C   UNL A   1      44.997  26.404  30.474  1.00  0.00     0.074 A 
ATOM     53  C   UNL A   1      44.776  28.465  29.125  1.00  0.00     0.049 A 
ATOM     54  N   UNL A   1      44.852  26.869  31.689  1.00  0.00    -0.248 NA
ATOM     55  C   UNL A   1      45.227  24.951  30.410  1.00  0.00     0.031 C 
ATOM     56  C   UNL A   1      44.746  29.287  27.917  1.00  0.00     0.029 A 
ATOM     57  N   UNL A   1      44.571  29.357  30.148  1.00  0.00    -0.354 N 
ATOM     58  C   UNL A   1      44.977  25.770  32.527  1.00  0.00     0.074 A 
ATOM     59  C   UNL A   1      45.175  24.610  31.688  1.00  0.00     0.031 C 
ATOM     60  C   UNL A   1      44.523  30.566  28.269  1.00  0.00     0.029 A 
ATOM     61  C   UNL A   1      44.377  30.648  29.722  1.00  0.00     0.049 A 
ATOM     62  H   UNL A   1      44.564  29.096  31.097  1.00  0.00     0.167 HD
ATOM     63  C   UNL A   1      44.942  25.731  33.880  1.00  0.00     0.037 A 
ATOM     64  C   UNL A   1      44.099  31.760  30.429  1.00  0.00     0.037 A 
ATOM     65  C   UNL A   1      44.739  26.881  34.716  1.00  0.00     0.049 A 
ATOM     66  C   UNL A   1      44.002  31.679  31.931  1.00  0.00     0.074 A 
ATOM     67  C   UNL A   1      44.710  26.947  36.098  1.00  0.00     0.029 A 
ATOM     68  N   UNL A   1      44.520  28.167  34.247  1.00  0.00    -0.354 N 
ATOM     69  N   UNL A   1      44.170  30.644  32.719  1.00  0.00    -0.248 NA
ATOM     70  C   UNL A   1      43.678  32.925  32.644  1.00  0.00     0.031 C 
ATOM     71  C   UNL A   1      44.426  28.267  36.464  1.00  0.00     0.029 A 
ATOM     72  C   UNL A   1      44.327  29.029  35.311  1.00  0.00     0.049 A 
ATOM     73  H   UNL A   1      44.504  28.427  33.297  1.00  0.00     0.167 HD
ATOM     74  C   UNL A   1      44.004  31.118  34.015  1.00  0.00     0.074 A 
ATOM     75  C   UNL A   1      43.733  32.536  33.910  1.00  0.00     0.031 C 
ATOM     76  C   UNL A   1      44.068  30.441  35.188  1.00  0.00     0.037 A 
BRANCH  63  77
ATOM     77  C   UNL A   1      45.106  24.393  34.534  1.00  0.00     0.057 A 
ATOM     78  C   UNL A   1      44.073  23.447  34.550  1.00  0.00     0.134 A 
ATOM     79  C   UNL A   1      46.321  24.036  35.129  1.00  0.00     0.134 A 
ATOM     80  F   UNL A   1      42.878  23.736  34.013  1.00  0.00    -0.206 F 
ATOM     81  C   UNL A   1      44.238  22.198  35.150  1.00  0.00     0.040 A 
ATOM     82  C   UNL A   1      46.506  22.782  35.713  1.00  0.00     0.040 A 
ATOM     83  F   UNL A   1      47.349  24.898  35.150  1.00  0.00    -0.206 F 
ATOM     84  C   UNL A   1      45.461  21.860  35.727  1.00  0.00     0.006 A 
ENDBRANCH  63  77
BRANCH  64  85
ATOM     85  C   UNL A   1      43.879  33.054  29.733  1.00  0.00     0.057 A 
ATOM     86  C   UNL A   1      42.590  33.547  29.502  1.00  0.00     0.134 A 
ATOM     87  C   UNL A   1      44.953  33.806  29.243  1.00  0.00     0.134 A 
ATOM     88  F   UNL A   1      41.518  32.859  29.923  1.00  0.00    -0.206 F 
ATOM     89  C   UNL A   1      42.375  34.727  28.788  1.00  0.00     0.040 A 
ATOM     90  C   UNL A   1      44.755  35.001  28.549  1.00  0.00     0.040 A 
ATOM     91  F   UNL A   1      46.214  33.387  29.428  1.00  0.00    -0.206 F 
ATOM     92  C   UNL A   1      43.460  35.460  28.312  1.00  0.00     0.006 A 
ENDBRANCH  64  85
BRANCH  76  93
ATOM     93  C   UNL A   1      43.878  31.227  36.452  1.00  0.00     0.057 A 
ATOM     94  C   UNL A   1      42.621  31.368  37.052  1.00  0.00     0.134 A 
ATOM     95  C   UNL A   1      44.975  31.806  37.104  1.00  0.00     0.134 A 
ATOM     96  F   UNL A   1      41.528  30.846  36.474  1.00  0.00    -0.206 F 
ATOM     97  C   UNL A   1      42.458  32.076  38.245  1.00  0.00     0.040 A 
ATOM     98  C   UNL A   1      44.829  32.492  38.309  1.00  0.00     0.040 A 
ATOM     99  F   UNL A   1      46.209  31.697  36.587  1.00  0.00    -0.206 F 
ATOM    100  C   UNL A   1      43.566  32.634  38.880  1.00  0.00     0.006 A 
ENDBRANCH  76  93
ENDBRANCH  50  51
ENDBRANCH  43  45
ENDBRANCH  42  43
ENDBRANCH  41  42
ENDBRANCH  40  41
ENDBRANCH  39  40
ENDBRANCH  38  39
ENDBRANCH  37  38
ENDBRANCH  36  37
ENDBRANCH   1  36
TORSDOF 24
ENDMDL
