MODEL 1
REMARK VINA RESULT:     -10.3      0.000      0.000
REMARK SMILES O=C(OCCOCCOCCOCCOC(=O)c1ccc([S@@](=O)[C@H]2CCOC3(CCCC3)C2)cc1)c1ccc(-c2c3nc(c(-c4c(F)cccc4F)c4ccc([nH]4)c(-c4c(F)cccc4F)c4nc(c(-c5c(F)cccc5F)c5ccc2[nH]5)C=C4)C=C3)cc1
REMARK SMILES IDX 9 1 8 2 7 3 6 4 5 5 4 6 3 7 2 8 1 9 36 10 37 11 89 12 38 13
REMARK SMILES IDX 88 14 39 15 40 16 41 17 82 18 42 19 87 20 81 21 83 22 43 23
REMARK SMILES IDX 86 24 80 25 79 26 44 28 70 29 53 30 69 31 54 32 57 33 68 34
REMARK SMILES IDX 84 35 55 36 56 37 67 39 85 40 58 41 45 42 46 43 51 44 47 45
REMARK SMILES IDX 48 46 50 47 52 48 49 49 71 50 72 51 77 52 73 53 74 54 76 55
REMARK SMILES IDX 78 56 75 57 59 58 60 59 65 60 61 61 62 62 64 63 66 64 63 65
REMARK SMILES IDX 10 66 11 67 12 68 13 69 14 70 15 71 16 72 17 73 18 74 19 75
REMARK SMILES IDX 35 76 20 77 34 78 21 79 22 80 23 81 24 82 25 83 33 84 26 85
REMARK SMILES IDX 28 86 27 87 29 88 32 89 30 90 31 91
REMARK H PARENT 83 27 57 38
REMARK Flexibility Score: inf
ROOT
ATOM      1  O   UNL A   1      34.070  33.303  28.412  1.00  0.00    -0.377 OA
ENDROOT
BRANCH   1   2
ATOM      2  C   UNL A   1      34.521  34.555  28.927  1.00  0.00     0.188 C 
BRANCH   2   3
ATOM      3  C   UNL A   1      33.455  35.361  29.671  1.00  0.00     0.188 C 
BRANCH   3   4
ATOM      4  O   UNL A   1      33.277  34.817  30.980  1.00  0.00    -0.376 OA
BRANCH   4   5
ATOM      5  C   UNL A   1      34.443  34.275  31.589  1.00  0.00     0.202 C 
BRANCH   5   6
ATOM      6  C   UNL A   1      34.182  33.219  32.671  1.00  0.00     0.261 C 
BRANCH   6   7
ATOM      7  O   UNL A   1      35.110  32.121  32.622  1.00  0.00    -0.460 OA
BRANCH   7   8
ATOM      8  C   UNL A   1      36.426  32.147  32.956  1.00  0.00     0.338 C 
ATOM      9  O   UNL A   1      36.779  32.693  33.999  1.00  0.00    -0.246 OA
BRANCH   8  10
ATOM     10  C   UNL A   1      37.466  31.481  32.124  1.00  0.00     0.060 A 
ATOM     11  C   UNL A   1      38.419  30.609  32.641  1.00  0.00     0.016 A 
ATOM     12  C   UNL A   1      37.448  31.697  30.739  1.00  0.00     0.016 A 
ATOM     13  C   UNL A   1      39.441  30.108  31.853  1.00  0.00     0.010 A 
ATOM     14  C   UNL A   1      38.420  31.111  29.916  1.00  0.00     0.010 A 
ATOM     15  C   UNL A   1      39.455  30.356  30.483  1.00  0.00    -0.014 A 
BRANCH  15  16
ATOM     16  C   UNL A   1      40.639  29.915  29.716  1.00  0.00     0.031 A 
ATOM     17  C   UNL A   1      41.783  30.873  29.550  1.00  0.00     0.074 A 
ATOM     18  C   UNL A   1      40.751  28.628  29.333  1.00  0.00     0.049 A 
ATOM     19  N   UNL A   1      42.901  30.723  28.892  1.00  0.00    -0.248 NA
ATOM     20  C   UNL A   1      41.654  32.176  30.224  1.00  0.00     0.031 C 
ATOM     21  C   UNL A   1      39.740  27.589  29.555  1.00  0.00     0.029 A 
ATOM     22  N   UNL A   1      41.781  27.960  28.724  1.00  0.00    -0.354 N 
ATOM     23  C   UNL A   1      43.588  31.922  29.041  1.00  0.00     0.074 A 
ATOM     24  C   UNL A   1      42.760  32.795  29.841  1.00  0.00     0.031 C 
ATOM     25  C   UNL A   1      40.222  26.408  29.138  1.00  0.00     0.029 A 
ATOM     26  C   UNL A   1      41.534  26.620  28.539  1.00  0.00     0.049 A 
ATOM     27  H   UNL A   1      42.617  28.398  28.443  1.00  0.00     0.167 HD
ATOM     28  C   UNL A   1      44.802  32.258  28.551  1.00  0.00     0.037 A 
ATOM     29  C   UNL A   1      42.274  25.681  27.922  1.00  0.00     0.037 A 
ATOM     30  C   UNL A   1      45.615  31.365  27.773  1.00  0.00     0.049 A 
ATOM     31  C   UNL A   1      43.589  26.101  27.326  1.00  0.00     0.074 A 
ATOM     32  C   UNL A   1      46.816  31.614  27.136  1.00  0.00     0.029 A 
ATOM     33  N   UNL A   1      45.303  30.031  27.542  1.00  0.00    -0.354 N 
ATOM     34  N   UNL A   1      44.180  27.272  27.373  1.00  0.00    -0.248 NA
ATOM     35  C   UNL A   1      44.329  25.081  26.572  1.00  0.00     0.031 C 
ATOM     36  C   UNL A   1      47.219  30.433  26.500  1.00  0.00     0.029 A 
ATOM     37  C   UNL A   1      46.289  29.442  26.773  1.00  0.00     0.049 A 
ATOM     38  H   UNL A   1      44.498  29.573  27.877  1.00  0.00     0.167 HD
ATOM     39  C   UNL A   1      45.359  27.132  26.655  1.00  0.00     0.074 A 
ATOM     40  C   UNL A   1      45.417  25.751  26.217  1.00  0.00     0.031 C 
ATOM     41  C   UNL A   1      46.304  28.060  26.364  1.00  0.00     0.037 A 
BRANCH  28  42
ATOM     42  C   UNL A   1      45.271  33.659  28.804  1.00  0.00     0.057 A 
ATOM     43  C   UNL A   1      44.958  34.717  27.941  1.00  0.00     0.134 A 
ATOM     44  C   UNL A   1      46.090  33.944  29.905  1.00  0.00     0.134 A 
ATOM     45  F   UNL A   1      44.208  34.504  26.850  1.00  0.00    -0.206 F 
ATOM     46  C   UNL A   1      45.465  36.002  28.149  1.00  0.00     0.040 A 
ATOM     47  C   UNL A   1      46.584  35.229  30.135  1.00  0.00     0.040 A 
ATOM     48  F   UNL A   1      46.437  32.974  30.765  1.00  0.00    -0.206 F 
ATOM     49  C   UNL A   1      46.277  36.261  29.251  1.00  0.00     0.006 A 
ENDBRANCH  28  42
BRANCH  29  50
ATOM     50  C   UNL A   1      41.765  24.291  27.774  1.00  0.00     0.057 A 
ATOM     51  C   UNL A   1      40.738  23.975  26.876  1.00  0.00     0.134 A 
ATOM     52  C   UNL A   1      42.278  23.244  28.552  1.00  0.00     0.134 A 
ATOM     53  F   UNL A   1      40.185  24.933  26.117  1.00  0.00    -0.206 F 
ATOM     54  C   UNL A   1      40.230  22.677  26.771  1.00  0.00     0.040 A 
ATOM     55  C   UNL A   1      41.802  21.937  28.434  1.00  0.00     0.040 A 
ATOM     56  F   UNL A   1      43.261  23.474  29.434  1.00  0.00    -0.206 F 
ATOM     57  C   UNL A   1      40.767  21.653  27.548  1.00  0.00     0.006 A 
ENDBRANCH  29  50
BRANCH  41  58
ATOM     58  C   UNL A   1      47.472  27.593  25.552  1.00  0.00     0.057 A 
ATOM     59  C   UNL A   1      47.472  27.677  24.154  1.00  0.00     0.134 A 
ATOM     60  C   UNL A   1      48.614  27.081  26.176  1.00  0.00     0.134 A 
ATOM     61  F   UNL A   1      46.399  28.147  23.500  1.00  0.00    -0.206 F 
ATOM     62  C   UNL A   1      48.563  27.242  23.402  1.00  0.00     0.040 A 
ATOM     63  C   UNL A   1      49.720  26.666  25.437  1.00  0.00     0.040 A 
ATOM     64  F   UNL A   1      48.675  26.983  27.513  1.00  0.00    -0.206 F 
ATOM     65  C   UNL A   1      49.693  26.739  24.045  1.00  0.00     0.006 A 
ENDBRANCH  41  58
ENDBRANCH  15  16
ENDBRANCH   8  10
ENDBRANCH   7   8
ENDBRANCH   6   7
ENDBRANCH   5   6
ENDBRANCH   4   5
ENDBRANCH   3   4
ENDBRANCH   2   3
ENDBRANCH   1   2
BRANCH   1  66
ATOM     66  C   UNL A   1      32.875  33.324  27.641  1.00  0.00     0.188 C 
BRANCH  66  67
ATOM     67  C   UNL A   1      32.286  31.982  27.159  1.00  0.00     0.188 C 
BRANCH  67  68
ATOM     68  O   UNL A   1      33.153  30.860  27.265  1.00  0.00    -0.376 OA
BRANCH  68  69
ATOM     69  C   UNL A   1      32.597  29.623  26.817  1.00  0.00     0.202 C 
BRANCH  69  70
ATOM     70  C   UNL A   1      33.280  29.041  25.572  1.00  0.00     0.261 C 
BRANCH  70  71
ATOM     71  O   UNL A   1      32.558  29.227  24.341  1.00  0.00    -0.460 OA
BRANCH  71  72
ATOM     72  C   UNL A   1      31.212  29.061  24.362  1.00  0.00     0.338 C 
ATOM     73  O   UNL A   1      30.363  29.915  24.251  1.00  0.00    -0.246 OA
BRANCH  72  74
ATOM     74  C   UNL A   1      30.969  27.600  24.272  1.00  0.00     0.060 A 
ATOM     75  C   UNL A   1      31.317  26.960  23.081  1.00  0.00     0.017 A 
ATOM     76  C   UNL A   1      30.609  26.847  25.393  1.00  0.00     0.017 A 
ATOM     77  C   UNL A   1      31.399  25.567  23.046  1.00  0.00     0.018 A 
ATOM     78  C   UNL A   1      30.617  25.447  25.323  1.00  0.00     0.018 A 
ATOM     79  C   UNL A   1      31.025  24.792  24.153  1.00  0.00     0.039 A 
BRANCH  79  80
ATOM     80  S   UNL A   1      31.329  23.012  24.161  1.00  0.00     0.056 S 
ATOM     81  O   UNL A   1      31.656  22.629  22.747  1.00  0.00    -0.254 OA
BRANCH  80  82
ATOM     82  C   UNL A   1      32.816  22.766  25.182  1.00  0.00     0.089 C 
ATOM     83  C   UNL A   1      32.510  22.378  26.623  1.00  0.00     0.046 C 
ATOM     84  C   UNL A   1      33.859  21.819  24.612  1.00  0.00     0.053 C 
ATOM     85  C   UNL A   1      33.808  22.371  27.424  1.00  0.00     0.162 C 
ATOM     86  C   UNL A   1      35.130  21.809  25.467  1.00  0.00     0.069 C 
ATOM     87  O   UNL A   1      34.802  21.534  26.834  1.00  0.00    -0.375 OA
ATOM     88  C   UNL A   1      36.092  20.685  25.007  1.00  0.00     0.035 C 
ATOM     89  C   UNL A   1      35.947  23.109  25.314  1.00  0.00     0.035 C 
ATOM     90  C   UNL A   1      37.395  21.368  24.606  1.00  0.00     0.003 C 
ATOM     91  C   UNL A   1      37.398  22.662  25.395  1.00  0.00     0.003 C 
ENDBRANCH  80  82
ENDBRANCH  79  80
ENDBRANCH  72  74
ENDBRANCH  71  72
ENDBRANCH  70  71
ENDBRANCH  69  70
ENDBRANCH  68  69
ENDBRANCH  67  68
ENDBRANCH  66  67
ENDBRANCH   1  66
TORSDOF 22
ENDMDL
MODEL 2
REMARK VINA RESULT:     -10.2      1.506      6.231
REMARK SMILES O=C(OCCOCCOCCOCCOC(=O)c1ccc([S@@](=O)[C@H]2CCOC3(CCCC3)C2)cc1)c1ccc(-c2c3nc(c(-c4c(F)cccc4F)c4ccc([nH]4)c(-c4c(F)cccc4F)c4nc(c(-c5c(F)cccc5F)c5ccc2[nH]5)C=C4)C=C3)cc1
REMARK SMILES IDX 9 1 8 2 7 3 6 4 5 5 4 6 3 7 2 8 1 9 36 10 37 11 89 12 38 13
REMARK SMILES IDX 88 14 39 15 40 16 41 17 82 18 42 19 87 20 81 21 83 22 43 23
REMARK SMILES IDX 86 24 80 25 79 26 44 28 70 29 53 30 69 31 54 32 57 33 68 34
REMARK SMILES IDX 84 35 55 36 56 37 67 39 85 40 58 41 45 42 46 43 51 44 47 45
REMARK SMILES IDX 48 46 50 47 52 48 49 49 71 50 72 51 77 52 73 53 74 54 76 55
REMARK SMILES IDX 78 56 75 57 59 58 60 59 65 60 61 61 62 62 64 63 66 64 63 65
REMARK SMILES IDX 10 66 11 67 12 68 13 69 14 70 15 71 16 72 17 73 18 74 19 75
REMARK SMILES IDX 35 76 20 77 34 78 21 79 22 80 23 81 24 82 25 83 33 84 26 85
REMARK SMILES IDX 28 86 27 87 29 88 32 89 30 90 31 91
REMARK H PARENT 83 27 57 38
REMARK Flexibility Score: inf
ROOT
ATOM      1  O   UNL A   1      33.479  32.641  27.715  1.00  0.00    -0.377 OA
ENDROOT
BRANCH   1   2
ATOM      2  C   UNL A   1      34.281  33.755  28.104  1.00  0.00     0.188 C 
BRANCH   2   3
ATOM      3  C   UNL A   1      33.573  34.770  29.003  1.00  0.00     0.188 C 
BRANCH   3   4
ATOM      4  O   UNL A   1      33.742  34.391  30.371  1.00  0.00    -0.376 OA
BRANCH   4   5
ATOM      5  C   UNL A   1      34.980  33.768  30.692  1.00  0.00     0.202 C 
BRANCH   5   6
ATOM      6  C   UNL A   1      34.876  32.302  31.132  1.00  0.00     0.261 C 
BRANCH   6   7
ATOM      7  O   UNL A   1      35.844  31.452  30.492  1.00  0.00    -0.460 OA
BRANCH   7   8
ATOM      8  C   UNL A   1      36.642  30.528  31.088  1.00  0.00     0.338 C 
ATOM      9  O   UNL A   1      36.189  29.819  31.983  1.00  0.00    -0.246 OA
BRANCH   8  10
ATOM     10  C   UNL A   1      38.048  30.299  30.652  1.00  0.00     0.060 A 
ATOM     11  C   UNL A   1      38.479  30.467  29.340  1.00  0.00     0.016 A 
ATOM     12  C   UNL A   1      38.998  29.954  31.623  1.00  0.00     0.016 A 
ATOM     13  C   UNL A   1      39.764  30.127  28.955  1.00  0.00     0.010 A 
ATOM     14  C   UNL A   1      40.328  29.707  31.259  1.00  0.00     0.010 A 
ATOM     15  C   UNL A   1      40.703  29.740  29.908  1.00  0.00    -0.014 A 
BRANCH  15  16
ATOM     16  C   UNL A   1      42.014  29.256  29.428  1.00  0.00     0.031 A 
ATOM     17  C   UNL A   1      42.113  27.852  28.906  1.00  0.00     0.074 A 
ATOM     18  C   UNL A   1      43.043  30.117  29.303  1.00  0.00     0.049 A 
ATOM     19  N   UNL A   1      43.158  27.202  28.469  1.00  0.00    -0.248 NA
ATOM     20  C   UNL A   1      40.861  27.076  28.861  1.00  0.00     0.031 C 
ATOM     21  C   UNL A   1      43.008  31.536  29.674  1.00  0.00     0.029 A 
ATOM     22  N   UNL A   1      44.299  29.943  28.784  1.00  0.00    -0.354 N 
ATOM     23  C   UNL A   1      42.698  25.934  28.135  1.00  0.00     0.074 A 
ATOM     24  C   UNL A   1      41.284  25.898  28.429  1.00  0.00     0.031 C 
ATOM     25  C   UNL A   1      44.168  32.112  29.322  1.00  0.00     0.029 A 
ATOM     26  C   UNL A   1      45.057  31.090  28.785  1.00  0.00     0.049 A 
ATOM     27  H   UNL A   1      44.628  29.079  28.445  1.00  0.00     0.167 HD
ATOM     28  C   UNL A   1      43.399  24.895  27.629  1.00  0.00     0.037 A 
ATOM     29  C   UNL A   1      46.341  31.279  28.424  1.00  0.00     0.037 A 
ATOM     30  C   UNL A   1      44.803  24.961  27.328  1.00  0.00     0.049 A 
ATOM     31  C   UNL A   1      47.115  30.090  27.930  1.00  0.00     0.074 A 
ATOM     32  C   UNL A   1      45.650  23.954  26.905  1.00  0.00     0.029 A 
ATOM     33  N   UNL A   1      45.561  26.121  27.407  1.00  0.00    -0.354 N 
ATOM     34  N   UNL A   1      46.700  28.861  27.726  1.00  0.00    -0.248 NA
ATOM     35  C   UNL A   1      48.539  30.302  27.639  1.00  0.00     0.031 C 
ATOM     36  C   UNL A   1      46.928  24.503  26.751  1.00  0.00     0.029 A 
ATOM     37  C   UNL A   1      46.867  25.859  27.041  1.00  0.00     0.049 A 
ATOM     38  H   UNL A   1      45.218  27.003  27.684  1.00  0.00     0.167 HD
ATOM     39  C   UNL A   1      47.809  28.153  27.285  1.00  0.00     0.074 A 
ATOM     40  C   UNL A   1      48.905  29.101  27.214  1.00  0.00     0.031 C 
ATOM     41  C   UNL A   1      47.924  26.836  26.983  1.00  0.00     0.037 A 
BRANCH  28  42
ATOM     42  C   UNL A   1      42.658  23.607  27.434  1.00  0.00     0.057 A 
ATOM     43  C   UNL A   1      42.402  22.727  28.494  1.00  0.00     0.134 A 
ATOM     44  C   UNL A   1      42.235  23.219  26.156  1.00  0.00     0.134 A 
ATOM     45  F   UNL A   1      42.813  23.022  29.736  1.00  0.00    -0.206 F 
ATOM     46  C   UNL A   1      41.776  21.495  28.285  1.00  0.00     0.040 A 
ATOM     47  C   UNL A   1      41.588  22.001  25.939  1.00  0.00     0.040 A 
ATOM     48  F   UNL A   1      42.457  24.011  25.096  1.00  0.00    -0.206 F 
ATOM     49  C   UNL A   1      41.365  21.132  27.004  1.00  0.00     0.006 A 
ENDBRANCH  28  42
BRANCH  29  50
ATOM     50  C   UNL A   1      46.983  32.611  28.583  1.00  0.00     0.057 A 
ATOM     51  C   UNL A   1      47.577  33.003  29.789  1.00  0.00     0.134 A 
ATOM     52  C   UNL A   1      46.996  33.541  27.535  1.00  0.00     0.134 A 
ATOM     53  F   UNL A   1      47.580  32.172  30.842  1.00  0.00    -0.206 F 
ATOM     54  C   UNL A   1      48.141  34.271  29.951  1.00  0.00     0.040 A 
ATOM     55  C   UNL A   1      47.584  34.799  27.672  1.00  0.00     0.040 A 
ATOM     56  F   UNL A   1      46.444  33.234  26.351  1.00  0.00    -0.206 F 
ATOM     57  C   UNL A   1      48.150  35.171  28.888  1.00  0.00     0.006 A 
ENDBRANCH  29  50
BRANCH  41  58
ATOM     58  C   UNL A   1      49.274  26.368  26.536  1.00  0.00     0.057 A 
ATOM     59  C   UNL A   1      49.701  26.521  25.210  1.00  0.00     0.134 A 
ATOM     60  C   UNL A   1      50.163  25.785  27.446  1.00  0.00     0.134 A 
ATOM     61  F   UNL A   1      48.885  27.060  24.291  1.00  0.00    -0.206 F 
ATOM     62  C   UNL A   1      50.959  26.084  24.800  1.00  0.00     0.040 A 
ATOM     63  C   UNL A   1      51.433  25.368  27.052  1.00  0.00     0.040 A 
ATOM     64  F   UNL A   1      49.814  25.620  28.730  1.00  0.00    -0.206 F 
ATOM     65  C   UNL A   1      51.831  25.511  25.723  1.00  0.00     0.006 A 
ENDBRANCH  41  58
ENDBRANCH  15  16
ENDBRANCH   8  10
ENDBRANCH   7   8
ENDBRANCH   6   7
ENDBRANCH   5   6
ENDBRANCH   4   5
ENDBRANCH   3   4
ENDBRANCH   2   3
ENDBRANCH   1   2
BRANCH   1  66
ATOM     66  C   UNL A   1      32.151  32.927  27.296  1.00  0.00     0.188 C 
BRANCH  66  67
ATOM     67  C   UNL A   1      31.371  31.841  26.526  1.00  0.00     0.188 C 
BRANCH  67  68
ATOM     68  O   UNL A   1      32.030  30.588  26.401  1.00  0.00    -0.376 OA
BRANCH  68  69
ATOM     69  C   UNL A   1      31.615  29.796  25.287  1.00  0.00     0.202 C 
BRANCH  69  70
ATOM     70  C   UNL A   1      32.770  29.157  24.504  1.00  0.00     0.261 C 
BRANCH  70  71
ATOM     71  O   UNL A   1      32.546  29.028  23.090  1.00  0.00    -0.460 OA
BRANCH  71  72
ATOM     72  C   UNL A   1      31.300  28.693  22.670  1.00  0.00     0.338 C 
ATOM     73  O   UNL A   1      30.467  29.421  22.183  1.00  0.00    -0.246 OA
BRANCH  72  74
ATOM     74  C   UNL A   1      31.245  27.211  22.667  1.00  0.00     0.060 A 
ATOM     75  C   UNL A   1      32.271  26.528  22.011  1.00  0.00     0.017 A 
ATOM     76  C   UNL A   1      30.332  26.510  23.459  1.00  0.00     0.017 A 
ATOM     77  C   UNL A   1      32.439  25.159  22.232  1.00  0.00     0.018 A 
ATOM     78  C   UNL A   1      30.461  25.122  23.609  1.00  0.00     0.018 A 
ATOM     79  C   UNL A   1      31.524  24.434  23.008  1.00  0.00     0.039 A 
BRANCH  79  80
ATOM     80  S   UNL A   1      31.867  22.717  23.448  1.00  0.00     0.056 S 
ATOM     81  O   UNL A   1      32.486  22.082  22.238  1.00  0.00    -0.254 OA
BRANCH  80  82
ATOM     82  C   UNL A   1      33.119  22.782  24.768  1.00  0.00     0.089 C 
ATOM     83  C   UNL A   1      32.573  22.432  26.146  1.00  0.00     0.046 C 
ATOM     84  C   UNL A   1      34.392  21.990  24.510  1.00  0.00     0.053 C 
ATOM     85  C   UNL A   1      33.654  22.688  27.190  1.00  0.00     0.162 C 
ATOM     86  C   UNL A   1      35.436  22.243  25.603  1.00  0.00     0.069 C 
ATOM     87  O   UNL A   1      34.866  21.996  26.894  1.00  0.00    -0.375 OA
ATOM     88  C   UNL A   1      36.632  21.270  25.452  1.00  0.00     0.035 C 
ATOM     89  C   UNL A   1      36.061  23.650  25.499  1.00  0.00     0.035 C 
ATOM     90  C   UNL A   1      37.873  22.136  25.263  1.00  0.00     0.003 C 
ATOM     91  C   UNL A   1      37.511  23.456  25.913  1.00  0.00     0.003 C 
ENDBRANCH  80  82
ENDBRANCH  79  80
ENDBRANCH  72  74
ENDBRANCH  71  72
ENDBRANCH  70  71
ENDBRANCH  69  70
ENDBRANCH  68  69
ENDBRANCH  67  68
ENDBRANCH  66  67
ENDBRANCH   1  66
TORSDOF 22
ENDMDL
MODEL 3
REMARK VINA RESULT:      -9.8      1.712      2.670
REMARK SMILES O=C(OCCOCCOCCOCCOC(=O)c1ccc([S@@](=O)[C@H]2CCOC3(CCCC3)C2)cc1)c1ccc(-c2c3nc(c(-c4c(F)cccc4F)c4ccc([nH]4)c(-c4c(F)cccc4F)c4nc(c(-c5c(F)cccc5F)c5ccc2[nH]5)C=C4)C=C3)cc1
REMARK SMILES IDX 9 1 8 2 7 3 6 4 5 5 4 6 3 7 2 8 1 9 36 10 37 11 89 12 38 13
REMARK SMILES IDX 88 14 39 15 40 16 41 17 82 18 42 19 87 20 81 21 83 22 43 23
REMARK SMILES IDX 86 24 80 25 79 26 44 28 70 29 53 30 69 31 54 32 57 33 68 34
REMARK SMILES IDX 84 35 55 36 56 37 67 39 85 40 58 41 45 42 46 43 51 44 47 45
REMARK SMILES IDX 48 46 50 47 52 48 49 49 71 50 72 51 77 52 73 53 74 54 76 55
REMARK SMILES IDX 78 56 75 57 59 58 60 59 65 60 61 61 62 62 64 63 66 64 63 65
REMARK SMILES IDX 10 66 11 67 12 68 13 69 14 70 15 71 16 72 17 73 18 74 19 75
REMARK SMILES IDX 35 76 20 77 34 78 21 79 22 80 23 81 24 82 25 83 33 84 26 85
REMARK SMILES IDX 28 86 27 87 29 88 32 89 30 90 31 91
REMARK H PARENT 83 27 57 38
REMARK Flexibility Score: inf
ROOT
ATOM      1  O   UNL A   1      34.280  29.663  27.749  1.00  0.00    -0.377 OA
ENDROOT
BRANCH   1   2
ATOM      2  C   UNL A   1      33.978  31.054  27.648  1.00  0.00     0.188 C 
BRANCH   2   3
ATOM      3  C   UNL A   1      34.604  31.924  28.739  1.00  0.00     0.188 C 
BRANCH   3   4
ATOM      4  O   UNL A   1      34.404  33.303  28.420  1.00  0.00    -0.376 OA
BRANCH   4   5
ATOM      5  C   UNL A   1      34.684  34.227  29.464  1.00  0.00     0.202 C 
BRANCH   5   6
ATOM      6  C   UNL A   1      34.399  33.714  30.882  1.00  0.00     0.261 C 
BRANCH   6   7
ATOM      7  O   UNL A   1      35.586  33.585  31.684  1.00  0.00    -0.460 OA
BRANCH   7   8
ATOM      8  C   UNL A   1      36.234  32.435  32.006  1.00  0.00     0.338 C 
ATOM      9  O   UNL A   1      35.720  31.649  32.797  1.00  0.00    -0.246 OA
BRANCH   8  10
ATOM     10  C   UNL A   1      37.534  32.060  31.384  1.00  0.00     0.060 A 
ATOM     11  C   UNL A   1      37.924  32.475  30.114  1.00  0.00     0.016 A 
ATOM     12  C   UNL A   1      38.438  31.300  32.139  1.00  0.00     0.016 A 
ATOM     13  C   UNL A   1      39.085  32.005  29.527  1.00  0.00     0.010 A 
ATOM     14  C   UNL A   1      39.664  30.903  31.589  1.00  0.00     0.010 A 
ATOM     15  C   UNL A   1      39.967  31.211  30.256  1.00  0.00    -0.014 A 
BRANCH  15  16
ATOM     16  C   UNL A   1      41.119  30.624  29.539  1.00  0.00     0.031 A 
ATOM     17  C   UNL A   1      42.363  31.449  29.386  1.00  0.00     0.074 A 
ATOM     18  C   UNL A   1      41.101  29.323  29.192  1.00  0.00     0.049 A 
ATOM     19  N   UNL A   1      43.478  31.162  28.768  1.00  0.00    -0.248 NA
ATOM     20  C   UNL A   1      42.356  32.777  30.023  1.00  0.00     0.031 C 
ATOM     21  C   UNL A   1      39.978  28.405  29.407  1.00  0.00     0.029 A 
ATOM     22  N   UNL A   1      42.071  28.531  28.633  1.00  0.00    -0.354 N 
ATOM     23  C   UNL A   1      44.285  32.283  28.910  1.00  0.00     0.074 A 
ATOM     24  C   UNL A   1      43.534  33.262  29.660  1.00  0.00     0.031 C 
ATOM     25  C   UNL A   1      40.342  27.168  29.035  1.00  0.00     0.029 A 
ATOM     26  C   UNL A   1      41.686  27.221  28.474  1.00  0.00     0.049 A 
ATOM     27  H   UNL A   1      42.957  28.869  28.369  1.00  0.00     0.167 HD
ATOM     28  C   UNL A   1      45.543  32.474  28.451  1.00  0.00     0.037 A 
ATOM     29  C   UNL A   1      42.339  26.190  27.904  1.00  0.00     0.037 A 
ATOM     30  C   UNL A   1      46.277  31.477  27.722  1.00  0.00     0.049 A 
ATOM     31  C   UNL A   1      43.708  26.450  27.341  1.00  0.00     0.074 A 
ATOM     32  C   UNL A   1      47.516  31.577  27.119  1.00  0.00     0.029 A 
ATOM     33  N   UNL A   1      45.830  30.178  27.514  1.00  0.00    -0.354 N 
ATOM     34  N   UNL A   1      44.421  27.551  27.378  1.00  0.00    -0.248 NA
ATOM     35  C   UNL A   1      44.355  25.336  26.637  1.00  0.00     0.031 C 
ATOM     36  C   UNL A   1      47.808  30.343  26.526  1.00  0.00     0.029 A 
ATOM     37  C   UNL A   1      46.768  29.465  26.793  1.00  0.00     0.049 A 
ATOM     38  H   UNL A   1      44.970  29.819  27.835  1.00  0.00     0.167 HD
ATOM     39  C   UNL A   1      45.598  27.266  26.703  1.00  0.00     0.074 A 
ATOM     40  C   UNL A   1      45.519  25.874  26.301  1.00  0.00     0.031 C 
ATOM     41  C   UNL A   1      46.646  28.079  26.419  1.00  0.00     0.037 A 
BRANCH  28  42
ATOM     42  C   UNL A   1      46.153  33.822  28.684  1.00  0.00     0.057 A 
ATOM     43  C   UNL A   1      45.924  34.903  27.823  1.00  0.00     0.134 A 
ATOM     44  C   UNL A   1      47.023  34.030  29.763  1.00  0.00     0.134 A 
ATOM     45  F   UNL A   1      45.129  34.761  26.752  1.00  0.00    -0.206 F 
ATOM     46  C   UNL A   1      46.558  36.133  28.011  1.00  0.00     0.040 A 
ATOM     47  C   UNL A   1      47.646  35.261  29.973  1.00  0.00     0.040 A 
ATOM     48  F   UNL A   1      47.294  33.033  30.620  1.00  0.00    -0.206 F 
ATOM     49  C   UNL A   1      47.420  36.315  29.091  1.00  0.00     0.006 A 
ENDBRANCH  28  42
BRANCH  29  50
ATOM     50  C   UNL A   1      41.686  24.860  27.775  1.00  0.00     0.057 A 
ATOM     51  C   UNL A   1      40.642  24.636  26.870  1.00  0.00     0.134 A 
ATOM     52  C   UNL A   1      42.077  23.779  28.578  1.00  0.00     0.134 A 
ATOM     53  F   UNL A   1      40.202  25.633  26.086  1.00  0.00    -0.206 F 
ATOM     54  C   UNL A   1      40.001  23.398  26.781  1.00  0.00     0.040 A 
ATOM     55  C   UNL A   1      41.466  22.528  28.478  1.00  0.00     0.040 A 
ATOM     56  F   UNL A   1      43.069  23.921  29.469  1.00  0.00    -0.206 F 
ATOM     57  C   UNL A   1      40.417  22.338  27.583  1.00  0.00     0.006 A 
ENDBRANCH  29  50
BRANCH  41  58
ATOM     58  C   UNL A   1      47.780  27.466  25.657  1.00  0.00     0.057 A 
ATOM     59  C   UNL A   1      48.875  26.888  26.314  1.00  0.00     0.134 A 
ATOM     60  C   UNL A   1      47.764  27.432  24.259  1.00  0.00     0.134 A 
ATOM     61  F   UNL A   1      48.951  26.904  27.653  1.00  0.00    -0.206 F 
ATOM     62  C   UNL A   1      49.928  26.318  25.600  1.00  0.00     0.040 A 
ATOM     63  C   UNL A   1      48.799  26.843  23.536  1.00  0.00     0.040 A 
ATOM     64  F   UNL A   1      46.739  27.964  23.576  1.00  0.00    -0.206 F 
ATOM     65  C   UNL A   1      49.889  26.290  24.207  1.00  0.00     0.006 A 
ENDBRANCH  41  58
ENDBRANCH  15  16
ENDBRANCH   8  10
ENDBRANCH   7   8
ENDBRANCH   6   7
ENDBRANCH   5   6
ENDBRANCH   4   5
ENDBRANCH   3   4
ENDBRANCH   2   3
ENDBRANCH   1   2
BRANCH   1  66
ATOM     66  C   UNL A   1      33.564  28.790  26.884  1.00  0.00     0.188 C 
BRANCH  66  67
ATOM     67  C   UNL A   1      33.531  29.113  25.376  1.00  0.00     0.188 C 
BRANCH  67  68
ATOM     68  O   UNL A   1      32.243  29.376  24.835  1.00  0.00    -0.376 OA
BRANCH  68  69
ATOM     69  C   UNL A   1      32.064  28.969  23.478  1.00  0.00     0.202 C 
BRANCH  69  70
ATOM     70  C   UNL A   1      31.186  27.722  23.305  1.00  0.00     0.261 C 
BRANCH  70  71
ATOM     71  O   UNL A   1      30.336  27.417  24.425  1.00  0.00    -0.460 OA
BRANCH  71  72
ATOM     72  C   UNL A   1      29.508  26.348  24.323  1.00  0.00     0.338 C 
ATOM     73  O   UNL A   1      28.382  26.328  23.886  1.00  0.00    -0.246 OA
BRANCH  72  74
ATOM     74  C   UNL A   1      30.339  25.149  24.595  1.00  0.00     0.060 A 
ATOM     75  C   UNL A   1      30.669  24.334  23.510  1.00  0.00     0.017 A 
ATOM     76  C   UNL A   1      30.948  24.946  25.835  1.00  0.00     0.017 A 
ATOM     77  C   UNL A   1      31.683  23.383  23.647  1.00  0.00     0.018 A 
ATOM     78  C   UNL A   1      31.908  23.934  25.984  1.00  0.00     0.018 A 
ATOM     79  C   UNL A   1      32.295  23.150  24.887  1.00  0.00     0.039 A 
BRANCH  79  80
ATOM     80  S   UNL A   1      33.735  22.068  25.001  1.00  0.00     0.056 S 
ATOM     81  O   UNL A   1      34.108  22.006  26.453  1.00  0.00    -0.254 OA
BRANCH  80  82
ATOM     82  C   UNL A   1      33.162  20.420  24.483  1.00  0.00     0.089 C 
ATOM     83  C   UNL A   1      32.595  20.386  23.069  1.00  0.00     0.046 C 
ATOM     84  C   UNL A   1      34.163  19.288  24.656  1.00  0.00     0.053 C 
ATOM     85  C   UNL A   1      31.990  19.011  22.807  1.00  0.00     0.162 C 
ATOM     86  C   UNL A   1      33.527  17.930  24.343  1.00  0.00     0.069 C 
ATOM     87  O   UNL A   1      32.921  17.957  23.046  1.00  0.00    -0.375 OA
ATOM     88  C   UNL A   1      34.604  16.817  24.306  1.00  0.00     0.035 C 
ATOM     89  C   UNL A   1      32.539  17.481  25.440  1.00  0.00     0.035 C 
ATOM     90  C   UNL A   1      34.208  15.796  25.368  1.00  0.00     0.003 C 
ATOM     91  C   UNL A   1      32.710  15.972  25.517  1.00  0.00     0.003 C 
ENDBRANCH  80  82
ENDBRANCH  79  80
ENDBRANCH  72  74
ENDBRANCH  71  72
ENDBRANCH  70  71
ENDBRANCH  69  70
ENDBRANCH  68  69
ENDBRANCH  67  68
ENDBRANCH  66  67
ENDBRANCH   1  66
TORSDOF 22
ENDMDL
