MODEL 1
REMARK VINA RESULT:      -7.9      0.000      0.000
REMARK SMILES CCCN1C(=O)CO[C@H](C(=O)OCCOCCOCCOCCOC(=O)c2ccc(-c3c4nc(c(-c5c(F)cccc5F)c5ccc([nH]5)c(-c5c(F)cccc5F)c5nc(c(-c6c(F)cccc6F)c6ccc3[nH]6)C=C5)C=C4)cc2)[C@@H]1c1cncn1C1CC1
REMARK SMILES IDX 18 1 17 2 16 3 15 4 14 5 13 6 12 7 10 8 11 9 9 10 4 11 5 12
REMARK SMILES IDX 81 13 6 14 7 15 8 16 3 17 2 18 1 19 82 20 83 21 86 22 84 23
REMARK SMILES IDX 85 24 87 25 88 26 89 27 19 28 20 29 21 30 22 31 23 32 24 33
REMARK SMILES IDX 25 34 26 35 27 36 28 37 80 38 29 39 79 40 30 41 31 42 32 43
REMARK SMILES IDX 73 44 33 45 78 46 72 47 74 48 34 49 77 50 71 51 70 52 35 54
REMARK SMILES IDX 61 55 44 56 60 57 45 58 48 59 59 60 75 61 46 62 47 63 58 65
REMARK SMILES IDX 76 66 49 67 36 68 37 69 42 70 38 71 39 72 41 73 43 74 40 75
REMARK SMILES IDX 62 76 63 77 68 78 64 79 65 80 67 81 69 82 66 83 50 84 51 85
REMARK SMILES IDX 56 86 52 87 53 88 55 89 57 90 54 91
REMARK H PARENT 74 53 48 64
REMARK Flexibility Score: inf
ROOT
ATOM      1  O   UNL A   1      35.438  32.454  33.501  1.00  0.00    -0.377 OA
ENDROOT
BRANCH   1   2
ATOM      2  C   UNL A   1      36.725  32.930  33.839  1.00  0.00     0.188 C 
BRANCH   2   3
ATOM      3  C   UNL A   1      37.879  32.255  33.071  1.00  0.00     0.188 C 
BRANCH   3   4
ATOM      4  O   UNL A   1      37.906  30.847  32.854  1.00  0.00    -0.376 OA
BRANCH   4   5
ATOM      5  C   UNL A   1      38.788  29.997  33.575  1.00  0.00     0.202 C 
BRANCH   5   6
ATOM      6  C   UNL A   1      39.667  28.967  32.864  1.00  0.00     0.261 C 
BRANCH   6   7
ATOM      7  O   UNL A   1      40.173  27.933  33.712  1.00  0.00    -0.461 OA
BRANCH   7   8
ATOM      8  C   UNL A   1      41.514  27.820  33.789  1.00  0.00     0.337 C 
ATOM      9  O   UNL A   1      42.299  28.133  32.900  1.00  0.00    -0.249 OA
BRANCH   8  10
ATOM     10  C   UNL A   1      41.977  27.188  35.101  1.00  0.00     0.257 C 
ATOM     11  N   UNL A   1      44.042  26.776  36.340  1.00  0.00    -0.329 N 
ATOM     12  C   UNL A   1      43.211  26.400  37.410  1.00  0.00     0.249 C 
ATOM     13  C   UNL A   1      43.478  26.864  35.003  1.00  0.00     0.174 C 
ATOM     14  O   UNL A   1      43.568  26.443  38.588  1.00  0.00    -0.272 OA
ATOM     15  C   UNL A   1      41.769  25.952  37.050  1.00  0.00     0.261 C 
ATOM     16  O   UNL A   1      41.344  26.072  35.701  1.00  0.00    -0.354 OA
BRANCH  11  17
ATOM     17  C   UNL A   1      45.311  27.466  36.607  1.00  0.00     0.120 C 
BRANCH  17  18
ATOM     18  C   UNL A   1      46.044  28.011  35.379  1.00  0.00     0.018 C 
ATOM     19  C   UNL A   1      47.564  27.944  35.414  1.00  0.00     0.006 C 
ENDBRANCH  17  18
ENDBRANCH  11  17
BRANCH  13  20
ATOM     20  C   UNL A   1      43.825  25.732  34.048  1.00  0.00     0.064 A 
ATOM     21  C   UNL A   1      44.202  25.989  32.721  1.00  0.00     0.136 A 
ATOM     22  N   UNL A   1      43.997  24.354  34.133  1.00  0.00    -0.330 N 
ATOM     23  N   UNL A   1      44.509  24.877  32.013  1.00  0.00    -0.245 NA
ATOM     24  C   UNL A   1      44.363  23.912  32.878  1.00  0.00     0.199 A 
BRANCH  22  25
ATOM     25  C   UNL A   1      43.930  23.326  35.161  1.00  0.00     0.088 C 
ATOM     26  C   UNL A   1      44.715  22.069  35.386  1.00  0.00     0.027 C 
ATOM     27  C   UNL A   1      44.946  23.242  36.277  1.00  0.00     0.027 C 
ENDBRANCH  22  25
ENDBRANCH  13  20
ENDBRANCH   8  10
ENDBRANCH   7   8
ENDBRANCH   6   7
ENDBRANCH   5   6
ENDBRANCH   4   5
ENDBRANCH   3   4
ENDBRANCH   2   3
ENDBRANCH   1   2
BRANCH   1  28
ATOM     28  C   UNL A   1      34.417  33.433  33.382  1.00  0.00     0.188 C 
BRANCH  28  29
ATOM     29  C   UNL A   1      34.637  34.576  32.366  1.00  0.00     0.188 C 
BRANCH  29  30
ATOM     30  O   UNL A   1      33.617  34.696  31.385  1.00  0.00    -0.376 OA
BRANCH  30  31
ATOM     31  C   UNL A   1      33.906  34.342  30.041  1.00  0.00     0.202 C 
BRANCH  31  32
ATOM     32  C   UNL A   1      35.112  33.423  29.775  1.00  0.00     0.261 C 
BRANCH  32  33
ATOM     33  O   UNL A   1      34.896  32.016  29.961  1.00  0.00    -0.460 OA
BRANCH  33  34
ATOM     34  C   UNL A   1      34.823  31.249  28.857  1.00  0.00     0.338 C 
ATOM     35  O   UNL A   1      33.974  31.301  27.979  1.00  0.00    -0.246 OA
BRANCH  34  36
ATOM     36  C   UNL A   1      36.063  30.454  28.762  1.00  0.00     0.060 A 
ATOM     37  C   UNL A   1      36.468  29.709  29.878  1.00  0.00     0.016 A 
ATOM     38  C   UNL A   1      36.837  30.464  27.599  1.00  0.00     0.016 A 
ATOM     39  C   UNL A   1      37.682  29.029  29.858  1.00  0.00     0.010 A 
ATOM     40  C   UNL A   1      38.068  29.801  27.589  1.00  0.00     0.010 A 
ATOM     41  C   UNL A   1      38.517  29.128  28.739  1.00  0.00    -0.014 A 
BRANCH  41  42
ATOM     42  C   UNL A   1      39.942  28.747  28.884  1.00  0.00     0.031 A 
ATOM     43  C   UNL A   1      40.877  29.736  29.532  1.00  0.00     0.074 A 
ATOM     44  C   UNL A   1      40.387  27.532  28.521  1.00  0.00     0.049 A 
ATOM     45  N   UNL A   1      42.156  29.632  29.784  1.00  0.00    -0.248 NA
ATOM     46  C   UNL A   1      40.285  31.017  29.953  1.00  0.00     0.031 C 
ATOM     47  C   UNL A   1      39.572  26.476  27.925  1.00  0.00     0.029 A 
ATOM     48  N   UNL A   1      41.643  26.986  28.604  1.00  0.00    -0.354 N 
ATOM     49  C   UNL A   1      42.521  30.833  30.381  1.00  0.00     0.074 A 
ATOM     50  C   UNL A   1      41.339  31.664  30.425  1.00  0.00     0.031 C 
ATOM     51  C   UNL A   1      40.354  25.408  27.685  1.00  0.00     0.029 A 
ATOM     52  C   UNL A   1      41.725  25.716  28.086  1.00  0.00     0.049 A 
ATOM     53  H   UNL A   1      42.411  27.459  28.997  1.00  0.00     0.167 HD
ATOM     54  C   UNL A   1      43.731  31.207  30.858  1.00  0.00     0.037 A 
ATOM     55  C   UNL A   1      42.794  24.909  27.937  1.00  0.00     0.037 A 
ATOM     56  C   UNL A   1      44.905  30.376  30.819  1.00  0.00     0.049 A 
ATOM     57  C   UNL A   1      44.142  25.372  28.428  1.00  0.00     0.074 A 
ATOM     58  C   UNL A   1      46.172  30.654  31.297  1.00  0.00     0.029 A 
ATOM     59  N   UNL A   1      44.955  29.107  30.263  1.00  0.00    -0.354 N 
ATOM     60  N   UNL A   1      44.472  26.497  29.018  1.00  0.00    -0.248 NA
ATOM     61  C   UNL A   1      45.266  24.443  28.246  1.00  0.00     0.031 C 
ATOM     62  C   UNL A   1      47.006  29.578  30.974  1.00  0.00     0.029 A 
ATOM     63  C   UNL A   1      46.241  28.600  30.361  1.00  0.00     0.049 A 
ATOM     64  H   UNL A   1      44.191  28.636  29.859  1.00  0.00     0.167 HD
ATOM     65  C   UNL A   1      45.829  26.395  29.306  1.00  0.00     0.074 A 
ATOM     66  C   UNL A   1      46.254  25.091  28.844  1.00  0.00     0.031 C 
ATOM     67  C   UNL A   1      46.649  27.297  29.901  1.00  0.00     0.037 A 
BRANCH  54  68
ATOM     68  C   UNL A   1      43.855  32.590  31.430  1.00  0.00     0.057 A 
ATOM     69  C   UNL A   1      43.681  32.852  32.794  1.00  0.00     0.134 A 
ATOM     70  C   UNL A   1      44.192  33.670  30.604  1.00  0.00     0.134 A 
ATOM     71  F   UNL A   1      43.339  31.867  33.639  1.00  0.00    -0.206 F 
ATOM     72  C   UNL A   1      43.819  34.141  33.314  1.00  0.00     0.040 A 
ATOM     73  C   UNL A   1      44.362  34.957  31.115  1.00  0.00     0.040 A 
ATOM     74  F   UNL A   1      44.374  33.490  29.287  1.00  0.00    -0.206 F 
ATOM     75  C   UNL A   1      44.170  35.197  32.474  1.00  0.00     0.006 A 
ENDBRANCH  54  68
BRANCH  55  76
ATOM     76  C   UNL A   1      42.646  23.586  27.276  1.00  0.00     0.057 A 
ATOM     77  C   UNL A   1      42.265  22.446  27.995  1.00  0.00     0.134 A 
ATOM     78  C   UNL A   1      42.930  23.421  25.915  1.00  0.00     0.134 A 
ATOM     79  F   UNL A   1      42.003  22.532  29.308  1.00  0.00    -0.206 F 
ATOM     80  C   UNL A   1      42.200  21.188  27.393  1.00  0.00     0.040 A 
ATOM     81  C   UNL A   1      42.839  22.175  25.293  1.00  0.00     0.040 A 
ATOM     82  F   UNL A   1      43.302  24.472  25.168  1.00  0.00    -0.206 F 
ATOM     83  C   UNL A   1      42.485  21.051  26.036  1.00  0.00     0.006 A 
ENDBRANCH  55  76
BRANCH  67  84
ATOM     84  C   UNL A   1      48.075  26.882  30.134  1.00  0.00     0.057 A 
ATOM     85  C   UNL A   1      48.483  26.222  31.300  1.00  0.00     0.134 A 
ATOM     86  C   UNL A   1      49.056  27.137  29.164  1.00  0.00     0.134 A 
ATOM     87  F   UNL A   1      47.597  25.951  32.272  1.00  0.00    -0.206 F 
ATOM     88  C   UNL A   1      49.817  25.872  31.515  1.00  0.00     0.040 A 
ATOM     89  C   UNL A   1      50.387  26.761  29.351  1.00  0.00     0.040 A 
ATOM     90  F   UNL A   1      48.735  27.752  28.015  1.00  0.00    -0.206 F 
ATOM     91  C   UNL A   1      50.773  26.138  30.535  1.00  0.00     0.006 A 
ENDBRANCH  67  84
ENDBRANCH  41  42
ENDBRANCH  34  36
ENDBRANCH  33  34
ENDBRANCH  32  33
ENDBRANCH  31  32
ENDBRANCH  30  31
ENDBRANCH  29  30
ENDBRANCH  28  29
ENDBRANCH   1  28
TORSDOF 24
ENDMDL
MODEL 2
REMARK VINA RESULT:      -7.8      0.562      5.970
REMARK SMILES CCCN1C(=O)CO[C@H](C(=O)OCCOCCOCCOCCOC(=O)c2ccc(-c3c4nc(c(-c5c(F)cccc5F)c5ccc([nH]5)c(-c5c(F)cccc5F)c5nc(c(-c6c(F)cccc6F)c6ccc3[nH]6)C=C5)C=C4)cc2)[C@@H]1c1cncn1C1CC1
REMARK SMILES IDX 18 1 17 2 16 3 15 4 14 5 13 6 12 7 10 8 11 9 9 10 4 11 5 12
REMARK SMILES IDX 81 13 6 14 7 15 8 16 3 17 2 18 1 19 82 20 83 21 86 22 84 23
REMARK SMILES IDX 85 24 87 25 88 26 89 27 19 28 20 29 21 30 22 31 23 32 24 33
REMARK SMILES IDX 25 34 26 35 27 36 28 37 80 38 29 39 79 40 30 41 31 42 32 43
REMARK SMILES IDX 73 44 33 45 78 46 72 47 74 48 34 49 77 50 71 51 70 52 35 54
REMARK SMILES IDX 61 55 44 56 60 57 45 58 48 59 59 60 75 61 46 62 47 63 58 65
REMARK SMILES IDX 76 66 49 67 36 68 37 69 42 70 38 71 39 72 41 73 43 74 40 75
REMARK SMILES IDX 62 76 63 77 68 78 64 79 65 80 67 81 69 82 66 83 50 84 51 85
REMARK SMILES IDX 56 86 52 87 53 88 55 89 57 90 54 91
REMARK H PARENT 74 53 48 64
REMARK Flexibility Score: inf
ROOT
ATOM      1  O   UNL A   1      35.341  32.604  33.565  1.00  0.00    -0.377 OA
ENDROOT
BRANCH   1   2
ATOM      2  C   UNL A   1      36.480  33.296  34.034  1.00  0.00     0.188 C 
BRANCH   2   3
ATOM      3  C   UNL A   1      37.820  32.777  33.474  1.00  0.00     0.188 C 
BRANCH   3   4
ATOM      4  O   UNL A   1      37.948  31.458  32.953  1.00  0.00    -0.376 OA
BRANCH   4   5
ATOM      5  C   UNL A   1      38.525  30.406  33.715  1.00  0.00     0.202 C 
BRANCH   5   6
ATOM      6  C   UNL A   1      39.589  29.479  33.125  1.00  0.00     0.261 C 
BRANCH   6   7
ATOM      7  O   UNL A   1      40.139  28.541  34.053  1.00  0.00    -0.461 OA
BRANCH   7   8
ATOM      8  C   UNL A   1      41.470  28.344  33.993  1.00  0.00     0.337 C 
ATOM      9  O   UNL A   1      42.185  28.651  33.044  1.00  0.00    -0.249 OA
BRANCH   8  10
ATOM     10  C   UNL A   1      42.016  27.622  35.225  1.00  0.00     0.257 C 
ATOM     11  N   UNL A   1      44.153  27.150  36.309  1.00  0.00    -0.329 N 
ATOM     12  C   UNL A   1      43.390  26.683  37.394  1.00  0.00     0.249 C 
ATOM     13  C   UNL A   1      43.512  27.329  35.017  1.00  0.00     0.174 C 
ATOM     14  O   UNL A   1      43.813  26.643  38.549  1.00  0.00    -0.272 OA
ATOM     15  C   UNL A   1      41.934  26.241  37.083  1.00  0.00     0.261 C 
ATOM     16  O   UNL A   1      41.430  26.456  35.773  1.00  0.00    -0.354 OA
BRANCH  11  17
ATOM     17  C   UNL A   1      45.428  27.837  36.555  1.00  0.00     0.120 C 
BRANCH  17  18
ATOM     18  C   UNL A   1      45.490  29.303  36.118  1.00  0.00     0.018 C 
ATOM     19  C   UNL A   1      46.368  29.612  34.914  1.00  0.00     0.006 C 
ENDBRANCH  17  18
ENDBRANCH  11  17
BRANCH  13  20
ATOM     20  C   UNL A   1      43.815  26.277  33.961  1.00  0.00     0.064 A 
ATOM     21  C   UNL A   1      44.324  26.635  32.703  1.00  0.00     0.136 A 
ATOM     22  N   UNL A   1      43.835  24.888  33.895  1.00  0.00    -0.330 N 
ATOM     23  N   UNL A   1      44.569  25.579  31.892  1.00  0.00    -0.245 NA
ATOM     24  C   UNL A   1      44.254  24.548  32.624  1.00  0.00     0.199 A 
BRANCH  22  25
ATOM     25  C   UNL A   1      43.578  23.768  34.786  1.00  0.00     0.088 C 
ATOM     26  C   UNL A   1      43.995  22.329  34.748  1.00  0.00     0.027 C 
ATOM     27  C   UNL A   1      44.628  23.245  35.739  1.00  0.00     0.027 C 
ENDBRANCH  22  25
ENDBRANCH  13  20
ENDBRANCH   8  10
ENDBRANCH   7   8
ENDBRANCH   6   7
ENDBRANCH   5   6
ENDBRANCH   4   5
ENDBRANCH   3   4
ENDBRANCH   2   3
ENDBRANCH   1   2
BRANCH   1  28
ATOM     28  C   UNL A   1      34.235  33.404  33.176  1.00  0.00     0.188 C 
BRANCH  28  29
ATOM     29  C   UNL A   1      34.493  34.530  32.150  1.00  0.00     0.188 C 
BRANCH  29  30
ATOM     30  O   UNL A   1      33.579  34.556  31.062  1.00  0.00    -0.376 OA
BRANCH  30  31
ATOM     31  C   UNL A   1      34.001  34.074  29.796  1.00  0.00     0.202 C 
BRANCH  31  32
ATOM     32  C   UNL A   1      35.199  33.109  29.747  1.00  0.00     0.261 C 
BRANCH  32  33
ATOM     33  O   UNL A   1      34.898  31.711  29.868  1.00  0.00    -0.460 OA
BRANCH  33  34
ATOM     34  C   UNL A   1      34.978  30.960  28.753  1.00  0.00     0.338 C 
ATOM     35  O   UNL A   1      34.207  30.967  27.805  1.00  0.00    -0.246 OA
BRANCH  34  36
ATOM     36  C   UNL A   1      36.276  30.257  28.759  1.00  0.00     0.060 A 
ATOM     37  C   UNL A   1      36.694  29.634  29.942  1.00  0.00     0.016 A 
ATOM     38  C   UNL A   1      37.089  30.238  27.623  1.00  0.00     0.016 A 
ATOM     39  C   UNL A   1      37.956  29.049  30.013  1.00  0.00     0.010 A 
ATOM     40  C   UNL A   1      38.365  29.673  27.703  1.00  0.00     0.010 A 
ATOM     41  C   UNL A   1      38.821  29.126  28.915  1.00  0.00    -0.014 A 
BRANCH  41  42
ATOM     42  C   UNL A   1      40.264  28.868  29.133  1.00  0.00     0.031 A 
ATOM     43  C   UNL A   1      40.826  27.551  28.664  1.00  0.00     0.074 A 
ATOM     44  C   UNL A   1      41.074  29.799  29.666  1.00  0.00     0.049 A 
ATOM     45  N   UNL A   1      42.051  27.097  28.728  1.00  0.00    -0.248 NA
ATOM     46  C   UNL A   1      39.873  26.619  28.037  1.00  0.00     0.031 C 
ATOM     47  C   UNL A   1      40.658  31.125  30.117  1.00  0.00     0.029 A 
ATOM     48  N   UNL A   1      42.423  29.764  29.915  1.00  0.00    -0.354 N 
ATOM     49  C   UNL A   1      42.013  25.829  28.161  1.00  0.00     0.074 A 
ATOM     50  C   UNL A   1      40.641  25.570  27.788  1.00  0.00     0.031 C 
ATOM     51  C   UNL A   1      41.731  31.776  30.599  1.00  0.00     0.029 A 
ATOM     52  C   UNL A   1      42.901  30.903  30.515  1.00  0.00     0.049 A 
ATOM     53  H   UNL A   1      42.993  28.995  29.685  1.00  0.00     0.167 HD
ATOM     54  C   UNL A   1      43.032  24.961  27.960  1.00  0.00     0.037 A 
ATOM     55  C   UNL A   1      44.138  31.194  30.960  1.00  0.00     0.037 A 
ATOM     56  C   UNL A   1      44.398  25.224  28.326  1.00  0.00     0.049 A 
ATOM     57  C   UNL A   1      45.245  30.187  30.773  1.00  0.00     0.074 A 
ATOM     58  C   UNL A   1      45.508  24.419  28.143  1.00  0.00     0.029 A 
ATOM     59  N   UNL A   1      44.839  26.379  28.955  1.00  0.00    -0.354 N 
ATOM     60  N   UNL A   1      45.206  29.002  30.210  1.00  0.00    -0.248 NA
ATOM     61  C   UNL A   1      46.575  30.566  31.273  1.00  0.00     0.031 C 
ATOM     62  C   UNL A   1      46.611  25.059  28.719  1.00  0.00     0.029 A 
ATOM     63  C   UNL A   1      46.201  26.294  29.194  1.00  0.00     0.049 A 
ATOM     64  H   UNL A   1      44.268  27.144  29.196  1.00  0.00     0.167 HD
ATOM     65  C   UNL A   1      46.507  28.513  30.256  1.00  0.00     0.074 A 
ATOM     66  C   UNL A   1      47.313  29.538  30.885  1.00  0.00     0.031 C 
ATOM     67  C   UNL A   1      46.992  27.325  29.817  1.00  0.00     0.037 A 
BRANCH  54  68
ATOM     68  C   UNL A   1      42.701  23.630  27.349  1.00  0.00     0.057 A 
ATOM     69  C   UNL A   1      42.749  23.409  25.967  1.00  0.00     0.134 A 
ATOM     70  C   UNL A   1      42.364  22.541  28.164  1.00  0.00     0.134 A 
ATOM     71  F   UNL A   1      43.046  24.413  25.127  1.00  0.00    -0.206 F 
ATOM     72  C   UNL A   1      42.457  22.160  25.416  1.00  0.00     0.040 A 
ATOM     73  C   UNL A   1      42.100  21.281  27.628  1.00  0.00     0.040 A 
ATOM     74  F   UNL A   1      42.299  22.682  29.497  1.00  0.00    -0.206 F 
ATOM     75  C   UNL A   1      42.140  21.088  26.250  1.00  0.00     0.006 A 
ENDBRANCH  54  68
BRANCH  55  76
ATOM     76  C   UNL A   1      44.403  32.484  31.648  1.00  0.00     0.057 A 
ATOM     77  C   UNL A   1      44.742  33.640  30.933  1.00  0.00     0.134 A 
ATOM     78  C   UNL A   1      44.368  32.581  33.045  1.00  0.00     0.134 A 
ATOM     79  F   UNL A   1      44.817  33.608  29.594  1.00  0.00    -0.206 F 
ATOM     80  C   UNL A   1      45.066  34.834  31.581  1.00  0.00     0.040 A 
ATOM     81  C   UNL A   1      44.659  33.776  33.704  1.00  0.00     0.040 A 
ATOM     82  F   UNL A   1      44.052  31.511  33.791  1.00  0.00    -0.206 F 
ATOM     83  C   UNL A   1      45.021  34.904  32.971  1.00  0.00     0.006 A 
ENDBRANCH  55  76
BRANCH  67  84
ATOM     84  C   UNL A   1      48.472  27.093  29.953  1.00  0.00     0.057 A 
ATOM     85  C   UNL A   1      49.036  26.505  31.092  1.00  0.00     0.134 A 
ATOM     86  C   UNL A   1      49.345  27.454  28.917  1.00  0.00     0.134 A 
ATOM     87  F   UNL A   1      48.259  26.140  32.124  1.00  0.00    -0.206 F 
ATOM     88  C   UNL A   1      50.415  26.326  31.216  1.00  0.00     0.040 A 
ATOM     89  C   UNL A   1      50.722  27.248  29.014  1.00  0.00     0.040 A 
ATOM     90  F   UNL A   1      48.873  28.008  27.789  1.00  0.00    -0.206 F 
ATOM     91  C   UNL A   1      51.262  26.694  30.172  1.00  0.00     0.006 A 
ENDBRANCH  67  84
ENDBRANCH  41  42
ENDBRANCH  34  36
ENDBRANCH  33  34
ENDBRANCH  32  33
ENDBRANCH  31  32
ENDBRANCH  30  31
ENDBRANCH  29  30
ENDBRANCH  28  29
ENDBRANCH   1  28
TORSDOF 24
ENDMDL
MODEL 3
REMARK VINA RESULT:      -7.7      5.452     12.324
REMARK SMILES CCCN1C(=O)CO[C@H](C(=O)OCCOCCOCCOCCOC(=O)c2ccc(-c3c4nc(c(-c5c(F)cccc5F)c5ccc([nH]5)c(-c5c(F)cccc5F)c5nc(c(-c6c(F)cccc6F)c6ccc3[nH]6)C=C5)C=C4)cc2)[C@@H]1c1cncn1C1CC1
REMARK SMILES IDX 18 1 17 2 16 3 15 4 14 5 13 6 12 7 10 8 11 9 9 10 4 11 5 12
REMARK SMILES IDX 81 13 6 14 7 15 8 16 3 17 2 18 1 19 82 20 83 21 86 22 84 23
REMARK SMILES IDX 85 24 87 25 88 26 89 27 19 28 20 29 21 30 22 31 23 32 24 33
REMARK SMILES IDX 25 34 26 35 27 36 28 37 80 38 29 39 79 40 30 41 31 42 32 43
REMARK SMILES IDX 73 44 33 45 78 46 72 47 74 48 34 49 77 50 71 51 70 52 35 54
REMARK SMILES IDX 61 55 44 56 60 57 45 58 48 59 59 60 75 61 46 62 47 63 58 65
REMARK SMILES IDX 76 66 49 67 36 68 37 69 42 70 38 71 39 72 41 73 43 74 40 75
REMARK SMILES IDX 62 76 63 77 68 78 64 79 65 80 67 81 69 82 66 83 50 84 51 85
REMARK SMILES IDX 56 86 52 87 53 88 55 89 57 90 54 91
REMARK H PARENT 74 53 48 64
REMARK Flexibility Score: inf
ROOT
ATOM      1  O   UNL A   1      37.045  22.524  26.085  1.00  0.00    -0.377 OA
ENDROOT
BRANCH   1   2
ATOM      2  C   UNL A   1      36.348  23.661  25.617  1.00  0.00     0.188 C 
BRANCH   2   3
ATOM      3  C   UNL A   1      34.837  23.655  25.923  1.00  0.00     0.188 C 
BRANCH   3   4
ATOM      4  O   UNL A   1      34.115  22.438  26.089  1.00  0.00    -0.376 OA
BRANCH   4   5
ATOM      5  C   UNL A   1      33.237  21.948  25.085  1.00  0.00     0.202 C 
BRANCH   5   6
ATOM      6  C   UNL A   1      32.653  22.867  24.011  1.00  0.00     0.261 C 
BRANCH   6   7
ATOM      7  O   UNL A   1      31.486  23.586  24.415  1.00  0.00    -0.461 OA
BRANCH   7   8
ATOM      8  C   UNL A   1      31.688  24.788  24.990  1.00  0.00     0.337 C 
ATOM      9  O   UNL A   1      31.359  25.085  26.134  1.00  0.00    -0.249 OA
BRANCH   8  10
ATOM     10  C   UNL A   1      32.326  25.797  24.036  1.00  0.00     0.257 C 
ATOM     11  N   UNL A   1      32.667  28.208  23.836  1.00  0.00    -0.329 N 
ATOM     12  C   UNL A   1      33.528  27.900  22.768  1.00  0.00     0.249 C 
ATOM     13  C   UNL A   1      31.743  27.194  24.316  1.00  0.00     0.174 C 
ATOM     14  O   UNL A   1      34.437  28.643  22.398  1.00  0.00    -0.272 OA
ATOM     15  C   UNL A   1      33.313  26.529  22.072  1.00  0.00     0.261 C 
ATOM     16  O   UNL A   1      32.365  25.631  22.631  1.00  0.00    -0.354 OA
BRANCH  11  17
ATOM     17  C   UNL A   1      32.972  29.345  24.716  1.00  0.00     0.120 C 
BRANCH  17  18
ATOM     18  C   UNL A   1      32.026  29.539  25.904  1.00  0.00     0.018 C 
ATOM     19  C   UNL A   1      31.546  30.961  26.158  1.00  0.00     0.006 C 
ENDBRANCH  17  18
ENDBRANCH  11  17
BRANCH  13  20
ATOM     20  C   UNL A   1      30.284  27.367  23.919  1.00  0.00     0.064 A 
ATOM     21  C   UNL A   1      29.333  26.372  24.192  1.00  0.00     0.136 A 
ATOM     22  N   UNL A   1      29.494  28.383  23.391  1.00  0.00    -0.330 N 
ATOM     23  N   UNL A   1      28.077  26.695  23.804  1.00  0.00    -0.245 NA
ATOM     24  C   UNL A   1      28.205  27.897  23.315  1.00  0.00     0.199 A 
BRANCH  22  25
ATOM     25  C   UNL A   1      29.667  29.762  22.960  1.00  0.00     0.088 C 
ATOM     26  C   UNL A   1      29.215  30.504  21.739  1.00  0.00     0.027 C 
ATOM     27  C   UNL A   1      28.548  30.774  23.045  1.00  0.00     0.027 C 
ENDBRANCH  22  25
ENDBRANCH  13  20
ENDBRANCH   8  10
ENDBRANCH   7   8
ENDBRANCH   6   7
ENDBRANCH   5   6
ENDBRANCH   4   5
ENDBRANCH   3   4
ENDBRANCH   2   3
ENDBRANCH   1   2
BRANCH   1  28
ATOM     28  C   UNL A   1      38.462  22.595  26.046  1.00  0.00     0.188 C 
BRANCH  28  29
ATOM     29  C   UNL A   1      39.241  21.269  25.897  1.00  0.00     0.188 C 
BRANCH  29  30
ATOM     30  O   UNL A   1      40.047  20.931  27.017  1.00  0.00    -0.376 OA
BRANCH  30  31
ATOM     31  C   UNL A   1      41.458  20.896  26.866  1.00  0.00     0.202 C 
BRANCH  31  32
ATOM     32  C   UNL A   1      42.108  21.881  25.877  1.00  0.00     0.261 C 
BRANCH  32  33
ATOM     33  O   UNL A   1      43.071  22.794  26.425  1.00  0.00    -0.460 OA
BRANCH  33  34
ATOM     34  C   UNL A   1      43.228  23.977  25.801  1.00  0.00     0.338 C 
ATOM     35  O   UNL A   1      43.653  24.161  24.670  1.00  0.00    -0.246 OA
BRANCH  34  36
ATOM     36  C   UNL A   1      42.609  25.027  26.632  1.00  0.00     0.060 A 
ATOM     37  C   UNL A   1      43.171  26.310  26.618  1.00  0.00     0.016 A 
ATOM     38  C   UNL A   1      41.506  24.746  27.443  1.00  0.00     0.016 A 
ATOM     39  C   UNL A   1      42.675  27.298  27.465  1.00  0.00     0.010 A 
ATOM     40  C   UNL A   1      41.026  25.731  28.311  1.00  0.00     0.010 A 
ATOM     41  C   UNL A   1      41.646  26.992  28.363  1.00  0.00    -0.014 A 
BRANCH  41  42
ATOM     42  C   UNL A   1      41.410  27.905  29.506  1.00  0.00     0.031 A 
ATOM     43  C   UNL A   1      40.236  28.846  29.430  1.00  0.00     0.074 A 
ATOM     44  C   UNL A   1      42.169  27.856  30.614  1.00  0.00     0.049 A 
ATOM     45  N   UNL A   1      39.815  29.726  30.302  1.00  0.00    -0.248 NA
ATOM     46  C   UNL A   1      39.426  28.784  28.201  1.00  0.00     0.031 C 
ATOM     47  C   UNL A   1      43.303  26.959  30.825  1.00  0.00     0.029 A 
ATOM     48  N   UNL A   1      42.092  28.583  31.775  1.00  0.00    -0.354 N 
ATOM     49  C   UNL A   1      38.703  30.326  29.723  1.00  0.00     0.074 A 
ATOM     50  C   UNL A   1      38.532  29.736  28.415  1.00  0.00     0.031 C 
ATOM     51  C   UNL A   1      43.825  27.198  32.042  1.00  0.00     0.029 A 
ATOM     52  C   UNL A   1      43.078  28.280  32.681  1.00  0.00     0.049 A 
ATOM     53  H   UNL A   1      41.395  29.258  31.942  1.00  0.00     0.167 HD
ATOM     54  C   UNL A   1      37.891  31.278  30.240  1.00  0.00     0.037 A 
ATOM     55  C   UNL A   1      43.353  28.830  33.879  1.00  0.00     0.037 A 
ATOM     56  C   UNL A   1      38.060  31.859  31.546  1.00  0.00     0.049 A 
ATOM     57  C   UNL A   1      42.465  29.928  34.409  1.00  0.00     0.074 A 
ATOM     58  C   UNL A   1      37.277  32.813  32.170  1.00  0.00     0.029 A 
ATOM     59  N   UNL A   1      39.086  31.544  32.423  1.00  0.00    -0.354 N 
ATOM     60  N   UNL A   1      41.398  30.468  33.868  1.00  0.00    -0.248 NA
ATOM     61  C   UNL A   1      42.811  30.481  35.725  1.00  0.00     0.031 C 
ATOM     62  C   UNL A   1      37.865  33.123  33.401  1.00  0.00     0.029 A 
ATOM     63  C   UNL A   1      38.973  32.308  33.574  1.00  0.00     0.049 A 
ATOM     64  H   UNL A   1      39.790  30.878  32.253  1.00  0.00     0.167 HD
ATOM     65  C   UNL A   1      40.929  31.397  34.791  1.00  0.00     0.074 A 
ATOM     66  C   UNL A   1      41.817  31.330  35.933  1.00  0.00     0.031 C 
ATOM     67  C   UNL A   1      39.861  32.228  34.705  1.00  0.00     0.037 A 
BRANCH  54  68
ATOM     68  C   UNL A   1      36.768  31.777  29.377  1.00  0.00     0.057 A 
ATOM     69  C   UNL A   1      36.791  33.042  28.778  1.00  0.00     0.134 A 
ATOM     70  C   UNL A   1      35.662  30.958  29.112  1.00  0.00     0.134 A 
ATOM     71  F   UNL A   1      37.811  33.884  29.005  1.00  0.00    -0.206 F 
ATOM     72  C   UNL A   1      35.747  33.483  27.962  1.00  0.00     0.040 A 
ATOM     73  C   UNL A   1      34.628  31.375  28.275  1.00  0.00     0.040 A 
ATOM     74  F   UNL A   1      35.576  29.733  29.653  1.00  0.00    -0.206 F 
ATOM     75  C   UNL A   1      34.665  32.644  27.701  1.00  0.00     0.006 A 
ENDBRANCH  54  68
BRANCH  55  76
ATOM     76  C   UNL A   1      44.533  28.374  34.660  1.00  0.00     0.057 A 
ATOM     77  C   UNL A   1      45.788  28.980  34.513  1.00  0.00     0.134 A 
ATOM     78  C   UNL A   1      44.444  27.288  35.539  1.00  0.00     0.134 A 
ATOM     79  F   UNL A   1      45.945  30.009  33.668  1.00  0.00    -0.206 F 
ATOM     80  C   UNL A   1      46.914  28.504  35.187  1.00  0.00     0.040 A 
ATOM     81  C   UNL A   1      45.555  26.822  36.243  1.00  0.00     0.040 A 
ATOM     82  F   UNL A   1      43.272  26.662  35.725  1.00  0.00    -0.206 F 
ATOM     83  C   UNL A   1      46.798  27.424  36.058  1.00  0.00     0.006 A 
ENDBRANCH  55  76
BRANCH  67  84
ATOM     84  C   UNL A   1      39.563  33.092  35.898  1.00  0.00     0.057 A 
ATOM     85  C   UNL A   1      40.080  34.388  36.033  1.00  0.00     0.134 A 
ATOM     86  C   UNL A   1      38.732  32.622  36.926  1.00  0.00     0.134 A 
ATOM     87  F   UNL A   1      40.887  34.898  35.090  1.00  0.00    -0.206 F 
ATOM     88  C   UNL A   1      39.820  35.166  37.163  1.00  0.00     0.040 A 
ATOM     89  C   UNL A   1      38.436  33.404  38.044  1.00  0.00     0.040 A 
ATOM     90  F   UNL A   1      38.189  31.397  36.857  1.00  0.00    -0.206 F 
ATOM     91  C   UNL A   1      38.991  34.675  38.170  1.00  0.00     0.006 A 
ENDBRANCH  67  84
ENDBRANCH  41  42
ENDBRANCH  34  36
ENDBRANCH  33  34
ENDBRANCH  32  33
ENDBRANCH  31  32
ENDBRANCH  30  31
ENDBRANCH  29  30
ENDBRANCH  28  29
ENDBRANCH   1  28
TORSDOF 24
ENDMDL
