MODEL 1
REMARK VINA RESULT:      -9.7      0.000      0.000
REMARK SMILES [NH3+][C@@]1(C(=O)OCCOCCOCCOCCOC(=O)c2ccc(-c3c4nc(c(-c5c(F)cccc5F)c5ccc([nH]5)c(-c5c(F)cccc5F)c5nc(c(-c6c(F)cccc6F)c6ccc3[nH]6)C=C5)C=C4)cc2)CCC[C@@H](Oc2ccccc2[N+](=O)[O-])C1
REMARK SMILES IDX 10 1 9 2 8 3 7 4 6 5 5 6 3 7 4 8 2 9 74 10 88 11 75 12 77 13
REMARK SMILES IDX 76 14 1 15 78 19 79 20 80 21 84 22 81 23 83 24 82 25 85 26
REMARK SMILES IDX 86 27 87 28 11 29 12 30 13 31 14 32 15 33 16 34 17 35 18 36
REMARK SMILES IDX 19 37 20 38 21 39 73 40 22 41 72 42 23 43 24 44 25 45 66 46
REMARK SMILES IDX 26 47 71 48 65 49 67 50 27 51 70 52 64 53 63 54 28 56 54 57
REMARK SMILES IDX 37 58 53 59 38 60 41 61 52 62 68 63 39 64 40 65 51 67 69 68
REMARK SMILES IDX 42 69 29 70 30 71 35 72 31 73 32 74 34 75 36 76 33 77 55 78
REMARK SMILES IDX 56 79 61 80 57 81 58 82 60 83 62 84 59 85 43 86 44 87 49 88
REMARK SMILES IDX 45 89 46 90 48 91 50 92 47 93
REMARK H PARENT 1 16 1 17 1 18 67 55 41 66
REMARK Flexibility Score: inf
ROOT
ATOM      1  C   UNL A   1      36.222  21.226  25.321  1.00  0.00     0.188 C 
ENDROOT
BRANCH   1   2
ATOM      2  C   UNL A   1      35.370  22.184  24.457  1.00  0.00     0.188 C 
BRANCH   2   3
ATOM      3  O   UNL A   1      33.986  21.952  24.226  1.00  0.00    -0.376 OA
BRANCH   3   4
ATOM      4  C   UNL A   1      32.995  22.706  24.904  1.00  0.00     0.202 C 
BRANCH   4   5
ATOM      5  C   UNL A   1      33.345  23.504  26.166  1.00  0.00     0.261 C 
BRANCH   5   6
ATOM      6  O   UNL A   1      33.489  24.912  25.984  1.00  0.00    -0.459 OA
BRANCH   6   7
ATOM      7  C   UNL A   1      32.429  25.714  26.318  1.00  0.00     0.368 C 
ATOM      8  O   UNL A   1      31.407  25.337  26.871  1.00  0.00    -0.245 OA
BRANCH   7   9
ATOM      9  C   UNL A   1      32.745  27.192  25.911  1.00  0.00     0.196 C 
ATOM     10  C   UNL A   1      33.696  27.921  26.879  1.00  0.00     0.081 C 
ATOM     11  C   UNL A   1      31.400  27.931  25.882  1.00  0.00     0.126 C 
ATOM     12  C   UNL A   1      33.915  29.386  26.483  1.00  0.00     0.011 C 
ATOM     13  C   UNL A   1      31.484  29.428  25.565  1.00  0.00     0.180 C 
ATOM     14  C   UNL A   1      32.608  30.159  26.324  1.00  0.00     0.046 C 
BRANCH   9  15
ATOM     15  N   UNL A   1      33.369  27.194  24.574  1.00  0.00    -0.343 N 
ATOM     16  H   UNL A   1      34.171  27.824  24.574  1.00  0.00     0.345 HD
ATOM     17  H   UNL A   1      32.689  27.510  23.882  1.00  0.00     0.345 HD
ATOM     18  H   UNL A   1      33.677  26.251  24.340  1.00  0.00     0.345 HD
ENDBRANCH   9  15
BRANCH  13  19
ATOM     19  O   UNL A   1      31.280  29.795  24.180  1.00  0.00    -0.483 OA
BRANCH  19  20
ATOM     20  C   UNL A   1      30.013  29.981  23.713  1.00  0.00     0.197 A 
ATOM     21  C   UNL A   1      29.404  31.217  23.949  1.00  0.00     0.054 A 
ATOM     22  C   UNL A   1      29.258  28.976  23.081  1.00  0.00     0.310 A 
ATOM     23  C   UNL A   1      28.124  31.492  23.454  1.00  0.00     0.004 A 
ATOM     24  C   UNL A   1      27.975  29.255  22.568  1.00  0.00     0.090 A 
ATOM     25  C   UNL A   1      27.420  30.521  22.742  1.00  0.00     0.007 A 
BRANCH  22  26
ATOM     26  N   UNL A   1      29.820  27.657  22.804  1.00  0.00     0.066 N 
ATOM     27  O   UNL A   1      29.452  26.714  23.527  1.00  0.00    -0.258 OA
ATOM     28  O   UNL A   1      30.656  27.553  21.897  1.00  0.00    -0.258 OA
ENDBRANCH  22  26
ENDBRANCH  19  20
ENDBRANCH  13  19
ENDBRANCH   7   9
ENDBRANCH   6   7
ENDBRANCH   5   6
ENDBRANCH   4   5
ENDBRANCH   3   4
ENDBRANCH   2   3
ENDBRANCH   1   2
BRANCH   1  29
ATOM     29  O   UNL A   1      37.293  20.600  24.638  1.00  0.00    -0.377 OA
BRANCH  29  30
ATOM     30  C   UNL A   1      38.495  20.521  25.396  1.00  0.00     0.188 C 
BRANCH  30  31
ATOM     31  C   UNL A   1      38.965  21.830  26.067  1.00  0.00     0.188 C 
BRANCH  31  32
ATOM     32  O   UNL A   1      40.166  21.678  26.814  1.00  0.00    -0.376 OA
BRANCH  32  33
ATOM     33  C   UNL A   1      41.357  21.268  26.166  1.00  0.00     0.202 C 
BRANCH  33  34
ATOM     34  C   UNL A   1      42.383  22.373  25.877  1.00  0.00     0.261 C 
BRANCH  34  35
ATOM     35  O   UNL A   1      41.846  23.698  25.786  1.00  0.00    -0.460 OA
BRANCH  35  36
ATOM     36  C   UNL A   1      42.729  24.718  25.821  1.00  0.00     0.338 C 
ATOM     37  O   UNL A   1      43.624  24.950  25.029  1.00  0.00    -0.246 OA
BRANCH  36  38
ATOM     38  C   UNL A   1      42.281  25.644  26.880  1.00  0.00     0.060 A 
ATOM     39  C   UNL A   1      42.944  26.869  27.025  1.00  0.00     0.016 A 
ATOM     40  C   UNL A   1      41.178  25.331  27.679  1.00  0.00     0.016 A 
ATOM     41  C   UNL A   1      42.506  27.788  27.976  1.00  0.00     0.010 A 
ATOM     42  C   UNL A   1      40.765  26.235  28.657  1.00  0.00     0.010 A 
ATOM     43  C   UNL A   1      41.439  27.458  28.820  1.00  0.00    -0.014 A 
BRANCH  43  44
ATOM     44  C   UNL A   1      41.156  28.305  29.999  1.00  0.00     0.031 A 
ATOM     45  C   UNL A   1      40.038  29.302  29.900  1.00  0.00     0.074 A 
ATOM     46  C   UNL A   1      41.867  28.183  31.133  1.00  0.00     0.049 A 
ATOM     47  N   UNL A   1      39.638  30.190  30.769  1.00  0.00    -0.248 NA
ATOM     48  C   UNL A   1      39.267  29.294  28.644  1.00  0.00     0.031 C 
ATOM     49  C   UNL A   1      42.942  27.220  31.361  1.00  0.00     0.029 A 
ATOM     50  N   UNL A   1      41.792  28.892  32.305  1.00  0.00    -0.354 N 
ATOM     51  C   UNL A   1      38.573  30.848  30.168  1.00  0.00     0.074 A 
ATOM     52  C   UNL A   1      38.404  30.275  28.852  1.00  0.00     0.031 C 
ATOM     53  C   UNL A   1      43.442  27.412  32.594  1.00  0.00     0.029 A 
ATOM     54  C   UNL A   1      42.746  28.532  33.224  1.00  0.00     0.049 A 
ATOM     55  H   UNL A   1      41.119  29.590  32.471  1.00  0.00     0.167 HD
ATOM     56  C   UNL A   1      37.803  31.840  30.673  1.00  0.00     0.037 A 
ATOM     57  C   UNL A   1      43.039  29.072  34.425  1.00  0.00     0.037 A 
ATOM     58  C   UNL A   1      37.983  32.413  31.979  1.00  0.00     0.049 A 
ATOM     59  C   UNL A   1      42.224  30.237  34.926  1.00  0.00     0.074 A 
ATOM     60  C   UNL A   1      37.244  33.409  32.592  1.00  0.00     0.029 A 
ATOM     61  N   UNL A   1      38.986  32.052  32.867  1.00  0.00    -0.354 N 
ATOM     62  N   UNL A   1      41.198  30.833  34.367  1.00  0.00    -0.248 NA
ATOM     63  C   UNL A   1      42.610  30.804  36.227  1.00  0.00     0.031 C 
ATOM     64  C   UNL A   1      37.836  33.691  33.828  1.00  0.00     0.029 A 
ATOM     65  C   UNL A   1      38.907  32.830  34.009  1.00  0.00     0.049 A 
ATOM     66  H   UNL A   1      39.653  31.346  32.709  1.00  0.00     0.167 HD
ATOM     67  C   UNL A   1      40.803  31.827  35.255  1.00  0.00     0.074 A 
ATOM     68  C   UNL A   1      41.687  31.741  36.398  1.00  0.00     0.031 C 
ATOM     69  C   UNL A   1      39.798  32.731  35.137  1.00  0.00     0.037 A 
BRANCH  56  70
ATOM     70  C   UNL A   1      36.721  32.391  29.792  1.00  0.00     0.057 A 
ATOM     71  C   UNL A   1      36.979  33.364  28.819  1.00  0.00     0.134 A 
ATOM     72  C   UNL A   1      35.407  31.922  29.905  1.00  0.00     0.134 A 
ATOM     73  F   UNL A   1      38.213  33.872  28.674  1.00  0.00    -0.206 F 
ATOM     74  C   UNL A   1      35.965  33.863  27.998  1.00  0.00     0.040 A 
ATOM     75  C   UNL A   1      34.390  32.392  29.073  1.00  0.00     0.040 A 
ATOM     76  F   UNL A   1      35.091  30.992  30.818  1.00  0.00    -0.206 F 
ATOM     77  C   UNL A   1      34.668  33.370  28.119  1.00  0.00     0.006 A 
ENDBRANCH  56  70
BRANCH  57  78
ATOM     78  C   UNL A   1      44.174  28.544  35.225  1.00  0.00     0.057 A 
ATOM     79  C   UNL A   1      45.482  28.999  35.023  1.00  0.00     0.134 A 
ATOM     80  C   UNL A   1      43.981  27.546  36.189  1.00  0.00     0.134 A 
ATOM     81  F   UNL A   1      45.736  29.935  34.096  1.00  0.00    -0.206 F 
ATOM     82  C   UNL A   1      46.559  28.468  35.735  1.00  0.00     0.040 A 
ATOM     83  C   UNL A   1      45.045  27.025  36.927  1.00  0.00     0.040 A 
ATOM     84  F   UNL A   1      42.752  27.064  36.429  1.00  0.00    -0.206 F 
ATOM     85  C   UNL A   1      46.341  27.481  36.695  1.00  0.00     0.006 A 
ENDBRANCH  57  78
BRANCH  69  86
ATOM     86  C   UNL A   1      39.587  33.682  36.280  1.00  0.00     0.057 A 
ATOM     87  C   UNL A   1      38.834  33.328  37.407  1.00  0.00     0.134 A 
ATOM     88  C   UNL A   1      40.184  34.949  36.275  1.00  0.00     0.134 A 
ATOM     89  F   UNL A   1      38.226  32.133  37.472  1.00  0.00    -0.206 F 
ATOM     90  C   UNL A   1      38.663  34.210  38.476  1.00  0.00     0.040 A 
ATOM     91  C   UNL A   1      40.045  35.827  37.351  1.00  0.00     0.040 A 
ATOM     92  F   UNL A   1      40.930  35.347  35.233  1.00  0.00    -0.206 F 
ATOM     93  C   UNL A   1      39.276  35.461  38.453  1.00  0.00     0.006 A 
ENDBRANCH  69  86
ENDBRANCH  43  44
ENDBRANCH  36  38
ENDBRANCH  35  36
ENDBRANCH  34  35
ENDBRANCH  33  34
ENDBRANCH  32  33
ENDBRANCH  31  32
ENDBRANCH  30  31
ENDBRANCH  29  30
ENDBRANCH   1  29
TORSDOF 24
ENDMDL
MODEL 2
REMARK VINA RESULT:      -9.2      1.738      6.747
REMARK SMILES [NH3+][C@@]1(C(=O)OCCOCCOCCOCCOC(=O)c2ccc(-c3c4nc(c(-c5c(F)cccc5F)c5ccc([nH]5)c(-c5c(F)cccc5F)c5nc(c(-c6c(F)cccc6F)c6ccc3[nH]6)C=C5)C=C4)cc2)CCC[C@@H](Oc2ccccc2[N+](=O)[O-])C1
REMARK SMILES IDX 10 1 9 2 8 3 7 4 6 5 5 6 3 7 4 8 2 9 74 10 88 11 75 12 77 13
REMARK SMILES IDX 76 14 1 15 78 19 79 20 80 21 84 22 81 23 83 24 82 25 85 26
REMARK SMILES IDX 86 27 87 28 11 29 12 30 13 31 14 32 15 33 16 34 17 35 18 36
REMARK SMILES IDX 19 37 20 38 21 39 73 40 22 41 72 42 23 43 24 44 25 45 66 46
REMARK SMILES IDX 26 47 71 48 65 49 67 50 27 51 70 52 64 53 63 54 28 56 54 57
REMARK SMILES IDX 37 58 53 59 38 60 41 61 52 62 68 63 39 64 40 65 51 67 69 68
REMARK SMILES IDX 42 69 29 70 30 71 35 72 31 73 32 74 34 75 36 76 33 77 55 78
REMARK SMILES IDX 56 79 61 80 57 81 58 82 60 83 62 84 59 85 43 86 44 87 49 88
REMARK SMILES IDX 45 89 46 90 48 91 50 92 47 93
REMARK H PARENT 1 16 1 17 1 18 67 55 41 66
REMARK Flexibility Score: inf
ROOT
ATOM      1  C   UNL A   1      40.986  21.061  26.165  1.00  0.00     0.188 C 
ENDROOT
BRANCH   1   2
ATOM      2  C   UNL A   1      39.573  21.673  26.303  1.00  0.00     0.188 C 
BRANCH   2   3
ATOM      3  O   UNL A   1      38.522  21.343  25.403  1.00  0.00    -0.376 OA
BRANCH   3   4
ATOM      4  C   UNL A   1      37.485  22.266  25.119  1.00  0.00     0.202 C 
BRANCH   4   5
ATOM      5  C   UNL A   1      36.065  21.779  24.810  1.00  0.00     0.261 C 
BRANCH   5   6
ATOM      6  O   UNL A   1      35.083  22.074  25.802  1.00  0.00    -0.459 OA
BRANCH   6   7
ATOM      7  C   UNL A   1      33.787  21.707  25.550  1.00  0.00     0.368 C 
ATOM      8  O   UNL A   1      33.345  20.571  25.641  1.00  0.00    -0.245 OA
BRANCH   7   9
ATOM      9  C   UNL A   1      32.954  22.973  25.159  1.00  0.00     0.196 C 
ATOM     10  C   UNL A   1      31.475  22.679  24.841  1.00  0.00     0.081 C 
ATOM     11  C   UNL A   1      33.624  23.566  23.913  1.00  0.00     0.126 C 
ATOM     12  C   UNL A   1      30.719  23.935  24.389  1.00  0.00     0.011 C 
ATOM     13  C   UNL A   1      32.924  24.793  23.316  1.00  0.00     0.180 C 
ATOM     14  C   UNL A   1      31.394  24.645  23.218  1.00  0.00     0.046 C 
BRANCH   9  15
ATOM     15  N   UNL A   1      32.994  23.934  26.279  1.00  0.00    -0.343 N 
ATOM     16  H   UNL A   1      32.085  24.387  26.370  1.00  0.00     0.345 HD
ATOM     17  H   UNL A   1      33.709  24.638  26.096  1.00  0.00     0.345 HD
ATOM     18  H   UNL A   1      33.217  23.440  27.143  1.00  0.00     0.345 HD
ENDBRANCH   9  15
BRANCH  13  19
ATOM     19  O   UNL A   1      33.436  26.080  23.733  1.00  0.00    -0.483 OA
BRANCH  19  20
ATOM     20  C   UNL A   1      32.598  27.154  23.780  1.00  0.00     0.197 A 
ATOM     21  C   UNL A   1      32.336  27.832  22.585  1.00  0.00     0.054 A 
ATOM     22  C   UNL A   1      32.050  27.667  24.970  1.00  0.00     0.310 A 
ATOM     23  C   UNL A   1      31.448  28.912  22.554  1.00  0.00     0.004 A 
ATOM     24  C   UNL A   1      31.143  28.745  24.939  1.00  0.00     0.090 A 
ATOM     25  C   UNL A   1      30.832  29.353  23.725  1.00  0.00     0.007 A 
BRANCH  22  26
ATOM     26  N   UNL A   1      32.281  27.020  26.259  1.00  0.00     0.066 N 
ATOM     27  O   UNL A   1      31.309  26.471  26.806  1.00  0.00    -0.258 OA
ATOM     28  O   UNL A   1      33.414  27.084  26.755  1.00  0.00    -0.258 OA
ENDBRANCH  22  26
ENDBRANCH  19  20
ENDBRANCH  13  19
ENDBRANCH   7   9
ENDBRANCH   6   7
ENDBRANCH   5   6
ENDBRANCH   4   5
ENDBRANCH   3   4
ENDBRANCH   2   3
ENDBRANCH   1   2
BRANCH   1  29
ATOM     29  O   UNL A   1      41.310  20.084  27.137  1.00  0.00    -0.377 OA
BRANCH  29  30
ATOM     30  C   UNL A   1      42.413  19.256  26.780  1.00  0.00     0.188 C 
BRANCH  30  31
ATOM     31  C   UNL A   1      43.153  19.632  25.479  1.00  0.00     0.188 C 
BRANCH  31  32
ATOM     32  O   UNL A   1      44.558  19.420  25.552  1.00  0.00    -0.376 OA
BRANCH  32  33
ATOM     33  C   UNL A   1      45.417  20.479  25.936  1.00  0.00     0.202 C 
BRANCH  33  34
ATOM     34  C   UNL A   1      45.175  21.829  25.244  1.00  0.00     0.261 C 
BRANCH  34  35
ATOM     35  O   UNL A   1      44.400  22.771  25.996  1.00  0.00    -0.460 OA
BRANCH  35  36
ATOM     36  C   UNL A   1      43.744  23.719  25.294  1.00  0.00     0.338 C 
ATOM     37  O   UNL A   1      43.502  23.721  24.100  1.00  0.00    -0.246 OA
BRANCH  36  38
ATOM     38  C   UNL A   1      43.169  24.663  26.271  1.00  0.00     0.060 A 
ATOM     39  C   UNL A   1      43.480  26.024  26.154  1.00  0.00     0.016 A 
ATOM     40  C   UNL A   1      42.284  24.217  27.257  1.00  0.00     0.016 A 
ATOM     41  C   UNL A   1      42.907  26.946  27.026  1.00  0.00     0.010 A 
ATOM     42  C   UNL A   1      41.741  25.137  28.153  1.00  0.00     0.010 A 
ATOM     43  C   UNL A   1      42.065  26.501  28.051  1.00  0.00    -0.014 A 
BRANCH  43  44
ATOM     44  C   UNL A   1      41.682  27.433  29.134  1.00  0.00     0.031 A 
ATOM     45  C   UNL A   1      42.464  27.384  30.416  1.00  0.00     0.074 A 
ATOM     46  C   UNL A   1      40.674  28.307  28.978  1.00  0.00     0.049 A 
ATOM     47  N   UNL A   1      42.285  28.054  31.522  1.00  0.00    -0.248 NA
ATOM     48  C   UNL A   1      43.602  26.451  30.450  1.00  0.00     0.031 C 
ATOM     49  C   UNL A   1      39.878  28.476  27.765  1.00  0.00     0.029 A 
ATOM     50  N   UNL A   1      40.143  29.212  29.862  1.00  0.00    -0.354 N 
ATOM     51  C   UNL A   1      43.284  27.623  32.385  1.00  0.00     0.074 A 
ATOM     52  C   UNL A   1      44.050  26.617  31.684  1.00  0.00     0.031 C 
ATOM     53  C   UNL A   1      38.943  29.416  27.988  1.00  0.00     0.029 A 
ATOM     54  C   UNL A   1      39.054  29.885  29.368  1.00  0.00     0.049 A 
ATOM     55  H   UNL A   1      40.507  29.363  30.764  1.00  0.00     0.167 HD
ATOM     56  C   UNL A   1      43.540  28.033  33.649  1.00  0.00     0.037 A 
ATOM     57  C   UNL A   1      38.226  30.758  29.977  1.00  0.00     0.037 A 
ATOM     58  C   UNL A   1      42.766  29.026  34.345  1.00  0.00     0.049 A 
ATOM     59  C   UNL A   1      38.478  31.131  31.415  1.00  0.00     0.074 A 
ATOM     60  C   UNL A   1      42.955  29.526  35.621  1.00  0.00     0.029 A 
ATOM     61  N   UNL A   1      41.645  29.658  33.827  1.00  0.00    -0.354 N 
ATOM     62  N   UNL A   1      39.443  30.744  32.215  1.00  0.00    -0.248 NA
ATOM     63  C   UNL A   1      37.524  32.062  32.036  1.00  0.00     0.031 C 
ATOM     64  C   UNL A   1      41.913  30.417  35.897  1.00  0.00     0.029 A 
ATOM     65  C   UNL A   1      41.110  30.516  34.772  1.00  0.00     0.049 A 
ATOM     66  H   UNL A   1      41.285  29.517  32.922  1.00  0.00     0.167 HD
ATOM     67  C   UNL A   1      39.226  31.400  33.421  1.00  0.00     0.074 A 
ATOM     68  C   UNL A   1      38.049  32.224  33.242  1.00  0.00     0.031 C 
ATOM     69  C   UNL A   1      39.936  31.328  34.575  1.00  0.00     0.037 A 
BRANCH  56  70
ATOM     70  C   UNL A   1      44.680  27.379  34.371  1.00  0.00     0.057 A 
ATOM     71  C   UNL A   1      44.514  26.199  35.108  1.00  0.00     0.134 A 
ATOM     72  C   UNL A   1      45.967  27.925  34.306  1.00  0.00     0.134 A 
ATOM     73  F   UNL A   1      43.302  25.636  35.228  1.00  0.00    -0.206 F 
ATOM     74  C   UNL A   1      45.586  25.594  35.767  1.00  0.00     0.040 A 
ATOM     75  C   UNL A   1      47.052  27.315  34.937  1.00  0.00     0.040 A 
ATOM     76  F   UNL A   1      46.195  29.054  33.620  1.00  0.00    -0.206 F 
ATOM     77  C   UNL A   1      46.861  26.148  35.675  1.00  0.00     0.006 A 
ENDBRANCH  56  70
BRANCH  57  78
ATOM     78  C   UNL A   1      37.060  31.317  29.245  1.00  0.00     0.057 A 
ATOM     79  C   UNL A   1      35.909  30.554  29.016  1.00  0.00     0.134 A 
ATOM     80  C   UNL A   1      37.083  32.619  28.726  1.00  0.00     0.134 A 
ATOM     81  F   UNL A   1      35.835  29.292  29.464  1.00  0.00    -0.206 F 
ATOM     82  C   UNL A   1      34.832  31.057  28.284  1.00  0.00     0.040 A 
ATOM     83  C   UNL A   1      36.003  33.143  28.015  1.00  0.00     0.040 A 
ATOM     84  F   UNL A   1      38.158  33.401  28.908  1.00  0.00    -0.206 F 
ATOM     85  C   UNL A   1      34.875  32.358  27.785  1.00  0.00     0.006 A 
ENDBRANCH  57  78
BRANCH  69  86
ATOM     86  C   UNL A   1      39.475  32.179  35.724  1.00  0.00     0.057 A 
ATOM     87  C   UNL A   1      39.963  33.476  35.927  1.00  0.00     0.134 A 
ATOM     88  C   UNL A   1      38.494  31.712  36.609  1.00  0.00     0.134 A 
ATOM     89  F   UNL A   1      40.910  33.980  35.121  1.00  0.00    -0.206 F 
ATOM     90  C   UNL A   1      39.510  34.268  36.984  1.00  0.00     0.040 A 
ATOM     91  C   UNL A   1      38.012  32.506  37.651  1.00  0.00     0.040 A 
ATOM     92  F   UNL A   1      37.973  30.484  36.465  1.00  0.00    -0.206 F 
ATOM     93  C   UNL A   1      38.526  33.787  37.844  1.00  0.00     0.006 A 
ENDBRANCH  69  86
ENDBRANCH  43  44
ENDBRANCH  36  38
ENDBRANCH  35  36
ENDBRANCH  34  35
ENDBRANCH  33  34
ENDBRANCH  32  33
ENDBRANCH  31  32
ENDBRANCH  30  31
ENDBRANCH  29  30
ENDBRANCH   1  29
TORSDOF 24
ENDMDL
MODEL 3
REMARK VINA RESULT:      -9.1      1.771      3.496
REMARK SMILES [NH3+][C@@]1(C(=O)OCCOCCOCCOCCOC(=O)c2ccc(-c3c4nc(c(-c5c(F)cccc5F)c5ccc([nH]5)c(-c5c(F)cccc5F)c5nc(c(-c6c(F)cccc6F)c6ccc3[nH]6)C=C5)C=C4)cc2)CCC[C@@H](Oc2ccccc2[N+](=O)[O-])C1
REMARK SMILES IDX 10 1 9 2 8 3 7 4 6 5 5 6 3 7 4 8 2 9 74 10 88 11 75 12 77 13
REMARK SMILES IDX 76 14 1 15 78 19 79 20 80 21 84 22 81 23 83 24 82 25 85 26
REMARK SMILES IDX 86 27 87 28 11 29 12 30 13 31 14 32 15 33 16 34 17 35 18 36
REMARK SMILES IDX 19 37 20 38 21 39 73 40 22 41 72 42 23 43 24 44 25 45 66 46
REMARK SMILES IDX 26 47 71 48 65 49 67 50 27 51 70 52 64 53 63 54 28 56 54 57
REMARK SMILES IDX 37 58 53 59 38 60 41 61 52 62 68 63 39 64 40 65 51 67 69 68
REMARK SMILES IDX 42 69 29 70 30 71 35 72 31 73 32 74 34 75 36 76 33 77 55 78
REMARK SMILES IDX 56 79 61 80 57 81 58 82 60 83 62 84 59 85 43 86 44 87 49 88
REMARK SMILES IDX 45 89 46 90 48 91 50 92 47 93
REMARK H PARENT 1 16 1 17 1 18 67 55 41 66
REMARK Flexibility Score: inf
ROOT
ATOM      1  C   UNL A   1      42.609  22.038  25.588  1.00  0.00     0.188 C 
ENDROOT
BRANCH   1   2
ATOM      2  C   UNL A   1      41.352  21.672  26.409  1.00  0.00     0.188 C 
BRANCH   2   3
ATOM      3  O   UNL A   1      40.044  21.764  25.857  1.00  0.00    -0.376 OA
BRANCH   3   4
ATOM      4  C   UNL A   1      39.005  22.436  26.547  1.00  0.00     0.202 C 
BRANCH   4   5
ATOM      5  C   UNL A   1      38.398  23.727  25.983  1.00  0.00     0.261 C 
BRANCH   5   6
ATOM      6  O   UNL A   1      36.988  23.700  25.764  1.00  0.00    -0.459 OA
BRANCH   6   7
ATOM      7  C   UNL A   1      36.498  22.795  24.858  1.00  0.00     0.368 C 
ATOM      8  O   UNL A   1      37.172  22.004  24.216  1.00  0.00    -0.245 OA
BRANCH   7   9
ATOM      9  C   UNL A   1      34.938  22.911  24.799  1.00  0.00     0.196 C 
ATOM     10  C   UNL A   1      34.236  21.659  24.240  1.00  0.00     0.081 C 
ATOM     11  C   UNL A   1      34.626  24.107  23.889  1.00  0.00     0.126 C 
ATOM     12  C   UNL A   1      32.718  21.847  24.128  1.00  0.00     0.011 C 
ATOM     13  C   UNL A   1      33.136  24.364  23.637  1.00  0.00     0.180 C 
ATOM     14  C   UNL A   1      32.331  23.088  23.327  1.00  0.00     0.046 C 
BRANCH   9  15
ATOM     15  N   UNL A   1      34.426  23.147  26.162  1.00  0.00    -0.343 N 
ATOM     16  H   UNL A   1      35.062  22.728  26.841  1.00  0.00     0.345 HD
ATOM     17  H   UNL A   1      33.502  22.726  26.257  1.00  0.00     0.345 HD
ATOM     18  H   UNL A   1      34.360  24.151  26.332  1.00  0.00     0.345 HD
ENDBRANCH   9  15
BRANCH  13  19
ATOM     19  O   UNL A   1      32.508  25.345  24.497  1.00  0.00    -0.483 OA
BRANCH  19  20
ATOM     20  C   UNL A   1      31.555  26.175  23.987  1.00  0.00     0.197 A 
ATOM     21  C   UNL A   1      30.221  25.922  24.321  1.00  0.00     0.054 A 
ATOM     22  C   UNL A   1      31.829  27.218  23.084  1.00  0.00     0.310 A 
ATOM     23  C   UNL A   1      29.197  26.764  23.873  1.00  0.00     0.004 A 
ATOM     24  C   UNL A   1      30.802  28.078  22.643  1.00  0.00     0.090 A 
ATOM     25  C   UNL A   1      29.490  27.856  23.056  1.00  0.00     0.007 A 
BRANCH  22  26
ATOM     26  N   UNL A   1      33.194  27.543  22.682  1.00  0.00     0.066 N 
ATOM     27  O   UNL A   1      33.812  28.374  23.371  1.00  0.00    -0.258 OA
ATOM     28  O   UNL A   1      33.651  27.008  21.662  1.00  0.00    -0.258 OA
ENDBRANCH  22  26
ENDBRANCH  19  20
ENDBRANCH  13  19
ENDBRANCH   7   9
ENDBRANCH   6   7
ENDBRANCH   5   6
ENDBRANCH   4   5
ENDBRANCH   3   4
ENDBRANCH   2   3
ENDBRANCH   1   2
BRANCH   1  29
ATOM     29  O   UNL A   1      43.503  20.965  25.355  1.00  0.00    -0.377 OA
BRANCH  29  30
ATOM     30  C   UNL A   1      44.699  21.343  24.681  1.00  0.00     0.188 C 
BRANCH  30  31
ATOM     31  C   UNL A   1      44.657  22.686  23.921  1.00  0.00     0.188 C 
BRANCH  31  32
ATOM     32  O   UNL A   1      45.673  23.594  24.329  1.00  0.00    -0.376 OA
BRANCH  32  33
ATOM     33  C   UNL A   1      45.371  24.636  25.240  1.00  0.00     0.202 C 
BRANCH  33  34
ATOM     34  C   UNL A   1      44.049  25.380  25.000  1.00  0.00     0.261 C 
BRANCH  34  35
ATOM     35  O   UNL A   1      43.066  25.230  26.032  1.00  0.00    -0.460 OA
BRANCH  35  36
ATOM     36  C   UNL A   1      41.957  25.993  25.933  1.00  0.00     0.338 C 
ATOM     37  O   UNL A   1      41.110  25.958  25.059  1.00  0.00    -0.246 OA
BRANCH  36  38
ATOM     38  C   UNL A   1      41.829  26.738  27.201  1.00  0.00     0.060 A 
ATOM     39  C   UNL A   1      40.967  26.242  28.186  1.00  0.00     0.016 A 
ATOM     40  C   UNL A   1      42.599  27.881  27.436  1.00  0.00     0.016 A 
ATOM     41  C   UNL A   1      40.869  26.891  29.415  1.00  0.00     0.010 A 
ATOM     42  C   UNL A   1      42.471  28.551  28.653  1.00  0.00     0.010 A 
ATOM     43  C   UNL A   1      41.592  28.068  29.638  1.00  0.00    -0.014 A 
BRANCH  43  44
ATOM     44  C   UNL A   1      41.281  28.900  30.821  1.00  0.00     0.031 A 
ATOM     45  C   UNL A   1      40.139  29.870  30.721  1.00  0.00     0.074 A 
ATOM     46  C   UNL A   1      41.988  28.787  31.958  1.00  0.00     0.049 A 
ATOM     47  N   UNL A   1      39.712  30.742  31.594  1.00  0.00    -0.248 NA
ATOM     48  C   UNL A   1      39.377  29.852  29.461  1.00  0.00     0.031 C 
ATOM     49  C   UNL A   1      43.084  27.849  32.186  1.00  0.00     0.029 A 
ATOM     50  N   UNL A   1      41.888  29.486  33.134  1.00  0.00    -0.354 N 
ATOM     51  C   UNL A   1      38.635  31.378  30.990  1.00  0.00     0.074 A 
ATOM     52  C   UNL A   1      38.489  30.811  29.669  1.00  0.00     0.031 C 
ATOM     53  C   UNL A   1      43.571  28.044  33.424  1.00  0.00     0.029 A 
ATOM     54  C   UNL A   1      42.845  29.143  34.057  1.00  0.00     0.049 A 
ATOM     55  H   UNL A   1      41.197  30.167  33.301  1.00  0.00     0.167 HD
ATOM     56  C   UNL A   1      37.838  32.347  31.497  1.00  0.00     0.037 A 
ATOM     57  C   UNL A   1      43.117  29.682  35.263  1.00  0.00     0.037 A 
ATOM     58  C   UNL A   1      37.997  32.916  32.808  1.00  0.00     0.049 A 
ATOM     59  C   UNL A   1      42.270  30.823  35.768  1.00  0.00     0.074 A 
ATOM     60  C   UNL A   1      37.230  33.889  33.423  1.00  0.00     0.029 A 
ATOM     61  N   UNL A   1      39.002  32.573  33.700  1.00  0.00    -0.354 N 
ATOM     62  N   UNL A   1      41.234  31.398  35.206  1.00  0.00    -0.248 NA
ATOM     63  C   UNL A   1      42.634  31.391  37.074  1.00  0.00     0.031 C 
ATOM     64  C   UNL A   1      37.807  34.177  34.664  1.00  0.00     0.029 A 
ATOM     65  C   UNL A   1      38.897  33.341  34.846  1.00  0.00     0.049 A 
ATOM     66  H   UNL A   1      39.688  31.885  33.542  1.00  0.00     0.167 HD
ATOM     67  C   UNL A   1      40.809  32.376  36.098  1.00  0.00     0.074 A 
ATOM     68  C   UNL A   1      41.689  32.303  37.246  1.00  0.00     0.031 C 
ATOM     69  C   UNL A   1      39.784  33.256  35.979  1.00  0.00     0.037 A 
BRANCH  56  70
ATOM     70  C   UNL A   1      36.749  32.879  30.613  1.00  0.00     0.057 A 
ATOM     71  C   UNL A   1      37.002  33.817  29.605  1.00  0.00     0.134 A 
ATOM     72  C   UNL A   1      35.433  32.424  30.759  1.00  0.00     0.134 A 
ATOM     73  F   UNL A   1      38.237  34.310  29.427  1.00  0.00    -0.206 F 
ATOM     74  C   UNL A   1      35.981  34.297  28.782  1.00  0.00     0.040 A 
ATOM     75  C   UNL A   1      34.409  32.875  29.925  1.00  0.00     0.040 A 
ATOM     76  F   UNL A   1      35.122  31.528  31.706  1.00  0.00    -0.206 F 
ATOM     77  C   UNL A   1      34.681  33.819  28.936  1.00  0.00     0.006 A 
ENDBRANCH  56  70
BRANCH  57  78
ATOM     78  C   UNL A   1      44.259  29.176  36.067  1.00  0.00     0.057 A 
ATOM     79  C   UNL A   1      45.524  29.771  35.991  1.00  0.00     0.134 A 
ATOM     80  C   UNL A   1      44.121  28.062  36.906  1.00  0.00     0.134 A 
ATOM     81  F   UNL A   1      45.728  30.824  35.186  1.00  0.00    -0.206 F 
ATOM     82  C   UNL A   1      46.613  29.266  36.704  1.00  0.00     0.040 A 
ATOM     83  C   UNL A   1      45.195  27.564  37.645  1.00  0.00     0.040 A 
ATOM     84  F   UNL A   1      42.936  27.444  37.022  1.00  0.00    -0.206 F 
ATOM     85  C   UNL A   1      46.449  28.162  37.539  1.00  0.00     0.006 A 
ENDBRANCH  57  78
BRANCH  69  86
ATOM     86  C   UNL A   1      39.542  34.193  37.128  1.00  0.00     0.057 A 
ATOM     87  C   UNL A   1      39.990  35.520  37.107  1.00  0.00     0.134 A 
ATOM     88  C   UNL A   1      38.810  33.777  38.247  1.00  0.00     0.134 A 
ATOM     89  F   UNL A   1      40.705  35.981  36.069  1.00  0.00    -0.206 F 
ATOM     90  C   UNL A   1      39.739  36.392  38.169  1.00  0.00     0.040 A 
ATOM     91  C   UNL A   1      38.527  34.647  39.301  1.00  0.00     0.040 A 
ATOM     92  F   UNL A   1      38.340  32.522  38.326  1.00  0.00    -0.206 F 
ATOM     93  C   UNL A   1      38.999  35.957  39.267  1.00  0.00     0.006 A 
ENDBRANCH  69  86
ENDBRANCH  43  44
ENDBRANCH  36  38
ENDBRANCH  35  36
ENDBRANCH  34  35
ENDBRANCH  33  34
ENDBRANCH  32  33
ENDBRANCH  31  32
ENDBRANCH  30  31
ENDBRANCH  29  30
ENDBRANCH   1  29
TORSDOF 24
ENDMDL
