MODEL 1
REMARK VINA RESULT:      -8.6      0.000      0.000
REMARK SMILES CN(CCO)C(=O)N[C@H]1C=C[C@@H](C(=O)OCCOCCOCCOCCOC(=O)c2ccc(-c3c4nc(c(-c5c(F)cccc5F)c5ccc([nH]5)c(-c5c(F)cccc5F)c5nc(c(-c6c(F)cccc6F)c6ccc3[nH]6)C=C5)C=C4)cc2)C1
REMARK SMILES IDX 19 1 18 2 17 3 16 4 15 5 13 6 14 7 12 8 9 9 10 10 84 11
REMARK SMILES IDX 11 12 8 13 6 14 7 15 2 17 1 18 3 19 4 20 5 21 20 23 21 24
REMARK SMILES IDX 22 25 23 26 24 27 25 28 26 29 27 30 28 31 29 32 30 33 31 34
REMARK SMILES IDX 83 35 32 36 82 37 33 38 34 39 35 40 76 41 36 42 81 43 75 44
REMARK SMILES IDX 77 45 37 46 80 47 74 48 73 49 38 51 64 52 47 53 63 54 48 55
REMARK SMILES IDX 51 56 62 57 78 58 49 59 50 60 61 62 79 63 52 64 39 65 40 66
REMARK SMILES IDX 45 67 41 68 42 69 44 70 46 71 43 72 65 73 66 74 71 75 67 76
REMARK SMILES IDX 68 77 70 78 72 79 69 80 53 81 54 82 59 83 55 84 56 85 58 86
REMARK SMILES IDX 60 87 57 88
REMARK H PARENT 8 16 5 22 77 50 51 61
REMARK Flexibility Score: inf
ROOT
ATOM      1  C   UNL A   1      30.925  24.234  26.263  1.00  0.00     0.188 C 
ENDROOT
BRANCH   1   2
ATOM      2  O   UNL A   1      31.760  23.093  26.405  1.00  0.00    -0.376 OA
BRANCH   2   3
ATOM      3  C   UNL A   1      33.073  23.222  26.937  1.00  0.00     0.202 C 
BRANCH   3   4
ATOM      4  C   UNL A   1      33.885  22.002  27.405  1.00  0.00     0.261 C 
BRANCH   4   5
ATOM      5  O   UNL A   1      34.275  21.077  26.377  1.00  0.00    -0.463 OA
BRANCH   5   6
ATOM      6  C   UNL A   1      35.401  21.374  25.684  1.00  0.00     0.312 C 
ATOM      7  O   UNL A   1      36.539  21.255  26.127  1.00  0.00    -0.252 OA
BRANCH   6   8
ATOM      8  C   UNL A   1      35.139  21.860  24.260  1.00  0.00     0.124 C 
ATOM      9  C   UNL A   1      33.530  23.008  22.777  1.00  0.00     0.107 C 
ATOM     10  C   UNL A   1      34.655  23.904  23.220  1.00  0.00    -0.006 C 
ATOM     11  C   UNL A   1      33.701  21.849  23.751  1.00  0.00     0.048 C 
ATOM     12  C   UNL A   1      35.521  23.285  24.035  1.00  0.00    -0.014 C 
BRANCH   9  13
ATOM     13  N   UNL A   1      32.273  23.732  22.910  1.00  0.00    -0.332 N 
ATOM     14  C   UNL A   1      31.747  24.927  22.603  1.00  0.00     0.317 C 
ATOM     15  O   UNL A   1      30.626  25.126  23.087  1.00  0.00    -0.249 OA
ATOM     16  H   UNL A   1      31.604  23.171  23.365  1.00  0.00     0.165 HD
BRANCH  14  17
ATOM     17  N   UNL A   1      32.357  25.889  21.843  1.00  0.00    -0.326 N 
ATOM     18  C   UNL A   1      32.526  25.577  20.423  1.00  0.00     0.148 C 
BRANCH  17  19
ATOM     19  C   UNL A   1      32.922  27.165  22.265  1.00  0.00     0.149 C 
BRANCH  19  20
ATOM     20  C   UNL A   1      31.923  28.302  22.495  1.00  0.00     0.177 C 
BRANCH  20  21
ATOM     21  O   UNL A   1      30.661  28.083  21.887  1.00  0.00    -0.395 OA
ATOM     22  H   UNL A   1      29.962  28.151  22.557  1.00  0.00     0.210 HD
ENDBRANCH  20  21
ENDBRANCH  19  20
ENDBRANCH  17  19
ENDBRANCH  14  17
ENDBRANCH   9  13
ENDBRANCH   6   8
ENDBRANCH   5   6
ENDBRANCH   4   5
ENDBRANCH   3   4
ENDBRANCH   2   3
ENDBRANCH   1   2
BRANCH   1  23
ATOM     23  C   UNL A   1      31.364  25.591  26.829  1.00  0.00     0.188 C 
BRANCH  23  24
ATOM     24  O   UNL A   1      31.979  26.447  25.892  1.00  0.00    -0.377 OA
BRANCH  24  25
ATOM     25  C   UNL A   1      31.762  27.842  26.072  1.00  0.00     0.188 C 
BRANCH  25  26
ATOM     26  C   UNL A   1      32.987  28.729  26.390  1.00  0.00     0.188 C 
BRANCH  26  27
ATOM     27  O   UNL A   1      32.851  30.088  25.996  1.00  0.00    -0.376 OA
BRANCH  27  28
ATOM     28  C   UNL A   1      32.304  31.021  26.917  1.00  0.00     0.202 C 
BRANCH  28  29
ATOM     29  C   UNL A   1      33.077  32.327  27.180  1.00  0.00     0.261 C 
BRANCH  29  30
ATOM     30  O   UNL A   1      32.390  33.348  27.918  1.00  0.00    -0.460 OA
BRANCH  30  31
ATOM     31  C   UNL A   1      33.119  34.386  28.388  1.00  0.00     0.338 C 
ATOM     32  O   UNL A   1      32.831  35.562  28.343  1.00  0.00    -0.246 OA
BRANCH  31  33
ATOM     33  C   UNL A   1      34.252  33.827  29.160  1.00  0.00     0.060 A 
ATOM     34  C   UNL A   1      35.558  34.148  28.769  1.00  0.00     0.016 A 
ATOM     35  C   UNL A   1      34.029  32.986  30.254  1.00  0.00     0.016 A 
ATOM     36  C   UNL A   1      36.648  33.598  29.446  1.00  0.00     0.010 A 
ATOM     37  C   UNL A   1      35.121  32.416  30.915  1.00  0.00     0.010 A 
ATOM     38  C   UNL A   1      36.434  32.691  30.491  1.00  0.00    -0.014 A 
BRANCH  38  39
ATOM     39  C   UNL A   1      37.569  31.881  31.001  1.00  0.00     0.031 A 
ATOM     40  C   UNL A   1      38.071  32.154  32.393  1.00  0.00     0.074 A 
ATOM     41  C   UNL A   1      38.126  30.906  30.261  1.00  0.00     0.049 A 
ATOM     42  N   UNL A   1      39.076  31.618  33.036  1.00  0.00    -0.248 NA
ATOM     43  C   UNL A   1      37.339  33.173  33.163  1.00  0.00     0.031 C 
ATOM     44  C   UNL A   1      37.701  30.512  28.921  1.00  0.00     0.029 A 
ATOM     45  N   UNL A   1      39.183  30.074  30.540  1.00  0.00    -0.354 N 
ATOM     46  C   UNL A   1      39.103  32.239  34.279  1.00  0.00     0.074 A 
ATOM     47  C   UNL A   1      38.034  33.213  34.289  1.00  0.00     0.031 C 
ATOM     48  C   UNL A   1      38.502  29.522  28.485  1.00  0.00     0.029 A 
ATOM     49  C   UNL A   1      39.514  29.240  29.500  1.00  0.00     0.049 A 
ATOM     50  H   UNL A   1      39.658  30.076  31.402  1.00  0.00     0.167 HD
ATOM     51  C   UNL A   1      39.937  32.013  35.319  1.00  0.00     0.037 A 
ATOM     52  C   UNL A   1      40.537  28.371  29.375  1.00  0.00     0.037 A 
ATOM     53  C   UNL A   1      41.003  31.046  35.307  1.00  0.00     0.049 A 
ATOM     54  C   UNL A   1      41.506  28.199  30.518  1.00  0.00     0.074 A 
ATOM     55  C   UNL A   1      41.894  30.732  36.317  1.00  0.00     0.029 A 
ATOM     56  N   UNL A   1      41.329  30.245  34.222  1.00  0.00    -0.354 N 
ATOM     57  N   UNL A   1      41.509  28.771  31.699  1.00  0.00    -0.248 NA
ATOM     58  C   UNL A   1      42.616  27.255  30.311  1.00  0.00     0.031 C 
ATOM     59  C   UNL A   1      42.797  29.786  35.825  1.00  0.00     0.029 A 
ATOM     60  C   UNL A   1      42.428  29.460  34.530  1.00  0.00     0.049 A 
ATOM     61  H   UNL A   1      40.851  30.237  33.362  1.00  0.00     0.167 HD
ATOM     62  C   UNL A   1      42.594  28.233  32.383  1.00  0.00     0.074 A 
ATOM     63  C   UNL A   1      43.217  27.279  31.491  1.00  0.00     0.031 C 
ATOM     64  C   UNL A   1      43.033  28.504  33.637  1.00  0.00     0.037 A 
BRANCH  51  65
ATOM     65  C   UNL A   1      39.752  32.851  36.553  1.00  0.00     0.057 A 
ATOM     66  C   UNL A   1      40.504  34.010  36.785  1.00  0.00     0.134 A 
ATOM     67  C   UNL A   1      38.782  32.509  37.504  1.00  0.00     0.134 A 
ATOM     68  F   UNL A   1      41.460  34.385  35.923  1.00  0.00    -0.206 F 
ATOM     69  C   UNL A   1      40.313  34.786  37.931  1.00  0.00     0.040 A 
ATOM     70  C   UNL A   1      38.560  33.293  38.637  1.00  0.00     0.040 A 
ATOM     71  F   UNL A   1      38.024  31.414  37.342  1.00  0.00    -0.206 F 
ATOM     72  C   UNL A   1      39.333  34.432  38.856  1.00  0.00     0.006 A 
ENDBRANCH  51  65
BRANCH  52  73
ATOM     73  C   UNL A   1      40.720  27.606  28.114  1.00  0.00     0.057 A 
ATOM     74  C   UNL A   1      40.154  26.337  27.943  1.00  0.00     0.134 A 
ATOM     75  C   UNL A   1      41.500  28.108  27.065  1.00  0.00     0.134 A 
ATOM     76  F   UNL A   1      39.419  25.789  28.922  1.00  0.00    -0.206 F 
ATOM     77  C   UNL A   1      40.376  25.586  26.787  1.00  0.00     0.040 A 
ATOM     78  C   UNL A   1      41.704  27.382  25.891  1.00  0.00     0.040 A 
ATOM     79  F   UNL A   1      42.074  29.316  27.165  1.00  0.00    -0.206 F 
ATOM     80  C   UNL A   1      41.149  26.112  25.754  1.00  0.00     0.006 A 
ENDBRANCH  52  73
BRANCH  64  81
ATOM     81  C   UNL A   1      44.215  27.724  34.142  1.00  0.00     0.057 A 
ATOM     82  C   UNL A   1      45.525  28.207  34.044  1.00  0.00     0.134 A 
ATOM     83  C   UNL A   1      44.030  26.487  34.778  1.00  0.00     0.134 A 
ATOM     84  F   UNL A   1      45.774  29.378  33.440  1.00  0.00    -0.206 F 
ATOM     85  C   UNL A   1      46.612  27.477  34.533  1.00  0.00     0.040 A 
ATOM     86  C   UNL A   1      45.104  25.764  35.299  1.00  0.00     0.040 A 
ATOM     87  F   UNL A   1      42.800  25.970  34.919  1.00  0.00    -0.206 F 
ATOM     88  C   UNL A   1      46.400  26.255  35.169  1.00  0.00     0.006 A 
ENDBRANCH  64  81
ENDBRANCH  38  39
ENDBRANCH  31  33
ENDBRANCH  30  31
ENDBRANCH  29  30
ENDBRANCH  28  29
ENDBRANCH  27  28
ENDBRANCH  26  27
ENDBRANCH  25  26
ENDBRANCH  24  25
ENDBRANCH  23  24
ENDBRANCH   1  23
TORSDOF 25
ENDMDL
MODEL 2
REMARK VINA RESULT:      -8.5      3.511      4.823
REMARK SMILES CN(CCO)C(=O)N[C@H]1C=C[C@@H](C(=O)OCCOCCOCCOCCOC(=O)c2ccc(-c3c4nc(c(-c5c(F)cccc5F)c5ccc([nH]5)c(-c5c(F)cccc5F)c5nc(c(-c6c(F)cccc6F)c6ccc3[nH]6)C=C5)C=C4)cc2)C1
REMARK SMILES IDX 19 1 18 2 17 3 16 4 15 5 13 6 14 7 12 8 9 9 10 10 84 11
REMARK SMILES IDX 11 12 8 13 6 14 7 15 2 17 1 18 3 19 4 20 5 21 20 23 21 24
REMARK SMILES IDX 22 25 23 26 24 27 25 28 26 29 27 30 28 31 29 32 30 33 31 34
REMARK SMILES IDX 83 35 32 36 82 37 33 38 34 39 35 40 76 41 36 42 81 43 75 44
REMARK SMILES IDX 77 45 37 46 80 47 74 48 73 49 38 51 64 52 47 53 63 54 48 55
REMARK SMILES IDX 51 56 62 57 78 58 49 59 50 60 61 62 79 63 52 64 39 65 40 66
REMARK SMILES IDX 45 67 41 68 42 69 44 70 46 71 43 72 65 73 66 74 71 75 67 76
REMARK SMILES IDX 68 77 70 78 72 79 69 80 53 81 54 82 59 83 55 84 56 85 58 86
REMARK SMILES IDX 60 87 57 88
REMARK H PARENT 8 16 5 22 77 50 51 61
REMARK Flexibility Score: inf
ROOT
ATOM      1  C   UNL A   1      30.413  22.648  26.173  1.00  0.00     0.188 C 
ENDROOT
BRANCH   1   2
ATOM      2  O   UNL A   1      31.759  22.199  26.094  1.00  0.00    -0.376 OA
BRANCH   2   3
ATOM      3  C   UNL A   1      32.149  21.261  25.099  1.00  0.00     0.202 C 
BRANCH   3   4
ATOM      4  C   UNL A   1      33.068  20.069  25.419  1.00  0.00     0.261 C 
BRANCH   4   5
ATOM      5  O   UNL A   1      34.376  20.401  25.909  1.00  0.00    -0.463 OA
BRANCH   5   6
ATOM      6  C   UNL A   1      35.418  20.170  25.073  1.00  0.00     0.312 C 
ATOM      7  O   UNL A   1      35.811  19.055  24.746  1.00  0.00    -0.252 OA
BRANCH   6   8
ATOM      8  C   UNL A   1      36.071  21.443  24.537  1.00  0.00     0.124 C 
ATOM      9  C   UNL A   1      35.968  23.912  24.503  1.00  0.00     0.107 C 
ATOM     10  C   UNL A   1      37.017  23.386  25.446  1.00  0.00    -0.006 C 
ATOM     11  C   UNL A   1      35.174  22.639  24.238  1.00  0.00     0.048 C 
ATOM     12  C   UNL A   1      37.065  22.046  25.474  1.00  0.00    -0.014 C 
BRANCH   9  13
ATOM     13  N   UNL A   1      35.220  24.965  25.174  1.00  0.00    -0.332 N 
ATOM     14  C   UNL A   1      34.320  25.918  24.888  1.00  0.00     0.317 C 
ATOM     15  O   UNL A   1      34.093  26.698  25.821  1.00  0.00    -0.249 OA
ATOM     16  H   UNL A   1      35.443  24.984  26.133  1.00  0.00     0.165 HD
BRANCH  14  17
ATOM     17  N   UNL A   1      33.690  26.075  23.682  1.00  0.00    -0.326 N 
ATOM     18  C   UNL A   1      33.254  27.434  23.356  1.00  0.00     0.148 C 
BRANCH  17  19
ATOM     19  C   UNL A   1      33.335  25.061  22.697  1.00  0.00     0.149 C 
BRANCH  19  20
ATOM     20  C   UNL A   1      32.863  25.579  21.336  1.00  0.00     0.177 C 
BRANCH  20  21
ATOM     21  O   UNL A   1      32.870  24.593  20.318  1.00  0.00    -0.395 OA
ATOM     22  H   UNL A   1      33.535  24.822  19.649  1.00  0.00     0.210 HD
ENDBRANCH  20  21
ENDBRANCH  19  20
ENDBRANCH  17  19
ENDBRANCH  14  17
ENDBRANCH   9  13
ENDBRANCH   6   8
ENDBRANCH   5   6
ENDBRANCH   4   5
ENDBRANCH   3   4
ENDBRANCH   2   3
ENDBRANCH   1   2
BRANCH   1  23
ATOM     23  C   UNL A   1      30.101  24.113  26.504  1.00  0.00     0.188 C 
BRANCH  23  24
ATOM     24  O   UNL A   1      30.989  25.046  25.931  1.00  0.00    -0.377 OA
BRANCH  24  25
ATOM     25  C   UNL A   1      30.522  26.387  25.834  1.00  0.00     0.188 C 
BRANCH  25  26
ATOM     26  C   UNL A   1      31.241  27.466  26.674  1.00  0.00     0.188 C 
BRANCH  26  27
ATOM     27  O   UNL A   1      31.603  28.635  25.951  1.00  0.00    -0.376 OA
BRANCH  27  28
ATOM     28  C   UNL A   1      31.731  29.866  26.649  1.00  0.00     0.202 C 
BRANCH  28  29
ATOM     29  C   UNL A   1      33.138  30.465  26.822  1.00  0.00     0.261 C 
BRANCH  29  30
ATOM     30  O   UNL A   1      33.858  30.095  28.008  1.00  0.00    -0.460 OA
BRANCH  30  31
ATOM     31  C   UNL A   1      34.790  30.956  28.474  1.00  0.00     0.338 C 
ATOM     32  O   UNL A   1      34.601  32.063  28.928  1.00  0.00    -0.246 OA
BRANCH  31  33
ATOM     33  C   UNL A   1      36.083  30.235  28.529  1.00  0.00     0.060 A 
ATOM     34  C   UNL A   1      36.451  29.601  29.722  1.00  0.00     0.016 A 
ATOM     35  C   UNL A   1      36.928  30.194  27.417  1.00  0.00     0.016 A 
ATOM     36  C   UNL A   1      37.685  28.956  29.821  1.00  0.00     0.010 A 
ATOM     37  C   UNL A   1      38.174  29.568  27.525  1.00  0.00     0.010 A 
ATOM     38  C   UNL A   1      38.572  28.979  28.738  1.00  0.00    -0.014 A 
BRANCH  38  39
ATOM     39  C   UNL A   1      39.984  28.567  28.940  1.00  0.00     0.031 A 
ATOM     40  C   UNL A   1      40.932  29.553  29.570  1.00  0.00     0.074 A 
ATOM     41  C   UNL A   1      40.415  27.340  28.600  1.00  0.00     0.049 A 
ATOM     42  N   UNL A   1      42.215  29.445  29.800  1.00  0.00    -0.248 NA
ATOM     43  C   UNL A   1      40.349  30.836  29.998  1.00  0.00     0.031 C 
ATOM     44  C   UNL A   1      39.589  26.281  28.027  1.00  0.00     0.029 A 
ATOM     45  N   UNL A   1      41.669  26.785  28.682  1.00  0.00    -0.354 N 
ATOM     46  C   UNL A   1      42.594  30.646  30.388  1.00  0.00     0.074 A 
ATOM     47  C   UNL A   1      41.414  31.479  30.452  1.00  0.00     0.031 C 
ATOM     48  C   UNL A   1      40.362  25.205  27.794  1.00  0.00     0.029 A 
ATOM     49  C   UNL A   1      41.741  25.514  28.167  1.00  0.00     0.049 A 
ATOM     50  H   UNL A   1      42.442  27.254  29.072  1.00  0.00     0.167 HD
ATOM     51  C   UNL A   1      43.814  31.018  30.840  1.00  0.00     0.037 A 
ATOM     52  C   UNL A   1      42.807  24.706  27.992  1.00  0.00     0.037 A 
ATOM     53  C   UNL A   1      44.989  30.190  30.772  1.00  0.00     0.049 A 
ATOM     54  C   UNL A   1      44.172  25.178  28.426  1.00  0.00     0.074 A 
ATOM     55  C   UNL A   1      46.268  30.470  31.217  1.00  0.00     0.029 A 
ATOM     56  N   UNL A   1      45.029  28.921  30.212  1.00  0.00    -0.354 N 
ATOM     57  N   UNL A   1      44.518  26.303  29.005  1.00  0.00    -0.248 NA
ATOM     58  C   UNL A   1      45.298  24.262  28.184  1.00  0.00     0.031 C 
ATOM     59  C   UNL A   1      47.097  29.399  30.872  1.00  0.00     0.029 A 
ATOM     60  C   UNL A   1      46.320  28.420  30.273  1.00  0.00     0.049 A 
ATOM     61  H   UNL A   1      44.256  28.448  29.828  1.00  0.00     0.167 HD
ATOM     62  C   UNL A   1      45.888  26.215  29.226  1.00  0.00     0.074 A 
ATOM     63  C   UNL A   1      46.308  24.922  28.732  1.00  0.00     0.031 C 
ATOM     64  C   UNL A   1      46.723  27.124  29.788  1.00  0.00     0.037 A 
BRANCH  51  65
ATOM     65  C   UNL A   1      43.949  32.396  31.422  1.00  0.00     0.057 A 
ATOM     66  C   UNL A   1      44.229  33.515  30.627  1.00  0.00     0.134 A 
ATOM     67  C   UNL A   1      43.760  32.610  32.794  1.00  0.00     0.134 A 
ATOM     68  F   UNL A   1      44.436  33.379  29.309  1.00  0.00    -0.206 F 
ATOM     69  C   UNL A   1      44.339  34.793  31.179  1.00  0.00     0.040 A 
ATOM     70  C   UNL A   1      43.838  33.886  33.352  1.00  0.00     0.040 A 
ATOM     71  F   UNL A   1      43.486  31.583  33.612  1.00  0.00    -0.206 F 
ATOM     72  C   UNL A   1      44.135  34.982  32.544  1.00  0.00     0.006 A 
ENDBRANCH  51  65
BRANCH  52  73
ATOM     73  C   UNL A   1      42.640  23.373  27.357  1.00  0.00     0.057 A 
ATOM     74  C   UNL A   1      42.305  22.243  28.112  1.00  0.00     0.134 A 
ATOM     75  C   UNL A   1      42.851  23.189  25.985  1.00  0.00     0.134 A 
ATOM     76  F   UNL A   1      42.117  22.347  29.435  1.00  0.00    -0.206 F 
ATOM     77  C   UNL A   1      42.210  20.977  27.532  1.00  0.00     0.040 A 
ATOM     78  C   UNL A   1      42.728  21.935  25.386  1.00  0.00     0.040 A 
ATOM     79  F   UNL A   1      43.177  24.229  25.203  1.00  0.00    -0.206 F 
ATOM     80  C   UNL A   1      42.417  20.821  26.162  1.00  0.00     0.006 A 
ENDBRANCH  52  73
BRANCH  64  81
ATOM     81  C   UNL A   1      48.166  26.735  29.949  1.00  0.00     0.057 A 
ATOM     82  C   UNL A   1      49.146  27.099  29.016  1.00  0.00     0.134 A 
ATOM     83  C   UNL A   1      48.588  26.020  31.079  1.00  0.00     0.134 A 
ATOM     84  F   UNL A   1      48.811  27.775  27.908  1.00  0.00    -0.206 F 
ATOM     85  C   UNL A   1      50.486  26.743  29.187  1.00  0.00     0.040 A 
ATOM     86  C   UNL A   1      49.928  25.687  31.278  1.00  0.00     0.040 A 
ATOM     87  F   UNL A   1      47.705  25.651  32.020  1.00  0.00    -0.206 F 
ATOM     88  C   UNL A   1      50.881  26.042  30.326  1.00  0.00     0.006 A 
ENDBRANCH  64  81
ENDBRANCH  38  39
ENDBRANCH  31  33
ENDBRANCH  30  31
ENDBRANCH  29  30
ENDBRANCH  28  29
ENDBRANCH  27  28
ENDBRANCH  26  27
ENDBRANCH  25  26
ENDBRANCH  24  25
ENDBRANCH  23  24
ENDBRANCH   1  23
TORSDOF 25
ENDMDL
MODEL 3
REMARK VINA RESULT:      -8.4      2.221      7.287
REMARK SMILES CN(CCO)C(=O)N[C@H]1C=C[C@@H](C(=O)OCCOCCOCCOCCOC(=O)c2ccc(-c3c4nc(c(-c5c(F)cccc5F)c5ccc([nH]5)c(-c5c(F)cccc5F)c5nc(c(-c6c(F)cccc6F)c6ccc3[nH]6)C=C5)C=C4)cc2)C1
REMARK SMILES IDX 19 1 18 2 17 3 16 4 15 5 13 6 14 7 12 8 9 9 10 10 84 11
REMARK SMILES IDX 11 12 8 13 6 14 7 15 2 17 1 18 3 19 4 20 5 21 20 23 21 24
REMARK SMILES IDX 22 25 23 26 24 27 25 28 26 29 27 30 28 31 29 32 30 33 31 34
REMARK SMILES IDX 83 35 32 36 82 37 33 38 34 39 35 40 76 41 36 42 81 43 75 44
REMARK SMILES IDX 77 45 37 46 80 47 74 48 73 49 38 51 64 52 47 53 63 54 48 55
REMARK SMILES IDX 51 56 62 57 78 58 49 59 50 60 61 62 79 63 52 64 39 65 40 66
REMARK SMILES IDX 45 67 41 68 42 69 44 70 46 71 43 72 65 73 66 74 71 75 67 76
REMARK SMILES IDX 68 77 70 78 72 79 69 80 53 81 54 82 59 83 55 84 56 85 58 86
REMARK SMILES IDX 60 87 57 88
REMARK H PARENT 8 16 5 22 77 50 51 61
REMARK Flexibility Score: inf
ROOT
ATOM      1  C   UNL A   1      30.893  24.097  25.649  1.00  0.00     0.188 C 
ENDROOT
BRANCH   1   2
ATOM      2  O   UNL A   1      31.694  22.940  25.843  1.00  0.00    -0.376 OA
BRANCH   2   3
ATOM      3  C   UNL A   1      32.695  22.918  26.854  1.00  0.00     0.202 C 
BRANCH   3   4
ATOM      4  C   UNL A   1      34.189  23.081  26.524  1.00  0.00     0.261 C 
BRANCH   4   5
ATOM      5  O   UNL A   1      34.950  21.865  26.448  1.00  0.00    -0.463 OA
BRANCH   5   6
ATOM      6  C   UNL A   1      35.077  21.300  25.222  1.00  0.00     0.312 C 
ATOM      7  O   UNL A   1      34.138  20.901  24.542  1.00  0.00    -0.252 OA
BRANCH   6   8
ATOM      8  C   UNL A   1      36.521  21.217  24.729  1.00  0.00     0.124 C 
ATOM      9  C   UNL A   1      38.897  21.403  25.381  1.00  0.00     0.107 C 
ATOM     10  C   UNL A   1      38.435  19.975  25.267  1.00  0.00    -0.006 C 
ATOM     11  C   UNL A   1      37.556  22.127  25.382  1.00  0.00     0.048 C 
ATOM     12  C   UNL A   1      37.143  19.874  24.925  1.00  0.00    -0.014 C 
BRANCH   9  13
ATOM     13  N   UNL A   1      39.666  21.551  26.609  1.00  0.00    -0.332 N 
ATOM     14  C   UNL A   1      40.937  21.481  27.031  1.00  0.00     0.317 C 
ATOM     15  O   UNL A   1      41.068  21.539  28.260  1.00  0.00    -0.249 OA
ATOM     16  H   UNL A   1      39.069  21.768  27.361  1.00  0.00     0.165 HD
BRANCH  14  17
ATOM     17  N   UNL A   1      42.033  21.339  26.222  1.00  0.00    -0.326 N 
ATOM     18  C   UNL A   1      42.585  22.573  25.663  1.00  0.00     0.148 C 
BRANCH  17  19
ATOM     19  C   UNL A   1      42.695  20.115  25.787  1.00  0.00     0.149 C 
BRANCH  19  20
ATOM     20  C   UNL A   1      42.596  18.920  26.739  1.00  0.00     0.177 C 
BRANCH  20  21
ATOM     21  O   UNL A   1      42.280  17.700  26.090  1.00  0.00    -0.395 OA
ATOM     22  H   UNL A   1      42.563  17.743  25.162  1.00  0.00     0.210 HD
ENDBRANCH  20  21
ENDBRANCH  19  20
ENDBRANCH  17  19
ENDBRANCH  14  17
ENDBRANCH   9  13
ENDBRANCH   6   8
ENDBRANCH   5   6
ENDBRANCH   4   5
ENDBRANCH   3   4
ENDBRANCH   2   3
ENDBRANCH   1   2
BRANCH   1  23
ATOM     23  C   UNL A   1      31.159  25.370  26.461  1.00  0.00     0.188 C 
BRANCH  23  24
ATOM     24  O   UNL A   1      32.180  26.195  25.945  1.00  0.00    -0.377 OA
BRANCH  24  25
ATOM     25  C   UNL A   1      31.978  27.599  26.059  1.00  0.00     0.188 C 
BRANCH  25  26
ATOM     26  C   UNL A   1      32.842  28.373  27.079  1.00  0.00     0.188 C 
BRANCH  26  27
ATOM     27  O   UNL A   1      33.394  29.587  26.586  1.00  0.00    -0.376 OA
BRANCH  27  28
ATOM     28  C   UNL A   1      32.712  30.807  26.842  1.00  0.00     0.202 C 
BRANCH  28  29
ATOM     29  C   UNL A   1      33.528  32.004  27.365  1.00  0.00     0.261 C 
BRANCH  29  30
ATOM     30  O   UNL A   1      32.796  33.044  28.031  1.00  0.00    -0.460 OA
BRANCH  30  31
ATOM     31  C   UNL A   1      33.470  34.160  28.389  1.00  0.00     0.338 C 
ATOM     32  O   UNL A   1      33.140  35.308  28.192  1.00  0.00    -0.246 OA
BRANCH  31  33
ATOM     33  C   UNL A   1      34.600  33.747  29.253  1.00  0.00     0.060 A 
ATOM     34  C   UNL A   1      35.899  34.129  28.893  1.00  0.00     0.016 A 
ATOM     35  C   UNL A   1      34.381  32.981  30.402  1.00  0.00     0.016 A 
ATOM     36  C   UNL A   1      36.989  33.714  29.660  1.00  0.00     0.010 A 
ATOM     37  C   UNL A   1      35.476  32.546  31.154  1.00  0.00     0.010 A 
ATOM     38  C   UNL A   1      36.786  32.879  30.766  1.00  0.00    -0.014 A 
BRANCH  38  39
ATOM     39  C   UNL A   1      37.947  32.196  31.390  1.00  0.00     0.031 A 
ATOM     40  C   UNL A   1      38.624  31.094  30.621  1.00  0.00     0.074 A 
ATOM     41  C   UNL A   1      38.411  32.559  32.599  1.00  0.00     0.049 A 
ATOM     42  N   UNL A   1      39.617  30.319  30.975  1.00  0.00    -0.248 NA
ATOM     43  C   UNL A   1      38.108  30.830  29.268  1.00  0.00     0.031 C 
ATOM     44  C   UNL A   1      37.875  33.639  33.422  1.00  0.00     0.029 A 
ATOM     45  N   UNL A   1      39.441  32.043  33.346  1.00  0.00    -0.354 N 
ATOM     46  C   UNL A   1      39.837  29.472  29.895  1.00  0.00     0.074 A 
ATOM     47  C   UNL A   1      38.856  29.806  28.887  1.00  0.00     0.031 C 
ATOM     48  C   UNL A   1      38.572  33.697  34.571  1.00  0.00     0.029 A 
ATOM     49  C   UNL A   1      39.577  32.635  34.578  1.00  0.00     0.049 A 
ATOM     50  H   UNL A   1      40.026  31.317  33.030  1.00  0.00     0.167 HD
ATOM     51  C   UNL A   1      40.777  28.509  29.755  1.00  0.00     0.037 A 
ATOM     52  C   UNL A   1      40.399  32.333  35.602  1.00  0.00     0.037 A 
ATOM     53  C   UNL A   1      41.750  28.174  30.760  1.00  0.00     0.049 A 
ATOM     54  C   UNL A   1      41.380  31.197  35.453  1.00  0.00     0.074 A 
ATOM     55  C   UNL A   1      42.753  27.223  30.707  1.00  0.00     0.029 A 
ATOM     56  N   UNL A   1      41.832  28.773  32.009  1.00  0.00    -0.354 N 
ATOM     57  N   UNL A   1      41.600  30.419  34.420  1.00  0.00    -0.248 NA
ATOM     58  C   UNL A   1      42.232  30.899  36.615  1.00  0.00     0.031 C 
ATOM     59  C   UNL A   1      43.404  27.204  31.944  1.00  0.00     0.029 A 
ATOM     60  C   UNL A   1      42.851  28.190  32.745  1.00  0.00     0.049 A 
ATOM     61  H   UNL A   1      41.253  29.504  32.324  1.00  0.00     0.167 HD
ATOM     62  C   UNL A   1      42.634  29.566  34.795  1.00  0.00     0.074 A 
ATOM     63  C   UNL A   1      43.007  29.932  36.144  1.00  0.00     0.031 C 
ATOM     64  C   UNL A   1      43.221  28.572  34.084  1.00  0.00     0.037 A 
BRANCH  51  65
ATOM     65  C   UNL A   1      40.777  27.721  28.475  1.00  0.00     0.057 A 
ATOM     66  C   UNL A   1      41.543  28.104  27.366  1.00  0.00     0.134 A 
ATOM     67  C   UNL A   1      40.026  26.544  28.365  1.00  0.00     0.134 A 
ATOM     68  F   UNL A   1      42.273  29.229  27.399  1.00  0.00    -0.206 F 
ATOM     69  C   UNL A   1      41.544  27.357  26.186  1.00  0.00     0.040 A 
ATOM     70  C   UNL A   1      40.042  25.772  27.203  1.00  0.00     0.040 A 
ATOM     71  F   UNL A   1      39.273  26.118  29.389  1.00  0.00    -0.206 F 
ATOM     72  C   UNL A   1      40.798  26.183  26.106  1.00  0.00     0.006 A 
ENDBRANCH  51  65
BRANCH  52  73
ATOM     73  C   UNL A   1      40.324  33.098  36.874  1.00  0.00     0.057 A 
ATOM     74  C   UNL A   1      41.238  34.116  37.166  1.00  0.00     0.134 A 
ATOM     75  C   UNL A   1      39.362  32.800  37.847  1.00  0.00     0.134 A 
ATOM     76  F   UNL A   1      42.202  34.431  36.288  1.00  0.00    -0.206 F 
ATOM     77  C   UNL A   1      41.213  34.795  38.386  1.00  0.00     0.040 A 
ATOM     78  C   UNL A   1      39.305  33.492  39.058  1.00  0.00     0.040 A 
ATOM     79  F   UNL A   1      38.457  31.833  37.632  1.00  0.00    -0.206 F 
ATOM     80  C   UNL A   1      40.240  34.486  39.335  1.00  0.00     0.006 A 
ENDBRANCH  52  73
BRANCH  64  81
ATOM     81  C   UNL A   1      44.364  27.840  34.730  1.00  0.00     0.057 A 
ATOM     82  C   UNL A   1      45.689  28.279  34.622  1.00  0.00     0.134 A 
ATOM     83  C   UNL A   1      44.126  26.699  35.510  1.00  0.00     0.134 A 
ATOM     84  F   UNL A   1      45.990  29.357  33.884  1.00  0.00    -0.206 F 
ATOM     85  C   UNL A   1      46.739  27.595  35.241  1.00  0.00     0.040 A 
ATOM     86  C   UNL A   1      45.161  26.026  36.161  1.00  0.00     0.040 A 
ATOM     87  F   UNL A   1      42.879  26.230  35.669  1.00  0.00    -0.206 F 
ATOM     88  C   UNL A   1      46.474  26.470  36.020  1.00  0.00     0.006 A 
ENDBRANCH  64  81
ENDBRANCH  38  39
ENDBRANCH  31  33
ENDBRANCH  30  31
ENDBRANCH  29  30
ENDBRANCH  28  29
ENDBRANCH  27  28
ENDBRANCH  26  27
ENDBRANCH  25  26
ENDBRANCH  24  25
ENDBRANCH  23  24
ENDBRANCH   1  23
TORSDOF 25
ENDMDL
