MODEL 1
REMARK VINA RESULT:      -9.8      0.000      0.000
REMARK SMILES O=C(NCCC1=CCCCC1)C1=C(C(=O)OCCOCCOCCOCCOC(=O)c2ccc(-c3c4nc(c(-c5c(F)cccc5F)c5ccc([nH]5)c(-c5c(F)cccc5F)c5nc(c(-c6c(F)cccc6F)c6ccc3[nH]6)C=C5)C=C4)cc2)CCCC1
REMARK SMILES IDX 21 1 20 2 19 3 18 4 17 5 16 6 14 7 15 8 13 9 12 10 88 11
REMARK SMILES IDX 85 12 87 13 86 14 2 15 1 16 3 17 4 19 5 20 6 21 7 22 11 23
REMARK SMILES IDX 8 24 10 25 9 26 22 27 23 28 24 29 25 30 26 31 27 32 28 33
REMARK SMILES IDX 29 34 30 35 31 36 32 37 84 38 33 39 83 40 34 41 35 42 36 43
REMARK SMILES IDX 77 44 37 45 82 46 76 47 78 48 38 49 81 50 75 51 74 52 39 54
REMARK SMILES IDX 65 55 48 56 64 57 49 58 52 59 63 60 79 61 50 62 51 63 62 65
REMARK SMILES IDX 80 66 53 67 40 68 41 69 46 70 42 71 43 72 45 73 47 74 44 75
REMARK SMILES IDX 66 76 67 77 72 78 68 79 69 80 71 81 73 82 70 83 54 84 55 85
REMARK SMILES IDX 60 86 56 87 57 88 59 89 61 90 58 91
REMARK H PARENT 3 18 78 53 52 64
REMARK Flexibility Score: inf
ROOT
ATOM      1  C   UNL A   1      34.733  31.194  28.034  1.00  0.00     0.188 C 
ENDROOT
BRANCH   1   2
ATOM      2  C   UNL A   1      34.125  30.040  27.201  1.00  0.00     0.188 C 
BRANCH   2   3
ATOM      3  O   UNL A   1      33.249  30.436  26.167  1.00  0.00    -0.376 OA
BRANCH   3   4
ATOM      4  C   UNL A   1      32.114  29.675  25.814  1.00  0.00     0.202 C 
BRANCH   4   5
ATOM      5  C   UNL A   1      31.771  28.325  26.450  1.00  0.00     0.261 C 
BRANCH   5   6
ATOM      6  O   UNL A   1      31.833  27.175  25.609  1.00  0.00    -0.460 OA
BRANCH   6   7
ATOM      7  C   UNL A   1      33.054  26.648  25.391  1.00  0.00     0.334 C 
ATOM      8  O   UNL A   1      34.029  26.780  26.116  1.00  0.00    -0.247 OA
BRANCH   7   9
ATOM      9  C   UNL A   1      33.063  25.816  24.162  1.00  0.00     0.046 C 
ATOM     10  C   UNL A   1      33.053  26.310  22.905  1.00  0.00     0.027 C 
ATOM     11  C   UNL A   1      33.042  25.415  21.686  1.00  0.00     0.042 C 
ATOM     12  C   UNL A   1      33.117  24.336  24.443  1.00  0.00     0.044 C 
ATOM     13  C   UNL A   1      32.906  23.920  21.986  1.00  0.00     0.005 C 
ATOM     14  C   UNL A   1      33.646  23.535  23.259  1.00  0.00     0.005 C 
BRANCH  10  15
ATOM     15  C   UNL A   1      33.025  27.758  22.538  1.00  0.00     0.247 C 
ATOM     16  O   UNL A   1      34.069  28.405  22.485  1.00  0.00    -0.270 OA
ATOM     17  N   UNL A   1      31.834  28.401  22.399  1.00  0.00    -0.352 N 
ATOM     18  H   UNL A   1      31.894  29.378  22.302  1.00  0.00     0.163 HD
BRANCH  17  19
ATOM     19  C   UNL A   1      30.488  27.859  22.375  1.00  0.00     0.120 C 
BRANCH  19  20
ATOM     20  C   UNL A   1      29.492  28.586  23.261  1.00  0.00     0.052 C 
BRANCH  20  21
ATOM     21  C   UNL A   1      29.109  30.003  22.874  1.00  0.00    -0.072 C 
ATOM     22  C   UNL A   1      29.283  31.112  23.621  1.00  0.00    -0.028 C 
ATOM     23  C   UNL A   1      28.480  30.074  21.501  1.00  0.00     0.031 C 
ATOM     24  C   UNL A   1      28.783  32.474  23.224  1.00  0.00     0.027 C 
ATOM     25  C   UNL A   1      28.291  31.494  20.975  1.00  0.00     0.005 C 
ATOM     26  C   UNL A   1      27.781  32.414  22.074  1.00  0.00     0.004 C 
ENDBRANCH  20  21
ENDBRANCH  19  20
ENDBRANCH  17  19
ENDBRANCH  10  15
ENDBRANCH   7   9
ENDBRANCH   6   7
ENDBRANCH   5   6
ENDBRANCH   4   5
ENDBRANCH   3   4
ENDBRANCH   2   3
ENDBRANCH   1   2
BRANCH   1  27
ATOM     27  O   UNL A   1      34.569  32.535  27.607  1.00  0.00    -0.377 OA
BRANCH  27  28
ATOM     28  C   UNL A   1      33.970  33.504  28.455  1.00  0.00     0.188 C 
BRANCH  28  29
ATOM     29  C   UNL A   1      34.809  34.544  29.233  1.00  0.00     0.188 C 
BRANCH  29  30
ATOM     30  O   UNL A   1      35.140  34.174  30.558  1.00  0.00    -0.376 OA
BRANCH  30  31
ATOM     31  C   UNL A   1      34.477  33.079  31.157  1.00  0.00     0.202 C 
BRANCH  31  32
ATOM     32  C   UNL A   1      34.772  32.751  32.627  1.00  0.00     0.261 C 
BRANCH  32  33
ATOM     33  O   UNL A   1      35.743  31.727  32.875  1.00  0.00    -0.460 OA
BRANCH  33  34
ATOM     34  C   UNL A   1      36.979  32.112  33.249  1.00  0.00     0.338 C 
ATOM     35  O   UNL A   1      37.287  32.784  34.220  1.00  0.00    -0.246 OA
BRANCH  34  36
ATOM     36  C   UNL A   1      37.932  31.427  32.357  1.00  0.00     0.060 A 
ATOM     37  C   UNL A   1      38.989  30.686  32.906  1.00  0.00     0.016 A 
ATOM     38  C   UNL A   1      37.764  31.511  30.974  1.00  0.00     0.016 A 
ATOM     39  C   UNL A   1      39.907  30.057  32.065  1.00  0.00     0.010 A 
ATOM     40  C   UNL A   1      38.697  30.905  30.135  1.00  0.00     0.010 A 
ATOM     41  C   UNL A   1      39.792  30.209  30.678  1.00  0.00    -0.014 A 
BRANCH  41  42
ATOM     42  C   UNL A   1      40.933  29.876  29.795  1.00  0.00     0.031 A 
ATOM     43  C   UNL A   1      40.996  28.478  29.241  1.00  0.00     0.074 A 
ATOM     44  C   UNL A   1      41.889  30.772  29.499  1.00  0.00     0.049 A 
ATOM     45  N   UNL A   1      41.950  27.890  28.568  1.00  0.00    -0.248 NA
ATOM     46  C   UNL A   1      39.820  27.626  29.491  1.00  0.00     0.031 C 
ATOM     47  C   UNL A   1      41.906  32.169  29.926  1.00  0.00     0.029 A 
ATOM     48  N   UNL A   1      43.047  30.624  28.778  1.00  0.00    -0.354 N 
ATOM     49  C   UNL A   1      41.491  26.602  28.321  1.00  0.00     0.074 A 
ATOM     50  C   UNL A   1      40.194  26.480  28.946  1.00  0.00     0.031 C 
ATOM     51  C   UNL A   1      43.035  32.746  29.476  1.00  0.00     0.029 A 
ATOM     52  C   UNL A   1      43.837  31.748  28.770  1.00  0.00     0.049 A 
ATOM     53  H   UNL A   1      43.289  29.792  28.312  1.00  0.00     0.167 HD
ATOM     54  C   UNL A   1      42.094  25.612  27.625  1.00  0.00     0.037 A 
ATOM     55  C   UNL A   1      45.078  31.929  28.279  1.00  0.00     0.037 A 
ATOM     56  C   UNL A   1      43.392  25.734  27.018  1.00  0.00     0.049 A 
ATOM     57  C   UNL A   1      45.779  30.772  27.608  1.00  0.00     0.074 A 
ATOM     58  C   UNL A   1      44.107  24.784  26.310  1.00  0.00     0.029 A 
ATOM     59  N   UNL A   1      44.170  26.880  27.054  1.00  0.00    -0.354 N 
ATOM     60  N   UNL A   1      45.343  29.557  27.375  1.00  0.00    -0.248 NA
ATOM     61  C   UNL A   1      47.151  31.013  27.131  1.00  0.00     0.031 C 
ATOM     62  C   UNL A   1      45.338  25.342  25.958  1.00  0.00     0.029 A 
ATOM     63  C   UNL A   1      45.364  26.658  26.391  1.00  0.00     0.049 A 
ATOM     64  H   UNL A   1      43.913  27.726  27.487  1.00  0.00     0.167 HD
ATOM     65  C   UNL A   1      46.362  28.909  26.685  1.00  0.00     0.074 A 
ATOM     66  C   UNL A   1      47.437  29.865  26.534  1.00  0.00     0.031 C 
ATOM     67  C   UNL A   1      46.406  27.637  26.217  1.00  0.00     0.037 A 
BRANCH  54  68
ATOM     68  C   UNL A   1      41.362  24.309  27.499  1.00  0.00     0.057 A 
ATOM     69  C   UNL A   1      40.285  24.150  26.616  1.00  0.00     0.134 A 
ATOM     70  C   UNL A   1      41.754  23.191  28.245  1.00  0.00     0.134 A 
ATOM     71  F   UNL A   1      39.846  25.187  25.886  1.00  0.00    -0.206 F 
ATOM     72  C   UNL A   1      39.613  22.933  26.495  1.00  0.00     0.040 A 
ATOM     73  C   UNL A   1      41.109  21.961  28.111  1.00  0.00     0.040 A 
ATOM     74  F   UNL A   1      42.778  23.273  29.109  1.00  0.00    -0.206 F 
ATOM     75  C   UNL A   1      40.031  21.832  27.238  1.00  0.00     0.006 A 
ENDBRANCH  54  68
BRANCH  55  76
ATOM     76  C   UNL A   1      45.768  33.239  28.418  1.00  0.00     0.057 A 
ATOM     77  C   UNL A   1      46.455  33.575  29.591  1.00  0.00     0.134 A 
ATOM     78  C   UNL A   1      45.701  34.212  27.413  1.00  0.00     0.134 A 
ATOM     79  F   UNL A   1      46.534  32.697  30.601  1.00  0.00    -0.206 F 
ATOM     80  C   UNL A   1      47.017  34.840  29.775  1.00  0.00     0.040 A 
ATOM     81  C   UNL A   1      46.287  35.470  27.571  1.00  0.00     0.040 A 
ATOM     82  F   UNL A   1      45.057  33.959  26.265  1.00  0.00    -0.206 F 
ATOM     83  C   UNL A   1      46.935  35.791  28.762  1.00  0.00     0.006 A 
ENDBRANCH  55  76
BRANCH  67  84
ATOM     84  C   UNL A   1      47.615  27.227  25.425  1.00  0.00     0.057 A 
ATOM     85  C   UNL A   1      47.719  27.453  24.048  1.00  0.00     0.134 A 
ATOM     86  C   UNL A   1      48.718  26.651  26.071  1.00  0.00     0.134 A 
ATOM     87  F   UNL A   1      46.697  27.991  23.367  1.00  0.00    -0.206 F 
ATOM     88  C   UNL A   1      48.869  27.102  23.338  1.00  0.00     0.040 A 
ATOM     89  C   UNL A   1      49.884  26.326  25.378  1.00  0.00     0.040 A 
ATOM     90  F   UNL A   1      48.689  26.419  27.392  1.00  0.00    -0.206 F 
ATOM     91  C   UNL A   1      49.960  26.546  24.005  1.00  0.00     0.006 A 
ENDBRANCH  67  84
ENDBRANCH  41  42
ENDBRANCH  34  36
ENDBRANCH  33  34
ENDBRANCH  32  33
ENDBRANCH  31  32
ENDBRANCH  30  31
ENDBRANCH  29  30
ENDBRANCH  28  29
ENDBRANCH  27  28
ENDBRANCH   1  27
TORSDOF 24
ENDMDL
MODEL 2
REMARK VINA RESULT:      -9.7      4.831      9.873
REMARK SMILES O=C(NCCC1=CCCCC1)C1=C(C(=O)OCCOCCOCCOCCOC(=O)c2ccc(-c3c4nc(c(-c5c(F)cccc5F)c5ccc([nH]5)c(-c5c(F)cccc5F)c5nc(c(-c6c(F)cccc6F)c6ccc3[nH]6)C=C5)C=C4)cc2)CCCC1
REMARK SMILES IDX 21 1 20 2 19 3 18 4 17 5 16 6 14 7 15 8 13 9 12 10 88 11
REMARK SMILES IDX 85 12 87 13 86 14 2 15 1 16 3 17 4 19 5 20 6 21 7 22 11 23
REMARK SMILES IDX 8 24 10 25 9 26 22 27 23 28 24 29 25 30 26 31 27 32 28 33
REMARK SMILES IDX 29 34 30 35 31 36 32 37 84 38 33 39 83 40 34 41 35 42 36 43
REMARK SMILES IDX 77 44 37 45 82 46 76 47 78 48 38 49 81 50 75 51 74 52 39 54
REMARK SMILES IDX 65 55 48 56 64 57 49 58 52 59 63 60 79 61 50 62 51 63 62 65
REMARK SMILES IDX 80 66 53 67 40 68 41 69 46 70 42 71 43 72 45 73 47 74 44 75
REMARK SMILES IDX 66 76 67 77 72 78 68 79 69 80 71 81 73 82 70 83 54 84 55 85
REMARK SMILES IDX 60 86 56 87 57 88 59 89 61 90 58 91
REMARK H PARENT 3 18 78 53 52 64
REMARK Flexibility Score: inf
ROOT
ATOM      1  C   UNL A   1      38.492  20.869  25.713  1.00  0.00     0.188 C 
ENDROOT
BRANCH   1   2
ATOM      2  C   UNL A   1      37.125  21.540  25.440  1.00  0.00     0.188 C 
BRANCH   2   3
ATOM      3  O   UNL A   1      37.182  22.898  25.059  1.00  0.00    -0.376 OA
BRANCH   3   4
ATOM      4  C   UNL A   1      36.048  23.593  24.586  1.00  0.00     0.202 C 
BRANCH   4   5
ATOM      5  C   UNL A   1      35.435  23.364  23.201  1.00  0.00     0.261 C 
BRANCH   5   6
ATOM      6  O   UNL A   1      34.390  24.246  22.798  1.00  0.00    -0.460 OA
BRANCH   6   7
ATOM      7  C   UNL A   1      33.164  23.705  22.650  1.00  0.00     0.334 C 
ATOM      8  O   UNL A   1      32.913  22.646  22.096  1.00  0.00    -0.247 OA
BRANCH   7   9
ATOM      9  C   UNL A   1      32.131  24.543  23.309  1.00  0.00     0.046 C 
ATOM     10  C   UNL A   1      31.617  25.676  22.784  1.00  0.00     0.027 C 
ATOM     11  C   UNL A   1      30.578  26.503  23.509  1.00  0.00     0.042 C 
ATOM     12  C   UNL A   1      31.669  23.990  24.633  1.00  0.00     0.044 C 
ATOM     13  C   UNL A   1      30.258  26.034  24.930  1.00  0.00     0.005 C 
ATOM     14  C   UNL A   1      30.298  24.516  25.040  1.00  0.00     0.005 C 
BRANCH  10  15
ATOM     15  C   UNL A   1      31.999  26.279  21.472  1.00  0.00     0.247 C 
ATOM     16  O   UNL A   1      31.408  25.954  20.444  1.00  0.00    -0.270 OA
ATOM     17  N   UNL A   1      33.093  27.083  21.386  1.00  0.00    -0.352 N 
ATOM     18  H   UNL A   1      33.365  27.324  20.472  1.00  0.00     0.163 HD
BRANCH  17  19
ATOM     19  C   UNL A   1      33.918  27.638  22.443  1.00  0.00     0.120 C 
BRANCH  19  20
ATOM     20  C   UNL A   1      33.357  28.886  23.101  1.00  0.00     0.052 C 
BRANCH  20  21
ATOM     21  C   UNL A   1      32.948  28.789  24.560  1.00  0.00    -0.072 C 
ATOM     22  C   UNL A   1      32.061  29.580  25.197  1.00  0.00    -0.028 C 
ATOM     23  C   UNL A   1      33.656  27.665  25.282  1.00  0.00     0.031 C 
ATOM     24  C   UNL A   1      31.778  29.501  26.672  1.00  0.00     0.027 C 
ATOM     25  C   UNL A   1      33.109  27.381  26.680  1.00  0.00     0.005 C 
ATOM     26  C   UNL A   1      32.824  28.679  27.422  1.00  0.00     0.004 C 
ENDBRANCH  20  21
ENDBRANCH  19  20
ENDBRANCH  17  19
ENDBRANCH  10  15
ENDBRANCH   7   9
ENDBRANCH   6   7
ENDBRANCH   5   6
ENDBRANCH   4   5
ENDBRANCH   3   4
ENDBRANCH   2   3
ENDBRANCH   1   2
BRANCH   1  27
ATOM     27  O   UNL A   1      39.664  21.661  25.791  1.00  0.00    -0.377 OA
BRANCH  27  28
ATOM     28  C   UNL A   1      40.871  21.131  26.320  1.00  0.00     0.188 C 
BRANCH  28  29
ATOM     29  C   UNL A   1      42.198  21.923  26.290  1.00  0.00     0.188 C 
BRANCH  29  30
ATOM     30  O   UNL A   1      42.641  22.296  24.999  1.00  0.00    -0.376 OA
BRANCH  30  31
ATOM     31  C   UNL A   1      44.025  22.277  24.711  1.00  0.00     0.202 C 
BRANCH  31  32
ATOM     32  C   UNL A   1      44.726  23.599  24.368  1.00  0.00     0.261 C 
BRANCH  32  33
ATOM     33  O   UNL A   1      44.466  24.709  25.234  1.00  0.00    -0.460 OA
BRANCH  33  34
ATOM     34  C   UNL A   1      45.086  24.730  26.431  1.00  0.00     0.338 C 
ATOM     35  O   UNL A   1      46.183  24.272  26.708  1.00  0.00    -0.246 OA
BRANCH  34  36
ATOM     36  C   UNL A   1      44.268  25.567  27.326  1.00  0.00     0.060 A 
ATOM     37  C   UNL A   1      44.530  26.942  27.426  1.00  0.00     0.016 A 
ATOM     38  C   UNL A   1      43.230  24.985  28.056  1.00  0.00     0.016 A 
ATOM     39  C   UNL A   1      43.773  27.732  28.291  1.00  0.00     0.010 A 
ATOM     40  C   UNL A   1      42.493  25.770  28.939  1.00  0.00     0.010 A 
ATOM     41  C   UNL A   1      42.787  27.137  29.088  1.00  0.00    -0.014 A 
BRANCH  41  42
ATOM     42  C   UNL A   1      42.237  27.862  30.257  1.00  0.00     0.031 A 
ATOM     43  C   UNL A   1      41.017  28.714  30.034  1.00  0.00     0.074 A 
ATOM     44  C   UNL A   1      42.801  27.781  31.473  1.00  0.00     0.049 A 
ATOM     45  N   UNL A   1      40.427  29.553  30.842  1.00  0.00    -0.248 NA
ATOM     46  C   UNL A   1      40.383  28.606  28.707  1.00  0.00     0.031 C 
ATOM     47  C   UNL A   1      43.946  26.945  31.826  1.00  0.00     0.029 A 
ATOM     48  N   UNL A   1      42.487  28.435  32.638  1.00  0.00    -0.354 N 
ATOM     49  C   UNL A   1      39.359  30.075  30.122  1.00  0.00     0.074 A 
ATOM     50  C   UNL A   1      39.404  29.489  28.802  1.00  0.00     0.031 C 
ATOM     51  C   UNL A   1      44.254  27.155  33.119  1.00  0.00     0.029 A 
ATOM     52  C   UNL A   1      43.357  28.171  33.668  1.00  0.00     0.049 A 
ATOM     53  H   UNL A   1      41.714  29.037  32.728  1.00  0.00     0.167 HD
ATOM     54  C   UNL A   1      38.418  30.958  30.530  1.00  0.00     0.037 A 
ATOM     55  C   UNL A   1      43.434  28.718  34.897  1.00  0.00     0.037 A 
ATOM     56  C   UNL A   1      38.388  31.549  31.840  1.00  0.00     0.049 A 
ATOM     57  C   UNL A   1      42.442  29.787  35.289  1.00  0.00     0.074 A 
ATOM     58  C   UNL A   1      37.494  32.473  32.350  1.00  0.00     0.029 A 
ATOM     59  N   UNL A   1      39.302  31.274  32.846  1.00  0.00    -0.354 N 
ATOM     60  N   UNL A   1      41.434  30.278  34.607  1.00  0.00    -0.248 NA
ATOM     61  C   UNL A   1      42.601  30.383  36.626  1.00  0.00     0.031 C 
ATOM     62  C   UNL A   1      37.893  32.792  33.650  1.00  0.00     0.029 A 
ATOM     63  C   UNL A   1      38.999  32.021  33.971  1.00  0.00     0.049 A 
ATOM     64  H   UNL A   1      40.053  30.643  32.772  1.00  0.00     0.167 HD
ATOM     65  C   UNL A   1      40.814  31.197  35.447  1.00  0.00     0.074 A 
ATOM     66  C   UNL A   1      41.556  31.195  36.689  1.00  0.00     0.031 C 
ATOM     67  C   UNL A   1      39.727  31.974  35.213  1.00  0.00     0.037 A 
BRANCH  54  68
ATOM     68  C   UNL A   1      37.359  31.345  29.542  1.00  0.00     0.057 A 
ATOM     69  C   UNL A   1      36.274  30.504  29.255  1.00  0.00     0.134 A 
ATOM     70  C   UNL A   1      37.404  32.584  28.891  1.00  0.00     0.134 A 
ATOM     71  F   UNL A   1      36.182  29.295  29.830  1.00  0.00    -0.206 F 
ATOM     72  C   UNL A   1      35.285  30.873  28.343  1.00  0.00     0.040 A 
ATOM     73  C   UNL A   1      36.404  32.977  28.000  1.00  0.00     0.040 A 
ATOM     74  F   UNL A   1      38.413  33.438  29.121  1.00  0.00    -0.206 F 
ATOM     75  C   UNL A   1      35.345  32.118  27.719  1.00  0.00     0.006 A 
ENDBRANCH  54  68
BRANCH  55  76
ATOM     76  C   UNL A   1      44.496  28.301  35.851  1.00  0.00     0.057 A 
ATOM     77  C   UNL A   1      44.308  27.212  36.712  1.00  0.00     0.134 A 
ATOM     78  C   UNL A   1      45.693  29.016  35.973  1.00  0.00     0.134 A 
ATOM     79  F   UNL A   1      43.173  26.501  36.662  1.00  0.00    -0.206 F 
ATOM     80  C   UNL A   1      45.253  26.873  37.682  1.00  0.00     0.040 A 
ATOM     81  C   UNL A   1      46.661  28.668  36.917  1.00  0.00     0.040 A 
ATOM     82  F   UNL A   1      45.938  30.070  35.182  1.00  0.00    -0.206 F 
ATOM     83  C   UNL A   1      46.436  27.602  37.785  1.00  0.00     0.006 A 
ENDBRANCH  55  76
BRANCH  67  84
ATOM     84  C   UNL A   1      39.221  32.823  36.344  1.00  0.00     0.057 A 
ATOM     85  C   UNL A   1      38.297  32.347  37.281  1.00  0.00     0.134 A 
ATOM     86  C   UNL A   1      39.719  34.120  36.529  1.00  0.00     0.134 A 
ATOM     87  F   UNL A   1      37.774  31.118  37.158  1.00  0.00    -0.206 F 
ATOM     88  C   UNL A   1      37.871  33.138  38.350  1.00  0.00     0.040 A 
ATOM     89  C   UNL A   1      39.325  34.908  37.610  1.00  0.00     0.040 A 
ATOM     90  F   UNL A   1      40.617  34.633  35.674  1.00  0.00    -0.206 F 
ATOM     91  C   UNL A   1      38.393  34.419  38.522  1.00  0.00     0.006 A 
ENDBRANCH  67  84
ENDBRANCH  41  42
ENDBRANCH  34  36
ENDBRANCH  33  34
ENDBRANCH  32  33
ENDBRANCH  31  32
ENDBRANCH  30  31
ENDBRANCH  29  30
ENDBRANCH  28  29
ENDBRANCH  27  28
ENDBRANCH   1  27
TORSDOF 24
ENDMDL
MODEL 3
REMARK VINA RESULT:      -8.9      5.234     10.267
REMARK SMILES O=C(NCCC1=CCCCC1)C1=C(C(=O)OCCOCCOCCOCCOC(=O)c2ccc(-c3c4nc(c(-c5c(F)cccc5F)c5ccc([nH]5)c(-c5c(F)cccc5F)c5nc(c(-c6c(F)cccc6F)c6ccc3[nH]6)C=C5)C=C4)cc2)CCCC1
REMARK SMILES IDX 21 1 20 2 19 3 18 4 17 5 16 6 14 7 15 8 13 9 12 10 88 11
REMARK SMILES IDX 85 12 87 13 86 14 2 15 1 16 3 17 4 19 5 20 6 21 7 22 11 23
REMARK SMILES IDX 8 24 10 25 9 26 22 27 23 28 24 29 25 30 26 31 27 32 28 33
REMARK SMILES IDX 29 34 30 35 31 36 32 37 84 38 33 39 83 40 34 41 35 42 36 43
REMARK SMILES IDX 77 44 37 45 82 46 76 47 78 48 38 49 81 50 75 51 74 52 39 54
REMARK SMILES IDX 65 55 48 56 64 57 49 58 52 59 63 60 79 61 50 62 51 63 62 65
REMARK SMILES IDX 80 66 53 67 40 68 41 69 46 70 42 71 43 72 45 73 47 74 44 75
REMARK SMILES IDX 66 76 67 77 72 78 68 79 69 80 71 81 73 82 70 83 54 84 55 85
REMARK SMILES IDX 60 86 56 87 57 88 59 89 61 90 58 91
REMARK H PARENT 3 18 78 53 52 64
REMARK Flexibility Score: inf
ROOT
ATOM      1  C   UNL A   1      37.008  33.766  34.799  1.00  0.00     0.188 C 
ENDROOT
BRANCH   1   2
ATOM      2  C   UNL A   1      38.143  32.716  34.841  1.00  0.00     0.188 C 
BRANCH   2   3
ATOM      3  O   UNL A   1      38.235  31.970  36.036  1.00  0.00    -0.376 OA
BRANCH   3   4
ATOM      4  C   UNL A   1      39.159  30.916  36.193  1.00  0.00     0.202 C 
BRANCH   4   5
ATOM      5  C   UNL A   1      40.678  31.107  36.126  1.00  0.00     0.261 C 
BRANCH   5   6
ATOM      6  O   UNL A   1      41.484  29.932  36.151  1.00  0.00    -0.460 OA
BRANCH   6   7
ATOM      7  C   UNL A   1      42.818  30.110  36.070  1.00  0.00     0.334 C 
ATOM      8  O   UNL A   1      43.381  31.071  35.568  1.00  0.00    -0.247 OA
BRANCH   7   9
ATOM      9  C   UNL A   1      43.543  28.998  36.733  1.00  0.00     0.046 C 
ATOM     10  C   UNL A   1      43.057  27.745  36.874  1.00  0.00     0.027 C 
ATOM     11  C   UNL A   1      43.833  26.653  37.577  1.00  0.00     0.042 C 
ATOM     12  C   UNL A   1      44.916  29.386  37.220  1.00  0.00     0.044 C 
ATOM     13  C   UNL A   1      45.139  27.109  38.230  1.00  0.00     0.005 C 
ATOM     14  C   UNL A   1      45.833  28.183  37.404  1.00  0.00     0.005 C 
BRANCH  10  15
ATOM     15  C   UNL A   1      41.723  27.270  36.400  1.00  0.00     0.247 C 
ATOM     16  O   UNL A   1      40.843  26.982  37.209  1.00  0.00    -0.270 OA
ATOM     17  N   UNL A   1      41.521  27.019  35.078  1.00  0.00    -0.352 N 
ATOM     18  H   UNL A   1      40.671  26.574  34.861  1.00  0.00     0.163 HD
BRANCH  17  19
ATOM     19  C   UNL A   1      42.374  27.310  33.941  1.00  0.00     0.120 C 
BRANCH  19  20
ATOM     20  C   UNL A   1      43.006  26.092  33.290  1.00  0.00     0.052 C 
BRANCH  20  21
ATOM     21  C   UNL A   1      43.960  25.261  34.128  1.00  0.00    -0.072 C 
ATOM     22  C   UNL A   1      45.211  25.605  34.496  1.00  0.00    -0.028 C 
ATOM     23  C   UNL A   1      43.357  23.937  34.542  1.00  0.00     0.031 C 
ATOM     24  C   UNL A   1      46.145  24.690  35.237  1.00  0.00     0.027 C 
ATOM     25  C   UNL A   1      44.184  23.172  35.572  1.00  0.00     0.005 C 
ATOM     26  C   UNL A   1      45.666  23.240  35.233  1.00  0.00     0.004 C 
ENDBRANCH  20  21
ENDBRANCH  19  20
ENDBRANCH  17  19
ENDBRANCH  10  15
ENDBRANCH   7   9
ENDBRANCH   6   7
ENDBRANCH   5   6
ENDBRANCH   4   5
ENDBRANCH   3   4
ENDBRANCH   2   3
ENDBRANCH   1   2
BRANCH   1  27
ATOM     27  O   UNL A   1      35.660  33.344  34.692  1.00  0.00    -0.377 OA
BRANCH  27  28
ATOM     28  C   UNL A   1      34.743  34.028  33.850  1.00  0.00     0.188 C 
BRANCH  28  29
ATOM     29  C   UNL A   1      34.743  35.569  33.719  1.00  0.00     0.188 C 
BRANCH  29  30
ATOM     30  O   UNL A   1      34.214  36.065  32.504  1.00  0.00    -0.376 OA
BRANCH  30  31
ATOM     31  C   UNL A   1      32.896  35.719  32.130  1.00  0.00     0.202 C 
BRANCH  31  32
ATOM     32  C   UNL A   1      32.435  36.005  30.694  1.00  0.00     0.261 C 
BRANCH  32  33
ATOM     33  O   UNL A   1      33.383  35.747  29.652  1.00  0.00    -0.460 OA
BRANCH  33  34
ATOM     34  C   UNL A   1      33.257  34.598  28.960  1.00  0.00     0.338 C 
ATOM     35  O   UNL A   1      32.340  34.267  28.226  1.00  0.00    -0.246 OA
BRANCH  34  36
ATOM     36  C   UNL A   1      34.526  33.862  29.111  1.00  0.00     0.060 A 
ATOM     37  C   UNL A   1      34.792  33.171  30.302  1.00  0.00     0.016 A 
ATOM     38  C   UNL A   1      35.444  33.850  28.060  1.00  0.00     0.016 A 
ATOM     39  C   UNL A   1      36.002  32.495  30.458  1.00  0.00     0.010 A 
ATOM     40  C   UNL A   1      36.664  33.197  28.227  1.00  0.00     0.010 A 
ATOM     41  C   UNL A   1      36.962  32.551  29.439  1.00  0.00    -0.014 A 
BRANCH  41  42
ATOM     42  C   UNL A   1      38.365  32.168  29.718  1.00  0.00     0.031 A 
ATOM     43  C   UNL A   1      38.814  30.803  29.273  1.00  0.00     0.074 A 
ATOM     44  C   UNL A   1      39.214  32.994  30.351  1.00  0.00     0.049 A 
ATOM     45  N   UNL A   1      39.932  30.172  29.515  1.00  0.00    -0.248 NA
ATOM     46  C   UNL A   1      37.859  30.043  28.446  1.00  0.00     0.031 C 
ATOM     47  C   UNL A   1      38.915  34.359  30.776  1.00  0.00     0.029 A 
ATOM     48  N   UNL A   1      40.507  32.786  30.763  1.00  0.00    -0.354 N 
ATOM     49  C   UNL A   1      39.813  28.944  28.877  1.00  0.00     0.074 A 
ATOM     50  C   UNL A   1      38.502  28.900  28.270  1.00  0.00     0.031 C 
ATOM     51  C   UNL A   1      39.990  34.861  31.412  1.00  0.00     0.029 A 
ATOM     52  C   UNL A   1      41.032  33.837  31.476  1.00  0.00     0.049 A 
ATOM     53  H   UNL A   1      41.010  31.963  30.569  1.00  0.00     0.167 HD
ATOM     54  C   UNL A   1      40.721  27.944  28.797  1.00  0.00     0.037 A 
ATOM     55  C   UNL A   1      42.205  33.936  32.132  1.00  0.00     0.037 A 
ATOM     56  C   UNL A   1      42.017  27.987  29.416  1.00  0.00     0.049 A 
ATOM     57  C   UNL A   1      43.153  32.762  32.125  1.00  0.00     0.074 A 
ATOM     58  C   UNL A   1      43.006  27.019  29.417  1.00  0.00     0.029 A 
ATOM     59  N   UNL A   1      42.501  29.059  30.150  1.00  0.00    -0.354 N 
ATOM     60  N   UNL A   1      43.038  31.603  31.521  1.00  0.00    -0.248 NA
ATOM     61  C   UNL A   1      44.398  32.909  32.895  1.00  0.00     0.031 C 
ATOM     62  C   UNL A   1      44.070  27.487  30.191  1.00  0.00     0.029 A 
ATOM     63  C   UNL A   1      43.770  28.770  30.620  1.00  0.00     0.049 A 
ATOM     64  H   UNL A   1      42.015  29.899  30.314  1.00  0.00     0.167 HD
ATOM     65  C   UNL A   1      44.211  30.909  31.797  1.00  0.00     0.074 A 
ATOM     66  C   UNL A   1      45.026  31.776  32.619  1.00  0.00     0.031 C 
ATOM     67  C   UNL A   1      44.583  29.664  31.405  1.00  0.00     0.037 A 
BRANCH  54  68
ATOM     68  C   UNL A   1      40.332  26.717  28.025  1.00  0.00     0.057 A 
ATOM     69  C   UNL A   1      39.457  25.760  28.556  1.00  0.00     0.134 A 
ATOM     70  C   UNL A   1      40.812  26.505  26.728  1.00  0.00     0.134 A 
ATOM     71  F   UNL A   1      38.976  25.894  29.801  1.00  0.00    -0.206 F 
ATOM     72  C   UNL A   1      39.090  24.625  27.831  1.00  0.00     0.040 A 
ATOM     73  C   UNL A   1      40.429  25.389  25.981  1.00  0.00     0.040 A 
ATOM     74  F   UNL A   1      41.653  27.383  26.159  1.00  0.00    -0.206 F 
ATOM     75  C   UNL A   1      39.570  24.443  26.535  1.00  0.00     0.006 A 
ENDBRANCH  54  68
BRANCH  55  76
ATOM     76  C   UNL A   1      42.555  35.174  32.879  1.00  0.00     0.057 A 
ATOM     77  C   UNL A   1      42.083  35.391  34.180  1.00  0.00     0.134 A 
ATOM     78  C   UNL A   1      43.310  36.195  32.292  1.00  0.00     0.134 A 
ATOM     79  F   UNL A   1      41.333  34.462  34.790  1.00  0.00    -0.206 F 
ATOM     80  C   UNL A   1      42.318  36.592  34.854  1.00  0.00     0.040 A 
ATOM     81  C   UNL A   1      43.580  37.388  32.967  1.00  0.00     0.040 A 
ATOM     82  F   UNL A   1      43.791  36.055  31.049  1.00  0.00    -0.206 F 
ATOM     83  C   UNL A   1      43.070  37.594  34.247  1.00  0.00     0.006 A 
ENDBRANCH  55  76
BRANCH  67  84
ATOM     84  C   UNL A   1      45.958  29.195  31.785  1.00  0.00     0.057 A 
ATOM     85  C   UNL A   1      47.036  29.238  30.893  1.00  0.00     0.134 A 
ATOM     86  C   UNL A   1      46.215  28.752  33.089  1.00  0.00     0.134 A 
ATOM     87  F   UNL A   1      46.857  29.643  29.627  1.00  0.00    -0.206 F 
ATOM     88  C   UNL A   1      48.316  28.837  31.279  1.00  0.00     0.040 A 
ATOM     89  C   UNL A   1      47.496  28.378  33.495  1.00  0.00     0.040 A 
ATOM     90  F   UNL A   1      45.229  28.698  33.997  1.00  0.00    -0.206 F 
ATOM     91  C   UNL A   1      48.551  28.415  32.587  1.00  0.00     0.006 A 
ENDBRANCH  67  84
ENDBRANCH  41  42
ENDBRANCH  34  36
ENDBRANCH  33  34
ENDBRANCH  32  33
ENDBRANCH  31  32
ENDBRANCH  30  31
ENDBRANCH  29  30
ENDBRANCH  28  29
ENDBRANCH  27  28
ENDBRANCH   1  27
TORSDOF 24
ENDMDL
