MODEL 1
REMARK VINA RESULT:      -8.8      0.000      0.000
REMARK SMILES CC(C)[C@H](NC(=O)[C@H](Cc1ccccc1)n1c(=O)[nH]c2ccccc2c1=O)C(=O)OCCOCCOCCOCCOC(=O)c1ccc(-c2c3nc(c(-c4c(F)cccc4F)c4ccc([nH]4)c(-c4c(F)cccc4F)c4nc(c(-c5c(F)cccc5F)c5ccc2[nH]5)C=C4)C=C3)cc1
REMARK SMILES IDX 35 1 34 2 33 3 32 4 31 5 30 6 28 7 29 8 4 9 2 10 1 11 3 12
REMARK SMILES IDX 5 13 6 14 7 16 8 17 16 18 17 19 26 20 18 21 19 22 25 23
REMARK SMILES IDX 27 24 20 25 24 27 21 28 23 29 22 30 9 31 10 32 11 33 15 34
REMARK SMILES IDX 12 35 14 36 13 37 36 38 37 39 38 40 39 41 40 42 41 43 42 44
REMARK SMILES IDX 43 45 44 46 45 47 46 48 98 49 47 50 97 51 48 52 49 53 50 54
REMARK SMILES IDX 91 55 51 56 96 57 90 58 92 59 52 60 95 61 89 62 88 63 53 65
REMARK SMILES IDX 79 66 62 67 78 68 63 69 66 70 77 71 93 72 64 73 65 74 76 76
REMARK SMILES IDX 94 77 67 78 54 79 55 80 60 81 56 82 57 83 59 84 61 85 58 86
REMARK SMILES IDX 80 87 81 88 86 89 82 90 83 91 85 92 87 93 84 94 68 95 69 96
REMARK SMILES IDX 74 97 70 98 71 99 73 100 75 101 72 102
REMARK H PARENT 5 15 19 26 92 64 66 75
REMARK Flexibility Score: inf
ROOT
ATOM      1  C   UNL A   1      33.669  24.178  25.432  1.00  0.00     0.188 C 
ENDROOT
BRANCH   1   2
ATOM      2  C   UNL A   1      33.147  25.571  25.805  1.00  0.00     0.188 C 
BRANCH   2   3
ATOM      3  O   UNL A   1      34.028  26.676  25.928  1.00  0.00    -0.376 OA
BRANCH   3   4
ATOM      4  C   UNL A   1      33.549  28.012  25.987  1.00  0.00     0.202 C 
BRANCH   4   5
ATOM      5  C   UNL A   1      33.961  29.022  27.079  1.00  0.00     0.261 C 
BRANCH   5   6
ATOM      6  O   UNL A   1      35.362  29.319  27.189  1.00  0.00    -0.462 OA
BRANCH   6   7
ATOM      7  C   UNL A   1      35.686  30.383  27.969  1.00  0.00     0.328 C 
ATOM      8  O   UNL A   1      35.062  31.438  27.960  1.00  0.00    -0.250 OA
BRANCH   7   9
ATOM      9  C   UNL A   1      36.766  30.026  29.036  1.00  0.00     0.194 C 
BRANCH   9  10
ATOM     10  C   UNL A   1      37.832  29.021  28.583  1.00  0.00     0.017 C 
ATOM     11  C   UNL A   1      38.960  29.662  27.766  1.00  0.00     0.010 C 
ATOM     12  C   UNL A   1      38.442  28.258  29.761  1.00  0.00     0.010 C 
ENDBRANCH   9  10
BRANCH   9  13
ATOM     13  N   UNL A   1      36.331  29.880  30.439  1.00  0.00    -0.341 N 
ATOM     14  C   UNL A   1      36.397  30.548  31.607  1.00  0.00     0.244 C 
ATOM     15  H   UNL A   1      35.842  29.033  30.557  1.00  0.00     0.164 HD
ATOM     16  O   UNL A   1      36.245  29.803  32.586  1.00  0.00    -0.273 OA
BRANCH  14  17
ATOM     17  C   UNL A   1      36.809  32.016  31.785  1.00  0.00     0.189 C 
BRANCH  17  18
ATOM     18  N   UNL A   1      36.158  32.990  30.883  1.00  0.00    -0.247 N 
ATOM     19  C   UNL A   1      36.907  33.588  29.887  1.00  0.00     0.329 A 
ATOM     20  C   UNL A   1      34.826  33.333  31.100  1.00  0.00     0.264 A 
ATOM     21  O   UNL A   1      38.128  33.703  29.900  1.00  0.00    -0.248 OA
ATOM     22  N   UNL A   1      36.224  34.210  28.882  1.00  0.00    -0.307 N 
ATOM     23  C   UNL A   1      34.278  34.419  30.250  1.00  0.00     0.064 A 
ATOM     24  O   UNL A   1      34.125  32.861  31.992  1.00  0.00    -0.268 OA
ATOM     25  C   UNL A   1      34.951  34.729  29.077  1.00  0.00     0.055 A 
ATOM     26  H   UNL A   1      36.645  34.293  27.996  1.00  0.00     0.171 HD
ATOM     27  C   UNL A   1      33.199  35.207  30.657  1.00  0.00     0.016 A 
ATOM     28  C   UNL A   1      34.468  35.706  28.210  1.00  0.00     0.027 A 
ATOM     29  C   UNL A   1      32.771  36.259  29.843  1.00  0.00     0.001 A 
ATOM     30  C   UNL A   1      33.377  36.480  28.603  1.00  0.00     0.002 A 
ENDBRANCH  17  18
BRANCH  17  31
ATOM     31  C   UNL A   1      36.805  32.445  33.295  1.00  0.00     0.071 C 
BRANCH  31  32
ATOM     32  C   UNL A   1      38.042  33.061  33.931  1.00  0.00    -0.045 A 
ATOM     33  C   UNL A   1      38.636  34.238  33.452  1.00  0.00     0.004 A 
ATOM     34  C   UNL A   1      38.629  32.452  35.050  1.00  0.00     0.004 A 
ATOM     35  C   UNL A   1      39.853  34.702  33.960  1.00  0.00     0.000 A 
ATOM     36  C   UNL A   1      39.825  32.940  35.590  1.00  0.00     0.000 A 
ATOM     37  C   UNL A   1      40.456  34.043  35.022  1.00  0.00     0.000 A 
ENDBRANCH  31  32
ENDBRANCH  17  31
ENDBRANCH  14  17
ENDBRANCH   9  13
ENDBRANCH   7   9
ENDBRANCH   6   7
ENDBRANCH   5   6
ENDBRANCH   4   5
ENDBRANCH   3   4
ENDBRANCH   2   3
ENDBRANCH   1   2
BRANCH   1  38
ATOM     38  O   UNL A   1      34.080  23.400  26.532  1.00  0.00    -0.377 OA
BRANCH  38  39
ATOM     39  C   UNL A   1      34.795  22.210  26.235  1.00  0.00     0.188 C 
BRANCH  39  40
ATOM     40  C   UNL A   1      35.998  22.318  25.273  1.00  0.00     0.188 C 
BRANCH  40  41
ATOM     41  O   UNL A   1      36.532  21.069  24.854  1.00  0.00    -0.376 OA
BRANCH  41  42
ATOM     42  C   UNL A   1      37.893  20.768  25.127  1.00  0.00     0.202 C 
BRANCH  42  43
ATOM     43  C   UNL A   1      38.730  21.776  25.936  1.00  0.00     0.261 C 
BRANCH  43  44
ATOM     44  O   UNL A   1      40.157  21.645  25.861  1.00  0.00    -0.460 OA
BRANCH  44  45
ATOM     45  C   UNL A   1      40.832  21.343  26.987  1.00  0.00     0.338 C 
ATOM     46  O   UNL A   1      40.689  20.356  27.689  1.00  0.00    -0.246 OA
BRANCH  45  47
ATOM     47  C   UNL A   1      41.939  22.314  27.123  1.00  0.00     0.060 A 
ATOM     48  C   UNL A   1      42.769  22.238  28.250  1.00  0.00     0.016 A 
ATOM     49  C   UNL A   1      42.160  23.290  26.148  1.00  0.00     0.016 A 
ATOM     50  C   UNL A   1      43.794  23.166  28.428  1.00  0.00     0.010 A 
ATOM     51  C   UNL A   1      43.169  24.238  26.342  1.00  0.00     0.010 A 
ATOM     52  C   UNL A   1      43.962  24.204  27.504  1.00  0.00    -0.014 A 
BRANCH  52  53
ATOM     53  C   UNL A   1      44.796  25.374  27.870  1.00  0.00     0.031 A 
ATOM     54  C   UNL A   1      44.166  26.458  28.703  1.00  0.00     0.074 A 
ATOM     55  C   UNL A   1      46.088  25.464  27.509  1.00  0.00     0.049 A 
ATOM     56  N   UNL A   1      44.665  27.596  29.110  1.00  0.00    -0.248 NA
ATOM     57  C   UNL A   1      42.777  26.221  29.136  1.00  0.00     0.031 C 
ATOM     58  C   UNL A   1      46.828  24.458  26.751  1.00  0.00     0.029 A 
ATOM     59  N   UNL A   1      47.004  26.463  27.732  1.00  0.00    -0.354 N 
ATOM     60  C   UNL A   1      43.653  28.213  29.835  1.00  0.00     0.074 A 
ATOM     61  C   UNL A   1      42.502  27.340  29.787  1.00  0.00     0.031 C 
ATOM     62  C   UNL A   1      48.084  24.899  26.557  1.00  0.00     0.029 A 
ATOM     63  C   UNL A   1      48.224  26.230  27.146  1.00  0.00     0.049 A 
ATOM     64  H   UNL A   1      46.804  27.268  28.261  1.00  0.00     0.167 HD
ATOM     65  C   UNL A   1      43.683  29.398  30.488  1.00  0.00     0.037 A 
ATOM     66  C   UNL A   1      49.315  27.018  27.073  1.00  0.00     0.037 A 
ATOM     67  C   UNL A   1      44.829  30.267  30.529  1.00  0.00     0.049 A 
ATOM     68  C   UNL A   1      49.293  28.374  27.733  1.00  0.00     0.074 A 
ATOM     69  C   UNL A   1      44.964  31.484  31.173  1.00  0.00     0.029 A 
ATOM     70  N   UNL A   1      46.033  30.014  29.891  1.00  0.00    -0.354 N 
ATOM     71  N   UNL A   1      48.341  28.942  28.434  1.00  0.00    -0.248 NA
ATOM     72  C   UNL A   1      50.503  29.199  27.591  1.00  0.00     0.031 C 
ATOM     73  C   UNL A   1      46.229  31.997  30.873  1.00  0.00     0.029 A 
ATOM     74  C   UNL A   1      46.907  31.068  30.100  1.00  0.00     0.049 A 
ATOM     75  H   UNL A   1      46.236  29.206  29.367  1.00  0.00     0.167 HD
ATOM     76  C   UNL A   1      48.848  30.171  28.845  1.00  0.00     0.074 A 
ATOM     77  C   UNL A   1      50.196  30.260  28.326  1.00  0.00     0.031 C 
ATOM     78  C   UNL A   1      48.252  31.138  29.587  1.00  0.00     0.037 A 
BRANCH  65  79
ATOM     79  C   UNL A   1      42.425  29.837  31.182  1.00  0.00     0.057 A 
ATOM     80  C   UNL A   1      42.130  29.457  32.498  1.00  0.00     0.134 A 
ATOM     81  C   UNL A   1      41.511  30.675  30.531  1.00  0.00     0.134 A 
ATOM     82  F   UNL A   1      42.954  28.642  33.172  1.00  0.00    -0.206 F 
ATOM     83  C   UNL A   1      40.958  29.874  33.131  1.00  0.00     0.040 A 
ATOM     84  C   UNL A   1      40.351  31.123  31.165  1.00  0.00     0.040 A 
ATOM     85  F   UNL A   1      41.733  31.079  29.271  1.00  0.00    -0.206 F 
ATOM     86  C   UNL A   1      40.069  30.717  32.467  1.00  0.00     0.006 A 
ENDBRANCH  65  79
BRANCH  66  87
ATOM     87  C   UNL A   1      50.519  26.563  26.330  1.00  0.00     0.057 A 
ATOM     88  C   UNL A   1      50.750  26.957  25.007  1.00  0.00     0.134 A 
ATOM     89  C   UNL A   1      51.446  25.689  26.911  1.00  0.00     0.134 A 
ATOM     90  F   UNL A   1      49.885  27.771  24.384  1.00  0.00    -0.206 F 
ATOM     91  C   UNL A   1      51.845  26.482  24.282  1.00  0.00     0.040 A 
ATOM     92  C   UNL A   1      52.561  25.229  26.208  1.00  0.00     0.040 A 
ATOM     93  F   UNL A   1      51.282  25.270  28.174  1.00  0.00    -0.206 F 
ATOM     94  C   UNL A   1      52.758  25.619  24.886  1.00  0.00     0.006 A 
ENDBRANCH  66  87
BRANCH  78  95
ATOM     95  C   UNL A   1      49.067  32.354  29.926  1.00  0.00     0.057 A 
ATOM     96  C   UNL A   1      49.936  32.387  31.023  1.00  0.00     0.134 A 
ATOM     97  C   UNL A   1      49.013  33.494  29.112  1.00  0.00     0.134 A 
ATOM     98  F   UNL A   1      50.030  31.334  31.849  1.00  0.00    -0.206 F 
ATOM     99  C   UNL A   1      50.703  33.517  31.314  1.00  0.00     0.040 A 
ATOM    100  C   UNL A   1      49.798  34.617  29.373  1.00  0.00     0.040 A 
ATOM    101  F   UNL A   1      48.212  33.527  28.037  1.00  0.00    -0.206 F 
ATOM    102  C   UNL A   1      50.641  34.634  30.482  1.00  0.00     0.006 A 
ENDBRANCH  78  95
ENDBRANCH  52  53
ENDBRANCH  45  47
ENDBRANCH  44  45
ENDBRANCH  43  44
ENDBRANCH  42  43
ENDBRANCH  41  42
ENDBRANCH  40  41
ENDBRANCH  39  40
ENDBRANCH  38  39
ENDBRANCH   1  38
TORSDOF 26
ENDMDL
MODEL 2
REMARK VINA RESULT:      -8.2      6.731     10.915
REMARK SMILES CC(C)[C@H](NC(=O)[C@H](Cc1ccccc1)n1c(=O)[nH]c2ccccc2c1=O)C(=O)OCCOCCOCCOCCOC(=O)c1ccc(-c2c3nc(c(-c4c(F)cccc4F)c4ccc([nH]4)c(-c4c(F)cccc4F)c4nc(c(-c5c(F)cccc5F)c5ccc2[nH]5)C=C4)C=C3)cc1
REMARK SMILES IDX 35 1 34 2 33 3 32 4 31 5 30 6 28 7 29 8 4 9 2 10 1 11 3 12
REMARK SMILES IDX 5 13 6 14 7 16 8 17 16 18 17 19 26 20 18 21 19 22 25 23
REMARK SMILES IDX 27 24 20 25 24 27 21 28 23 29 22 30 9 31 10 32 11 33 15 34
REMARK SMILES IDX 12 35 14 36 13 37 36 38 37 39 38 40 39 41 40 42 41 43 42 44
REMARK SMILES IDX 43 45 44 46 45 47 46 48 98 49 47 50 97 51 48 52 49 53 50 54
REMARK SMILES IDX 91 55 51 56 96 57 90 58 92 59 52 60 95 61 89 62 88 63 53 65
REMARK SMILES IDX 79 66 62 67 78 68 63 69 66 70 77 71 93 72 64 73 65 74 76 76
REMARK SMILES IDX 94 77 67 78 54 79 55 80 60 81 56 82 57 83 59 84 61 85 58 86
REMARK SMILES IDX 80 87 81 88 86 89 82 90 83 91 85 92 87 93 84 94 68 95 69 96
REMARK SMILES IDX 74 97 70 98 71 99 73 100 75 101 72 102
REMARK H PARENT 5 15 19 26 92 64 66 75
REMARK Flexibility Score: inf
ROOT
ATOM      1  C   UNL A   1      41.494  25.360  27.250  1.00  0.00     0.188 C 
ENDROOT
BRANCH   1   2
ATOM      2  C   UNL A   1      41.318  24.049  28.028  1.00  0.00     0.188 C 
BRANCH   2   3
ATOM      3  O   UNL A   1      40.332  23.101  27.652  1.00  0.00    -0.376 OA
BRANCH   3   4
ATOM      4  C   UNL A   1      40.670  21.763  27.316  1.00  0.00     0.202 C 
BRANCH   4   5
ATOM      5  C   UNL A   1      39.872  20.905  26.312  1.00  0.00     0.261 C 
BRANCH   5   6
ATOM      6  O   UNL A   1      38.900  21.589  25.506  1.00  0.00    -0.462 OA
BRANCH   6   7
ATOM      7  C   UNL A   1      37.802  20.869  25.158  1.00  0.00     0.328 C 
ATOM      8  O   UNL A   1      37.814  19.652  25.014  1.00  0.00    -0.250 OA
BRANCH   7   9
ATOM      9  C   UNL A   1      36.497  21.722  25.206  1.00  0.00     0.194 C 
BRANCH   9  10
ATOM     10  C   UNL A   1      36.639  23.170  24.724  1.00  0.00     0.017 C 
ATOM     11  C   UNL A   1      36.570  23.311  23.199  1.00  0.00     0.010 C 
ATOM     12  C   UNL A   1      35.595  24.093  25.357  1.00  0.00     0.010 C 
ENDBRANCH   9  10
BRANCH   9  13
ATOM     13  N   UNL A   1      35.591  21.535  26.356  1.00  0.00    -0.341 N 
ATOM     14  C   UNL A   1      34.284  21.328  26.608  1.00  0.00     0.244 C 
ATOM     15  H   UNL A   1      36.099  21.574  27.199  1.00  0.00     0.164 HD
ATOM     16  O   UNL A   1      33.966  21.664  27.758  1.00  0.00    -0.273 OA
BRANCH  14  17
ATOM     17  C   UNL A   1      33.220  20.920  25.579  1.00  0.00     0.189 C 
BRANCH  17  18
ATOM     18  N   UNL A   1      32.421  22.019  24.997  1.00  0.00    -0.247 N 
ATOM     19  C   UNL A   1      32.636  22.381  23.681  1.00  0.00     0.329 A 
ATOM     20  C   UNL A   1      31.521  22.709  25.806  1.00  0.00     0.264 A 
ATOM     21  O   UNL A   1      33.668  22.166  23.052  1.00  0.00    -0.248 OA
ATOM     22  N   UNL A   1      31.680  23.148  23.081  1.00  0.00    -0.307 N 
ATOM     23  C   UNL A   1      30.859  23.888  25.198  1.00  0.00     0.064 A 
ATOM     24  O   UNL A   1      31.318  22.453  26.990  1.00  0.00    -0.268 OA
ATOM     25  C   UNL A   1      30.855  23.991  23.814  1.00  0.00     0.055 A 
ATOM     26  H   UNL A   1      31.572  23.103  22.103  1.00  0.00     0.171 HD
ATOM     27  C   UNL A   1      30.363  24.942  25.970  1.00  0.00     0.016 A 
ATOM     28  C   UNL A   1      30.213  25.049  23.175  1.00  0.00     0.027 A 
ATOM     29  C   UNL A   1      29.812  26.058  25.336  1.00  0.00     0.001 A 
ATOM     30  C   UNL A   1      29.697  26.091  23.944  1.00  0.00     0.002 A 
ENDBRANCH  17  18
BRANCH  17  31
ATOM     31  C   UNL A   1      33.790  19.915  24.517  1.00  0.00     0.071 C 
BRANCH  31  32
ATOM     32  C   UNL A   1      33.703  18.412  24.743  1.00  0.00    -0.045 A 
ATOM     33  C   UNL A   1      32.595  17.799  25.346  1.00  0.00     0.004 A 
ATOM     34  C   UNL A   1      34.756  17.582  24.334  1.00  0.00     0.004 A 
ATOM     35  C   UNL A   1      32.601  16.441  25.677  1.00  0.00     0.000 A 
ATOM     36  C   UNL A   1      34.746  16.212  24.623  1.00  0.00     0.000 A 
ATOM     37  C   UNL A   1      33.685  15.649  25.326  1.00  0.00     0.000 A 
ENDBRANCH  31  32
ENDBRANCH  17  31
ENDBRANCH  14  17
ENDBRANCH   9  13
ENDBRANCH   7   9
ENDBRANCH   6   7
ENDBRANCH   5   6
ENDBRANCH   4   5
ENDBRANCH   3   4
ENDBRANCH   2   3
ENDBRANCH   1   2
BRANCH   1  38
ATOM     38  O   UNL A   1      42.684  25.431  26.499  1.00  0.00    -0.377 OA
BRANCH  38  39
ATOM     39  C   UNL A   1      42.771  24.578  25.368  1.00  0.00     0.188 C 
BRANCH  39  40
ATOM     40  C   UNL A   1      44.170  24.062  24.965  1.00  0.00     0.188 C 
BRANCH  40  41
ATOM     41  O   UNL A   1      45.251  24.719  25.613  1.00  0.00    -0.376 OA
BRANCH  41  42
ATOM     42  C   UNL A   1      45.896  25.805  24.963  1.00  0.00     0.202 C 
BRANCH  42  43
ATOM     43  C   UNL A   1      45.412  27.238  25.250  1.00  0.00     0.261 C 
BRANCH  43  44
ATOM     44  O   UNL A   1      45.536  27.708  26.600  1.00  0.00    -0.460 OA
BRANCH  44  45
ATOM     45  C   UNL A   1      46.571  28.516  26.903  1.00  0.00     0.338 C 
ATOM     46  O   UNL A   1      46.799  29.624  26.445  1.00  0.00    -0.246 OA
BRANCH  45  47
ATOM     47  C   UNL A   1      47.283  27.923  28.055  1.00  0.00     0.060 A 
ATOM     48  C   UNL A   1      47.596  26.557  28.026  1.00  0.00     0.016 A 
ATOM     49  C   UNL A   1      47.643  28.706  29.154  1.00  0.00     0.016 A 
ATOM     50  C   UNL A   1      48.227  25.960  29.116  1.00  0.00     0.010 A 
ATOM     51  C   UNL A   1      48.250  28.101  30.259  1.00  0.00     0.010 A 
ATOM     52  C   UNL A   1      48.506  26.717  30.260  1.00  0.00    -0.014 A 
BRANCH  52  53
ATOM     53  C   UNL A   1      48.839  26.023  31.526  1.00  0.00     0.031 A 
ATOM     54  C   UNL A   1      47.709  25.661  32.452  1.00  0.00     0.074 A 
ATOM     55  C   UNL A   1      50.103  25.687  31.839  1.00  0.00     0.049 A 
ATOM     56  N   UNL A   1      47.742  25.099  33.632  1.00  0.00    -0.248 NA
ATOM     57  C   UNL A   1      46.351  25.979  31.976  1.00  0.00     0.031 C 
ATOM     58  C   UNL A   1      51.276  25.932  31.004  1.00  0.00     0.029 A 
ATOM     59  N   UNL A   1      50.605  25.069  32.958  1.00  0.00    -0.354 N 
ATOM     60  C   UNL A   1      46.419  25.005  34.042  1.00  0.00     0.074 A 
ATOM     61  C   UNL A   1      45.607  25.596  33.001  1.00  0.00     0.031 C 
ATOM     62  C   UNL A   1      52.368  25.482  31.648  1.00  0.00     0.029 A 
ATOM     63  C   UNL A   1      51.973  24.951  32.952  1.00  0.00     0.049 A 
ATOM     64  H   UNL A   1      50.038  24.741  33.693  1.00  0.00     0.167 HD
ATOM     65  C   UNL A   1      45.922  24.469  35.181  1.00  0.00     0.037 A 
ATOM     66  C   UNL A   1      52.808  24.493  33.907  1.00  0.00     0.037 A 
ATOM     67  C   UNL A   1      46.732  23.887  36.218  1.00  0.00     0.049 A 
ATOM     68  C   UNL A   1      52.236  23.982  35.206  1.00  0.00     0.074 A 
ATOM     69  C   UNL A   1      46.324  23.307  37.406  1.00  0.00     0.029 A 
ATOM     70  N   UNL A   1      48.116  23.822  36.193  1.00  0.00    -0.354 N 
ATOM     71  N   UNL A   1      50.983  23.877  35.578  1.00  0.00    -0.248 NA
ATOM     72  C   UNL A   1      53.200  23.524  36.219  1.00  0.00     0.031 C 
ATOM     73  C   UNL A   1      47.466  22.946  38.128  1.00  0.00     0.029 A 
ATOM     74  C   UNL A   1      48.581  23.238  37.360  1.00  0.00     0.049 A 
ATOM     75  H   UNL A   1      48.684  24.143  35.456  1.00  0.00     0.167 HD
ATOM     76  C   UNL A   1      51.007  23.311  36.849  1.00  0.00     0.074 A 
ATOM     77  C   UNL A   1      52.398  23.083  37.178  1.00  0.00     0.031 C 
ATOM     78  C   UNL A   1      49.970  23.006  37.669  1.00  0.00     0.037 A 
BRANCH  65  79
ATOM     79  C   UNL A   1      44.434  24.520  35.378  1.00  0.00     0.057 A 
ATOM     80  C   UNL A   1      43.585  23.509  34.906  1.00  0.00     0.134 A 
ATOM     81  C   UNL A   1      43.846  25.583  36.076  1.00  0.00     0.134 A 
ATOM     82  F   UNL A   1      44.082  22.472  34.216  1.00  0.00    -0.206 F 
ATOM     83  C   UNL A   1      42.204  23.569  35.099  1.00  0.00     0.040 A 
ATOM     84  C   UNL A   1      42.469  25.637  36.301  1.00  0.00     0.040 A 
ATOM     85  F   UNL A   1      44.600  26.583  36.557  1.00  0.00    -0.206 F 
ATOM     86  C   UNL A   1      41.643  24.631  35.805  1.00  0.00     0.006 A 
ENDBRANCH  65  79
BRANCH  66  87
ATOM     87  C   UNL A   1      54.278  24.511  33.688  1.00  0.00     0.057 A 
ATOM     88  C   UNL A   1      54.934  23.445  33.061  1.00  0.00     0.134 A 
ATOM     89  C   UNL A   1      55.068  25.576  34.137  1.00  0.00     0.134 A 
ATOM     90  F   UNL A   1      54.238  22.382  32.632  1.00  0.00    -0.206 F 
ATOM     91  C   UNL A   1      56.322  23.426  32.909  1.00  0.00     0.040 A 
ATOM     92  C   UNL A   1      56.454  25.584  33.966  1.00  0.00     0.040 A 
ATOM     93  F   UNL A   1      54.504  26.628  34.749  1.00  0.00    -0.206 F 
ATOM     94  C   UNL A   1      57.086  24.502  33.359  1.00  0.00     0.006 A 
ENDBRANCH  66  87
BRANCH  78  95
ATOM     95  C   UNL A   1      50.293  22.346  38.980  1.00  0.00     0.057 A 
ATOM     96  C   UNL A   1      50.506  23.082  40.152  1.00  0.00     0.134 A 
ATOM     97  C   UNL A   1      50.344  20.949  39.078  1.00  0.00     0.134 A 
ATOM     98  F   UNL A   1      50.481  24.423  40.128  1.00  0.00    -0.206 F 
ATOM     99  C   UNL A   1      50.784  22.454  41.369  1.00  0.00     0.040 A 
ATOM    100  C   UNL A   1      50.588  20.309  40.293  1.00  0.00     0.040 A 
ATOM    101  F   UNL A   1      50.136  20.182  37.998  1.00  0.00    -0.206 F 
ATOM    102  C   UNL A   1      50.818  21.063  41.442  1.00  0.00     0.006 A 
ENDBRANCH  78  95
ENDBRANCH  52  53
ENDBRANCH  45  47
ENDBRANCH  44  45
ENDBRANCH  43  44
ENDBRANCH  42  43
ENDBRANCH  41  42
ENDBRANCH  40  41
ENDBRANCH  39  40
ENDBRANCH  38  39
ENDBRANCH   1  38
TORSDOF 26
ENDMDL
MODEL 3
REMARK VINA RESULT:      -8.0      3.219      4.593
REMARK SMILES CC(C)[C@H](NC(=O)[C@H](Cc1ccccc1)n1c(=O)[nH]c2ccccc2c1=O)C(=O)OCCOCCOCCOCCOC(=O)c1ccc(-c2c3nc(c(-c4c(F)cccc4F)c4ccc([nH]4)c(-c4c(F)cccc4F)c4nc(c(-c5c(F)cccc5F)c5ccc2[nH]5)C=C4)C=C3)cc1
REMARK SMILES IDX 35 1 34 2 33 3 32 4 31 5 30 6 28 7 29 8 4 9 2 10 1 11 3 12
REMARK SMILES IDX 5 13 6 14 7 16 8 17 16 18 17 19 26 20 18 21 19 22 25 23
REMARK SMILES IDX 27 24 20 25 24 27 21 28 23 29 22 30 9 31 10 32 11 33 15 34
REMARK SMILES IDX 12 35 14 36 13 37 36 38 37 39 38 40 39 41 40 42 41 43 42 44
REMARK SMILES IDX 43 45 44 46 45 47 46 48 98 49 47 50 97 51 48 52 49 53 50 54
REMARK SMILES IDX 91 55 51 56 96 57 90 58 92 59 52 60 95 61 89 62 88 63 53 65
REMARK SMILES IDX 79 66 62 67 78 68 63 69 66 70 77 71 93 72 64 73 65 74 76 76
REMARK SMILES IDX 94 77 67 78 54 79 55 80 60 81 56 82 57 83 59 84 61 85 58 86
REMARK SMILES IDX 80 87 81 88 86 89 82 90 83 91 85 92 87 93 84 94 68 95 69 96
REMARK SMILES IDX 74 97 70 98 71 99 73 100 75 101 72 102
REMARK H PARENT 5 15 19 26 92 64 66 75
REMARK Flexibility Score: inf
ROOT
ATOM      1  C   UNL A   1      33.005  24.187  24.481  1.00  0.00     0.188 C 
ENDROOT
BRANCH   1   2
ATOM      2  C   UNL A   1      32.795  25.421  25.367  1.00  0.00     0.188 C 
BRANCH   2   3
ATOM      3  O   UNL A   1      33.818  26.391  25.527  1.00  0.00    -0.376 OA
BRANCH   3   4
ATOM      4  C   UNL A   1      33.523  27.776  25.648  1.00  0.00     0.202 C 
BRANCH   4   5
ATOM      5  C   UNL A   1      33.857  28.615  26.899  1.00  0.00     0.261 C 
BRANCH   5   6
ATOM      6  O   UNL A   1      35.248  28.786  27.211  1.00  0.00    -0.462 OA
BRANCH   6   7
ATOM      7  C   UNL A   1      35.599  29.991  27.731  1.00  0.00     0.328 C 
ATOM      8  O   UNL A   1      34.983  31.026  27.504  1.00  0.00    -0.250 OA
BRANCH   7   9
ATOM      9  C   UNL A   1      36.702  29.863  28.825  1.00  0.00     0.194 C 
BRANCH   9  10
ATOM     10  C   UNL A   1      37.802  28.836  28.536  1.00  0.00     0.017 C 
ATOM     11  C   UNL A   1      38.838  29.327  27.517  1.00  0.00     0.010 C 
ATOM     12  C   UNL A   1      38.527  28.392  29.809  1.00  0.00     0.010 C 
ENDBRANCH   9  10
BRANCH   9  13
ATOM     13  N   UNL A   1      36.287  29.947  30.239  1.00  0.00    -0.341 N 
ATOM     14  C   UNL A   1      36.456  30.744  31.312  1.00  0.00     0.244 C 
ATOM     15  H   UNL A   1      35.707  29.184  30.469  1.00  0.00     0.164 HD
ATOM     16  O   UNL A   1      36.242  30.150  32.380  1.00  0.00    -0.273 OA
BRANCH  14  17
ATOM     17  C   UNL A   1      37.038  32.165  31.298  1.00  0.00     0.189 C 
BRANCH  17  18
ATOM     18  N   UNL A   1      36.057  33.270  31.324  1.00  0.00    -0.247 N 
ATOM     19  C   UNL A   1      35.686  33.866  30.134  1.00  0.00     0.329 A 
ATOM     20  C   UNL A   1      35.585  33.732  32.550  1.00  0.00     0.264 A 
ATOM     21  O   UNL A   1      36.351  33.852  29.103  1.00  0.00    -0.248 OA
ATOM     22  N   UNL A   1      34.558  34.635  30.147  1.00  0.00    -0.307 N 
ATOM     23  C   UNL A   1      34.716  34.934  32.511  1.00  0.00     0.064 A 
ATOM     24  O   UNL A   1      35.910  33.265  33.638  1.00  0.00    -0.268 OA
ATOM     25  C   UNL A   1      34.119  35.266  31.303  1.00  0.00     0.055 A 
ATOM     26  H   UNL A   1      34.043  34.745  29.315  1.00  0.00     0.171 HD
ATOM     27  C   UNL A   1      34.589  35.794  33.604  1.00  0.00     0.016 A 
ATOM     28  C   UNL A   1      33.257  36.355  31.205  1.00  0.00     0.027 A 
ATOM     29  C   UNL A   1      33.811  36.948  33.484  1.00  0.00     0.001 A 
ATOM     30  C   UNL A   1      33.111  37.204  32.301  1.00  0.00     0.002 A 
ENDBRANCH  17  18
BRANCH  17  31
ATOM     31  C   UNL A   1      38.208  32.327  32.332  1.00  0.00     0.071 C 
BRANCH  31  32
ATOM     32  C   UNL A   1      39.564  31.684  32.078  1.00  0.00    -0.045 A 
ATOM     33  C   UNL A   1      40.334  31.108  33.101  1.00  0.00     0.004 A 
ATOM     34  C   UNL A   1      40.085  31.642  30.777  1.00  0.00     0.004 A 
ATOM     35  C   UNL A   1      41.637  30.658  32.869  1.00  0.00     0.000 A 
ATOM     36  C   UNL A   1      41.373  31.149  30.534  1.00  0.00     0.000 A 
ATOM     37  C   UNL A   1      42.162  30.691  31.585  1.00  0.00     0.000 A 
ENDBRANCH  31  32
ENDBRANCH  17  31
ENDBRANCH  14  17
ENDBRANCH   9  13
ENDBRANCH   7   9
ENDBRANCH   6   7
ENDBRANCH   5   6
ENDBRANCH   4   5
ENDBRANCH   3   4
ENDBRANCH   2   3
ENDBRANCH   1   2
BRANCH   1  38
ATOM     38  O   UNL A   1      33.044  22.968  25.186  1.00  0.00    -0.377 OA
BRANCH  38  39
ATOM     39  C   UNL A   1      34.068  22.056  24.819  1.00  0.00     0.188 C 
BRANCH  39  40
ATOM     40  C   UNL A   1      35.498  22.615  24.648  1.00  0.00     0.188 C 
BRANCH  40  41
ATOM     41  O   UNL A   1      36.474  21.641  24.303  1.00  0.00    -0.376 OA
BRANCH  41  42
ATOM     42  C   UNL A   1      37.723  21.639  24.978  1.00  0.00     0.202 C 
BRANCH  42  43
ATOM     43  C   UNL A   1      37.920  22.577  26.183  1.00  0.00     0.261 C 
BRANCH  43  44
ATOM     44  O   UNL A   1      39.055  23.454  26.146  1.00  0.00    -0.460 OA
BRANCH  44  45
ATOM     45  C   UNL A   1      40.245  22.977  26.560  1.00  0.00     0.338 C 
ATOM     46  O   UNL A   1      40.701  21.863  26.362  1.00  0.00    -0.246 OA
BRANCH  45  47
ATOM     47  C   UNL A   1      41.013  24.108  27.122  1.00  0.00     0.060 A 
ATOM     48  C   UNL A   1      42.358  24.260  26.755  1.00  0.00     0.016 A 
ATOM     49  C   UNL A   1      40.415  25.014  28.002  1.00  0.00     0.016 A 
ATOM     50  C   UNL A   1      43.120  25.290  27.303  1.00  0.00     0.010 A 
ATOM     51  C   UNL A   1      41.189  26.030  28.573  1.00  0.00     0.010 A 
ATOM     52  C   UNL A   1      42.555  26.145  28.257  1.00  0.00    -0.014 A 
BRANCH  52  53
ATOM     53  C   UNL A   1      43.442  26.992  29.089  1.00  0.00     0.031 A 
ATOM     54  C   UNL A   1      43.625  28.431  28.687  1.00  0.00     0.074 A 
ATOM     55  C   UNL A   1      44.044  26.517  30.193  1.00  0.00     0.049 A 
ATOM     56  N   UNL A   1      44.380  29.358  29.217  1.00  0.00    -0.248 NA
ATOM     57  C   UNL A   1      42.844  28.885  27.522  1.00  0.00     0.031 C 
ATOM     58  C   UNL A   1      43.904  25.161  30.718  1.00  0.00     0.029 A 
ATOM     59  N   UNL A   1      44.905  27.133  31.069  1.00  0.00    -0.354 N 
ATOM     60  C   UNL A   1      44.174  30.496  28.449  1.00  0.00     0.074 A 
ATOM     61  C   UNL A   1      43.248  30.139  27.397  1.00  0.00     0.031 C 
ATOM     62  C   UNL A   1      44.668  25.042  31.819  1.00  0.00     0.029 A 
ATOM     63  C   UNL A   1      45.375  26.300  32.054  1.00  0.00     0.049 A 
ATOM     64  H   UNL A   1      45.160  28.081  30.996  1.00  0.00     0.167 HD
ATOM     65  C   UNL A   1      44.704  31.731  28.609  1.00  0.00     0.037 A 
ATOM     66  C   UNL A   1      46.292  26.526  33.015  1.00  0.00     0.037 A 
ATOM     67  C   UNL A   1      45.629  32.082  29.653  1.00  0.00     0.049 A 
ATOM     68  C   UNL A   1      46.936  27.886  33.118  1.00  0.00     0.074 A 
ATOM     69  C   UNL A   1      46.214  33.310  29.908  1.00  0.00     0.029 A 
ATOM     70  N   UNL A   1      46.110  31.201  30.608  1.00  0.00    -0.354 N 
ATOM     71  N   UNL A   1      46.721  28.963  32.402  1.00  0.00    -0.248 NA
ATOM     72  C   UNL A   1      47.952  28.060  34.168  1.00  0.00     0.031 C 
ATOM     73  C   UNL A   1      47.098  33.156  30.980  1.00  0.00     0.029 A 
ATOM     74  C   UNL A   1      47.011  31.851  31.436  1.00  0.00     0.049 A 
ATOM     75  H   UNL A   1      45.851  30.255  30.686  1.00  0.00     0.167 HD
ATOM     76  C   UNL A   1      47.546  29.949  32.935  1.00  0.00     0.074 A 
ATOM     77  C   UNL A   1      48.255  29.345  34.043  1.00  0.00     0.031 C 
ATOM     78  C   UNL A   1      47.701  31.239  32.544  1.00  0.00     0.037 A 
BRANCH  65  79
ATOM     79  C   UNL A   1      44.319  32.784  27.609  1.00  0.00     0.057 A 
ATOM     80  C   UNL A   1      44.806  32.777  26.295  1.00  0.00     0.134 A 
ATOM     81  C   UNL A   1      43.424  33.803  27.959  1.00  0.00     0.134 A 
ATOM     82  F   UNL A   1      45.679  31.839  25.899  1.00  0.00    -0.206 F 
ATOM     83  C   UNL A   1      44.438  33.760  25.375  1.00  0.00     0.040 A 
ATOM     84  C   UNL A   1      43.025  34.774  27.039  1.00  0.00     0.040 A 
ATOM     85  F   UNL A   1      42.916  33.868  29.199  1.00  0.00    -0.206 F 
ATOM     86  C   UNL A   1      43.538  34.758  25.744  1.00  0.00     0.006 A 
ENDBRANCH  65  79
BRANCH  66  87
ATOM     87  C   UNL A   1      46.681  25.437  33.950  1.00  0.00     0.057 A 
ATOM     88  C   UNL A   1      47.814  24.649  33.719  1.00  0.00     0.134 A 
ATOM     89  C   UNL A   1      45.904  25.132  35.075  1.00  0.00     0.134 A 
ATOM     90  F   UNL A   1      48.585  24.873  32.644  1.00  0.00    -0.206 F 
ATOM     91  C   UNL A   1      48.149  23.584  34.558  1.00  0.00     0.040 A 
ATOM     92  C   UNL A   1      46.243  24.089  35.938  1.00  0.00     0.040 A 
ATOM     93  F   UNL A   1      44.803  25.846  35.353  1.00  0.00    -0.206 F 
ATOM     94  C   UNL A   1      47.364  23.305  35.675  1.00  0.00     0.006 A 
ENDBRANCH  66  87
BRANCH  78  95
ATOM     95  C   UNL A   1      48.635  32.100  33.347  1.00  0.00     0.057 A 
ATOM     96  C   UNL A   1      49.988  32.243  33.016  1.00  0.00     0.134 A 
ATOM     97  C   UNL A   1      48.158  32.835  34.441  1.00  0.00     0.134 A 
ATOM     98  F   UNL A   1      50.512  31.562  31.986  1.00  0.00    -0.206 F 
ATOM     99  C   UNL A   1      50.839  33.065  33.759  1.00  0.00     0.040 A 
ATOM    100  C   UNL A   1      48.991  33.684  35.172  1.00  0.00     0.040 A 
ATOM    101  F   UNL A   1      46.870  32.756  34.807  1.00  0.00    -0.206 F 
ATOM    102  C   UNL A   1      50.338  33.794  34.836  1.00  0.00     0.006 A 
ENDBRANCH  78  95
ENDBRANCH  52  53
ENDBRANCH  45  47
ENDBRANCH  44  45
ENDBRANCH  43  44
ENDBRANCH  42  43
ENDBRANCH  41  42
ENDBRANCH  40  41
ENDBRANCH  39  40
ENDBRANCH  38  39
ENDBRANCH   1  38
TORSDOF 26
ENDMDL
