MODEL 1
REMARK VINA RESULT:     -10.7      0.000      0.000
REMARK SMILES CC1=C([C@H](NC(=O)[C@@H]2[C@H](C)c3cc(F)ccc3N2C)C(=O)OCCOCCOCCOCCOC(=O)c2ccc(-c3c4nc(c(-c5c(F)cccc5F)c5ccc([nH]5)c(-c5c(F)cccc5F)c5nc(c(-c6c(F)cccc6F)c6ccc3[nH]6)C=C5)C=C4)cc2)[C@@H](C)N=N1
REMARK SMILES IDX 28 1 27 2 26 3 25 4 24 5 23 6 22 7 20 8 21 9 4 10 3 11 1 12
REMARK SMILES IDX 2 13 94 14 91 15 93 16 92 17 5 18 6 19 7 21 8 22 9 23 18 24
REMARK SMILES IDX 11 25 10 26 17 27 19 28 12 29 16 30 13 31 15 32 14 33 29 34
REMARK SMILES IDX 30 35 31 36 32 37 33 38 34 39 35 40 36 41 37 42 38 43 90 44
REMARK SMILES IDX 39 45 89 46 40 47 41 48 42 49 83 50 43 51 88 52 82 53 84 54
REMARK SMILES IDX 44 55 87 56 81 57 80 58 45 60 71 61 54 62 70 63 55 64 58 65
REMARK SMILES IDX 69 66 85 67 56 68 57 69 68 71 86 72 59 73 46 74 47 75 52 76
REMARK SMILES IDX 48 77 49 78 51 79 53 80 50 81 72 82 73 83 78 84 74 85 75 86
REMARK SMILES IDX 77 87 79 88 76 89 60 90 61 91 66 92 62 93 63 94 65 95 67 96
REMARK SMILES IDX 64 97
REMARK H PARENT 5 20 84 59 58 70
REMARK Flexibility Score: inf
ROOT
ATOM      1  O   UNL A   1      34.380  32.153  29.187  1.00  0.00    -0.377 OA
ENDROOT
BRANCH   1   2
ATOM      2  C   UNL A   1      34.689  31.331  28.085  1.00  0.00     0.188 C 
BRANCH   2   3
ATOM      3  C   UNL A   1      33.531  31.203  27.093  1.00  0.00     0.188 C 
BRANCH   3   4
ATOM      4  O   UNL A   1      33.120  29.892  26.722  1.00  0.00    -0.376 OA
BRANCH   4   5
ATOM      5  C   UNL A   1      31.803  29.421  26.988  1.00  0.00     0.202 C 
BRANCH   5   6
ATOM      6  C   UNL A   1      31.601  28.087  27.696  1.00  0.00     0.261 C 
BRANCH   6   7
ATOM      7  O   UNL A   1      32.088  26.968  26.926  1.00  0.00    -0.461 OA
BRANCH   7   8
ATOM      8  C   UNL A   1      31.153  26.292  26.225  1.00  0.00     0.333 C 
ATOM      9  O   UNL A   1      30.127  25.835  26.724  1.00  0.00    -0.249 OA
BRANCH   8  10
ATOM     10  C   UNL A   1      31.500  26.068  24.734  1.00  0.00     0.223 C 
BRANCH  10  11
ATOM     11  C   UNL A   1      31.034  27.261  23.971  1.00  0.00     0.012 C 
ATOM     12  C   UNL A   1      28.557  26.727  23.739  1.00  0.00     0.069 C 
ATOM     13  C   UNL A   1      29.800  27.519  23.522  1.00  0.00     0.064 C 
ATOM     14  N   UNL A   1      29.759  28.618  22.705  1.00  0.00    -0.160 NA
ATOM     15  C   UNL A   1      31.884  28.351  23.403  1.00  0.00     0.156 C 
ATOM     16  N   UNL A   1      30.916  29.097  22.556  1.00  0.00    -0.181 NA
ATOM     17  C   UNL A   1      33.073  27.935  22.547  1.00  0.00     0.040 C 
ENDBRANCH  10  11
BRANCH  10  18
ATOM     18  N   UNL A   1      31.456  24.865  23.896  1.00  0.00    -0.337 N 
ATOM     19  C   UNL A   1      31.881  23.577  23.934  1.00  0.00     0.244 C 
ATOM     20  H   UNL A   1      30.975  25.046  23.056  1.00  0.00     0.164 HD
ATOM     21  O   UNL A   1      31.285  22.815  23.163  1.00  0.00    -0.273 OA
BRANCH  19  22
ATOM     22  C   UNL A   1      33.043  23.110  24.811  1.00  0.00     0.178 C 
ATOM     23  C   UNL A   1      34.342  23.903  24.544  1.00  0.00     0.050 C 
ATOM     24  N   UNL A   1      33.405  21.681  24.624  1.00  0.00    -0.362 N 
ATOM     25  C   UNL A   1      35.359  22.873  24.934  1.00  0.00    -0.016 A 
ATOM     26  C   UNL A   1      34.599  24.302  23.088  1.00  0.00     0.015 C 
ATOM     27  C   UNL A   1      34.776  21.602  24.854  1.00  0.00     0.041 A 
ATOM     28  C   UNL A   1      32.526  20.597  24.994  1.00  0.00     0.144 C 
ATOM     29  C   UNL A   1      36.702  23.057  25.191  1.00  0.00     0.045 A 
ATOM     30  C   UNL A   1      35.565  20.472  24.961  1.00  0.00     0.029 A 
ATOM     31  C   UNL A   1      37.482  21.914  25.255  1.00  0.00     0.123 A 
ATOM     32  C   UNL A   1      36.937  20.635  25.148  1.00  0.00     0.041 A 
ATOM     33  F   UNL A   1      38.807  22.022  25.328  1.00  0.00    -0.207 F 
ENDBRANCH  19  22
ENDBRANCH  10  18
ENDBRANCH   8  10
ENDBRANCH   7   8
ENDBRANCH   6   7
ENDBRANCH   5   6
ENDBRANCH   4   5
ENDBRANCH   3   4
ENDBRANCH   2   3
ENDBRANCH   1   2
BRANCH   1  34
ATOM     34  C   UNL A   1      34.869  33.482  29.121  1.00  0.00     0.188 C 
BRANCH  34  35
ATOM     35  C   UNL A   1      33.731  34.471  28.892  1.00  0.00     0.188 C 
BRANCH  35  36
ATOM     36  O   UNL A   1      33.858  35.838  29.288  1.00  0.00    -0.376 OA
BRANCH  36  37
ATOM     37  C   UNL A   1      32.805  36.459  30.013  1.00  0.00     0.202 C 
BRANCH  37  38
ATOM     38  C   UNL A   1      33.097  36.683  31.506  1.00  0.00     0.261 C 
BRANCH  38  39
ATOM     39  O   UNL A   1      34.203  35.907  31.992  1.00  0.00    -0.460 OA
BRANCH  39  40
ATOM     40  C   UNL A   1      33.915  34.740  32.615  1.00  0.00     0.338 C 
ATOM     41  O   UNL A   1      32.812  34.288  32.881  1.00  0.00    -0.246 OA
BRANCH  40  42
ATOM     42  C   UNL A   1      35.169  33.958  32.693  1.00  0.00     0.060 A 
ATOM     43  C   UNL A   1      36.420  34.561  32.581  1.00  0.00     0.016 A 
ATOM     44  C   UNL A   1      35.061  32.561  32.705  1.00  0.00     0.016 A 
ATOM     45  C   UNL A   1      37.546  33.760  32.388  1.00  0.00     0.010 A 
ATOM     46  C   UNL A   1      36.188  31.767  32.482  1.00  0.00     0.010 A 
ATOM     47  C   UNL A   1      37.433  32.364  32.273  1.00  0.00    -0.014 A 
BRANCH  47  48
ATOM     48  C   UNL A   1      38.652  31.572  32.008  1.00  0.00     0.031 A 
ATOM     49  C   UNL A   1      39.533  31.281  33.183  1.00  0.00     0.074 A 
ATOM     50  C   UNL A   1      38.965  31.022  30.810  1.00  0.00     0.049 A 
ATOM     51  N   UNL A   1      40.828  31.288  33.215  1.00  0.00    -0.248 NA
ATOM     52  C   UNL A   1      38.908  30.948  34.473  1.00  0.00     0.031 C 
ATOM     53  C   UNL A   1      38.118  30.962  29.617  1.00  0.00     0.029 A 
ATOM     54  N   UNL A   1      40.076  30.298  30.438  1.00  0.00    -0.354 N 
ATOM     55  C   UNL A   1      41.192  30.915  34.510  1.00  0.00     0.074 A 
ATOM     56  C   UNL A   1      39.972  30.718  35.245  1.00  0.00     0.031 C 
ATOM     57  C   UNL A   1      38.636  30.065  28.750  1.00  0.00     0.029 A 
ATOM     58  C   UNL A   1      39.903  29.570  29.267  1.00  0.00     0.049 A 
ATOM     59  H   UNL A   1      40.915  30.295  30.953  1.00  0.00     0.167 HD
ATOM     60  C   UNL A   1      42.485  30.688  34.866  1.00  0.00     0.037 A 
ATOM     61  C   UNL A   1      40.687  28.585  28.764  1.00  0.00     0.037 A 
ATOM     62  C   UNL A   1      43.434  31.285  33.969  1.00  0.00     0.049 A 
ATOM     63  C   UNL A   1      42.062  28.710  29.295  1.00  0.00     0.074 A 
ATOM     64  C   UNL A   1      44.211  32.418  33.900  1.00  0.00     0.029 A 
ATOM     65  N   UNL A   1      43.529  30.659  32.767  1.00  0.00    -0.354 N 
ATOM     66  N   UNL A   1      42.889  29.657  28.959  1.00  0.00    -0.248 NA
ATOM     67  C   UNL A   1      42.486  27.880  30.418  1.00  0.00     0.031 C 
ATOM     68  C   UNL A   1      44.698  32.500  32.560  1.00  0.00     0.029 A 
ATOM     69  C   UNL A   1      44.228  31.398  31.856  1.00  0.00     0.049 A 
ATOM     70  H   UNL A   1      43.141  29.775  32.575  1.00  0.00     0.167 HD
ATOM     71  C   UNL A   1      43.692  29.812  30.069  1.00  0.00     0.074 A 
ATOM     72  C   UNL A   1      43.538  28.586  30.838  1.00  0.00     0.031 C 
ATOM     73  C   UNL A   1      44.116  31.048  30.463  1.00  0.00     0.037 A 
BRANCH  60  74
ATOM     74  C   UNL A   1      42.915  29.536  35.741  1.00  0.00     0.057 A 
ATOM     75  C   UNL A   1      42.881  28.199  35.298  1.00  0.00     0.134 A 
ATOM     76  C   UNL A   1      43.747  29.785  36.850  1.00  0.00     0.134 A 
ATOM     77  F   UNL A   1      42.168  27.824  34.228  1.00  0.00    -0.206 F 
ATOM     78  C   UNL A   1      43.672  27.198  35.870  1.00  0.00     0.040 A 
ATOM     79  C   UNL A   1      44.572  28.799  37.403  1.00  0.00     0.040 A 
ATOM     80  F   UNL A   1      43.847  31.016  37.376  1.00  0.00    -0.206 F 
ATOM     81  C   UNL A   1      44.551  27.505  36.898  1.00  0.00     0.006 A 
ENDBRANCH  60  74
BRANCH  61  82
ATOM     82  C   UNL A   1      40.285  27.426  27.932  1.00  0.00     0.057 A 
ATOM     83  C   UNL A   1      39.521  26.377  28.473  1.00  0.00     0.134 A 
ATOM     84  C   UNL A   1      40.839  27.193  26.664  1.00  0.00     0.134 A 
ATOM     85  F   UNL A   1      39.021  26.457  29.715  1.00  0.00    -0.206 F 
ATOM     86  C   UNL A   1      39.311  25.173  27.796  1.00  0.00     0.040 A 
ATOM     87  C   UNL A   1      40.648  25.985  25.980  1.00  0.00     0.040 A 
ATOM     88  F   UNL A   1      41.623  28.110  26.081  1.00  0.00    -0.206 F 
ATOM     89  C   UNL A   1      39.886  24.968  26.548  1.00  0.00     0.006 A 
ENDBRANCH  61  82
BRANCH  73  90
ATOM     90  C   UNL A   1      44.270  32.097  29.412  1.00  0.00     0.057 A 
ATOM     91  C   UNL A   1      45.447  32.113  28.652  1.00  0.00     0.134 A 
ATOM     92  C   UNL A   1      43.306  33.067  29.112  1.00  0.00     0.134 A 
ATOM     93  F   UNL A   1      46.437  31.245  28.911  1.00  0.00    -0.206 F 
ATOM     94  C   UNL A   1      45.640  33.019  27.609  1.00  0.00     0.040 A 
ATOM     95  C   UNL A   1      43.463  33.937  28.031  1.00  0.00     0.040 A 
ATOM     96  F   UNL A   1      42.203  33.214  29.861  1.00  0.00    -0.206 F 
ATOM     97  C   UNL A   1      44.630  33.914  27.275  1.00  0.00     0.006 A 
ENDBRANCH  73  90
ENDBRANCH  47  48
ENDBRANCH  40  42
ENDBRANCH  39  40
ENDBRANCH  38  39
ENDBRANCH  37  38
ENDBRANCH  36  37
ENDBRANCH  35  36
ENDBRANCH  34  35
ENDBRANCH   1  34
TORSDOF 23
ENDMDL
MODEL 2
REMARK VINA RESULT:     -10.4      3.126      4.640
REMARK SMILES CC1=C([C@H](NC(=O)[C@@H]2[C@H](C)c3cc(F)ccc3N2C)C(=O)OCCOCCOCCOCCOC(=O)c2ccc(-c3c4nc(c(-c5c(F)cccc5F)c5ccc([nH]5)c(-c5c(F)cccc5F)c5nc(c(-c6c(F)cccc6F)c6ccc3[nH]6)C=C5)C=C4)cc2)[C@@H](C)N=N1
REMARK SMILES IDX 28 1 27 2 26 3 25 4 24 5 23 6 22 7 20 8 21 9 4 10 3 11 1 12
REMARK SMILES IDX 2 13 94 14 91 15 93 16 92 17 5 18 6 19 7 21 8 22 9 23 18 24
REMARK SMILES IDX 11 25 10 26 17 27 19 28 12 29 16 30 13 31 15 32 14 33 29 34
REMARK SMILES IDX 30 35 31 36 32 37 33 38 34 39 35 40 36 41 37 42 38 43 90 44
REMARK SMILES IDX 39 45 89 46 40 47 41 48 42 49 83 50 43 51 88 52 82 53 84 54
REMARK SMILES IDX 44 55 87 56 81 57 80 58 45 60 71 61 54 62 70 63 55 64 58 65
REMARK SMILES IDX 69 66 85 67 56 68 57 69 68 71 86 72 59 73 46 74 47 75 52 76
REMARK SMILES IDX 48 77 49 78 51 79 53 80 50 81 72 82 73 83 78 84 74 85 75 86
REMARK SMILES IDX 77 87 79 88 76 89 60 90 61 91 66 92 62 93 63 94 65 95 67 96
REMARK SMILES IDX 64 97
REMARK H PARENT 5 20 84 59 58 70
REMARK Flexibility Score: inf
ROOT
ATOM      1  O   UNL A   1      31.044  29.322  24.725  1.00  0.00    -0.377 OA
ENDROOT
BRANCH   1   2
ATOM      2  C   UNL A   1      30.268  29.703  23.613  1.00  0.00     0.188 C 
BRANCH   2   3
ATOM      3  C   UNL A   1      30.567  28.870  22.364  1.00  0.00     0.188 C 
BRANCH   3   4
ATOM      4  O   UNL A   1      31.237  27.627  22.543  1.00  0.00    -0.376 OA
BRANCH   4   5
ATOM      5  C   UNL A   1      32.648  27.512  22.384  1.00  0.00     0.202 C 
BRANCH   5   6
ATOM      6  C   UNL A   1      33.316  26.147  22.490  1.00  0.00     0.261 C 
BRANCH   6   7
ATOM      7  O   UNL A   1      33.874  25.899  23.798  1.00  0.00    -0.461 OA
BRANCH   7   8
ATOM      8  C   UNL A   1      32.994  25.490  24.737  1.00  0.00     0.333 C 
ATOM      9  O   UNL A   1      33.000  25.896  25.897  1.00  0.00    -0.249 OA
BRANCH   8  10
ATOM     10  C   UNL A   1      32.000  24.404  24.262  1.00  0.00     0.223 C 
BRANCH  10  11
ATOM     11  C   UNL A   1      31.017  24.173  25.358  1.00  0.00     0.012 C 
ATOM     12  C   UNL A   1      29.497  26.191  25.054  1.00  0.00     0.069 C 
ATOM     13  C   UNL A   1      29.984  24.947  25.713  1.00  0.00     0.064 C 
ATOM     14  N   UNL A   1      29.392  24.529  26.875  1.00  0.00    -0.160 NA
ATOM     15  C   UNL A   1      31.072  23.105  26.403  1.00  0.00     0.156 C 
ATOM     16  N   UNL A   1      29.998  23.527  27.341  1.00  0.00    -0.181 NA
ATOM     17  C   UNL A   1      32.374  22.952  27.177  1.00  0.00     0.040 C 
ENDBRANCH  10  11
BRANCH  10  18
ATOM     18  N   UNL A   1      32.200  23.182  23.476  1.00  0.00    -0.337 N 
ATOM     19  C   UNL A   1      32.810  21.975  23.599  1.00  0.00     0.244 C 
ATOM     20  H   UNL A   1      31.761  23.260  22.598  1.00  0.00     0.164 HD
ATOM     21  O   UNL A   1      32.394  21.107  22.822  1.00  0.00    -0.273 OA
BRANCH  19  22
ATOM     22  C   UNL A   1      33.959  21.721  24.573  1.00  0.00     0.178 C 
ATOM     23  C   UNL A   1      35.137  22.701  24.369  1.00  0.00     0.050 C 
ATOM     24  N   UNL A   1      34.552  20.362  24.467  1.00  0.00    -0.362 N 
ATOM     25  C   UNL A   1      36.268  21.855  24.869  1.00  0.00    -0.016 A 
ATOM     26  C   UNL A   1      35.438  23.098  22.921  1.00  0.00     0.015 C 
ATOM     27  C   UNL A   1      35.897  20.506  24.796  1.00  0.00     0.041 A 
ATOM     28  C   UNL A   1      33.827  19.163  24.814  1.00  0.00     0.144 C 
ATOM     29  C   UNL A   1      37.543  22.255  25.213  1.00  0.00     0.045 A 
ATOM     30  C   UNL A   1      36.842  19.518  25.001  1.00  0.00     0.029 A 
ATOM     31  C   UNL A   1      38.484  21.251  25.376  1.00  0.00     0.123 A 
ATOM     32  C   UNL A   1      38.153  19.899  25.279  1.00  0.00     0.041 A 
ATOM     33  F   UNL A   1      39.766  21.568  25.538  1.00  0.00    -0.207 F 
ENDBRANCH  19  22
ENDBRANCH  10  18
ENDBRANCH   8  10
ENDBRANCH   7   8
ENDBRANCH   6   7
ENDBRANCH   5   6
ENDBRANCH   4   5
ENDBRANCH   3   4
ENDBRANCH   2   3
ENDBRANCH   1   2
BRANCH   1  34
ATOM     34  C   UNL A   1      31.402  30.368  25.613  1.00  0.00     0.188 C 
BRANCH  34  35
ATOM     35  C   UNL A   1      31.735  29.818  26.996  1.00  0.00     0.188 C 
BRANCH  35  36
ATOM     36  O   UNL A   1      32.869  28.970  27.194  1.00  0.00    -0.376 OA
BRANCH  36  37
ATOM     37  C   UNL A   1      34.177  29.518  27.114  1.00  0.00     0.202 C 
BRANCH  37  38
ATOM     38  C   UNL A   1      34.302  30.963  27.626  1.00  0.00     0.261 C 
BRANCH  38  39
ATOM     39  O   UNL A   1      35.270  31.113  28.676  1.00  0.00    -0.460 OA
BRANCH  39  40
ATOM     40  C   UNL A   1      36.348  31.890  28.417  1.00  0.00     0.338 C 
ATOM     41  O   UNL A   1      36.390  33.108  28.340  1.00  0.00    -0.246 OA
BRANCH  40  42
ATOM     42  C   UNL A   1      37.546  31.027  28.503  1.00  0.00     0.060 A 
ATOM     43  C   UNL A   1      37.533  29.704  28.062  1.00  0.00     0.016 A 
ATOM     44  C   UNL A   1      38.653  31.522  29.204  1.00  0.00     0.016 A 
ATOM     45  C   UNL A   1      38.589  28.861  28.411  1.00  0.00     0.010 A 
ATOM     46  C   UNL A   1      39.692  30.666  29.574  1.00  0.00     0.010 A 
ATOM     47  C   UNL A   1      39.644  29.315  29.221  1.00  0.00    -0.014 A 
BRANCH  47  48
ATOM     48  C   UNL A   1      40.704  28.361  29.609  1.00  0.00     0.031 A 
ATOM     49  C   UNL A   1      40.989  28.234  31.073  1.00  0.00     0.074 A 
ATOM     50  C   UNL A   1      41.351  27.541  28.748  1.00  0.00     0.049 A 
ATOM     51  N   UNL A   1      42.147  28.111  31.640  1.00  0.00    -0.248 NA
ATOM     52  C   UNL A   1      39.862  28.249  32.020  1.00  0.00     0.031 C 
ATOM     53  C   UNL A   1      41.039  27.319  27.334  1.00  0.00     0.029 A 
ATOM     54  N   UNL A   1      42.367  26.641  28.985  1.00  0.00    -0.354 N 
ATOM     55  C   UNL A   1      41.905  27.985  33.009  1.00  0.00     0.074 A 
ATOM     56  C   UNL A   1      40.481  28.077  33.190  1.00  0.00     0.031 C 
ATOM     57  C   UNL A   1      41.680  26.209  26.907  1.00  0.00     0.029 A 
ATOM     58  C   UNL A   1      42.533  25.704  27.973  1.00  0.00     0.049 A 
ATOM     59  H   UNL A   1      42.924  26.659  29.797  1.00  0.00     0.167 HD
ATOM     60  C   UNL A   1      42.893  27.704  33.900  1.00  0.00     0.037 A 
ATOM     61  C   UNL A   1      43.257  24.558  27.996  1.00  0.00     0.037 A 
ATOM     62  C   UNL A   1      44.207  27.994  33.402  1.00  0.00     0.049 A 
ATOM     63  C   UNL A   1      44.315  24.647  29.026  1.00  0.00     0.074 A 
ATOM     64  C   UNL A   1      45.143  28.999  33.493  1.00  0.00     0.029 A 
ATOM     65  N   UNL A   1      44.646  27.122  32.457  1.00  0.00    -0.354 N 
ATOM     66  N   UNL A   1      45.366  25.409  28.926  1.00  0.00    -0.248 NA
ATOM     67  C   UNL A   1      44.110  24.033  30.335  1.00  0.00     0.031 C 
ATOM     68  C   UNL A   1      46.118  28.744  32.482  1.00  0.00     0.029 A 
ATOM     69  C   UNL A   1      45.767  27.573  31.820  1.00  0.00     0.049 A 
ATOM     70  H   UNL A   1      44.209  26.263  32.256  1.00  0.00     0.167 HD
ATOM     71  C   UNL A   1      45.688  25.711  30.233  1.00  0.00     0.074 A 
ATOM     72  C   UNL A   1      45.026  24.698  31.043  1.00  0.00     0.031 C 
ATOM     73  C   UNL A   1      46.143  26.950  30.577  1.00  0.00     0.037 A 
BRANCH  60  74
ATOM     74  C   UNL A   1      42.731  26.724  35.037  1.00  0.00     0.057 A 
ATOM     75  C   UNL A   1      42.129  27.080  36.260  1.00  0.00     0.134 A 
ATOM     76  C   UNL A   1      42.788  25.342  34.770  1.00  0.00     0.134 A 
ATOM     77  F   UNL A   1      41.968  28.359  36.626  1.00  0.00    -0.206 F 
ATOM     78  C   UNL A   1      41.559  26.136  37.120  1.00  0.00     0.040 A 
ATOM     79  C   UNL A   1      42.184  24.395  35.605  1.00  0.00     0.040 A 
ATOM     80  F   UNL A   1      43.355  24.879  33.646  1.00  0.00    -0.206 F 
ATOM     81  C   UNL A   1      41.549  24.793  36.774  1.00  0.00     0.006 A 
ENDBRANCH  60  74
BRANCH  61  82
ATOM     82  C   UNL A   1      43.006  23.298  27.257  1.00  0.00     0.057 A 
ATOM     83  C   UNL A   1      42.200  22.286  27.806  1.00  0.00     0.134 A 
ATOM     84  C   UNL A   1      43.739  22.949  26.112  1.00  0.00     0.134 A 
ATOM     85  F   UNL A   1      41.528  22.482  28.949  1.00  0.00    -0.206 F 
ATOM     86  C   UNL A   1      42.119  21.006  27.250  1.00  0.00     0.040 A 
ATOM     87  C   UNL A   1      43.678  21.665  25.553  1.00  0.00     0.040 A 
ATOM     88  F   UNL A   1      44.575  23.827  25.540  1.00  0.00    -0.206 F 
ATOM     89  C   UNL A   1      42.869  20.687  26.125  1.00  0.00     0.006 A 
ENDBRANCH  61  82
BRANCH  73  90
ATOM     90  C   UNL A   1      46.882  27.731  29.541  1.00  0.00     0.057 A 
ATOM     91  C   UNL A   1      48.268  27.553  29.434  1.00  0.00     0.134 A 
ATOM     92  C   UNL A   1      46.284  28.625  28.645  1.00  0.00     0.134 A 
ATOM     93  F   UNL A   1      48.920  26.748  30.287  1.00  0.00    -0.206 F 
ATOM     94  C   UNL A   1      49.020  28.195  28.450  1.00  0.00     0.040 A 
ATOM     95  C   UNL A   1      47.017  29.224  27.619  1.00  0.00     0.040 A 
ATOM     96  F   UNL A   1      44.988  28.957  28.746  1.00  0.00    -0.206 F 
ATOM     97  C   UNL A   1      48.387  29.010  27.518  1.00  0.00     0.006 A 
ENDBRANCH  73  90
ENDBRANCH  47  48
ENDBRANCH  40  42
ENDBRANCH  39  40
ENDBRANCH  38  39
ENDBRANCH  37  38
ENDBRANCH  36  37
ENDBRANCH  35  36
ENDBRANCH  34  35
ENDBRANCH   1  34
TORSDOF 23
ENDMDL
MODEL 3
REMARK VINA RESULT:     -10.3      1.282      1.930
REMARK SMILES CC1=C([C@H](NC(=O)[C@@H]2[C@H](C)c3cc(F)ccc3N2C)C(=O)OCCOCCOCCOCCOC(=O)c2ccc(-c3c4nc(c(-c5c(F)cccc5F)c5ccc([nH]5)c(-c5c(F)cccc5F)c5nc(c(-c6c(F)cccc6F)c6ccc3[nH]6)C=C5)C=C4)cc2)[C@@H](C)N=N1
REMARK SMILES IDX 28 1 27 2 26 3 25 4 24 5 23 6 22 7 20 8 21 9 4 10 3 11 1 12
REMARK SMILES IDX 2 13 94 14 91 15 93 16 92 17 5 18 6 19 7 21 8 22 9 23 18 24
REMARK SMILES IDX 11 25 10 26 17 27 19 28 12 29 16 30 13 31 15 32 14 33 29 34
REMARK SMILES IDX 30 35 31 36 32 37 33 38 34 39 35 40 36 41 37 42 38 43 90 44
REMARK SMILES IDX 39 45 89 46 40 47 41 48 42 49 83 50 43 51 88 52 82 53 84 54
REMARK SMILES IDX 44 55 87 56 81 57 80 58 45 60 71 61 54 62 70 63 55 64 58 65
REMARK SMILES IDX 69 66 85 67 56 68 57 69 68 71 86 72 59 73 46 74 47 75 52 76
REMARK SMILES IDX 48 77 49 78 51 79 53 80 50 81 72 82 73 83 78 84 74 85 75 86
REMARK SMILES IDX 77 87 79 88 76 89 60 90 61 91 66 92 62 93 63 94 65 95 67 96
REMARK SMILES IDX 64 97
REMARK H PARENT 5 20 84 59 58 70
REMARK Flexibility Score: inf
ROOT
ATOM      1  O   UNL A   1      35.138  32.588  27.596  1.00  0.00    -0.377 OA
ENDROOT
BRANCH   1   2
ATOM      2  C   UNL A   1      35.148  31.235  27.991  1.00  0.00     0.188 C 
BRANCH   2   3
ATOM      3  C   UNL A   1      34.158  30.376  27.203  1.00  0.00     0.188 C 
BRANCH   3   4
ATOM      4  O   UNL A   1      33.773  29.126  27.765  1.00  0.00    -0.376 OA
BRANCH   4   5
ATOM      5  C   UNL A   1      33.164  28.110  26.974  1.00  0.00     0.202 C 
BRANCH   5   6
ATOM      6  C   UNL A   1      31.743  27.655  27.284  1.00  0.00     0.261 C 
BRANCH   6   7
ATOM      7  O   UNL A   1      31.258  26.667  26.351  1.00  0.00    -0.461 OA
BRANCH   7   8
ATOM      8  C   UNL A   1      32.128  25.681  26.042  1.00  0.00     0.333 C 
ATOM      9  O   UNL A   1      32.296  24.680  26.734  1.00  0.00    -0.249 OA
BRANCH   8  10
ATOM     10  C   UNL A   1      32.966  25.936  24.766  1.00  0.00     0.223 C 
BRANCH  10  11
ATOM     11  C   UNL A   1      32.116  26.692  23.803  1.00  0.00     0.012 C 
ATOM     12  C   UNL A   1      30.451  24.889  23.134  1.00  0.00     0.069 C 
ATOM     13  C   UNL A   1      31.079  26.239  23.089  1.00  0.00     0.064 C 
ATOM     14  N   UNL A   1      30.636  27.152  22.170  1.00  0.00    -0.160 NA
ATOM     15  C   UNL A   1      32.345  28.083  23.306  1.00  0.00     0.156 C 
ATOM     16  N   UNL A   1      31.348  28.192  22.207  1.00  0.00    -0.181 NA
ATOM     17  C   UNL A   1      33.726  28.410  22.756  1.00  0.00     0.040 C 
ENDBRANCH  10  11
BRANCH  10  18
ATOM     18  N   UNL A   1      33.933  25.093  24.055  1.00  0.00    -0.337 N 
ATOM     19  C   UNL A   1      34.022  23.831  23.563  1.00  0.00     0.244 C 
ATOM     20  H   UNL A   1      34.766  25.590  23.885  1.00  0.00     0.164 HD
ATOM     21  O   UNL A   1      34.896  23.675  22.701  1.00  0.00    -0.273 OA
BRANCH  19  22
ATOM     22  C   UNL A   1      33.158  22.678  24.071  1.00  0.00     0.178 C 
ATOM     23  C   UNL A   1      33.812  21.921  25.249  1.00  0.00     0.050 C 
ATOM     24  N   UNL A   1      32.869  21.642  23.046  1.00  0.00    -0.362 N 
ATOM     25  C   UNL A   1      33.190  20.570  25.067  1.00  0.00    -0.016 A 
ATOM     26  C   UNL A   1      35.333  21.762  25.183  1.00  0.00     0.015 C 
ATOM     27  C   UNL A   1      32.764  20.438  23.739  1.00  0.00     0.041 A 
ATOM     28  C   UNL A   1      32.059  21.900  21.878  1.00  0.00     0.144 C 
ATOM     29  C   UNL A   1      33.148  19.524  25.965  1.00  0.00     0.045 A 
ATOM     30  C   UNL A   1      32.348  19.208  23.266  1.00  0.00     0.029 A 
ATOM     31  C   UNL A   1      32.768  18.290  25.462  1.00  0.00     0.123 A 
ATOM     32  C   UNL A   1      32.367  18.120  24.136  1.00  0.00     0.041 A 
ATOM     33  F   UNL A   1      32.869  17.206  26.226  1.00  0.00    -0.207 F 
ENDBRANCH  19  22
ENDBRANCH  10  18
ENDBRANCH   8  10
ENDBRANCH   7   8
ENDBRANCH   6   7
ENDBRANCH   5   6
ENDBRANCH   4   5
ENDBRANCH   3   4
ENDBRANCH   2   3
ENDBRANCH   1   2
BRANCH   1  34
ATOM     34  C   UNL A   1      34.757  33.518  28.595  1.00  0.00     0.188 C 
BRANCH  34  35
ATOM     35  C   UNL A   1      33.436  34.191  28.236  1.00  0.00     0.188 C 
BRANCH  35  36
ATOM     36  O   UNL A   1      32.622  34.792  29.246  1.00  0.00    -0.376 OA
BRANCH  36  37
ATOM     37  C   UNL A   1      32.850  36.144  29.619  1.00  0.00     0.202 C 
BRANCH  37  38
ATOM     38  C   UNL A   1      33.019  36.375  31.129  1.00  0.00     0.261 C 
BRANCH  38  39
ATOM     39  O   UNL A   1      34.157  35.696  31.685  1.00  0.00    -0.460 OA
BRANCH  39  40
ATOM     40  C   UNL A   1      33.913  34.648  32.506  1.00  0.00     0.338 C 
ATOM     41  O   UNL A   1      32.833  34.264  32.926  1.00  0.00    -0.246 OA
BRANCH  40  42
ATOM     42  C   UNL A   1      35.164  33.865  32.607  1.00  0.00     0.060 A 
ATOM     43  C   UNL A   1      36.418  34.464  32.499  1.00  0.00     0.016 A 
ATOM     44  C   UNL A   1      35.053  32.468  32.640  1.00  0.00     0.016 A 
ATOM     45  C   UNL A   1      37.544  33.657  32.329  1.00  0.00     0.010 A 
ATOM     46  C   UNL A   1      36.180  31.668  32.440  1.00  0.00     0.010 A 
ATOM     47  C   UNL A   1      37.429  32.260  32.234  1.00  0.00    -0.014 A 
BRANCH  47  48
ATOM     48  C   UNL A   1      38.648  31.461  31.992  1.00  0.00     0.031 A 
ATOM     49  C   UNL A   1      39.500  31.157  33.186  1.00  0.00     0.074 A 
ATOM     50  C   UNL A   1      38.986  30.916  30.800  1.00  0.00     0.049 A 
ATOM     51  N   UNL A   1      40.793  31.155  33.249  1.00  0.00    -0.248 NA
ATOM     52  C   UNL A   1      38.842  30.820  34.459  1.00  0.00     0.031 C 
ATOM     53  C   UNL A   1      38.167  30.869  29.586  1.00  0.00     0.029 A 
ATOM     54  N   UNL A   1      40.100  30.186  30.449  1.00  0.00    -0.354 N 
ATOM     55  C   UNL A   1      41.125  30.772  34.550  1.00  0.00     0.074 A 
ATOM     56  C   UNL A   1      39.885  30.578  35.255  1.00  0.00     0.031 C 
ATOM     57  C   UNL A   1      38.699  29.973  28.726  1.00  0.00     0.029 A 
ATOM     58  C   UNL A   1      39.951  29.467  29.270  1.00  0.00     0.049 A 
ATOM     59  H   UNL A   1      40.927  30.175  30.984  1.00  0.00     0.167 HD
ATOM     60  C   UNL A   1      42.407  30.535  34.935  1.00  0.00     0.037 A 
ATOM     61  C   UNL A   1      40.740  28.480  28.779  1.00  0.00     0.037 A 
ATOM     62  C   UNL A   1      43.381  31.130  34.064  1.00  0.00     0.049 A 
ATOM     63  C   UNL A   1      42.102  28.592  29.344  1.00  0.00     0.074 A 
ATOM     64  C   UNL A   1      44.167  32.258  34.021  1.00  0.00     0.029 A 
ATOM     65  N   UNL A   1      43.500  30.511  32.861  1.00  0.00    -0.354 N 
ATOM     66  N   UNL A   1      42.944  29.535  29.032  1.00  0.00    -0.248 NA
ATOM     67  C   UNL A   1      42.495  27.752  30.471  1.00  0.00     0.031 C 
ATOM     68  C   UNL A   1      44.685  32.345  32.693  1.00  0.00     0.029 A 
ATOM     69  C   UNL A   1      44.225  31.250  31.971  1.00  0.00     0.049 A 
ATOM     70  H   UNL A   1      43.110  29.631  32.654  1.00  0.00     0.167 HD
ATOM     71  C   UNL A   1      43.721  29.679  30.162  1.00  0.00     0.074 A 
ATOM     72  C   UNL A   1      43.540  28.449  30.920  1.00  0.00     0.031 C 
ATOM     73  C   UNL A   1      44.144  30.909  30.574  1.00  0.00     0.037 A 
BRANCH  60  74
ATOM     74  C   UNL A   1      42.809  29.374  35.813  1.00  0.00     0.057 A 
ATOM     75  C   UNL A   1      42.584  28.034  35.442  1.00  0.00     0.134 A 
ATOM     76  C   UNL A   1      43.782  29.570  36.812  1.00  0.00     0.134 A 
ATOM     77  F   UNL A   1      41.718  27.702  34.475  1.00  0.00    -0.206 F 
ATOM     78  C   UNL A   1      43.323  26.973  35.972  1.00  0.00     0.040 A 
ATOM     79  C   UNL A   1      44.555  28.519  37.319  1.00  0.00     0.040 A 
ATOM     80  F   UNL A   1      44.070  30.800  37.263  1.00  0.00    -0.206 F 
ATOM     81  C   UNL A   1      44.341  27.218  36.883  1.00  0.00     0.006 A 
ENDBRANCH  60  74
BRANCH  61  82
ATOM     82  C   UNL A   1      40.349  27.328  27.931  1.00  0.00     0.057 A 
ATOM     83  C   UNL A   1      39.587  26.270  28.454  1.00  0.00     0.134 A 
ATOM     84  C   UNL A   1      40.914  27.113  26.665  1.00  0.00     0.134 A 
ATOM     85  F   UNL A   1      39.076  26.332  29.693  1.00  0.00    -0.206 F 
ATOM     86  C   UNL A   1      39.388  25.073  27.761  1.00  0.00     0.040 A 
ATOM     87  C   UNL A   1      40.735  25.912  25.965  1.00  0.00     0.040 A 
ATOM     88  F   UNL A   1      41.699  28.040  26.098  1.00  0.00    -0.206 F 
ATOM     89  C   UNL A   1      39.974  24.885  26.516  1.00  0.00     0.006 A 
ENDBRANCH  61  82
BRANCH  73  90
ATOM     90  C   UNL A   1      44.330  31.963  29.533  1.00  0.00     0.057 A 
ATOM     91  C   UNL A   1      43.286  32.871  29.308  1.00  0.00     0.134 A 
ATOM     92  C   UNL A   1      45.492  32.128  28.769  1.00  0.00     0.134 A 
ATOM     93  F   UNL A   1      42.124  32.750  29.968  1.00  0.00    -0.206 F 
ATOM     94  C   UNL A   1      43.407  33.924  28.401  1.00  0.00     0.040 A 
ATOM     95  C   UNL A   1      45.645  33.213  27.904  1.00  0.00     0.040 A 
ATOM     96  F   UNL A   1      46.496  31.239  28.821  1.00  0.00    -0.206 F 
ATOM     97  C   UNL A   1      44.603  34.116  27.719  1.00  0.00     0.006 A 
ENDBRANCH  73  90
ENDBRANCH  47  48
ENDBRANCH  40  42
ENDBRANCH  39  40
ENDBRANCH  38  39
ENDBRANCH  37  38
ENDBRANCH  36  37
ENDBRANCH  35  36
ENDBRANCH  34  35
ENDBRANCH   1  34
TORSDOF 23
ENDMDL
