MODEL 1
REMARK VINA RESULT:      -9.4      0.000      0.000
REMARK SMILES CC(C)Cc1ccc(C[N@@H+]2CCO[C@@H](C(=O)OCCOCCOCCOCCOC(=O)c3ccc(-c4c5nc(c(-c6c(F)cccc6F)c6ccc([nH]6)c(-c6c(F)cccc6F)c6nc(c(-c7c(F)cccc7F)c7ccc4[nH]7)C=C6)C=C5)cc3)C2)cc1
REMARK SMILES IDX 22 1 21 2 20 3 19 4 18 5 17 6 15 7 16 8 14 9 10 10 11 11
REMARK SMILES IDX 86 12 12 14 13 15 9 16 8 17 5 18 6 19 88 20 7 21 87 22 4 23
REMARK SMILES IDX 2 24 1 25 3 26 23 27 24 28 25 29 26 30 27 31 28 32 29 33
REMARK SMILES IDX 30 34 31 35 32 36 33 37 85 38 34 39 84 40 35 41 36 42 37 43
REMARK SMILES IDX 78 44 38 45 83 46 77 47 79 48 39 49 82 50 76 51 75 52 40 54
REMARK SMILES IDX 66 55 49 56 65 57 50 58 53 59 64 60 80 61 51 62 52 63 63 65
REMARK SMILES IDX 81 66 54 67 41 68 42 69 47 70 43 71 44 72 46 73 48 74 45 75
REMARK SMILES IDX 67 76 68 77 73 78 69 79 70 80 72 81 74 82 71 83 55 84 56 85
REMARK SMILES IDX 61 86 57 87 58 88 60 89 62 90 59 91
REMARK H PARENT 10 13 79 53 53 64
REMARK Flexibility Score: inf
ROOT
ATOM      1  C   UNL A   1      31.751  27.670  24.299  1.00  0.00     0.188 C 
ENDROOT
BRANCH   1   2
ATOM      2  C   UNL A   1      31.474  27.517  22.802  1.00  0.00     0.188 C 
BRANCH   2   3
ATOM      3  O   UNL A   1      31.853  26.324  22.156  1.00  0.00    -0.376 OA
BRANCH   3   4
ATOM      4  C   UNL A   1      31.737  25.058  22.787  1.00  0.00     0.202 C 
BRANCH   4   5
ATOM      5  C   UNL A   1      30.853  24.725  24.004  1.00  0.00     0.261 C 
BRANCH   5   6
ATOM      6  O   UNL A   1      31.488  24.261  25.207  1.00  0.00    -0.461 OA
BRANCH   6   7
ATOM      7  C   UNL A   1      31.225  22.966  25.510  1.00  0.00     0.341 C 
ATOM      8  O   UNL A   1      30.178  22.600  26.046  1.00  0.00    -0.249 OA
BRANCH   7   9
ATOM      9  C   UNL A   1      32.316  21.956  25.173  1.00  0.00     0.283 C 
ATOM     10  N   UNL A   1      34.620  20.983  25.370  1.00  0.00    -0.327 N 
ATOM     11  C   UNL A   1      34.048  19.762  24.779  1.00  0.00     0.291 C 
ATOM     12  C   UNL A   1      33.556  21.762  26.058  1.00  0.00     0.307 C 
ATOM     13  H   UNL A   1      35.279  20.679  26.086  1.00  0.00     0.348 HD
ATOM     14  C   UNL A   1      32.641  19.885  24.145  1.00  0.00     0.223 C 
ATOM     15  O   UNL A   1      31.737  20.660  24.942  1.00  0.00    -0.355 OA
BRANCH  10  16
ATOM     16  C   UNL A   1      35.550  21.756  24.521  1.00  0.00     0.299 C 
BRANCH  16  17
ATOM     17  C   UNL A   1      36.881  22.166  25.118  1.00  0.00     0.006 A 
ATOM     18  C   UNL A   1      39.211  22.821  26.570  1.00  0.00    -0.048 A 
ATOM     19  C   UNL A   1      38.189  23.760  26.401  1.00  0.00     0.004 A 
ATOM     20  C   UNL A   1      39.104  21.581  25.931  1.00  0.00     0.004 A 
ATOM     21  C   UNL A   1      37.055  23.447  25.652  1.00  0.00     0.010 A 
ATOM     22  C   UNL A   1      37.948  21.257  25.210  1.00  0.00     0.010 A 
BRANCH  18  23
ATOM     23  C   UNL A   1      40.416  23.165  27.413  1.00  0.00     0.038 C 
BRANCH  23  24
ATOM     24  C   UNL A   1      41.692  22.404  27.009  1.00  0.00    -0.013 C 
ATOM     25  C   UNL A   1      42.374  23.019  25.784  1.00  0.00     0.008 C 
ATOM     26  C   UNL A   1      42.675  22.381  28.182  1.00  0.00     0.008 C 
ENDBRANCH  23  24
ENDBRANCH  18  23
ENDBRANCH  16  17
ENDBRANCH  10  16
ENDBRANCH   7   9
ENDBRANCH   6   7
ENDBRANCH   5   6
ENDBRANCH   4   5
ENDBRANCH   3   4
ENDBRANCH   2   3
ENDBRANCH   1   2
BRANCH   1  27
ATOM     27  O   UNL A   1      33.057  28.057  24.672  1.00  0.00    -0.377 OA
BRANCH  27  28
ATOM     28  C   UNL A   1      33.376  28.233  26.050  1.00  0.00     0.188 C 
BRANCH  28  29
ATOM     29  C   UNL A   1      33.410  29.640  26.682  1.00  0.00     0.188 C 
BRANCH  29  30
ATOM     30  O   UNL A   1      32.493  30.563  26.121  1.00  0.00    -0.376 OA
BRANCH  30  31
ATOM     31  C   UNL A   1      31.948  31.575  26.951  1.00  0.00     0.202 C 
BRANCH  31  32
ATOM     32  C   UNL A   1      32.841  32.772  27.312  1.00  0.00     0.261 C 
BRANCH  32  33
ATOM     33  O   UNL A   1      32.363  33.636  28.358  1.00  0.00    -0.460 OA
BRANCH  33  34
ATOM     34  C   UNL A   1      33.120  34.693  28.713  1.00  0.00     0.338 C 
ATOM     35  O   UNL A   1      32.839  35.877  28.600  1.00  0.00    -0.246 OA
BRANCH  34  36
ATOM     36  C   UNL A   1      34.291  34.182  29.451  1.00  0.00     0.060 A 
ATOM     37  C   UNL A   1      35.576  34.435  28.951  1.00  0.00     0.016 A 
ATOM     38  C   UNL A   1      34.121  33.440  30.622  1.00  0.00     0.016 A 
ATOM     39  C   UNL A   1      36.694  33.907  29.597  1.00  0.00     0.010 A 
ATOM     40  C   UNL A   1      35.240  32.894  31.256  1.00  0.00     0.010 A 
ATOM     41  C   UNL A   1      36.528  33.093  30.725  1.00  0.00    -0.014 A 
BRANCH  41  42
ATOM     42  C   UNL A   1      37.667  32.285  31.223  1.00  0.00     0.031 A 
ATOM     43  C   UNL A   1      38.132  32.504  32.639  1.00  0.00     0.074 A 
ATOM     44  C   UNL A   1      38.264  31.359  30.453  1.00  0.00     0.049 A 
ATOM     45  N   UNL A   1      39.140  31.969  33.277  1.00  0.00    -0.248 NA
ATOM     46  C   UNL A   1      37.350  33.460  33.440  1.00  0.00     0.031 C 
ATOM     47  C   UNL A   1      37.876  31.015  29.087  1.00  0.00     0.029 A 
ATOM     48  N   UNL A   1      39.337  30.543  30.715  1.00  0.00    -0.354 N 
ATOM     49  C   UNL A   1      39.118  32.528  34.549  1.00  0.00     0.074 A 
ATOM     50  C   UNL A   1      38.020  33.469  34.582  1.00  0.00     0.031 C 
ATOM     51  C   UNL A   1      38.710  30.067  28.624  1.00  0.00     0.029 A 
ATOM     52  C   UNL A   1      39.711  29.765  29.648  1.00  0.00     0.049 A 
ATOM     53  H   UNL A   1      39.795  30.518  31.587  1.00  0.00     0.167 HD
ATOM     54  C   UNL A   1      39.933  32.274  35.601  1.00  0.00     0.037 A 
ATOM     55  C   UNL A   1      40.758  28.929  29.506  1.00  0.00     0.037 A 
ATOM     56  C   UNL A   1      41.029  31.343  35.564  1.00  0.00     0.049 A 
ATOM     57  C   UNL A   1      41.710  28.734  30.660  1.00  0.00     0.074 A 
ATOM     58  C   UNL A   1      41.911  31.010  36.577  1.00  0.00     0.029 A 
ATOM     59  N   UNL A   1      41.399  30.601  34.451  1.00  0.00    -0.354 N 
ATOM     60  N   UNL A   1      41.672  29.251  31.864  1.00  0.00    -0.248 NA
ATOM     61  C   UNL A   1      42.851  27.833  30.433  1.00  0.00     0.031 C 
ATOM     62  C   UNL A   1      42.851  30.111  36.060  1.00  0.00     0.029 A 
ATOM     63  C   UNL A   1      42.513  29.833  34.745  1.00  0.00     0.049 A 
ATOM     64  H   UNL A   1      40.936  30.619  33.582  1.00  0.00     0.167 HD
ATOM     65  C   UNL A   1      42.757  28.713  32.547  1.00  0.00     0.074 A 
ATOM     66  C   UNL A   1      43.427  27.819  31.626  1.00  0.00     0.031 C 
ATOM     67  C   UNL A   1      43.162  28.936  33.823  1.00  0.00     0.037 A 
BRANCH  54  68
ATOM     68  C   UNL A   1      39.687  33.040  36.869  1.00  0.00     0.057 A 
ATOM     69  C   UNL A   1      38.766  32.606  37.832  1.00  0.00     0.134 A 
ATOM     70  C   UNL A   1      40.397  34.215  37.142  1.00  0.00     0.134 A 
ATOM     71  F   UNL A   1      38.040  31.497  37.628  1.00  0.00    -0.206 F 
ATOM     72  C   UNL A   1      38.544  33.326  39.008  1.00  0.00     0.040 A 
ATOM     73  C   UNL A   1      40.208  34.927  38.326  1.00  0.00     0.040 A 
ATOM     74  F   UNL A   1      41.297  34.686  36.264  1.00  0.00    -0.206 F 
ATOM     75  C   UNL A   1      39.273  34.487  39.260  1.00  0.00     0.006 A 
ENDBRANCH  54  68
BRANCH  55  76
ATOM     76  C   UNL A   1      40.986  28.223  28.218  1.00  0.00     0.057 A 
ATOM     77  C   UNL A   1      40.402  26.977  27.958  1.00  0.00     0.134 A 
ATOM     78  C   UNL A   1      41.827  28.755  27.233  1.00  0.00     0.134 A 
ATOM     79  F   UNL A   1      39.606  26.400  28.871  1.00  0.00    -0.206 F 
ATOM     80  C   UNL A   1      40.664  26.276  26.778  1.00  0.00     0.040 A 
ATOM     81  C   UNL A   1      42.074  28.079  26.036  1.00  0.00     0.040 A 
ATOM     82  F   UNL A   1      42.421  29.943  27.419  1.00  0.00    -0.206 F 
ATOM     83  C   UNL A   1      41.499  26.831  25.811  1.00  0.00     0.006 A 
ENDBRANCH  55  76
BRANCH  67  84
ATOM     84  C   UNL A   1      44.353  28.164  34.318  1.00  0.00     0.057 A 
ATOM     85  C   UNL A   1      45.653  28.680  34.261  1.00  0.00     0.134 A 
ATOM     86  C   UNL A   1      44.185  26.901  34.902  1.00  0.00     0.134 A 
ATOM     87  F   UNL A   1      45.886  29.879  33.706  1.00  0.00    -0.206 F 
ATOM     88  C   UNL A   1      46.747  27.956  34.741  1.00  0.00     0.040 A 
ATOM     89  C   UNL A   1      45.267  26.182  35.415  1.00  0.00     0.040 A 
ATOM     90  F   UNL A   1      42.965  26.351  35.000  1.00  0.00    -0.206 F 
ATOM     91  C   UNL A   1      46.554  26.707  35.328  1.00  0.00     0.006 A 
ENDBRANCH  67  84
ENDBRANCH  41  42
ENDBRANCH  34  36
ENDBRANCH  33  34
ENDBRANCH  32  33
ENDBRANCH  31  32
ENDBRANCH  30  31
ENDBRANCH  29  30
ENDBRANCH  28  29
ENDBRANCH  27  28
ENDBRANCH   1  27
TORSDOF 24
ENDMDL
MODEL 2
REMARK VINA RESULT:      -9.3      6.900     10.694
REMARK SMILES CC(C)Cc1ccc(C[N@@H+]2CCO[C@@H](C(=O)OCCOCCOCCOCCOC(=O)c3ccc(-c4c5nc(c(-c6c(F)cccc6F)c6ccc([nH]6)c(-c6c(F)cccc6F)c6nc(c(-c7c(F)cccc7F)c7ccc4[nH]7)C=C6)C=C5)cc3)C2)cc1
REMARK SMILES IDX 22 1 21 2 20 3 19 4 18 5 17 6 15 7 16 8 14 9 10 10 11 11
REMARK SMILES IDX 86 12 12 14 13 15 9 16 8 17 5 18 6 19 88 20 7 21 87 22 4 23
REMARK SMILES IDX 2 24 1 25 3 26 23 27 24 28 25 29 26 30 27 31 28 32 29 33
REMARK SMILES IDX 30 34 31 35 32 36 33 37 85 38 34 39 84 40 35 41 36 42 37 43
REMARK SMILES IDX 78 44 38 45 83 46 77 47 79 48 39 49 82 50 76 51 75 52 40 54
REMARK SMILES IDX 66 55 49 56 65 57 50 58 53 59 64 60 80 61 51 62 52 63 63 65
REMARK SMILES IDX 81 66 54 67 41 68 42 69 47 70 43 71 44 72 46 73 48 74 45 75
REMARK SMILES IDX 67 76 68 77 73 78 69 79 70 80 72 81 74 82 71 83 55 84 56 85
REMARK SMILES IDX 61 86 57 87 58 88 60 89 62 90 59 91
REMARK H PARENT 10 13 79 53 53 64
REMARK Flexibility Score: inf
ROOT
ATOM      1  C   UNL A   1      34.916  23.178  26.503  1.00  0.00     0.188 C 
ENDROOT
BRANCH   1   2
ATOM      2  C   UNL A   1      34.553  21.723  26.803  1.00  0.00     0.188 C 
BRANCH   2   3
ATOM      3  O   UNL A   1      33.930  20.953  25.801  1.00  0.00    -0.376 OA
BRANCH   3   4
ATOM      4  C   UNL A   1      32.532  21.020  25.563  1.00  0.00     0.202 C 
BRANCH   4   5
ATOM      5  C   UNL A   1      31.784  22.157  24.841  1.00  0.00     0.261 C 
BRANCH   5   6
ATOM      6  O   UNL A   1      30.655  22.759  25.495  1.00  0.00    -0.461 OA
BRANCH   6   7
ATOM      7  C   UNL A   1      30.971  23.799  26.304  1.00  0.00     0.341 C 
ATOM      8  O   UNL A   1      31.293  23.659  27.486  1.00  0.00    -0.249 OA
BRANCH   7   9
ATOM      9  C   UNL A   1      30.891  25.190  25.685  1.00  0.00     0.283 C 
ATOM     10  N   UNL A   1      31.776  27.483  25.182  1.00  0.00    -0.327 N 
ATOM     11  C   UNL A   1      30.770  27.529  24.108  1.00  0.00     0.291 C 
ATOM     12  C   UNL A   1      32.133  26.072  25.486  1.00  0.00     0.307 C 
ATOM     13  H   UNL A   1      32.614  27.932  24.816  1.00  0.00     0.348 HD
ATOM     14  C   UNL A   1      29.673  26.436  24.131  1.00  0.00     0.223 C 
ATOM     15  O   UNL A   1      30.190  25.134  24.431  1.00  0.00    -0.355 OA
BRANCH  10  16
ATOM     16  C   UNL A   1      31.541  28.362  26.346  1.00  0.00     0.299 C 
BRANCH  16  17
ATOM     17  C   UNL A   1      32.726  29.111  26.920  1.00  0.00     0.006 A 
ATOM     18  C   UNL A   1      35.044  30.559  27.624  1.00  0.00    -0.048 A 
ATOM     19  C   UNL A   1      35.093  29.172  27.457  1.00  0.00     0.004 A 
ATOM     20  C   UNL A   1      33.809  31.209  27.528  1.00  0.00     0.004 A 
ATOM     21  C   UNL A   1      33.940  28.453  27.146  1.00  0.00     0.010 A 
ATOM     22  C   UNL A   1      32.659  30.490  27.179  1.00  0.00     0.010 A 
BRANCH  18  23
ATOM     23  C   UNL A   1      36.310  31.325  27.927  1.00  0.00     0.038 C 
BRANCH  23  24
ATOM     24  C   UNL A   1      37.343  30.519  28.735  1.00  0.00    -0.013 C 
ATOM     25  C   UNL A   1      38.347  29.792  27.836  1.00  0.00     0.008 C 
ATOM     26  C   UNL A   1      38.095  31.450  29.689  1.00  0.00     0.008 C 
ENDBRANCH  23  24
ENDBRANCH  18  23
ENDBRANCH  16  17
ENDBRANCH  10  16
ENDBRANCH   7   9
ENDBRANCH   6   7
ENDBRANCH   5   6
ENDBRANCH   4   5
ENDBRANCH   3   4
ENDBRANCH   2   3
ENDBRANCH   1   2
BRANCH   1  27
ATOM     27  O   UNL A   1      35.458  23.452  25.228  1.00  0.00    -0.377 OA
BRANCH  27  28
ATOM     28  C   UNL A   1      36.869  23.399  25.033  1.00  0.00     0.188 C 
BRANCH  28  29
ATOM     29  C   UNL A   1      37.590  22.049  24.837  1.00  0.00     0.188 C 
BRANCH  29  30
ATOM     30  O   UNL A   1      38.300  21.587  25.971  1.00  0.00    -0.376 OA
BRANCH  30  31
ATOM     31  C   UNL A   1      39.325  22.402  26.516  1.00  0.00     0.202 C 
BRANCH  31  32
ATOM     32  C   UNL A   1      40.776  22.114  26.098  1.00  0.00     0.261 C 
BRANCH  32  33
ATOM     33  O   UNL A   1      41.699  23.213  26.187  1.00  0.00    -0.460 OA
BRANCH  33  34
ATOM     34  C   UNL A   1      42.550  23.254  27.230  1.00  0.00     0.338 C 
ATOM     35  O   UNL A   1      42.777  22.365  28.037  1.00  0.00    -0.246 OA
BRANCH  34  36
ATOM     36  C   UNL A   1      43.326  24.506  27.132  1.00  0.00     0.060 A 
ATOM     37  C   UNL A   1      43.736  24.957  25.870  1.00  0.00     0.016 A 
ATOM     38  C   UNL A   1      43.663  25.221  28.283  1.00  0.00     0.016 A 
ATOM     39  C   UNL A   1      44.525  26.102  25.760  1.00  0.00     0.010 A 
ATOM     40  C   UNL A   1      44.470  26.356  28.173  1.00  0.00     0.010 A 
ATOM     41  C   UNL A   1      44.937  26.780  26.915  1.00  0.00    -0.014 A 
BRANCH  41  42
ATOM     42  C   UNL A   1      46.014  27.795  26.828  1.00  0.00     0.031 A 
ATOM     43  C   UNL A   1      45.625  29.250  26.832  1.00  0.00     0.074 A 
ATOM     44  C   UNL A   1      47.310  27.444  26.772  1.00  0.00     0.049 A 
ATOM     45  N   UNL A   1      46.374  30.313  26.702  1.00  0.00    -0.248 NA
ATOM     46  C   UNL A   1      44.191  29.539  27.004  1.00  0.00     0.031 C 
ATOM     47  C   UNL A   1      47.820  26.075  26.813  1.00  0.00     0.029 A 
ATOM     48  N   UNL A   1      48.436  28.221  26.658  1.00  0.00    -0.354 N 
ATOM     49  C   UNL A   1      45.505  31.396  26.769  1.00  0.00     0.074 A 
ATOM     50  C   UNL A   1      44.169  30.860  26.916  1.00  0.00     0.031 C 
ATOM     51  C   UNL A   1      49.160  26.107  26.711  1.00  0.00     0.029 A 
ATOM     52  C   UNL A   1      49.598  27.495  26.560  1.00  0.00     0.049 A 
ATOM     53  H   UNL A   1      48.414  29.205  26.647  1.00  0.00     0.167 HD
ATOM     54  C   UNL A   1      45.793  32.718  26.723  1.00  0.00     0.037 A 
ATOM     55  C   UNL A   1      50.863  27.905  26.345  1.00  0.00     0.037 A 
ATOM     56  C   UNL A   1      47.122  33.249  26.571  1.00  0.00     0.049 A 
ATOM     57  C   UNL A   1      51.149  29.379  26.200  1.00  0.00     0.074 A 
ATOM     58  C   UNL A   1      47.521  34.573  26.518  1.00  0.00     0.029 A 
ATOM     59  N   UNL A   1      48.269  32.479  26.437  1.00  0.00    -0.354 N 
ATOM     60  N   UNL A   1      50.325  30.396  26.283  1.00  0.00    -0.248 NA
ATOM     61  C   UNL A   1      52.544  29.762  25.934  1.00  0.00     0.031 C 
ATOM     62  C   UNL A   1      48.901  34.604  26.293  1.00  0.00     0.029 A 
ATOM     63  C   UNL A   1      49.372  33.301  26.274  1.00  0.00     0.049 A 
ATOM     64  H   UNL A   1      48.294  31.495  26.457  1.00  0.00     0.167 HD
ATOM     65  C   UNL A   1      51.105  31.536  26.117  1.00  0.00     0.074 A 
ATOM     66  C   UNL A   1      52.469  31.085  25.941  1.00  0.00     0.031 C 
ATOM     67  C   UNL A   1      50.728  32.839  26.113  1.00  0.00     0.037 A 
BRANCH  54  68
ATOM     68  C   UNL A   1      44.644  33.681  26.807  1.00  0.00     0.057 A 
ATOM     69  C   UNL A   1      44.212  34.217  28.028  1.00  0.00     0.134 A 
ATOM     70  C   UNL A   1      43.976  34.097  25.649  1.00  0.00     0.134 A 
ATOM     71  F   UNL A   1      44.796  33.849  29.178  1.00  0.00    -0.206 F 
ATOM     72  C   UNL A   1      43.141  35.111  28.095  1.00  0.00     0.040 A 
ATOM     73  C   UNL A   1      42.926  35.014  25.699  1.00  0.00     0.040 A 
ATOM     74  F   UNL A   1      44.341  33.627  24.446  1.00  0.00    -0.206 F 
ATOM     75  C   UNL A   1      42.500  35.517  26.927  1.00  0.00     0.006 A 
ENDBRANCH  54  68
BRANCH  55  76
ATOM     76  C   UNL A   1      51.964  26.913  26.227  1.00  0.00     0.057 A 
ATOM     77  C   UNL A   1      52.775  26.593  27.323  1.00  0.00     0.134 A 
ATOM     78  C   UNL A   1      52.261  26.292  25.007  1.00  0.00     0.134 A 
ATOM     79  F   UNL A   1      52.560  27.171  28.514  1.00  0.00    -0.206 F 
ATOM     80  C   UNL A   1      53.853  25.712  27.205  1.00  0.00     0.040 A 
ATOM     81  C   UNL A   1      53.317  25.387  24.882  1.00  0.00     0.040 A 
ATOM     82  F   UNL A   1      51.526  26.556  23.917  1.00  0.00    -0.206 F 
ATOM     83  C   UNL A   1      54.122  25.103  25.981  1.00  0.00     0.006 A 
ENDBRANCH  55  76
BRANCH  67  84
ATOM     84  C   UNL A   1      51.807  33.874  25.967  1.00  0.00     0.057 A 
ATOM     85  C   UNL A   1      52.266  34.301  24.715  1.00  0.00     0.134 A 
ATOM     86  C   UNL A   1      52.363  34.484  27.100  1.00  0.00     0.134 A 
ATOM     87  F   UNL A   1      51.785  33.752  23.589  1.00  0.00    -0.206 F 
ATOM     88  C   UNL A   1      53.259  35.276  24.596  1.00  0.00     0.040 A 
ATOM     89  C   UNL A   1      53.332  35.483  26.993  1.00  0.00     0.040 A 
ATOM     90  F   UNL A   1      51.960  34.132  28.330  1.00  0.00    -0.206 F 
ATOM     91  C   UNL A   1      53.788  35.876  25.737  1.00  0.00     0.006 A 
ENDBRANCH  67  84
ENDBRANCH  41  42
ENDBRANCH  34  36
ENDBRANCH  33  34
ENDBRANCH  32  33
ENDBRANCH  31  32
ENDBRANCH  30  31
ENDBRANCH  29  30
ENDBRANCH  28  29
ENDBRANCH  27  28
ENDBRANCH   1  27
TORSDOF 24
ENDMDL
MODEL 3
REMARK VINA RESULT:      -9.1      6.970     11.806
REMARK SMILES CC(C)Cc1ccc(C[N@@H+]2CCO[C@@H](C(=O)OCCOCCOCCOCCOC(=O)c3ccc(-c4c5nc(c(-c6c(F)cccc6F)c6ccc([nH]6)c(-c6c(F)cccc6F)c6nc(c(-c7c(F)cccc7F)c7ccc4[nH]7)C=C6)C=C5)cc3)C2)cc1
REMARK SMILES IDX 22 1 21 2 20 3 19 4 18 5 17 6 15 7 16 8 14 9 10 10 11 11
REMARK SMILES IDX 86 12 12 14 13 15 9 16 8 17 5 18 6 19 88 20 7 21 87 22 4 23
REMARK SMILES IDX 2 24 1 25 3 26 23 27 24 28 25 29 26 30 27 31 28 32 29 33
REMARK SMILES IDX 30 34 31 35 32 36 33 37 85 38 34 39 84 40 35 41 36 42 37 43
REMARK SMILES IDX 78 44 38 45 83 46 77 47 79 48 39 49 82 50 76 51 75 52 40 54
REMARK SMILES IDX 66 55 49 56 65 57 50 58 53 59 64 60 80 61 51 62 52 63 63 65
REMARK SMILES IDX 81 66 54 67 41 68 42 69 47 70 43 71 44 72 46 73 48 74 45 75
REMARK SMILES IDX 67 76 68 77 73 78 69 79 70 80 72 81 74 82 71 83 55 84 56 85
REMARK SMILES IDX 61 86 57 87 58 88 60 89 62 90 59 91
REMARK H PARENT 10 13 79 53 53 64
REMARK Flexibility Score: inf
ROOT
ATOM      1  C   UNL A   1      36.448  23.603  26.066  1.00  0.00     0.188 C 
ENDROOT
BRANCH   1   2
ATOM      2  C   UNL A   1      34.974  23.307  25.783  1.00  0.00     0.188 C 
BRANCH   2   3
ATOM      3  O   UNL A   1      34.642  22.465  24.705  1.00  0.00    -0.376 OA
BRANCH   3   4
ATOM      4  C   UNL A   1      34.648  22.925  23.362  1.00  0.00     0.202 C 
BRANCH   4   5
ATOM      5  C   UNL A   1      33.640  23.902  22.729  1.00  0.00     0.261 C 
BRANCH   5   6
ATOM      6  O   UNL A   1      33.839  25.312  22.921  1.00  0.00    -0.461 OA
BRANCH   6   7
ATOM      7  C   UNL A   1      33.116  26.095  22.082  1.00  0.00     0.341 C 
ATOM      8  O   UNL A   1      33.173  25.996  20.855  1.00  0.00    -0.249 OA
BRANCH   7   9
ATOM      9  C   UNL A   1      32.223  27.144  22.733  1.00  0.00     0.283 C 
ATOM     10  N   UNL A   1      31.799  29.182  24.133  1.00  0.00    -0.327 N 
ATOM     11  C   UNL A   1      30.480  29.235  23.481  1.00  0.00     0.291 C 
ATOM     12  C   UNL A   1      32.773  28.479  23.256  1.00  0.00     0.307 C 
ATOM     13  H   UNL A   1      32.118  30.146  24.223  1.00  0.00     0.348 HD
ATOM     14  C   UNL A   1      30.045  27.982  22.682  1.00  0.00     0.223 C 
ATOM     15  O   UNL A   1      31.101  27.436  21.883  1.00  0.00    -0.355 OA
BRANCH  10  16
ATOM     16  C   UNL A   1      31.815  28.805  25.561  1.00  0.00     0.299 C 
BRANCH  16  17
ATOM     17  C   UNL A   1      32.887  29.413  26.443  1.00  0.00     0.006 A 
ATOM     18  C   UNL A   1      35.052  30.660  27.757  1.00  0.00    -0.048 A 
ATOM     19  C   UNL A   1      35.134  29.321  27.360  1.00  0.00     0.004 A 
ATOM     20  C   UNL A   1      33.847  31.346  27.576  1.00  0.00     0.004 A 
ATOM     21  C   UNL A   1      34.050  28.696  26.744  1.00  0.00     0.010 A 
ATOM     22  C   UNL A   1      32.773  30.728  26.925  1.00  0.00     0.010 A 
BRANCH  18  23
ATOM     23  C   UNL A   1      36.248  31.330  28.390  1.00  0.00     0.038 C 
BRANCH  23  24
ATOM     24  C   UNL A   1      36.522  30.870  29.834  1.00  0.00    -0.013 C 
ATOM     25  C   UNL A   1      38.010  30.925  30.190  1.00  0.00     0.008 C 
ATOM     26  C   UNL A   1      35.731  31.740  30.814  1.00  0.00     0.008 C 
ENDBRANCH  23  24
ENDBRANCH  18  23
ENDBRANCH  16  17
ENDBRANCH  10  16
ENDBRANCH   7   9
ENDBRANCH   6   7
ENDBRANCH   5   6
ENDBRANCH   4   5
ENDBRANCH   3   4
ENDBRANCH   2   3
ENDBRANCH   1   2
BRANCH   1  27
ATOM     27  O   UNL A   1      37.398  22.730  25.491  1.00  0.00    -0.377 OA
BRANCH  27  28
ATOM     28  C   UNL A   1      38.676  22.575  26.102  1.00  0.00     0.188 C 
BRANCH  28  29
ATOM     29  C   UNL A   1      39.551  21.340  25.804  1.00  0.00     0.188 C 
BRANCH  29  30
ATOM     30  O   UNL A   1      39.923  20.589  26.946  1.00  0.00    -0.376 OA
BRANCH  30  31
ATOM     31  C   UNL A   1      40.889  21.127  27.834  1.00  0.00     0.202 C 
BRANCH  31  32
ATOM     32  C   UNL A   1      42.368  21.056  27.422  1.00  0.00     0.261 C 
BRANCH  32  33
ATOM     33  O   UNL A   1      43.054  22.311  27.276  1.00  0.00    -0.460 OA
BRANCH  33  34
ATOM     34  C   UNL A   1      43.206  22.819  26.037  1.00  0.00     0.338 C 
ATOM     35  O   UNL A   1      42.788  22.353  24.988  1.00  0.00    -0.246 OA
BRANCH  34  36
ATOM     36  C   UNL A   1      43.808  24.161  26.170  1.00  0.00     0.060 A 
ATOM     37  C   UNL A   1      43.793  25.027  25.069  1.00  0.00     0.016 A 
ATOM     38  C   UNL A   1      44.405  24.552  27.370  1.00  0.00     0.016 A 
ATOM     39  C   UNL A   1      44.413  26.274  25.152  1.00  0.00     0.010 A 
ATOM     40  C   UNL A   1      45.044  25.793  27.445  1.00  0.00     0.010 A 
ATOM     41  C   UNL A   1      45.084  26.642  26.325  1.00  0.00    -0.014 A 
BRANCH  41  42
ATOM     42  C   UNL A   1      45.998  27.811  26.314  1.00  0.00     0.031 A 
ATOM     43  C   UNL A   1      47.470  27.563  26.124  1.00  0.00     0.074 A 
ATOM     44  C   UNL A   1      45.536  29.066  26.443  1.00  0.00     0.049 A 
ATOM     45  N   UNL A   1      48.468  28.408  26.141  1.00  0.00    -0.248 NA
ATOM     46  C   UNL A   1      47.870  26.166  25.883  1.00  0.00     0.031 C 
ATOM     47  C   UNL A   1      44.131  29.444  26.581  1.00  0.00     0.029 A 
ATOM     48  N   UNL A   1      46.213  30.261  26.489  1.00  0.00    -0.354 N 
ATOM     49  C   UNL A   1      49.610  27.648  25.922  1.00  0.00     0.074 A 
ATOM     50  C   UNL A   1      49.187  26.269  25.810  1.00  0.00     0.031 C 
ATOM     51  C   UNL A   1      44.051  30.779  26.711  1.00  0.00     0.029 A 
ATOM     52  C   UNL A   1      45.399  31.346  26.702  1.00  0.00     0.049 A 
ATOM     53  H   UNL A   1      47.189  30.332  26.379  1.00  0.00     0.167 HD
ATOM     54  C   UNL A   1      50.895  28.061  25.814  1.00  0.00     0.037 A 
ATOM     55  C   UNL A   1      45.712  32.642  26.897  1.00  0.00     0.037 A 
ATOM     56  C   UNL A   1      51.314  29.433  25.933  1.00  0.00     0.049 A 
ATOM     57  C   UNL A   1      47.160  33.065  26.868  1.00  0.00     0.074 A 
ATOM     58  C   UNL A   1      52.591  29.955  25.834  1.00  0.00     0.029 A 
ATOM     59  N   UNL A   1      50.463  30.499  26.186  1.00  0.00    -0.354 N 
ATOM     60  N   UNL A   1      48.232  32.344  26.642  1.00  0.00    -0.248 NA
ATOM     61  C   UNL A   1      47.440  34.487  27.119  1.00  0.00     0.031 C 
ATOM     62  C   UNL A   1      52.521  31.330  26.087  1.00  0.00     0.029 A 
ATOM     63  C   UNL A   1      51.192  31.673  26.275  1.00  0.00     0.049 A 
ATOM     64  H   UNL A   1      49.486  30.430  26.287  1.00  0.00     0.167 HD
ATOM     65  C   UNL A   1      49.305  33.227  26.687  1.00  0.00     0.074 A 
ATOM     66  C   UNL A   1      48.754  34.540  26.949  1.00  0.00     0.031 C 
ATOM     67  C   UNL A   1      50.628  32.976  26.524  1.00  0.00     0.037 A 
BRANCH  54  68
ATOM     68  C   UNL A   1      51.943  27.010  25.586  1.00  0.00     0.057 A 
ATOM     69  C   UNL A   1      52.564  26.337  26.647  1.00  0.00     0.134 A 
ATOM     70  C   UNL A   1      52.321  26.650  24.287  1.00  0.00     0.134 A 
ATOM     71  F   UNL A   1      52.261  26.643  27.918  1.00  0.00    -0.206 F 
ATOM     72  C   UNL A   1      53.539  25.362  26.424  1.00  0.00     0.040 A 
ATOM     73  C   UNL A   1      53.271  25.657  24.050  1.00  0.00     0.040 A 
ATOM     74  F   UNL A   1      51.765  27.252  23.224  1.00  0.00    -0.206 F 
ATOM     75  C   UNL A   1      53.889  25.015  25.121  1.00  0.00     0.006 A 
ENDBRANCH  54  68
BRANCH  55  76
ATOM     76  C   UNL A   1      44.644  33.641  27.160  1.00  0.00     0.057 A 
ATOM     77  C   UNL A   1      44.045  34.358  26.117  1.00  0.00     0.134 A 
ATOM     78  C   UNL A   1      44.225  33.936  28.464  1.00  0.00     0.134 A 
ATOM     79  F   UNL A   1      44.419  34.143  24.847  1.00  0.00    -0.206 F 
ATOM     80  C   UNL A   1      43.088  35.346  26.361  1.00  0.00     0.040 A 
ATOM     81  C   UNL A   1      43.248  34.900  28.721  1.00  0.00     0.040 A 
ATOM     82  F   UNL A   1      44.760  33.288  29.510  1.00  0.00    -0.206 F 
ATOM     83  C   UNL A   1      42.685  35.615  27.667  1.00  0.00     0.006 A 
ENDBRANCH  55  76
BRANCH  67  84
ATOM     84  C   UNL A   1      51.568  34.148  26.569  1.00  0.00     0.057 A 
ATOM     85  C   UNL A   1      51.873  34.905  25.431  1.00  0.00     0.134 A 
ATOM     86  C   UNL A   1      52.139  34.552  27.784  1.00  0.00     0.134 A 
ATOM     87  F   UNL A   1      51.368  34.568  24.234  1.00  0.00    -0.206 F 
ATOM     88  C   UNL A   1      52.736  36.001  25.493  1.00  0.00     0.040 A 
ATOM     89  C   UNL A   1      52.976  35.666  27.865  1.00  0.00     0.040 A 
ATOM     90  F   UNL A   1      51.880  33.881  28.916  1.00  0.00    -0.206 F 
ATOM     91  C   UNL A   1      53.283  36.390  26.715  1.00  0.00     0.006 A 
ENDBRANCH  67  84
ENDBRANCH  41  42
ENDBRANCH  34  36
ENDBRANCH  33  34
ENDBRANCH  32  33
ENDBRANCH  31  32
ENDBRANCH  30  31
ENDBRANCH  29  30
ENDBRANCH  28  29
ENDBRANCH  27  28
ENDBRANCH   1  27
TORSDOF 24
ENDMDL
