MODEL 1
REMARK VINA RESULT:      -9.8      0.000      0.000
REMARK SMILES O=C(OCCOCCOCCOCCOC(=O)c1ccc(-n2cc(CSc3nc4ccccc4c(=O)n3-c3ccc(Br)cc3)nn2)cc1)c1ccc(-c2c3nc(c(-c4c(F)cccc4F)c4ccc([nH]4)c(-c4c(F)cccc4F)c4nc(c(-c5c(F)cccc5F)c5ccc2[nH]5)C=C4)C=C3)cc1
REMARK SMILES IDX 10 1 9 2 8 3 7 4 6 5 5 6 4 7 3 8 2 9 1 10 49 11 50 12 102 13
REMARK SMILES IDX 51 14 101 15 52 16 53 17 54 18 95 19 55 20 100 21 94 22
REMARK SMILES IDX 96 23 56 24 99 25 93 26 92 27 57 29 83 30 66 31 82 32 67 33
REMARK SMILES IDX 70 34 81 35 97 36 68 37 69 38 80 40 98 41 71 42 58 43 59 44
REMARK SMILES IDX 64 45 60 46 61 47 63 48 65 49 62 50 84 51 85 52 90 53 86 54
REMARK SMILES IDX 87 55 89 56 91 57 88 58 72 59 73 60 78 61 74 62 75 63 77 64
REMARK SMILES IDX 79 65 76 66 11 67 12 68 13 69 14 70 15 71 16 72 17 73 18 74
REMARK SMILES IDX 19 75 48 76 20 77 47 78 21 79 22 80 23 81 46 82 24 83 45 84
REMARK SMILES IDX 25 85 26 86 27 87 28 88 37 89 29 90 35 91 30 92 34 93 36 94
REMARK SMILES IDX 31 95 33 96 32 97 38 98 39 99 44 100 40 101 43 102 41 103
REMARK SMILES IDX 42 104
REMARK H PARENT 96 28 70 39
REMARK Flexibility Score: inf
ROOT
ATOM      1  C   UNL A   1      42.430  27.021  25.414  1.00  0.00     0.188 C 
ENDROOT
BRANCH   1   2
ATOM      2  O   UNL A   1      41.594  26.555  26.451  1.00  0.00    -0.377 OA
BRANCH   2   3
ATOM      3  C   UNL A   1      40.772  27.537  27.062  1.00  0.00     0.188 C 
BRANCH   3   4
ATOM      4  C   UNL A   1      40.062  27.097  28.355  1.00  0.00     0.188 C 
BRANCH   4   5
ATOM      5  O   UNL A   1      39.146  27.973  29.016  1.00  0.00    -0.376 OA
BRANCH   5   6
ATOM      6  C   UNL A   1      39.571  29.132  29.698  1.00  0.00     0.202 C 
BRANCH   6   7
ATOM      7  C   UNL A   1      38.856  30.417  29.266  1.00  0.00     0.261 C 
BRANCH   7   8
ATOM      8  O   UNL A   1      38.594  31.380  30.298  1.00  0.00    -0.460 OA
BRANCH   8   9
ATOM      9  C   UNL A   1      39.453  32.177  30.976  1.00  0.00     0.338 C 
ATOM     10  O   UNL A   1      39.288  32.335  32.185  1.00  0.00    -0.246 OA
BRANCH   9  11
ATOM     11  C   UNL A   1      40.542  32.958  30.337  1.00  0.00     0.060 A 
ATOM     12  C   UNL A   1      41.874  32.548  30.287  1.00  0.00     0.016 A 
ATOM     13  C   UNL A   1      40.190  34.233  29.845  1.00  0.00     0.016 A 
ATOM     14  C   UNL A   1      42.852  33.423  29.861  1.00  0.00     0.010 A 
ATOM     15  C   UNL A   1      41.169  35.124  29.437  1.00  0.00     0.010 A 
ATOM     16  C   UNL A   1      42.499  34.731  29.540  1.00  0.00    -0.014 A 
BRANCH  16  17
ATOM     17  C   UNL A   1      43.595  35.683  29.539  1.00  0.00     0.031 A 
ATOM     18  C   UNL A   1      43.784  36.491  30.766  1.00  0.00     0.074 A 
ATOM     19  C   UNL A   1      44.325  35.855  28.421  1.00  0.00     0.049 A 
ATOM     20  N   UNL A   1      43.685  37.775  30.904  1.00  0.00    -0.248 NA
ATOM     21  C   UNL A   1      44.034  35.765  32.018  1.00  0.00     0.031 C 
ATOM     22  C   UNL A   1      44.380  34.995  27.233  1.00  0.00     0.029 A 
ATOM     23  N   UNL A   1      45.251  36.812  28.152  1.00  0.00    -0.354 N 
ATOM     24  C   UNL A   1      44.042  38.043  32.223  1.00  0.00     0.074 A 
ATOM     25  C   UNL A   1      44.128  36.769  32.891  1.00  0.00     0.031 C 
ATOM     26  C   UNL A   1      45.453  35.338  26.489  1.00  0.00     0.029 A 
ATOM     27  C   UNL A   1      46.069  36.514  27.076  1.00  0.00     0.049 A 
ATOM     28  H   UNL A   1      45.334  37.642  28.675  1.00  0.00     0.167 HD
ATOM     29  C   UNL A   1      44.453  39.278  32.617  1.00  0.00     0.037 A 
ATOM     30  C   UNL A   1      47.226  37.136  26.754  1.00  0.00     0.037 A 
ATOM     31  C   UNL A   1      43.982  40.310  31.732  1.00  0.00     0.049 A 
ATOM     32  C   UNL A   1      47.222  38.468  27.405  1.00  0.00     0.074 A 
ATOM     33  C   UNL A   1      42.737  40.758  31.335  1.00  0.00     0.029 A 
ATOM     34  N   UNL A   1      44.872  40.885  30.859  1.00  0.00    -0.354 N 
ATOM     35  N   UNL A   1      46.438  39.450  27.054  1.00  0.00    -0.248 NA
ATOM     36  C   UNL A   1      47.793  38.575  28.740  1.00  0.00     0.031 C 
ATOM     37  C   UNL A   1      42.902  41.165  29.978  1.00  0.00     0.029 A 
ATOM     38  C   UNL A   1      44.242  40.961  29.645  1.00  0.00     0.049 A 
ATOM     39  H   UNL A   1      45.786  41.185  31.066  1.00  0.00     0.167 HD
ATOM     40  C   UNL A   1      46.090  40.072  28.246  1.00  0.00     0.074 A 
ATOM     41  C   UNL A   1      47.031  39.554  29.235  1.00  0.00     0.031 C 
ATOM     42  C   UNL A   1      44.903  40.732  28.382  1.00  0.00     0.037 A 
BRANCH  29  43
ATOM     43  C   UNL A   1      45.580  39.505  33.597  1.00  0.00     0.057 A 
ATOM     44  C   UNL A   1      45.362  40.309  34.731  1.00  0.00     0.134 A 
ATOM     45  C   UNL A   1      46.933  39.224  33.314  1.00  0.00     0.134 A 
ATOM     46  F   UNL A   1      44.120  40.657  35.099  1.00  0.00    -0.206 F 
ATOM     47  C   UNL A   1      46.414  40.857  35.475  1.00  0.00     0.040 A 
ATOM     48  C   UNL A   1      47.988  39.727  34.080  1.00  0.00     0.040 A 
ATOM     49  F   UNL A   1      47.313  38.538  32.230  1.00  0.00    -0.206 F 
ATOM     50  C   UNL A   1      47.733  40.575  35.144  1.00  0.00     0.006 A 
ENDBRANCH  29  43
BRANCH  30  51
ATOM     51  C   UNL A   1      48.444  36.495  26.213  1.00  0.00     0.057 A 
ATOM     52  C   UNL A   1      49.111  37.023  25.103  1.00  0.00     0.134 A 
ATOM     53  C   UNL A   1      49.121  35.483  26.920  1.00  0.00     0.134 A 
ATOM     54  F   UNL A   1      48.568  38.025  24.397  1.00  0.00    -0.206 F 
ATOM     55  C   UNL A   1      50.381  36.573  24.719  1.00  0.00     0.040 A 
ATOM     56  C   UNL A   1      50.381  35.015  26.541  1.00  0.00     0.040 A 
ATOM     57  F   UNL A   1      48.622  34.970  28.054  1.00  0.00    -0.206 F 
ATOM     58  C   UNL A   1      51.022  35.570  25.442  1.00  0.00     0.006 A 
ENDBRANCH  30  51
BRANCH  42  59
ATOM     59  C   UNL A   1      44.092  40.975  27.142  1.00  0.00     0.057 A 
ATOM     60  C   UNL A   1      43.014  40.165  26.756  1.00  0.00     0.134 A 
ATOM     61  C   UNL A   1      44.304  42.143  26.402  1.00  0.00     0.134 A 
ATOM     62  F   UNL A   1      42.668  39.087  27.471  1.00  0.00    -0.206 F 
ATOM     63  C   UNL A   1      42.216  40.475  25.651  1.00  0.00     0.040 A 
ATOM     64  C   UNL A   1      43.494  42.482  25.315  1.00  0.00     0.040 A 
ATOM     65  F   UNL A   1      45.274  43.001  26.755  1.00  0.00    -0.206 F 
ATOM     66  C   UNL A   1      42.454  41.640  24.928  1.00  0.00     0.006 A 
ENDBRANCH  42  59
ENDBRANCH  16  17
ENDBRANCH   9  11
ENDBRANCH   8   9
ENDBRANCH   7   8
ENDBRANCH   6   7
ENDBRANCH   5   6
ENDBRANCH   4   5
ENDBRANCH   3   4
ENDBRANCH   2   3
ENDBRANCH   1   2
BRANCH   1  67
ATOM     67  C   UNL A   1      43.916  26.623  25.568  1.00  0.00     0.188 C 
BRANCH  67  68
ATOM     68  O   UNL A   1      44.589  26.775  26.810  1.00  0.00    -0.376 OA
BRANCH  68  69
ATOM     69  C   UNL A   1      45.790  26.060  27.064  1.00  0.00     0.202 C 
BRANCH  69  70
ATOM     70  C   UNL A   1      45.989  25.378  28.426  1.00  0.00     0.261 C 
BRANCH  70  71
ATOM     71  O   UNL A   1      45.771  23.958  28.442  1.00  0.00    -0.460 OA
BRANCH  71  72
ATOM     72  C   UNL A   1      45.502  23.378  27.238  1.00  0.00     0.338 C 
ATOM     73  O   UNL A   1      46.285  22.858  26.481  1.00  0.00    -0.246 OA
BRANCH  72  74
ATOM     74  C   UNL A   1      44.026  23.276  27.091  1.00  0.00     0.060 A 
ATOM     75  C   UNL A   1      43.488  23.184  25.797  1.00  0.00     0.018 A 
ATOM     76  C   UNL A   1      43.191  23.181  28.205  1.00  0.00     0.018 A 
ATOM     77  C   UNL A   1      42.116  22.994  25.610  1.00  0.00     0.029 A 
ATOM     78  C   UNL A   1      41.821  22.974  28.024  1.00  0.00     0.029 A 
ATOM     79  C   UNL A   1      41.281  22.890  26.727  1.00  0.00     0.066 A 
BRANCH  79  80
ATOM     80  N   UNL A   1      39.877  22.791  26.578  1.00  0.00    -0.220 N 
ATOM     81  C   UNL A   1      39.153  21.733  26.051  1.00  0.00     0.141 A 
ATOM     82  N   UNL A   1      39.067  23.857  26.733  1.00  0.00    -0.062 NA
ATOM     83  C   UNL A   1      37.988  22.315  25.600  1.00  0.00     0.093 A 
ATOM     84  N   UNL A   1      37.911  23.573  26.162  1.00  0.00    -0.134 NA
BRANCH  83  85
ATOM     85  C   UNL A   1      36.984  22.051  24.539  1.00  0.00     0.138 C 
BRANCH  85  86
ATOM     86  S   UNL A   1      36.031  23.162  23.541  1.00  0.00    -0.081 SA
BRANCH  86  87
ATOM     87  C   UNL A   1      34.521  23.671  24.215  1.00  0.00     0.176 A 
ATOM     88  N   UNL A   1      34.372  24.955  24.072  1.00  0.00    -0.223 NA
ATOM     89  N   UNL A   1      33.549  22.871  24.802  1.00  0.00    -0.255 N 
ATOM     90  C   UNL A   1      33.242  25.572  24.607  1.00  0.00     0.079 A 
ATOM     91  C   UNL A   1      32.824  23.520  25.816  1.00  0.00     0.266 A 
ATOM     92  C   UNL A   1      32.897  26.871  24.240  1.00  0.00     0.029 A 
ATOM     93  C   UNL A   1      32.513  24.938  25.597  1.00  0.00     0.066 A 
ATOM     94  O   UNL A   1      32.484  23.026  26.892  1.00  0.00    -0.268 OA
ATOM     95  C   UNL A   1      31.868  27.540  24.910  1.00  0.00     0.002 A 
ATOM     96  C   UNL A   1      31.518  25.607  26.312  1.00  0.00     0.016 A 
ATOM     97  C   UNL A   1      31.201  26.920  25.969  1.00  0.00     0.001 A 
BRANCH  89  98
ATOM     98  C   UNL A   1      33.287  21.456  24.566  1.00  0.00     0.051 A 
ATOM     99  C   UNL A   1      33.842  20.481  25.424  1.00  0.00     0.028 A 
ATOM    100  C   UNL A   1      32.481  20.953  23.538  1.00  0.00     0.028 A 
ATOM    101  C   UNL A   1      33.784  19.110  25.148  1.00  0.00     0.018 A 
ATOM    102  C   UNL A   1      32.451  19.585  23.220  1.00  0.00     0.018 A 
ATOM    103  C   UNL A   1      33.137  18.672  24.007  1.00  0.00     0.018 A 
ATOM    104  Br  UNL A   1      33.175  16.846  23.540  1.00  0.00    -0.051 Br
ENDBRANCH  89  98
ENDBRANCH  86  87
ENDBRANCH  85  86
ENDBRANCH  83  85
ENDBRANCH  79  80
ENDBRANCH  72  74
ENDBRANCH  71  72
ENDBRANCH  70  71
ENDBRANCH  69  70
ENDBRANCH  68  69
ENDBRANCH  67  68
ENDBRANCH   1  67
TORSDOF 25
ENDMDL
MODEL 2
REMARK VINA RESULT:      -9.1      6.349     14.174
REMARK SMILES O=C(OCCOCCOCCOCCOC(=O)c1ccc(-n2cc(CSc3nc4ccccc4c(=O)n3-c3ccc(Br)cc3)nn2)cc1)c1ccc(-c2c3nc(c(-c4c(F)cccc4F)c4ccc([nH]4)c(-c4c(F)cccc4F)c4nc(c(-c5c(F)cccc5F)c5ccc2[nH]5)C=C4)C=C3)cc1
REMARK SMILES IDX 10 1 9 2 8 3 7 4 6 5 5 6 4 7 3 8 2 9 1 10 49 11 50 12 102 13
REMARK SMILES IDX 51 14 101 15 52 16 53 17 54 18 95 19 55 20 100 21 94 22
REMARK SMILES IDX 96 23 56 24 99 25 93 26 92 27 57 29 83 30 66 31 82 32 67 33
REMARK SMILES IDX 70 34 81 35 97 36 68 37 69 38 80 40 98 41 71 42 58 43 59 44
REMARK SMILES IDX 64 45 60 46 61 47 63 48 65 49 62 50 84 51 85 52 90 53 86 54
REMARK SMILES IDX 87 55 89 56 91 57 88 58 72 59 73 60 78 61 74 62 75 63 77 64
REMARK SMILES IDX 79 65 76 66 11 67 12 68 13 69 14 70 15 71 16 72 17 73 18 74
REMARK SMILES IDX 19 75 48 76 20 77 47 78 21 79 22 80 23 81 46 82 24 83 45 84
REMARK SMILES IDX 25 85 26 86 27 87 28 88 37 89 29 90 35 91 30 92 34 93 36 94
REMARK SMILES IDX 31 95 33 96 32 97 38 98 39 99 44 100 40 101 43 102 41 103
REMARK SMILES IDX 42 104
REMARK H PARENT 96 28 70 39
REMARK Flexibility Score: inf
ROOT
ATOM      1  C   UNL A   1      45.966  27.768  28.140  1.00  0.00     0.188 C 
ENDROOT
BRANCH   1   2
ATOM      2  O   UNL A   1      46.986  26.846  28.457  1.00  0.00    -0.377 OA
BRANCH   2   3
ATOM      3  C   UNL A   1      46.990  25.651  27.691  1.00  0.00     0.188 C 
BRANCH   3   4
ATOM      4  C   UNL A   1      45.714  25.382  26.876  1.00  0.00     0.188 C 
BRANCH   4   5
ATOM      5  O   UNL A   1      44.820  24.330  27.251  1.00  0.00    -0.376 OA
BRANCH   5   6
ATOM      6  C   UNL A   1      43.816  23.850  26.384  1.00  0.00     0.202 C 
BRANCH   6   7
ATOM      7  C   UNL A   1      42.460  23.613  27.058  1.00  0.00     0.261 C 
BRANCH   7   8
ATOM      8  O   UNL A   1      41.327  24.260  26.459  1.00  0.00    -0.460 OA
BRANCH   8   9
ATOM      9  C   UNL A   1      41.155  25.556  26.110  1.00  0.00     0.338 C 
ATOM     10  O   UNL A   1      41.512  25.923  24.991  1.00  0.00    -0.246 OA
BRANCH   9  11
ATOM     11  C   UNL A   1      40.642  26.602  27.030  1.00  0.00     0.060 A 
ATOM     12  C   UNL A   1      40.901  27.965  26.889  1.00  0.00     0.016 A 
ATOM     13  C   UNL A   1      39.931  26.145  28.160  1.00  0.00     0.016 A 
ATOM     14  C   UNL A   1      40.562  28.842  27.898  1.00  0.00     0.010 A 
ATOM     15  C   UNL A   1      39.606  27.017  29.187  1.00  0.00     0.010 A 
ATOM     16  C   UNL A   1      40.013  28.342  29.076  1.00  0.00    -0.014 A 
BRANCH  16  17
ATOM     17  C   UNL A   1      40.099  29.228  30.222  1.00  0.00     0.031 A 
ATOM     18  C   UNL A   1      38.993  30.197  30.406  1.00  0.00     0.074 A 
ATOM     19  C   UNL A   1      41.193  29.200  31.005  1.00  0.00     0.049 A 
ATOM     20  N   UNL A   1      39.046  31.491  30.373  1.00  0.00    -0.248 NA
ATOM     21  C   UNL A   1      37.639  29.650  30.566  1.00  0.00     0.031 C 
ATOM     22  C   UNL A   1      42.242  28.174  31.059  1.00  0.00     0.029 A 
ATOM     23  N   UNL A   1      41.553  30.061  31.992  1.00  0.00    -0.354 N 
ATOM     24  C   UNL A   1      37.763  31.930  30.692  1.00  0.00     0.074 A 
ATOM     25  C   UNL A   1      36.916  30.765  30.681  1.00  0.00     0.031 C 
ATOM     26  C   UNL A   1      42.976  28.351  32.178  1.00  0.00     0.029 A 
ATOM     27  C   UNL A   1      42.535  29.569  32.834  1.00  0.00     0.049 A 
ATOM     28  H   UNL A   1      41.152  30.953  32.100  1.00  0.00     0.167 HD
ATOM     29  C   UNL A   1      37.533  33.189  31.155  1.00  0.00     0.037 A 
ATOM     30  C   UNL A   1      42.888  30.080  34.035  1.00  0.00     0.037 A 
ATOM     31  C   UNL A   1      38.578  34.102  30.776  1.00  0.00     0.049 A 
ATOM     32  C   UNL A   1      42.436  31.492  34.079  1.00  0.00     0.074 A 
ATOM     33  C   UNL A   1      39.094  34.548  29.574  1.00  0.00     0.029 A 
ATOM     34  N   UNL A   1      39.480  34.499  31.730  1.00  0.00    -0.354 N 
ATOM     35  N   UNL A   1      42.961  32.449  33.366  1.00  0.00    -0.248 NA
ATOM     36  C   UNL A   1      41.106  31.765  34.602  1.00  0.00     0.031 C 
ATOM     37  C   UNL A   1      40.486  34.743  29.816  1.00  0.00     0.029 A 
ATOM     38  C   UNL A   1      40.721  34.428  31.155  1.00  0.00     0.049 A 
ATOM     39  H   UNL A   1      39.276  34.781  32.651  1.00  0.00     0.167 HD
ATOM     40  C   UNL A   1      41.889  33.254  33.006  1.00  0.00     0.074 A 
ATOM     41  C   UNL A   1      40.793  32.841  33.876  1.00  0.00     0.031 C 
ATOM     42  C   UNL A   1      41.906  33.985  31.852  1.00  0.00     0.037 A 
BRANCH  29  43
ATOM     43  C   UNL A   1      36.543  33.500  32.252  1.00  0.00     0.057 A 
ATOM     44  C   UNL A   1      35.443  34.334  31.978  1.00  0.00     0.134 A 
ATOM     45  C   UNL A   1      36.792  33.270  33.621  1.00  0.00     0.134 A 
ATOM     46  F   UNL A   1      35.109  34.640  30.716  1.00  0.00    -0.206 F 
ATOM     47  C   UNL A   1      34.703  34.956  32.991  1.00  0.00     0.040 A 
ATOM     48  C   UNL A   1      36.028  33.847  34.639  1.00  0.00     0.040 A 
ATOM     49  F   UNL A   1      37.844  32.563  34.051  1.00  0.00    -0.206 F 
ATOM     50  C   UNL A   1      35.000  34.721  34.327  1.00  0.00     0.006 A 
ENDBRANCH  29  43
BRANCH  30  51
ATOM     51  C   UNL A   1      43.274  29.308  35.237  1.00  0.00     0.057 A 
ATOM     52  C   UNL A   1      42.417  28.352  35.792  1.00  0.00     0.134 A 
ATOM     53  C   UNL A   1      44.593  29.320  35.729  1.00  0.00     0.134 A 
ATOM     54  F   UNL A   1      41.157  28.231  35.352  1.00  0.00    -0.206 F 
ATOM     55  C   UNL A   1      42.849  27.455  36.779  1.00  0.00     0.040 A 
ATOM     56  C   UNL A   1      45.033  28.442  36.721  1.00  0.00     0.040 A 
ATOM     57  F   UNL A   1      45.527  30.127  35.205  1.00  0.00    -0.206 F 
ATOM     58  C   UNL A   1      44.162  27.495  37.242  1.00  0.00     0.006 A 
ENDBRANCH  30  51
BRANCH  42  59
ATOM     59  C   UNL A   1      43.205  34.084  31.106  1.00  0.00     0.057 A 
ATOM     60  C   UNL A   1      44.130  35.120  31.306  1.00  0.00     0.134 A 
ATOM     61  C   UNL A   1      43.605  33.029  30.280  1.00  0.00     0.134 A 
ATOM     62  F   UNL A   1      43.878  36.115  32.166  1.00  0.00    -0.206 F 
ATOM     63  C   UNL A   1      45.375  35.130  30.670  1.00  0.00     0.040 A 
ATOM     64  C   UNL A   1      44.859  33.011  29.664  1.00  0.00     0.040 A 
ATOM     65  F   UNL A   1      42.799  31.970  30.097  1.00  0.00    -0.206 F 
ATOM     66  C   UNL A   1      45.744  34.070  29.848  1.00  0.00     0.006 A 
ENDBRANCH  42  59
ENDBRANCH  16  17
ENDBRANCH   9  11
ENDBRANCH   8   9
ENDBRANCH   7   8
ENDBRANCH   6   7
ENDBRANCH   5   6
ENDBRANCH   4   5
ENDBRANCH   3   4
ENDBRANCH   2   3
ENDBRANCH   1   2
BRANCH   1  67
ATOM     67  C   UNL A   1      46.452  29.228  27.992  1.00  0.00     0.188 C 
BRANCH  67  68
ATOM     68  O   UNL A   1      46.813  29.753  26.721  1.00  0.00    -0.376 OA
BRANCH  68  69
ATOM     69  C   UNL A   1      46.203  30.942  26.240  1.00  0.00     0.202 C 
BRANCH  69  70
ATOM     70  C   UNL A   1      44.693  31.148  26.438  1.00  0.00     0.261 C 
BRANCH  70  71
ATOM     71  O   UNL A   1      44.294  32.484  26.782  1.00  0.00    -0.460 OA
BRANCH  71  72
ATOM     72  C   UNL A   1      44.167  33.360  25.745  1.00  0.00     0.338 C 
ATOM     73  O   UNL A   1      44.066  33.101  24.572  1.00  0.00    -0.246 OA
BRANCH  72  74
ATOM     74  C   UNL A   1      43.940  34.717  26.310  1.00  0.00     0.060 A 
ATOM     75  C   UNL A   1      45.042  35.418  26.828  1.00  0.00     0.018 A 
ATOM     76  C   UNL A   1      42.686  35.328  26.250  1.00  0.00     0.018 A 
ATOM     77  C   UNL A   1      44.896  36.731  27.286  1.00  0.00     0.029 A 
ATOM     78  C   UNL A   1      42.540  36.646  26.690  1.00  0.00     0.029 A 
ATOM     79  C   UNL A   1      43.642  37.345  27.217  1.00  0.00     0.066 A 
BRANCH  79  80
ATOM     80  N   UNL A   1      43.435  38.638  27.755  1.00  0.00    -0.220 N 
ATOM     81  C   UNL A   1      44.389  39.512  28.252  1.00  0.00     0.141 A 
ATOM     82  N   UNL A   1      42.205  39.092  28.065  1.00  0.00    -0.062 NA
ATOM     83  C   UNL A   1      43.690  40.304  29.137  1.00  0.00     0.093 A 
ATOM     84  N   UNL A   1      42.346  40.115  28.886  1.00  0.00    -0.134 NA
BRANCH  83  85
ATOM     85  C   UNL A   1      43.986  41.069  30.374  1.00  0.00     0.138 C 
BRANCH  85  86
ATOM     86  S   UNL A   1      43.065  41.248  31.877  1.00  0.00    -0.081 SA
BRANCH  86  87
ATOM     87  C   UNL A   1      43.664  40.362  33.235  1.00  0.00     0.176 A 
ATOM     88  N   UNL A   1      42.989  39.261  33.392  1.00  0.00    -0.223 NA
ATOM     89  N   UNL A   1      44.731  40.701  34.057  1.00  0.00    -0.255 N 
ATOM     90  C   UNL A   1      43.279  38.433  34.474  1.00  0.00     0.079 A 
ATOM     91  C   UNL A   1      44.585  40.254  35.382  1.00  0.00     0.266 A 
ATOM     92  C   UNL A   1      42.794  37.127  34.525  1.00  0.00     0.029 A 
ATOM     93  C   UNL A   1      43.962  38.938  35.567  1.00  0.00     0.066 A 
ATOM     94  O   UNL A   1      44.873  40.891  36.397  1.00  0.00    -0.268 OA
ATOM     95  C   UNL A   1      42.943  36.367  35.690  1.00  0.00     0.002 A 
ATOM     96  C   UNL A   1      44.075  38.214  36.755  1.00  0.00     0.016 A 
ATOM     97  C   UNL A   1      43.554  36.922  36.816  1.00  0.00     0.001 A 
BRANCH  89  98
ATOM     98  C   UNL A   1      45.885  41.532  33.735  1.00  0.00     0.051 A 
ATOM     99  C   UNL A   1      47.178  40.965  33.697  1.00  0.00     0.028 A 
ATOM    100  C   UNL A   1      45.825  42.896  33.421  1.00  0.00     0.028 A 
ATOM    101  C   UNL A   1      48.339  41.737  33.578  1.00  0.00     0.018 A 
ATOM    102  C   UNL A   1      46.980  43.692  33.346  1.00  0.00     0.018 A 
ATOM    103  C   UNL A   1      48.234  43.111  33.464  1.00  0.00     0.018 A 
ATOM    104  Br  UNL A   1      49.787  44.180  33.453  1.00  0.00    -0.051 Br
ENDBRANCH  89  98
ENDBRANCH  86  87
ENDBRANCH  85  86
ENDBRANCH  83  85
ENDBRANCH  79  80
ENDBRANCH  72  74
ENDBRANCH  71  72
ENDBRANCH  70  71
ENDBRANCH  69  70
ENDBRANCH  68  69
ENDBRANCH  67  68
ENDBRANCH   1  67
TORSDOF 25
ENDMDL
MODEL 3
REMARK VINA RESULT:      -8.9      7.774     16.992
REMARK SMILES O=C(OCCOCCOCCOCCOC(=O)c1ccc(-n2cc(CSc3nc4ccccc4c(=O)n3-c3ccc(Br)cc3)nn2)cc1)c1ccc(-c2c3nc(c(-c4c(F)cccc4F)c4ccc([nH]4)c(-c4c(F)cccc4F)c4nc(c(-c5c(F)cccc5F)c5ccc2[nH]5)C=C4)C=C3)cc1
REMARK SMILES IDX 10 1 9 2 8 3 7 4 6 5 5 6 4 7 3 8 2 9 1 10 49 11 50 12 102 13
REMARK SMILES IDX 51 14 101 15 52 16 53 17 54 18 95 19 55 20 100 21 94 22
REMARK SMILES IDX 96 23 56 24 99 25 93 26 92 27 57 29 83 30 66 31 82 32 67 33
REMARK SMILES IDX 70 34 81 35 97 36 68 37 69 38 80 40 98 41 71 42 58 43 59 44
REMARK SMILES IDX 64 45 60 46 61 47 63 48 65 49 62 50 84 51 85 52 90 53 86 54
REMARK SMILES IDX 87 55 89 56 91 57 88 58 72 59 73 60 78 61 74 62 75 63 77 64
REMARK SMILES IDX 79 65 76 66 11 67 12 68 13 69 14 70 15 71 16 72 17 73 18 74
REMARK SMILES IDX 19 75 48 76 20 77 47 78 21 79 22 80 23 81 46 82 24 83 45 84
REMARK SMILES IDX 25 85 26 86 27 87 28 88 37 89 29 90 35 91 30 92 34 93 36 94
REMARK SMILES IDX 31 95 33 96 32 97 38 98 39 99 44 100 40 101 43 102 41 103
REMARK SMILES IDX 42 104
REMARK H PARENT 96 28 70 39
REMARK Flexibility Score: inf
ROOT
ATOM      1  C   UNL A   1      43.514  34.481  25.891  1.00  0.00     0.188 C 
ENDROOT
BRANCH   1   2
ATOM      2  O   UNL A   1      44.888  34.356  26.188  1.00  0.00    -0.377 OA
BRANCH   2   3
ATOM      3  C   UNL A   1      45.620  35.572  26.218  1.00  0.00     0.188 C 
BRANCH   3   4
ATOM      4  C   UNL A   1      46.928  35.539  27.028  1.00  0.00     0.188 C 
BRANCH   4   5
ATOM      5  O   UNL A   1      47.585  36.753  27.398  1.00  0.00    -0.376 OA
BRANCH   5   6
ATOM      6  C   UNL A   1      48.668  36.779  28.301  1.00  0.00     0.202 C 
BRANCH   6   7
ATOM      7  C   UNL A   1      48.315  37.304  29.697  1.00  0.00     0.261 C 
BRANCH   7   8
ATOM      8  O   UNL A   1      48.058  36.316  30.706  1.00  0.00    -0.460 OA
BRANCH   8   9
ATOM      9  C   UNL A   1      47.179  36.339  31.735  1.00  0.00     0.338 C 
ATOM     10  O   UNL A   1      47.527  36.843  32.803  1.00  0.00    -0.246 OA
BRANCH   9  11
ATOM     11  C   UNL A   1      45.836  35.708  31.694  1.00  0.00     0.060 A 
ATOM     12  C   UNL A   1      45.192  35.162  32.804  1.00  0.00     0.016 A 
ATOM     13  C   UNL A   1      45.244  35.584  30.419  1.00  0.00     0.016 A 
ATOM     14  C   UNL A   1      44.045  34.414  32.640  1.00  0.00     0.010 A 
ATOM     15  C   UNL A   1      44.104  34.816  30.245  1.00  0.00     0.010 A 
ATOM     16  C   UNL A   1      43.574  34.165  31.354  1.00  0.00    -0.014 A 
BRANCH  16  17
ATOM     17  C   UNL A   1      42.664  33.041  31.236  1.00  0.00     0.031 A 
ATOM     18  C   UNL A   1      41.319  33.201  31.836  1.00  0.00     0.074 A 
ATOM     19  C   UNL A   1      43.093  31.893  30.680  1.00  0.00     0.049 A 
ATOM     20  N   UNL A   1      40.792  32.534  32.814  1.00  0.00    -0.248 NA
ATOM     21  C   UNL A   1      40.485  34.301  31.334  1.00  0.00     0.031 C 
ATOM     22  C   UNL A   1      44.302  31.671  29.877  1.00  0.00     0.029 A 
ATOM     23  N   UNL A   1      42.476  30.683  30.648  1.00  0.00    -0.354 N 
ATOM     24  C   UNL A   1      39.487  33.006  32.933  1.00  0.00     0.074 A 
ATOM     25  C   UNL A   1      39.392  34.167  32.086  1.00  0.00     0.031 C 
ATOM     26  C   UNL A   1      44.202  30.480  29.249  1.00  0.00     0.029 A 
ATOM     27  C   UNL A   1      43.000  29.811  29.711  1.00  0.00     0.049 A 
ATOM     28  H   UNL A   1      41.724  30.448  31.238  1.00  0.00     0.167 HD
ATOM     29  C   UNL A   1      38.518  32.280  33.553  1.00  0.00     0.037 A 
ATOM     30  C   UNL A   1      42.428  28.665  29.276  1.00  0.00     0.037 A 
ATOM     31  C   UNL A   1      39.069  31.323  34.476  1.00  0.00     0.049 A 
ATOM     32  C   UNL A   1      41.436  28.238  30.293  1.00  0.00     0.074 A 
ATOM     33  C   UNL A   1      39.853  31.403  35.611  1.00  0.00     0.029 A 
ATOM     34  N   UNL A   1      39.078  29.997  34.120  1.00  0.00    -0.354 N 
ATOM     35  N   UNL A   1      41.752  27.792  31.477  1.00  0.00    -0.248 NA
ATOM     36  C   UNL A   1      40.069  28.715  30.153  1.00  0.00     0.031 C 
ATOM     37  C   UNL A   1      40.671  30.236  35.582  1.00  0.00     0.029 A 
ATOM     38  C   UNL A   1      40.316  29.509  34.445  1.00  0.00     0.049 A 
ATOM     39  H   UNL A   1      38.338  29.494  33.709  1.00  0.00     0.167 HD
ATOM     40  C   UNL A   1      40.778  28.306  32.323  1.00  0.00     0.074 A 
ATOM     41  C   UNL A   1      39.717  28.780  31.439  1.00  0.00     0.031 C 
ATOM     42  C   UNL A   1      41.040  28.555  33.640  1.00  0.00     0.037 A 
BRANCH  29  43
ATOM     43  C   UNL A   1      37.096  32.195  33.052  1.00  0.00     0.057 A 
ATOM     44  C   UNL A   1      36.842  31.669  31.772  1.00  0.00     0.134 A 
ATOM     45  C   UNL A   1      36.015  32.886  33.639  1.00  0.00     0.134 A 
ATOM     46  F   UNL A   1      37.792  31.001  31.101  1.00  0.00    -0.206 F 
ATOM     47  C   UNL A   1      35.634  31.884  31.098  1.00  0.00     0.040 A 
ATOM     48  C   UNL A   1      34.789  33.064  32.995  1.00  0.00     0.040 A 
ATOM     49  F   UNL A   1      36.118  33.510  34.819  1.00  0.00    -0.206 F 
ATOM     50  C   UNL A   1      34.605  32.593  31.705  1.00  0.00     0.006 A 
ENDBRANCH  29  43
BRANCH  30  51
ATOM     51  C   UNL A   1      42.457  28.140  27.894  1.00  0.00     0.057 A 
ATOM     52  C   UNL A   1      41.746  28.765  26.864  1.00  0.00     0.134 A 
ATOM     53  C   UNL A   1      43.377  27.150  27.500  1.00  0.00     0.134 A 
ATOM     54  F   UNL A   1      40.884  29.755  27.136  1.00  0.00    -0.206 F 
ATOM     55  C   UNL A   1      41.942  28.427  25.518  1.00  0.00     0.040 A 
ATOM     56  C   UNL A   1      43.573  26.794  26.164  1.00  0.00     0.040 A 
ATOM     57  F   UNL A   1      44.183  26.552  28.390  1.00  0.00    -0.206 F 
ATOM     58  C   UNL A   1      42.861  27.442  25.165  1.00  0.00     0.006 A 
ENDBRANCH  30  51
BRANCH  42  59
ATOM     59  C   UNL A   1      42.330  28.034  34.206  1.00  0.00     0.057 A 
ATOM     60  C   UNL A   1      43.536  28.750  34.159  1.00  0.00     0.134 A 
ATOM     61  C   UNL A   1      42.323  26.852  34.953  1.00  0.00     0.134 A 
ATOM     62  F   UNL A   1      43.607  29.946  33.561  1.00  0.00    -0.206 F 
ATOM     63  C   UNL A   1      44.696  28.282  34.783  1.00  0.00     0.040 A 
ATOM     64  C   UNL A   1      43.468  26.390  35.609  1.00  0.00     0.040 A 
ATOM     65  F   UNL A   1      41.188  26.150  35.099  1.00  0.00    -0.206 F 
ATOM     66  C   UNL A   1      44.662  27.099  35.514  1.00  0.00     0.006 A 
ENDBRANCH  42  59
ENDBRANCH  16  17
ENDBRANCH   9  11
ENDBRANCH   8   9
ENDBRANCH   7   8
ENDBRANCH   6   7
ENDBRANCH   5   6
ENDBRANCH   4   5
ENDBRANCH   3   4
ENDBRANCH   2   3
ENDBRANCH   1   2
BRANCH   1  67
ATOM     67  C   UNL A   1      42.927  35.882  26.179  1.00  0.00     0.188 C 
BRANCH  67  68
ATOM     68  O   UNL A   1      41.932  36.067  27.177  1.00  0.00    -0.376 OA
BRANCH  68  69
ATOM     69  C   UNL A   1      42.117  37.038  28.198  1.00  0.00     0.202 C 
BRANCH  69  70
ATOM     70  C   UNL A   1      43.379  37.915  28.186  1.00  0.00     0.261 C 
BRANCH  70  71
ATOM     71  O   UNL A   1      43.253  39.184  28.846  1.00  0.00    -0.460 OA
BRANCH  71  72
ATOM     72  C   UNL A   1      42.147  39.918  28.533  1.00  0.00     0.338 C 
ATOM     73  O   UNL A   1      41.161  40.085  29.208  1.00  0.00    -0.246 OA
BRANCH  72  74
ATOM     74  C   UNL A   1      42.437  40.689  27.295  1.00  0.00     0.060 A 
ATOM     75  C   UNL A   1      43.711  41.263  27.149  1.00  0.00     0.018 A 
ATOM     76  C   UNL A   1      41.509  40.770  26.257  1.00  0.00     0.018 A 
ATOM     77  C   UNL A   1      44.063  41.918  25.965  1.00  0.00     0.029 A 
ATOM     78  C   UNL A   1      41.862  41.409  25.065  1.00  0.00     0.029 A 
ATOM     79  C   UNL A   1      43.135  41.992  24.922  1.00  0.00     0.066 A 
BRANCH  79  80
ATOM     80  N   UNL A   1      43.420  42.726  23.746  1.00  0.00    -0.220 N 
ATOM     81  C   UNL A   1      43.088  42.398  22.441  1.00  0.00     0.141 A 
ATOM     82  N   UNL A   1      44.284  43.760  23.743  1.00  0.00    -0.062 NA
ATOM     83  C   UNL A   1      44.032  43.052  21.679  1.00  0.00     0.093 A 
ATOM     84  N   UNL A   1      44.647  43.981  22.494  1.00  0.00    -0.134 NA
BRANCH  83  85
ATOM     85  C   UNL A   1      44.686  42.857  20.361  1.00  0.00     0.138 C 
BRANCH  85  86
ATOM     86  S   UNL A   1      45.947  43.793  19.541  1.00  0.00    -0.081 SA
BRANCH  86  87
ATOM     87  C   UNL A   1      45.459  45.337  18.932  1.00  0.00     0.176 A 
ATOM     88  N   UNL A   1      44.222  45.298  18.536  1.00  0.00    -0.223 NA
ATOM     89  N   UNL A   1      46.218  46.499  18.881  1.00  0.00    -0.255 N 
ATOM     90  C   UNL A   1      43.657  46.430  17.953  1.00  0.00     0.079 A 
ATOM     91  C   UNL A   1      45.893  47.336  17.798  1.00  0.00     0.266 A 
ATOM     92  C   UNL A   1      42.278  46.532  17.778  1.00  0.00     0.029 A 
ATOM     93  C   UNL A   1      44.473  47.421  17.437  1.00  0.00     0.066 A 
ATOM     94  O   UNL A   1      46.695  47.950  17.092  1.00  0.00    -0.268 OA
ATOM     95  C   UNL A   1      41.740  47.589  17.037  1.00  0.00     0.002 A 
ATOM     96  C   UNL A   1      43.960  48.455  16.651  1.00  0.00     0.016 A 
ATOM     97  C   UNL A   1      42.583  48.532  16.446  1.00  0.00     0.001 A 
BRANCH  89  98
ATOM     98  C   UNL A   1      47.343  46.876  19.728  1.00  0.00     0.051 A 
ATOM     99  C   UNL A   1      47.225  47.964  20.620  1.00  0.00     0.028 A 
ATOM    100  C   UNL A   1      48.578  46.214  19.758  1.00  0.00     0.028 A 
ATOM    101  C   UNL A   1      48.317  48.490  21.320  1.00  0.00     0.018 A 
ATOM    102  C   UNL A   1      49.694  46.756  20.417  1.00  0.00     0.018 A 
ATOM    103  C   UNL A   1      49.565  47.916  21.166  1.00  0.00     0.018 A 
ATOM    104  Br  UNL A   1      51.074  48.699  21.982  1.00  0.00    -0.051 Br
ENDBRANCH  89  98
ENDBRANCH  86  87
ENDBRANCH  85  86
ENDBRANCH  83  85
ENDBRANCH  79  80
ENDBRANCH  72  74
ENDBRANCH  71  72
ENDBRANCH  70  71
ENDBRANCH  69  70
ENDBRANCH  68  69
ENDBRANCH  67  68
ENDBRANCH   1  67
TORSDOF 25
ENDMDL
