MODEL 1
REMARK VINA RESULT:      -9.7      0.000      0.000
REMARK SMILES O=C(N[C@@H](Cc1ccc(O)cc1)C(=O)N[C@@H](CO)C(=O)OCCOCCOCCOCCOC(=O)c1ccc(-c2c3nc(c(-c4c(F)cccc4F)c4ccc([nH]4)c(-c4c(F)cccc4F)c4nc(c(-c5c(F)cccc5F)c5ccc2[nH]5)C=C4)C=C3)cc1)c1ccc(F)cc1
REMARK SMILES IDX 25 1 24 2 23 3 22 4 21 5 19 6 20 7 16 8 15 9 13 10 14 11
REMARK SMILES IDX 4 13 3 14 1 15 2 16 90 18 91 19 96 20 92 21 95 22 93 23
REMARK SMILES IDX 94 24 5 25 6 26 7 27 12 28 8 29 11 30 9 31 10 32 17 34 18 35
REMARK SMILES IDX 26 37 27 38 28 39 29 40 30 41 31 42 32 43 33 44 34 45 35 46
REMARK SMILES IDX 36 47 37 48 89 49 38 50 88 51 39 52 40 53 41 54 82 55 42 56
REMARK SMILES IDX 87 57 81 58 83 59 43 60 86 61 80 62 79 63 44 65 70 66 53 67
REMARK SMILES IDX 69 68 54 69 57 70 68 71 84 72 55 73 56 74 67 76 85 77 58 78
REMARK SMILES IDX 45 79 46 80 51 81 47 82 48 83 50 84 52 85 49 86 71 87 72 88
REMARK SMILES IDX 77 89 73 90 74 91 76 92 78 93 75 94 59 95 60 96 65 97 61 98
REMARK SMILES IDX 62 99 64 100 66 101 63 102
REMARK H PARENT 15 12 3 17 10 33 18 36 83 64 57 75
REMARK Flexibility Score: inf
ROOT
ATOM      1  C   UNL A   1      37.907  23.246  25.695  1.00  0.00     0.188 C 
ENDROOT
BRANCH   1   2
ATOM      2  O   UNL A   1      36.516  23.246  25.404  1.00  0.00    -0.376 OA
BRANCH   2   3
ATOM      3  C   UNL A   1      36.211  22.775  24.094  1.00  0.00     0.202 C 
BRANCH   3   4
ATOM      4  C   UNL A   1      34.723  22.476  23.870  1.00  0.00     0.261 C 
BRANCH   4   5
ATOM      5  O   UNL A   1      34.299  21.170  24.321  1.00  0.00    -0.462 OA
BRANCH   5   6
ATOM      6  C   UNL A   1      33.104  21.071  24.958  1.00  0.00     0.331 C 
ATOM      7  O   UNL A   1      32.158  20.408  24.541  1.00  0.00    -0.250 OA
BRANCH   6   8
ATOM      8  C   UNL A   1      33.037  21.959  26.230  1.00  0.00     0.218 C 
BRANCH   8   9
ATOM      9  N   UNL A   1      31.706  22.359  26.707  1.00  0.00    -0.339 N 
ATOM     10  C   UNL A   1      31.019  23.533  26.701  1.00  0.00     0.243 C 
ATOM     11  O   UNL A   1      29.901  23.497  27.235  1.00  0.00    -0.273 OA
ATOM     12  H   UNL A   1      31.204  21.619  27.119  1.00  0.00     0.164 HD
BRANCH  10  13
ATOM     13  C   UNL A   1      31.507  24.889  26.109  1.00  0.00     0.176 C 
BRANCH  13  14
ATOM     14  N   UNL A   1      31.367  26.002  27.039  1.00  0.00    -0.340 N 
ATOM     15  O   UNL A   1      31.321  28.146  27.694  1.00  0.00    -0.269 OA
ATOM     16  C   UNL A   1      31.222  27.343  26.770  1.00  0.00     0.251 C 
ATOM     17  H   UNL A   1      31.378  25.761  27.994  1.00  0.00     0.164 HD
BRANCH  16  18
ATOM     18  C   UNL A   1      30.975  27.847  25.394  1.00  0.00     0.040 A 
ATOM     19  C   UNL A   1      29.899  27.389  24.618  1.00  0.00     0.017 A 
ATOM     20  C   UNL A   1      31.790  28.879  24.908  1.00  0.00     0.017 A 
ATOM     21  C   UNL A   1      29.685  27.914  23.340  1.00  0.00     0.040 A 
ATOM     22  C   UNL A   1      31.560  29.415  23.637  1.00  0.00     0.040 A 
ATOM     23  C   UNL A   1      30.517  28.922  22.862  1.00  0.00     0.123 A 
ATOM     24  F   UNL A   1      30.299  29.434  21.643  1.00  0.00    -0.207 F 
ENDBRANCH  16  18
ENDBRANCH  13  14
BRANCH  13  25
ATOM     25  C   UNL A   1      32.756  24.947  25.186  1.00  0.00     0.070 C 
BRANCH  25  26
ATOM     26  C   UNL A   1      32.714  25.470  23.770  1.00  0.00    -0.045 A 
ATOM     27  C   UNL A   1      33.607  26.413  23.265  1.00  0.00     0.007 A 
ATOM     28  C   UNL A   1      31.704  25.004  22.908  1.00  0.00     0.007 A 
ATOM     29  C   UNL A   1      33.717  26.610  21.886  1.00  0.00     0.046 A 
ATOM     30  C   UNL A   1      31.769  25.245  21.533  1.00  0.00     0.046 A 
ATOM     31  C   UNL A   1      32.844  25.955  21.030  1.00  0.00     0.115 A 
BRANCH  31  32
ATOM     32  O   UNL A   1      33.069  25.936  19.687  1.00  0.00    -0.508 OA
ATOM     33  H   UNL A   1      32.362  26.085  19.091  1.00  0.00     0.293 HD
ENDBRANCH  31  32
ENDBRANCH  25  26
ENDBRANCH  13  25
ENDBRANCH  10  13
ENDBRANCH   8   9
BRANCH   8  34
ATOM     34  C   UNL A   1      33.804  21.232  27.342  1.00  0.00     0.193 C 
BRANCH  34  35
ATOM     35  O   UNL A   1      35.212  21.429  27.228  1.00  0.00    -0.394 OA
ATOM     36  H   UNL A   1      35.639  21.197  28.067  1.00  0.00     0.210 HD
ENDBRANCH  34  35
ENDBRANCH   8  34
ENDBRANCH   6   8
ENDBRANCH   5   6
ENDBRANCH   4   5
ENDBRANCH   3   4
ENDBRANCH   2   3
ENDBRANCH   1   2
BRANCH   1  37
ATOM     37  C   UNL A   1      38.556  21.870  25.813  1.00  0.00     0.188 C 
BRANCH  37  38
ATOM     38  O   UNL A   1      39.932  21.803  26.116  1.00  0.00    -0.377 OA
BRANCH  38  39
ATOM     39  C   UNL A   1      40.380  20.673  26.851  1.00  0.00     0.188 C 
BRANCH  39  40
ATOM     40  C   UNL A   1      41.171  19.559  26.132  1.00  0.00     0.188 C 
BRANCH  40  41
ATOM     41  O   UNL A   1      42.528  19.421  26.537  1.00  0.00    -0.376 OA
BRANCH  41  42
ATOM     42  C   UNL A   1      43.524  19.785  25.591  1.00  0.00     0.202 C 
BRANCH  42  43
ATOM     43  C   UNL A   1      43.639  21.286  25.302  1.00  0.00     0.261 C 
BRANCH  43  44
ATOM     44  O   UNL A   1      44.333  22.059  26.294  1.00  0.00    -0.460 OA
BRANCH  44  45
ATOM     45  C   UNL A   1      43.610  22.883  27.090  1.00  0.00     0.338 C 
ATOM     46  O   UNL A   1      42.770  22.584  27.904  1.00  0.00    -0.246 OA
BRANCH  45  47
ATOM     47  C   UNL A   1      44.195  24.233  26.931  1.00  0.00     0.060 A 
ATOM     48  C   UNL A   1      44.221  24.819  25.657  1.00  0.00     0.016 A 
ATOM     49  C   UNL A   1      44.637  24.941  28.050  1.00  0.00     0.016 A 
ATOM     50  C   UNL A   1      44.709  26.116  25.498  1.00  0.00     0.010 A 
ATOM     51  C   UNL A   1      45.157  26.224  27.886  1.00  0.00     0.010 A 
ATOM     52  C   UNL A   1      45.223  26.802  26.606  1.00  0.00    -0.014 A 
BRANCH  52  53
ATOM     53  C   UNL A   1      46.079  27.994  26.412  1.00  0.00     0.031 A 
ATOM     54  C   UNL A   1      47.548  27.754  26.198  1.00  0.00     0.074 A 
ATOM     55  C   UNL A   1      45.592  29.244  26.471  1.00  0.00     0.049 A 
ATOM     56  N   UNL A   1      48.533  28.610  26.143  1.00  0.00    -0.248 NA
ATOM     57  C   UNL A   1      47.957  26.348  26.032  1.00  0.00     0.031 C 
ATOM     58  C   UNL A   1      44.186  29.603  26.629  1.00  0.00     0.029 A 
ATOM     59  N   UNL A   1      46.248  30.450  26.426  1.00  0.00    -0.354 N 
ATOM     60  C   UNL A   1      49.676  27.847  25.948  1.00  0.00     0.074 A 
ATOM     61  C   UNL A   1      49.270  26.461  25.912  1.00  0.00     0.031 C 
ATOM     62  C   UNL A   1      44.086  30.944  26.695  1.00  0.00     0.029 A 
ATOM     63  C   UNL A   1      45.424  31.531  26.621  1.00  0.00     0.049 A 
ATOM     64  H   UNL A   1      47.216  30.532  26.268  1.00  0.00     0.167 HD
ATOM     65  C   UNL A   1      50.955  28.265  25.813  1.00  0.00     0.037 A 
ATOM     66  C   UNL A   1      45.728  32.837  26.761  1.00  0.00     0.037 A 
ATOM     67  C   UNL A   1      51.360  29.640  25.868  1.00  0.00     0.049 A 
ATOM     68  C   UNL A   1      47.171  33.272  26.695  1.00  0.00     0.074 A 
ATOM     69  C   UNL A   1      52.630  30.171  25.739  1.00  0.00     0.029 A 
ATOM     70  N   UNL A   1      50.497  30.704  26.084  1.00  0.00    -0.354 N 
ATOM     71  N   UNL A   1      48.247  32.550  26.489  1.00  0.00    -0.248 NA
ATOM     72  C   UNL A   1      47.445  34.705  26.890  1.00  0.00     0.031 C 
ATOM     73  C   UNL A   1      52.543  31.553  25.922  1.00  0.00     0.029 A 
ATOM     74  C   UNL A   1      51.212  31.888  26.115  1.00  0.00     0.049 A 
ATOM     75  H   UNL A   1      49.522  30.628  26.198  1.00  0.00     0.167 HD
ATOM     76  C   UNL A   1      49.314  33.440  26.494  1.00  0.00     0.074 A 
ATOM     77  C   UNL A   1      48.759  34.758  26.724  1.00  0.00     0.031 C 
ATOM     78  C   UNL A   1      50.635  33.192  26.320  1.00  0.00     0.037 A 
BRANCH  65  79
ATOM     79  C   UNL A   1      52.003  27.210  25.629  1.00  0.00     0.057 A 
ATOM     80  C   UNL A   1      52.613  26.577  26.720  1.00  0.00     0.134 A 
ATOM     81  C   UNL A   1      52.401  26.819  24.345  1.00  0.00     0.134 A 
ATOM     82  F   UNL A   1      52.291  26.925  27.976  1.00  0.00    -0.206 F 
ATOM     83  C   UNL A   1      53.598  25.606  26.539  1.00  0.00     0.040 A 
ATOM     84  C   UNL A   1      53.368  25.832  24.153  1.00  0.00     0.040 A 
ATOM     85  F   UNL A   1      51.858  27.391  23.260  1.00  0.00    -0.206 F 
ATOM     86  C   UNL A   1      53.973  25.226  25.251  1.00  0.00     0.006 A 
ENDBRANCH  65  79
BRANCH  66  87
ATOM     87  C   UNL A   1      44.655  33.835  27.004  1.00  0.00     0.057 A 
ATOM     88  C   UNL A   1      44.256  34.167  28.303  1.00  0.00     0.134 A 
ATOM     89  C   UNL A   1      43.979  34.454  25.944  1.00  0.00     0.134 A 
ATOM     90  F   UNL A   1      44.844  33.588  29.359  1.00  0.00    -0.206 F 
ATOM     91  C   UNL A   1      43.212  35.065  28.542  1.00  0.00     0.040 A 
ATOM     92  C   UNL A   1      42.951  35.372  26.169  1.00  0.00     0.040 A 
ATOM     93  F   UNL A   1      44.310  34.175  24.675  1.00  0.00    -0.206 F 
ATOM     94  C   UNL A   1      42.560  35.673  27.471  1.00  0.00     0.006 A 
ENDBRANCH  66  87
BRANCH  78  95
ATOM     95  C   UNL A   1      51.574  34.362  26.315  1.00  0.00     0.057 A 
ATOM     96  C   UNL A   1      52.206  34.810  27.481  1.00  0.00     0.134 A 
ATOM     97  C   UNL A   1      51.914  34.989  25.109  1.00  0.00     0.134 A 
ATOM     98  F   UNL A   1      51.916  34.256  28.667  1.00  0.00    -0.206 F 
ATOM     99  C   UNL A   1      53.141  35.847  27.447  1.00  0.00     0.040 A 
ATOM    100  C   UNL A   1      52.864  36.010  25.060  1.00  0.00     0.040 A 
ATOM    101  F   UNL A   1      51.351  34.599  23.956  1.00  0.00    -0.206 F 
ATOM    102  C   UNL A   1      53.479  36.442  26.234  1.00  0.00     0.006 A 
ENDBRANCH  78  95
ENDBRANCH  52  53
ENDBRANCH  45  47
ENDBRANCH  44  45
ENDBRANCH  43  44
ENDBRANCH  42  43
ENDBRANCH  41  42
ENDBRANCH  40  41
ENDBRANCH  39  40
ENDBRANCH  38  39
ENDBRANCH  37  38
ENDBRANCH   1  37
TORSDOF 29
ENDMDL
MODEL 2
REMARK VINA RESULT:      -9.7      0.988      2.205
REMARK SMILES O=C(N[C@@H](Cc1ccc(O)cc1)C(=O)N[C@@H](CO)C(=O)OCCOCCOCCOCCOC(=O)c1ccc(-c2c3nc(c(-c4c(F)cccc4F)c4ccc([nH]4)c(-c4c(F)cccc4F)c4nc(c(-c5c(F)cccc5F)c5ccc2[nH]5)C=C4)C=C3)cc1)c1ccc(F)cc1
REMARK SMILES IDX 25 1 24 2 23 3 22 4 21 5 19 6 20 7 16 8 15 9 13 10 14 11
REMARK SMILES IDX 4 13 3 14 1 15 2 16 90 18 91 19 96 20 92 21 95 22 93 23
REMARK SMILES IDX 94 24 5 25 6 26 7 27 12 28 8 29 11 30 9 31 10 32 17 34 18 35
REMARK SMILES IDX 26 37 27 38 28 39 29 40 30 41 31 42 32 43 33 44 34 45 35 46
REMARK SMILES IDX 36 47 37 48 89 49 38 50 88 51 39 52 40 53 41 54 82 55 42 56
REMARK SMILES IDX 87 57 81 58 83 59 43 60 86 61 80 62 79 63 44 65 70 66 53 67
REMARK SMILES IDX 69 68 54 69 57 70 68 71 84 72 55 73 56 74 67 76 85 77 58 78
REMARK SMILES IDX 45 79 46 80 51 81 47 82 48 83 50 84 52 85 49 86 71 87 72 88
REMARK SMILES IDX 77 89 73 90 74 91 76 92 78 93 75 94 59 95 60 96 65 97 61 98
REMARK SMILES IDX 62 99 64 100 66 101 63 102
REMARK H PARENT 15 12 3 17 10 33 18 36 83 64 57 75
REMARK Flexibility Score: inf
ROOT
ATOM      1  C   UNL A   1      37.782  23.303  25.585  1.00  0.00     0.188 C 
ENDROOT
BRANCH   1   2
ATOM      2  O   UNL A   1      36.452  23.338  25.087  1.00  0.00    -0.376 OA
BRANCH   2   3
ATOM      3  C   UNL A   1      36.151  22.266  24.196  1.00  0.00     0.202 C 
BRANCH   3   4
ATOM      4  C   UNL A   1      34.656  21.931  24.107  1.00  0.00     0.261 C 
BRANCH   4   5
ATOM      5  O   UNL A   1      34.209  20.925  25.042  1.00  0.00    -0.462 OA
BRANCH   5   6
ATOM      6  C   UNL A   1      32.969  21.056  25.579  1.00  0.00     0.331 C 
ATOM      7  O   UNL A   1      32.005  20.369  25.254  1.00  0.00    -0.250 OA
BRANCH   6   8
ATOM      8  C   UNL A   1      32.886  22.232  26.591  1.00  0.00     0.218 C 
BRANCH   8   9
ATOM      9  N   UNL A   1      31.552  22.619  27.069  1.00  0.00    -0.339 N 
ATOM     10  C   UNL A   1      30.593  23.463  26.600  1.00  0.00     0.243 C 
ATOM     11  O   UNL A   1      29.579  23.562  27.307  1.00  0.00    -0.273 OA
ATOM     12  H   UNL A   1      31.296  22.173  27.909  1.00  0.00     0.164 HD
BRANCH  10  13
ATOM     13  C   UNL A   1      30.661  24.306  25.292  1.00  0.00     0.176 C 
BRANCH  13  14
ATOM     14  N   UNL A   1      31.120  23.539  24.140  1.00  0.00    -0.340 N 
ATOM     15  O   UNL A   1      32.038  23.203  22.122  1.00  0.00    -0.269 OA
ATOM     16  C   UNL A   1      31.927  23.937  23.101  1.00  0.00     0.251 C 
ATOM     17  H   UNL A   1      30.809  22.605  24.102  1.00  0.00     0.164 HD
BRANCH  16  18
ATOM     18  C   UNL A   1      32.648  25.236  23.118  1.00  0.00     0.040 A 
ATOM     19  C   UNL A   1      33.551  25.572  24.139  1.00  0.00     0.017 A 
ATOM     20  C   UNL A   1      32.486  26.101  22.025  1.00  0.00     0.017 A 
ATOM     21  C   UNL A   1      34.232  26.792  24.097  1.00  0.00     0.040 A 
ATOM     22  C   UNL A   1      33.183  27.312  21.979  1.00  0.00     0.040 A 
ATOM     23  C   UNL A   1      34.042  27.650  23.019  1.00  0.00     0.123 A 
ATOM     24  F   UNL A   1      34.707  28.812  22.975  1.00  0.00    -0.207 F 
ENDBRANCH  16  18
ENDBRANCH  13  14
BRANCH  13  25
ATOM     25  C   UNL A   1      29.581  25.380  24.985  1.00  0.00     0.070 C 
BRANCH  25  26
ATOM     26  C   UNL A   1      29.911  26.761  24.470  1.00  0.00    -0.045 A 
ATOM     27  C   UNL A   1      29.294  27.345  23.366  1.00  0.00     0.007 A 
ATOM     28  C   UNL A   1      30.917  27.501  25.119  1.00  0.00     0.007 A 
ATOM     29  C   UNL A   1      29.409  28.719  23.140  1.00  0.00     0.046 A 
ATOM     30  C   UNL A   1      31.084  28.864  24.859  1.00  0.00     0.046 A 
ATOM     31  C   UNL A   1      30.244  29.477  23.947  1.00  0.00     0.115 A 
BRANCH  31  32
ATOM     32  O   UNL A   1      30.200  30.838  23.912  1.00  0.00    -0.508 OA
ATOM     33  H   UNL A   1      29.495  31.295  24.326  1.00  0.00     0.293 HD
ENDBRANCH  31  32
ENDBRANCH  25  26
ENDBRANCH  13  25
ENDBRANCH  10  13
ENDBRANCH   8   9
BRANCH   8  34
ATOM     34  C   UNL A   1      33.796  21.887  27.776  1.00  0.00     0.193 C 
BRANCH  34  35
ATOM     35  O   UNL A   1      35.162  22.186  27.498  1.00  0.00    -0.394 OA
ATOM     36  H   UNL A   1      35.603  22.473  28.313  1.00  0.00     0.210 HD
ENDBRANCH  34  35
ENDBRANCH   8  34
ENDBRANCH   6   8
ENDBRANCH   5   6
ENDBRANCH   4   5
ENDBRANCH   3   4
ENDBRANCH   2   3
ENDBRANCH   1   2
BRANCH   1  37
ATOM     37  C   UNL A   1      38.385  21.911  25.756  1.00  0.00     0.188 C 
BRANCH  37  38
ATOM     38  O   UNL A   1      39.783  21.802  25.913  1.00  0.00    -0.377 OA
BRANCH  38  39
ATOM     39  C   UNL A   1      40.262  20.761  26.752  1.00  0.00     0.188 C 
BRANCH  39  40
ATOM     40  C   UNL A   1      41.036  19.577  26.131  1.00  0.00     0.188 C 
BRANCH  40  41
ATOM     41  O   UNL A   1      42.389  19.452  26.551  1.00  0.00    -0.376 OA
BRANCH  41  42
ATOM     42  C   UNL A   1      43.394  19.768  25.597  1.00  0.00     0.202 C 
BRANCH  42  43
ATOM     43  C   UNL A   1      43.624  21.265  25.357  1.00  0.00     0.261 C 
BRANCH  43  44
ATOM     44  O   UNL A   1      44.330  21.960  26.397  1.00  0.00    -0.460 OA
BRANCH  44  45
ATOM     45  C   UNL A   1      43.631  22.788  27.209  1.00  0.00     0.338 C 
ATOM     46  O   UNL A   1      42.812  22.494  28.046  1.00  0.00    -0.246 OA
BRANCH  45  47
ATOM     47  C   UNL A   1      44.215  24.136  27.032  1.00  0.00     0.060 A 
ATOM     48  C   UNL A   1      44.218  24.714  25.754  1.00  0.00     0.016 A 
ATOM     49  C   UNL A   1      44.679  24.850  28.138  1.00  0.00     0.016 A 
ATOM     50  C   UNL A   1      44.706  26.010  25.578  1.00  0.00     0.010 A 
ATOM     51  C   UNL A   1      45.199  26.131  27.957  1.00  0.00     0.010 A 
ATOM     52  C   UNL A   1      45.242  26.702  26.672  1.00  0.00    -0.014 A 
BRANCH  52  53
ATOM     53  C   UNL A   1      46.096  27.890  26.456  1.00  0.00     0.031 A 
ATOM     54  C   UNL A   1      47.567  27.649  26.258  1.00  0.00     0.074 A 
ATOM     55  C   UNL A   1      45.605  29.140  26.480  1.00  0.00     0.049 A 
ATOM     56  N   UNL A   1      48.550  28.506  26.189  1.00  0.00    -0.248 NA
ATOM     57  C   UNL A   1      47.981  26.241  26.129  1.00  0.00     0.031 C 
ATOM     58  C   UNL A   1      44.197  29.500  26.620  1.00  0.00     0.029 A 
ATOM     59  N   UNL A   1      46.259  30.346  26.411  1.00  0.00    -0.354 N 
ATOM     60  C   UNL A   1      49.696  27.742  26.021  1.00  0.00     0.074 A 
ATOM     61  C   UNL A   1      49.294  26.354  26.015  1.00  0.00     0.031 C 
ATOM     62  C   UNL A   1      44.093  30.842  26.652  1.00  0.00     0.029 A 
ATOM     63  C   UNL A   1      45.430  31.430  26.574  1.00  0.00     0.049 A 
ATOM     64  H   UNL A   1      47.227  30.427  26.258  1.00  0.00     0.167 HD
ATOM     65  C   UNL A   1      50.975  28.160  25.884  1.00  0.00     0.037 A 
ATOM     66  C   UNL A   1      45.730  32.739  26.684  1.00  0.00     0.037 A 
ATOM     67  C   UNL A   1      51.377  29.538  25.909  1.00  0.00     0.049 A 
ATOM     68  C   UNL A   1      47.173  33.177  26.618  1.00  0.00     0.074 A 
ATOM     69  C   UNL A   1      52.646  30.068  25.776  1.00  0.00     0.029 A 
ATOM     70  N   UNL A   1      50.509  30.604  26.093  1.00  0.00    -0.354 N 
ATOM     71  N   UNL A   1      48.251  32.453  26.437  1.00  0.00    -0.248 NA
ATOM     72  C   UNL A   1      47.441  34.615  26.780  1.00  0.00     0.031 C 
ATOM     73  C   UNL A   1      52.554  31.454  25.925  1.00  0.00     0.029 A 
ATOM     74  C   UNL A   1      51.220  31.790  26.100  1.00  0.00     0.049 A 
ATOM     75  H   UNL A   1      49.533  30.528  26.202  1.00  0.00     0.167 HD
ATOM     76  C   UNL A   1      49.316  33.346  26.428  1.00  0.00     0.074 A 
ATOM     77  C   UNL A   1      48.756  34.667  26.622  1.00  0.00     0.031 C 
ATOM     78  C   UNL A   1      50.639  33.097  26.270  1.00  0.00     0.037 A 
BRANCH  65  79
ATOM     79  C   UNL A   1      52.027  27.104  25.734  1.00  0.00     0.057 A 
ATOM     80  C   UNL A   1      52.668  26.536  26.843  1.00  0.00     0.134 A 
ATOM     81  C   UNL A   1      52.398  26.645  24.464  1.00  0.00     0.134 A 
ATOM     82  F   UNL A   1      52.373  26.950  28.085  1.00  0.00    -0.206 F 
ATOM     83  C   UNL A   1      53.657  25.563  26.692  1.00  0.00     0.040 A 
ATOM     84  C   UNL A   1      53.369  25.656  24.303  1.00  0.00     0.040 A 
ATOM     85  F   UNL A   1      51.825  27.153  23.362  1.00  0.00    -0.206 F 
ATOM     86  C   UNL A   1      54.004  25.116  25.418  1.00  0.00     0.006 A 
ENDBRANCH  65  79
BRANCH  66  87
ATOM     87  C   UNL A   1      44.652  33.740  26.895  1.00  0.00     0.057 A 
ATOM     88  C   UNL A   1      44.248  34.108  28.183  1.00  0.00     0.134 A 
ATOM     89  C   UNL A   1      43.978  34.327  25.816  1.00  0.00     0.134 A 
ATOM     90  F   UNL A   1      44.834  33.560  29.257  1.00  0.00    -0.206 F 
ATOM     91  C   UNL A   1      43.200  35.008  28.393  1.00  0.00     0.040 A 
ATOM     92  C   UNL A   1      42.946  35.247  26.011  1.00  0.00     0.040 A 
ATOM     93  F   UNL A   1      44.315  34.013  24.556  1.00  0.00    -0.206 F 
ATOM     94  C   UNL A   1      42.550  35.584  27.303  1.00  0.00     0.006 A 
ENDBRANCH  66  87
BRANCH  78  95
ATOM     95  C   UNL A   1      51.575  34.270  26.243  1.00  0.00     0.057 A 
ATOM     96  C   UNL A   1      51.868  34.957  25.060  1.00  0.00     0.134 A 
ATOM     97  C   UNL A   1      52.117  34.768  27.436  1.00  0.00     0.134 A 
ATOM     98  F   UNL A   1      51.386  34.525  23.885  1.00  0.00    -0.206 F 
ATOM     99  C   UNL A   1      52.675  36.097  25.063  1.00  0.00     0.040 A 
ATOM    100  C   UNL A   1      52.904  35.919  27.454  1.00  0.00     0.040 A 
ATOM    101  F   UNL A   1      51.864  34.160  28.605  1.00  0.00    -0.206 F 
ATOM    102  C   UNL A   1      53.186  36.586  26.264  1.00  0.00     0.006 A 
ENDBRANCH  78  95
ENDBRANCH  52  53
ENDBRANCH  45  47
ENDBRANCH  44  45
ENDBRANCH  43  44
ENDBRANCH  42  43
ENDBRANCH  41  42
ENDBRANCH  40  41
ENDBRANCH  39  40
ENDBRANCH  38  39
ENDBRANCH  37  38
ENDBRANCH   1  37
TORSDOF 29
ENDMDL
MODEL 3
REMARK VINA RESULT:      -9.5      3.730      8.382
REMARK SMILES O=C(N[C@@H](Cc1ccc(O)cc1)C(=O)N[C@@H](CO)C(=O)OCCOCCOCCOCCOC(=O)c1ccc(-c2c3nc(c(-c4c(F)cccc4F)c4ccc([nH]4)c(-c4c(F)cccc4F)c4nc(c(-c5c(F)cccc5F)c5ccc2[nH]5)C=C4)C=C3)cc1)c1ccc(F)cc1
REMARK SMILES IDX 25 1 24 2 23 3 22 4 21 5 19 6 20 7 16 8 15 9 13 10 14 11
REMARK SMILES IDX 4 13 3 14 1 15 2 16 90 18 91 19 96 20 92 21 95 22 93 23
REMARK SMILES IDX 94 24 5 25 6 26 7 27 12 28 8 29 11 30 9 31 10 32 17 34 18 35
REMARK SMILES IDX 26 37 27 38 28 39 29 40 30 41 31 42 32 43 33 44 34 45 35 46
REMARK SMILES IDX 36 47 37 48 89 49 38 50 88 51 39 52 40 53 41 54 82 55 42 56
REMARK SMILES IDX 87 57 81 58 83 59 43 60 86 61 80 62 79 63 44 65 70 66 53 67
REMARK SMILES IDX 69 68 54 69 57 70 68 71 84 72 55 73 56 74 67 76 85 77 58 78
REMARK SMILES IDX 45 79 46 80 51 81 47 82 48 83 50 84 52 85 49 86 71 87 72 88
REMARK SMILES IDX 77 89 73 90 74 91 76 92 78 93 75 94 59 95 60 96 65 97 61 98
REMARK SMILES IDX 62 99 64 100 66 101 63 102
REMARK H PARENT 15 12 3 17 10 33 18 36 83 64 57 75
REMARK Flexibility Score: inf
ROOT
ATOM      1  C   UNL A   1      31.354  31.878  26.527  1.00  0.00     0.188 C 
ENDROOT
BRANCH   1   2
ATOM      2  O   UNL A   1      30.653  31.454  25.367  1.00  0.00    -0.376 OA
BRANCH   2   3
ATOM      3  C   UNL A   1      31.021  30.150  24.926  1.00  0.00     0.202 C 
BRANCH   3   4
ATOM      4  C   UNL A   1      30.144  29.603  23.792  1.00  0.00     0.261 C 
BRANCH   4   5
ATOM      5  O   UNL A   1      30.878  29.089  22.659  1.00  0.00    -0.462 OA
BRANCH   5   6
ATOM      6  C   UNL A   1      31.486  27.882  22.786  1.00  0.00     0.331 C 
ATOM      7  O   UNL A   1      30.882  26.815  22.860  1.00  0.00    -0.250 OA
BRANCH   6   8
ATOM      8  C   UNL A   1      33.028  28.007  22.913  1.00  0.00     0.218 C 
BRANCH   8   9
ATOM      9  N   UNL A   1      33.597  28.021  24.268  1.00  0.00    -0.339 N 
ATOM     10  C   UNL A   1      33.827  27.058  25.201  1.00  0.00     0.243 C 
ATOM     11  O   UNL A   1      34.306  27.459  26.272  1.00  0.00    -0.273 OA
ATOM     12  H   UNL A   1      33.871  28.920  24.564  1.00  0.00     0.164 HD
BRANCH  10  13
ATOM     13  C   UNL A   1      33.536  25.535  25.051  1.00  0.00     0.176 C 
BRANCH  13  14
ATOM     14  N   UNL A   1      32.120  25.209  25.176  1.00  0.00    -0.340 N 
ATOM     15  O   UNL A   1      30.281  23.934  25.041  1.00  0.00    -0.269 OA
ATOM     16  C   UNL A   1      31.506  23.980  25.112  1.00  0.00     0.251 C 
ATOM     17  H   UNL A   1      31.521  25.975  25.327  1.00  0.00     0.164 HD
BRANCH  16  18
ATOM     18  C   UNL A   1      32.281  22.712  25.102  1.00  0.00     0.040 A 
ATOM     19  C   UNL A   1      32.961  22.249  26.240  1.00  0.00     0.017 A 
ATOM     20  C   UNL A   1      32.243  21.919  23.947  1.00  0.00     0.017 A 
ATOM     21  C   UNL A   1      33.652  21.034  26.195  1.00  0.00     0.040 A 
ATOM     22  C   UNL A   1      32.920  20.696  23.913  1.00  0.00     0.040 A 
ATOM     23  C   UNL A   1      33.625  20.269  25.034  1.00  0.00     0.123 A 
ATOM     24  F   UNL A   1      34.274  19.099  25.000  1.00  0.00    -0.207 F 
ENDBRANCH  16  18
ENDBRANCH  13  14
BRANCH  13  25
ATOM     25  C   UNL A   1      34.328  24.673  24.030  1.00  0.00     0.070 C 
BRANCH  25  26
ATOM     26  C   UNL A   1      35.571  23.896  24.392  1.00  0.00    -0.045 A 
ATOM     27  C   UNL A   1      36.296  24.095  25.566  1.00  0.00     0.007 A 
ATOM     28  C   UNL A   1      36.051  22.930  23.488  1.00  0.00     0.007 A 
ATOM     29  C   UNL A   1      37.228  23.144  25.987  1.00  0.00     0.046 A 
ATOM     30  C   UNL A   1      37.028  22.009  23.876  1.00  0.00     0.046 A 
ATOM     31  C   UNL A   1      37.522  22.064  25.167  1.00  0.00     0.115 A 
BRANCH  31  32
ATOM     32  O   UNL A   1      38.236  21.005  25.639  1.00  0.00    -0.508 OA
ATOM     33  H   UNL A   1      38.949  20.661  25.138  1.00  0.00     0.293 HD
ENDBRANCH  31  32
ENDBRANCH  25  26
ENDBRANCH  13  25
ENDBRANCH  10  13
ENDBRANCH   8   9
BRANCH   8  34
ATOM     34  C   UNL A   1      33.654  26.878  22.085  1.00  0.00     0.193 C 
BRANCH  34  35
ATOM     35  O   UNL A   1      32.946  26.663  20.866  1.00  0.00    -0.394 OA
ATOM     36  H   UNL A   1      33.435  27.065  20.132  1.00  0.00     0.210 HD
ENDBRANCH  34  35
ENDBRANCH   8  34
ENDBRANCH   6   8
ENDBRANCH   5   6
ENDBRANCH   4   5
ENDBRANCH   3   4
ENDBRANCH   2   3
ENDBRANCH   1   2
BRANCH   1  37
ATOM     37  C   UNL A   1      32.549  31.017  26.926  1.00  0.00     0.188 C 
BRANCH  37  38
ATOM     38  O   UNL A   1      33.762  31.664  27.249  1.00  0.00    -0.377 OA
BRANCH  38  39
ATOM     39  C   UNL A   1      33.680  32.827  28.060  1.00  0.00     0.188 C 
BRANCH  39  40
ATOM     40  C   UNL A   1      34.832  33.856  28.036  1.00  0.00     0.188 C 
BRANCH  40  41
ATOM     41  O   UNL A   1      36.140  33.300  27.999  1.00  0.00    -0.376 OA
BRANCH  41  42
ATOM     42  C   UNL A   1      37.024  33.658  29.053  1.00  0.00     0.202 C 
BRANCH  42  43
ATOM     43  C   UNL A   1      36.540  33.308  30.465  1.00  0.00     0.261 C 
BRANCH  43  44
ATOM     44  O   UNL A   1      36.993  32.047  30.982  1.00  0.00    -0.460 OA
BRANCH  44  45
ATOM     45  C   UNL A   1      36.648  30.917  30.319  1.00  0.00     0.338 C 
ATOM     46  O   UNL A   1      35.542  30.546  30.005  1.00  0.00    -0.246 OA
BRANCH  45  47
ATOM     47  C   UNL A   1      37.912  30.307  29.851  1.00  0.00     0.060 A 
ATOM     48  C   UNL A   1      38.879  29.935  30.796  1.00  0.00     0.016 A 
ATOM     49  C   UNL A   1      38.097  30.031  28.495  1.00  0.00     0.016 A 
ATOM     50  C   UNL A   1      40.049  29.299  30.379  1.00  0.00     0.010 A 
ATOM     51  C   UNL A   1      39.282  29.429  28.075  1.00  0.00     0.010 A 
ATOM     52  C   UNL A   1      40.274  29.089  29.012  1.00  0.00    -0.014 A 
BRANCH  52  53
ATOM     53  C   UNL A   1      41.634  28.779  28.520  1.00  0.00     0.031 A 
ATOM     54  C   UNL A   1      41.914  27.352  28.136  1.00  0.00     0.074 A 
ATOM     55  C   UNL A   1      42.604  29.706  28.459  1.00  0.00     0.049 A 
ATOM     56  N   UNL A   1      43.044  26.782  27.812  1.00  0.00    -0.248 NA
ATOM     57  C   UNL A   1      40.753  26.444  28.127  1.00  0.00     0.031 C 
ATOM     58  C   UNL A   1      42.445  31.125  28.761  1.00  0.00     0.029 A 
ATOM     59  N   UNL A   1      43.933  29.573  28.138  1.00  0.00    -0.354 N 
ATOM     60  C   UNL A   1      42.731  25.452  27.572  1.00  0.00     0.074 A 
ATOM     61  C   UNL A   1      41.314  25.290  27.804  1.00  0.00     0.031 C 
ATOM     62  C   UNL A   1      43.641  31.732  28.637  1.00  0.00     0.029 A 
ATOM     63  C   UNL A   1      44.651  30.735  28.285  1.00  0.00     0.049 A 
ATOM     64  H   UNL A   1      44.332  28.727  27.833  1.00  0.00     0.167 HD
ATOM     65  C   UNL A   1      43.555  24.448  27.193  1.00  0.00     0.037 A 
ATOM     66  C   UNL A   1      45.978  30.950  28.180  1.00  0.00     0.037 A 
ATOM     67  C   UNL A   1      44.966  24.604  26.982  1.00  0.00     0.049 A 
ATOM     68  C   UNL A   1      46.892  29.797  27.843  1.00  0.00     0.074 A 
ATOM     69  C   UNL A   1      45.889  23.652  26.592  1.00  0.00     0.029 A 
ATOM     70  N   UNL A   1      45.658  25.793  27.156  1.00  0.00    -0.354 N 
ATOM     71  N   UNL A   1      46.590  28.545  27.596  1.00  0.00    -0.248 NA
ATOM     72  C   UNL A   1      48.333  30.086  27.779  1.00  0.00     0.031 C 
ATOM     73  C   UNL A   1      47.151  24.253  26.576  1.00  0.00     0.029 A 
ATOM     74  C   UNL A   1      47.004  25.592  26.905  1.00  0.00     0.049 A 
ATOM     75  H   UNL A   1      45.254  26.651  27.419  1.00  0.00     0.167 HD
ATOM     76  C   UNL A   1      47.792  27.908  27.314  1.00  0.00     0.074 A 
ATOM     77  C   UNL A   1      48.832  28.911  27.419  1.00  0.00     0.031 C 
ATOM     78  C   UNL A   1      48.018  26.611  26.991  1.00  0.00     0.037 A 
BRANCH  65  79
ATOM     79  C   UNL A   1      42.945  23.091  27.022  1.00  0.00     0.057 A 
ATOM     80  C   UNL A   1      42.655  22.565  25.756  1.00  0.00     0.134 A 
ATOM     81  C   UNL A   1      42.651  22.297  28.137  1.00  0.00     0.134 A 
ATOM     82  F   UNL A   1      42.891  23.287  24.649  1.00  0.00    -0.206 F 
ATOM     83  C   UNL A   1      42.074  21.305  25.607  1.00  0.00     0.040 A 
ATOM     84  C   UNL A   1      42.093  21.026  27.999  1.00  0.00     0.040 A 
ATOM     85  F   UNL A   1      42.901  22.745  29.377  1.00  0.00    -0.206 F 
ATOM     86  C   UNL A   1      41.798  20.529  26.731  1.00  0.00     0.006 A 
ENDBRANCH  65  79
BRANCH  66  87
ATOM     87  C   UNL A   1      46.539  32.304  28.421  1.00  0.00     0.057 A 
ATOM     88  C   UNL A   1      46.908  32.717  29.707  1.00  0.00     0.134 A 
ATOM     89  C   UNL A   1      46.688  33.230  27.380  1.00  0.00     0.134 A 
ATOM     90  F   UNL A   1      46.763  31.888  30.750  1.00  0.00    -0.206 F 
ATOM     91  C   UNL A   1      47.387  34.007  29.953  1.00  0.00     0.040 A 
ATOM     92  C   UNL A   1      47.188  34.513  27.608  1.00  0.00     0.040 A 
ATOM     93  F   UNL A   1      46.348  32.898  26.126  1.00  0.00    -0.206 F 
ATOM     94  C   UNL A   1      47.532  34.907  28.899  1.00  0.00     0.006 A 
ENDBRANCH  66  87
BRANCH  78  95
ATOM     95  C   UNL A   1      49.426  26.202  26.675  1.00  0.00     0.057 A 
ATOM     96  C   UNL A   1      49.940  26.257  25.374  1.00  0.00     0.134 A 
ATOM     97  C   UNL A   1      50.303  25.834  27.705  1.00  0.00     0.134 A 
ATOM     98  F   UNL A   1      49.149  26.594  24.345  1.00  0.00    -0.206 F 
ATOM     99  C   UNL A   1      51.276  25.952  25.108  1.00  0.00     0.040 A 
ATOM    100  C   UNL A   1      51.645  25.551  27.454  1.00  0.00     0.040 A 
ATOM    101  F   UNL A   1      49.874  25.773  28.975  1.00  0.00    -0.206 F 
ATOM    102  C   UNL A   1      52.135  25.609  26.150  1.00  0.00     0.006 A 
ENDBRANCH  78  95
ENDBRANCH  52  53
ENDBRANCH  45  47
ENDBRANCH  44  45
ENDBRANCH  43  44
ENDBRANCH  42  43
ENDBRANCH  41  42
ENDBRANCH  40  41
ENDBRANCH  39  40
ENDBRANCH  38  39
ENDBRANCH  37  38
ENDBRANCH   1  37
TORSDOF 29
ENDMDL
