MODEL 1
REMARK VINA RESULT:     -11.0      0.000      0.000
REMARK SMILES O=C(C[C@H](NC(=O)[C@]12C[C@H]3C[C@H](C[C@H](C3)C1)C2)c1cccc([N+](=O)[O-])c1)OCCOCCOCCOCCOC(=O)c1ccc(-c2c3nc(c(-c4c(F)cccc4F)c4ccc([nH]4)c(-c4c(F)cccc4F)c4nc(c(-c5c(F)cccc5F)c5ccc2[nH]5)C=C4)C=C3)cc1
REMARK SMILES IDX 32 1 31 2 30 3 29 4 28 5 27 6 2 7 1 8 3 9 4 10 18 11 19 12
REMARK SMILES IDX 26 13 20 14 22 15 21 16 23 17 24 18 25 19 5 20 6 21 7 23
REMARK SMILES IDX 8 24 9 25 16 26 17 27 10 28 14 29 12 30 11 31 15 32 13 33
REMARK SMILES IDX 33 34 34 35 35 36 36 37 37 38 38 39 39 40 40 41 41 42 42 43
REMARK SMILES IDX 43 44 95 45 44 46 94 47 45 48 46 49 47 50 88 51 48 52 93 53
REMARK SMILES IDX 87 54 89 55 49 56 92 57 86 58 85 59 50 61 76 62 59 63 75 64
REMARK SMILES IDX 60 65 63 66 74 67 90 68 61 69 62 70 73 72 91 73 64 74 51 75
REMARK SMILES IDX 52 76 57 77 53 78 54 79 56 80 58 81 55 82 77 83 78 84 83 85
REMARK SMILES IDX 79 86 80 87 82 88 84 89 81 90 65 91 66 92 71 93 67 94 68 95
REMARK SMILES IDX 70 96 72 97 69 98
REMARK H PARENT 5 22 89 60 63 71
REMARK Flexibility Score: inf
ROOT
ATOM      1  C   UNL A   1      39.871  20.426  26.328  1.00  0.00     0.188 C 
ENDROOT
BRANCH   1   2
ATOM      2  C   UNL A   1      39.117  21.629  25.749  1.00  0.00     0.188 C 
BRANCH   2   3
ATOM      3  O   UNL A   1      38.966  22.771  26.565  1.00  0.00    -0.376 OA
BRANCH   3   4
ATOM      4  C   UNL A   1      38.136  23.879  26.319  1.00  0.00     0.202 C 
BRANCH   4   5
ATOM      5  C   UNL A   1      36.974  23.790  25.347  1.00  0.00     0.261 C 
BRANCH   5   6
ATOM      6  O   UNL A   1      35.719  23.327  25.863  1.00  0.00    -0.463 OA
BRANCH   6   7
ATOM      7  C   UNL A   1      35.080  22.168  25.657  1.00  0.00     0.308 C 
ATOM      8  O   UNL A   1      35.256  21.248  26.456  1.00  0.00    -0.252 OA
BRANCH   7   9
ATOM      9  C   UNL A   1      34.310  21.903  24.395  1.00  0.00     0.152 C 
BRANCH   9  10
ATOM     10  C   UNL A   1      32.832  21.563  24.420  1.00  0.00     0.123 C 
BRANCH  10  11
ATOM     11  C   UNL A   1      32.745  20.123  23.946  1.00  0.00    -0.018 A 
ATOM     12  C   UNL A   1      32.274  19.800  22.671  1.00  0.00     0.006 A 
ATOM     13  C   UNL A   1      33.162  19.092  24.818  1.00  0.00     0.091 A 
ATOM     14  C   UNL A   1      32.306  18.478  22.233  1.00  0.00     0.007 A 
ATOM     15  C   UNL A   1      33.233  17.777  24.355  1.00  0.00     0.269 A 
ATOM     16  C   UNL A   1      32.807  17.467  23.059  1.00  0.00     0.085 A 
BRANCH  15  17
ATOM     17  N   UNL A   1      33.818  16.739  25.211  1.00  0.00     0.062 N 
ATOM     18  O   UNL A   1      33.066  16.152  26.002  1.00  0.00    -0.258 OA
ATOM     19  O   UNL A   1      35.028  16.500  25.081  1.00  0.00    -0.258 OA
ENDBRANCH  15  17
ENDBRANCH  10  11
BRANCH  10  20
ATOM     20  N   UNL A   1      32.130  21.873  25.654  1.00  0.00    -0.348 N 
ATOM     21  C   UNL A   1      31.712  23.051  26.203  1.00  0.00     0.226 C 
ATOM     22  H   UNL A   1      31.913  21.082  26.198  1.00  0.00     0.164 HD
ATOM     23  O   UNL A   1      31.512  23.008  27.423  1.00  0.00    -0.274 OA
BRANCH  21  24
ATOM     24  C   UNL A   1      31.512  24.377  25.425  1.00  0.00     0.050 C 
ATOM     25  C   UNL A   1      30.519  25.253  26.243  1.00  0.00     0.020 C 
ATOM     26  C   UNL A   1      30.904  24.165  24.037  1.00  0.00     0.020 C 
ATOM     27  C   UNL A   1      32.811  25.200  25.259  1.00  0.00     0.020 C 
ATOM     28  C   UNL A   1      30.192  26.563  25.507  1.00  0.00    -0.010 C 
ATOM     29  C   UNL A   1      30.581  25.457  23.301  1.00  0.00    -0.010 C 
ATOM     30  C   UNL A   1      32.510  26.526  24.509  1.00  0.00    -0.010 C 
ATOM     31  C   UNL A   1      31.491  27.360  25.306  1.00  0.00     0.007 C 
ATOM     32  C   UNL A   1      29.576  26.242  24.139  1.00  0.00     0.007 C 
ATOM     33  C   UNL A   1      31.899  26.229  23.129  1.00  0.00     0.007 C 
ENDBRANCH  21  24
ENDBRANCH  10  20
ENDBRANCH   9  10
ENDBRANCH   7   9
ENDBRANCH   6   7
ENDBRANCH   5   6
ENDBRANCH   4   5
ENDBRANCH   3   4
ENDBRANCH   2   3
ENDBRANCH   1   2
BRANCH   1  34
ATOM     34  O   UNL A   1      40.780  20.605  27.395  1.00  0.00    -0.377 OA
BRANCH  34  35
ATOM     35  C   UNL A   1      41.897  19.741  27.432  1.00  0.00     0.188 C 
BRANCH  35  36
ATOM     36  C   UNL A   1      42.338  19.238  26.043  1.00  0.00     0.188 C 
BRANCH  36  37
ATOM     37  O   UNL A   1      43.358  19.943  25.365  1.00  0.00    -0.376 OA
BRANCH  37  38
ATOM     38  C   UNL A   1      43.527  21.347  25.464  1.00  0.00     0.202 C 
BRANCH  38  39
ATOM     39  C   UNL A   1      44.812  22.129  25.818  1.00  0.00     0.261 C 
BRANCH  39  40
ATOM     40  O   UNL A   1      44.708  23.352  26.540  1.00  0.00    -0.460 OA
BRANCH  40  41
ATOM     41  C   UNL A   1      44.367  24.445  25.834  1.00  0.00     0.338 C 
ATOM     42  O   UNL A   1      44.494  24.616  24.631  1.00  0.00    -0.246 OA
BRANCH  41  43
ATOM     43  C   UNL A   1      43.575  25.326  26.718  1.00  0.00     0.060 A 
ATOM     44  C   UNL A   1      43.940  26.679  26.790  1.00  0.00     0.016 A 
ATOM     45  C   UNL A   1      42.468  24.851  27.429  1.00  0.00     0.016 A 
ATOM     46  C   UNL A   1      43.234  27.550  27.611  1.00  0.00     0.010 A 
ATOM     47  C   UNL A   1      41.790  25.715  28.294  1.00  0.00     0.010 A 
ATOM     48  C   UNL A   1      42.209  27.052  28.423  1.00  0.00    -0.014 A 
BRANCH  48  49
ATOM     49  C   UNL A   1      41.834  27.841  29.618  1.00  0.00     0.031 A 
ATOM     50  C   UNL A   1      40.609  28.709  29.508  1.00  0.00     0.074 A 
ATOM     51  C   UNL A   1      42.494  27.730  30.782  1.00  0.00     0.049 A 
ATOM     52  N   UNL A   1      40.043  29.473  30.406  1.00  0.00    -0.248 NA
ATOM     53  C   UNL A   1      39.927  28.709  28.202  1.00  0.00     0.031 C 
ATOM     54  C   UNL A   1      43.650  26.872  31.026  1.00  0.00     0.029 A 
ATOM     55  N   UNL A   1      42.268  28.347  31.986  1.00  0.00    -0.354 N 
ATOM     56  C   UNL A   1      38.949  30.047  29.769  1.00  0.00     0.074 A 
ATOM     57  C   UNL A   1      38.947  29.573  28.404  1.00  0.00     0.031 C 
ATOM     58  C   UNL A   1      44.036  27.020  32.307  1.00  0.00     0.029 A 
ATOM     59  C   UNL A   1      43.171  28.001  32.960  1.00  0.00     0.049 A 
ATOM     60  H   UNL A   1      41.527  28.979  32.137  1.00  0.00     0.167 HD
ATOM     61  C   UNL A   1      38.022  30.890  30.278  1.00  0.00     0.037 A 
ATOM     62  C   UNL A   1      43.285  28.443  34.227  1.00  0.00     0.037 A 
ATOM     63  C   UNL A   1      38.031  31.363  31.635  1.00  0.00     0.049 A 
ATOM     64  C   UNL A   1      42.291  29.452  34.746  1.00  0.00     0.074 A 
ATOM     65  C   UNL A   1      37.135  32.211  32.259  1.00  0.00     0.029 A 
ATOM     66  N   UNL A   1      38.998  31.037  32.575  1.00  0.00    -0.354 N 
ATOM     67  N   UNL A   1      41.246  29.974  34.148  1.00  0.00    -0.248 NA
ATOM     68  C   UNL A   1      42.493  29.929  36.122  1.00  0.00     0.031 C 
ATOM     69  C   UNL A   1      37.594  32.448  33.558  1.00  0.00     0.029 A 
ATOM     70  C   UNL A   1      38.737  31.692  33.766  1.00  0.00     0.049 A 
ATOM     71  H   UNL A   1      39.757  30.429  32.418  1.00  0.00     0.167 HD
ATOM     72  C   UNL A   1      40.644  30.807  35.086  1.00  0.00     0.074 A 
ATOM     73  C   UNL A   1      41.438  30.713  36.294  1.00  0.00     0.031 C 
ATOM     74  C   UNL A   1      39.533  31.578  34.962  1.00  0.00     0.037 A 
BRANCH  61  75
ATOM     75  C   UNL A   1      36.957  31.387  29.343  1.00  0.00     0.057 A 
ATOM     76  C   UNL A   1      36.975  32.682  28.808  1.00  0.00     0.134 A 
ATOM     77  C   UNL A   1      35.894  30.553  28.977  1.00  0.00     0.134 A 
ATOM     78  F   UNL A   1      37.953  33.541  29.136  1.00  0.00    -0.206 F 
ATOM     79  C   UNL A   1      35.958  33.139  27.968  1.00  0.00     0.040 A 
ATOM     80  C   UNL A   1      34.888  30.988  28.113  1.00  0.00     0.040 A 
ATOM     81  F   UNL A   1      35.812  29.302  29.454  1.00  0.00    -0.206 F 
ATOM     82  C   UNL A   1      34.914  32.287  27.613  1.00  0.00     0.006 A 
ENDBRANCH  61  75
BRANCH  62  83
ATOM     83  C   UNL A   1      44.377  27.943  35.101  1.00  0.00     0.057 A 
ATOM     84  C   UNL A   1      45.634  28.559  35.118  1.00  0.00     0.134 A 
ATOM     85  C   UNL A   1      44.203  26.815  35.913  1.00  0.00     0.134 A 
ATOM     86  F   UNL A   1      45.872  29.628  34.343  1.00  0.00    -0.206 F 
ATOM     87  C   UNL A   1      46.684  28.061  35.893  1.00  0.00     0.040 A 
ATOM     88  C   UNL A   1      45.234  26.323  36.714  1.00  0.00     0.040 A 
ATOM     89  F   UNL A   1      43.024  26.175  35.941  1.00  0.00    -0.206 F 
ATOM     90  C   UNL A   1      46.483  26.943  36.699  1.00  0.00     0.006 A 
ENDBRANCH  62  83
BRANCH  74  91
ATOM     91  C   UNL A   1      39.079  32.333  36.179  1.00  0.00     0.057 A 
ATOM     92  C   UNL A   1      38.223  31.768  37.134  1.00  0.00     0.134 A 
ATOM     93  C   UNL A   1      39.534  33.638  36.413  1.00  0.00     0.134 A 
ATOM     94  F   UNL A   1      37.743  30.527  36.966  1.00  0.00    -0.206 F 
ATOM     95  C   UNL A   1      37.810  32.485  38.258  1.00  0.00     0.040 A 
ATOM     96  C   UNL A   1      39.156  34.352  37.550  1.00  0.00     0.040 A 
ATOM     97  F   UNL A   1      40.368  34.235  35.547  1.00  0.00    -0.206 F 
ATOM     98  C   UNL A   1      38.283  33.779  38.472  1.00  0.00     0.006 A 
ENDBRANCH  74  91
ENDBRANCH  48  49
ENDBRANCH  41  43
ENDBRANCH  40  41
ENDBRANCH  39  40
ENDBRANCH  38  39
ENDBRANCH  37  38
ENDBRANCH  36  37
ENDBRANCH  35  36
ENDBRANCH  34  35
ENDBRANCH   1  34
TORSDOF 25
ENDMDL
MODEL 2
REMARK VINA RESULT:     -11.0      0.621      5.832
REMARK SMILES O=C(C[C@H](NC(=O)[C@]12C[C@H]3C[C@H](C[C@H](C3)C1)C2)c1cccc([N+](=O)[O-])c1)OCCOCCOCCOCCOC(=O)c1ccc(-c2c3nc(c(-c4c(F)cccc4F)c4ccc([nH]4)c(-c4c(F)cccc4F)c4nc(c(-c5c(F)cccc5F)c5ccc2[nH]5)C=C4)C=C3)cc1
REMARK SMILES IDX 32 1 31 2 30 3 29 4 28 5 27 6 2 7 1 8 3 9 4 10 18 11 19 12
REMARK SMILES IDX 26 13 20 14 22 15 21 16 23 17 24 18 25 19 5 20 6 21 7 23
REMARK SMILES IDX 8 24 9 25 16 26 17 27 10 28 14 29 12 30 11 31 15 32 13 33
REMARK SMILES IDX 33 34 34 35 35 36 36 37 37 38 38 39 39 40 40 41 41 42 42 43
REMARK SMILES IDX 43 44 95 45 44 46 94 47 45 48 46 49 47 50 88 51 48 52 93 53
REMARK SMILES IDX 87 54 89 55 49 56 92 57 86 58 85 59 50 61 76 62 59 63 75 64
REMARK SMILES IDX 60 65 63 66 74 67 90 68 61 69 62 70 73 72 91 73 64 74 51 75
REMARK SMILES IDX 52 76 57 77 53 78 54 79 56 80 58 81 55 82 77 83 78 84 83 85
REMARK SMILES IDX 79 86 80 87 82 88 84 89 81 90 65 91 66 92 71 93 67 94 68 95
REMARK SMILES IDX 70 96 72 97 69 98
REMARK H PARENT 5 22 89 60 63 71
REMARK Flexibility Score: inf
ROOT
ATOM      1  C   UNL A   1      40.167  20.434  26.356  1.00  0.00     0.188 C 
ENDROOT
BRANCH   1   2
ATOM      2  C   UNL A   1      39.342  21.609  25.821  1.00  0.00     0.188 C 
BRANCH   2   3
ATOM      3  O   UNL A   1      39.374  22.823  26.540  1.00  0.00    -0.376 OA
BRANCH   3   4
ATOM      4  C   UNL A   1      38.273  23.629  26.882  1.00  0.00     0.202 C 
BRANCH   4   5
ATOM      5  C   UNL A   1      37.157  23.899  25.888  1.00  0.00     0.261 C 
BRANCH   5   6
ATOM      6  O   UNL A   1      35.966  23.110  26.006  1.00  0.00    -0.463 OA
BRANCH   6   7
ATOM      7  C   UNL A   1      35.671  21.916  25.475  1.00  0.00     0.308 C 
ATOM      8  O   UNL A   1      36.281  20.925  25.876  1.00  0.00    -0.252 OA
BRANCH   7   9
ATOM      9  C   UNL A   1      34.758  21.782  24.291  1.00  0.00     0.152 C 
BRANCH   9  10
ATOM     10  C   UNL A   1      33.275  21.510  24.453  1.00  0.00     0.123 C 
BRANCH  10  11
ATOM     11  C   UNL A   1      33.071  20.088  23.961  1.00  0.00    -0.018 A 
ATOM     12  C   UNL A   1      32.279  19.806  22.847  1.00  0.00     0.006 A 
ATOM     13  C   UNL A   1      33.713  19.031  24.647  1.00  0.00     0.091 A 
ATOM     14  C   UNL A   1      32.200  18.503  22.362  1.00  0.00     0.007 A 
ATOM     15  C   UNL A   1      33.664  17.736  24.128  1.00  0.00     0.269 A 
ATOM     16  C   UNL A   1      32.909  17.469  22.982  1.00  0.00     0.085 A 
BRANCH  15  17
ATOM     17  N   UNL A   1      34.463  16.676  24.754  1.00  0.00     0.062 N 
ATOM     18  O   UNL A   1      33.948  15.554  24.861  1.00  0.00    -0.258 OA
ATOM     19  O   UNL A   1      35.611  16.962  25.124  1.00  0.00    -0.258 OA
ENDBRANCH  15  17
ENDBRANCH  10  11
BRANCH  10  20
ATOM     20  N   UNL A   1      32.712  21.822  25.757  1.00  0.00    -0.348 N 
ATOM     21  C   UNL A   1      32.260  22.986  26.309  1.00  0.00     0.226 C 
ATOM     22  H   UNL A   1      32.642  21.044  26.357  1.00  0.00     0.164 HD
ATOM     23  O   UNL A   1      32.225  22.989  27.546  1.00  0.00    -0.274 OA
BRANCH  21  24
ATOM     24  C   UNL A   1      31.838  24.246  25.512  1.00  0.00     0.050 C 
ATOM     25  C   UNL A   1      30.921  23.777  24.347  1.00  0.00     0.020 C 
ATOM     26  C   UNL A   1      33.028  24.984  24.894  1.00  0.00     0.020 C 
ATOM     27  C   UNL A   1      31.024  25.263  26.346  1.00  0.00     0.020 C 
ATOM     28  C   UNL A   1      30.515  24.954  23.444  1.00  0.00    -0.010 C 
ATOM     29  C   UNL A   1      32.634  26.153  24.004  1.00  0.00    -0.010 C 
ATOM     30  C   UNL A   1      30.609  26.470  25.461  1.00  0.00    -0.010 C 
ATOM     31  C   UNL A   1      29.743  25.984  24.285  1.00  0.00     0.007 C 
ATOM     32  C   UNL A   1      31.774  25.613  22.865  1.00  0.00     0.007 C 
ATOM     33  C   UNL A   1      31.857  27.152  24.875  1.00  0.00     0.007 C 
ENDBRANCH  21  24
ENDBRANCH  10  20
ENDBRANCH   9  10
ENDBRANCH   7   9
ENDBRANCH   6   7
ENDBRANCH   5   6
ENDBRANCH   4   5
ENDBRANCH   3   4
ENDBRANCH   2   3
ENDBRANCH   1   2
BRANCH   1  34
ATOM     34  O   UNL A   1      41.210  20.663  27.282  1.00  0.00    -0.377 OA
BRANCH  34  35
ATOM     35  C   UNL A   1      42.232  19.690  27.345  1.00  0.00     0.188 C 
BRANCH  35  36
ATOM     36  C   UNL A   1      42.660  19.152  25.965  1.00  0.00     0.188 C 
BRANCH  36  37
ATOM     37  O   UNL A   1      43.760  19.760  25.317  1.00  0.00    -0.376 OA
BRANCH  37  38
ATOM     38  C   UNL A   1      44.002  21.157  25.350  1.00  0.00     0.202 C 
BRANCH  38  39
ATOM     39  C   UNL A   1      45.287  21.889  25.796  1.00  0.00     0.261 C 
BRANCH  39  40
ATOM     40  O   UNL A   1      45.180  23.145  26.459  1.00  0.00    -0.460 OA
BRANCH  40  41
ATOM     41  C   UNL A   1      44.882  24.211  25.694  1.00  0.00     0.338 C 
ATOM     42  O   UNL A   1      45.151  24.370  24.513  1.00  0.00    -0.246 OA
BRANCH  41  43
ATOM     43  C   UNL A   1      43.950  25.068  26.456  1.00  0.00     0.060 A 
ATOM     44  C   UNL A   1      44.246  26.437  26.548  1.00  0.00     0.016 A 
ATOM     45  C   UNL A   1      42.783  24.555  27.032  1.00  0.00     0.016 A 
ATOM     46  C   UNL A   1      43.407  27.287  27.258  1.00  0.00     0.010 A 
ATOM     47  C   UNL A   1      41.967  25.400  27.789  1.00  0.00     0.010 A 
ATOM     48  C   UNL A   1      42.309  26.755  27.944  1.00  0.00    -0.014 A 
BRANCH  48  49
ATOM     49  C   UNL A   1      41.755  27.543  29.068  1.00  0.00     0.031 A 
ATOM     50  C   UNL A   1      42.485  27.466  30.383  1.00  0.00     0.074 A 
ATOM     51  C   UNL A   1      40.705  28.365  28.914  1.00  0.00     0.049 A 
ATOM     52  N   UNL A   1      42.237  28.075  31.513  1.00  0.00    -0.248 NA
ATOM     53  C   UNL A   1      43.661  26.579  30.423  1.00  0.00     0.031 C 
ATOM     54  C   UNL A   1      39.962  28.574  27.674  1.00  0.00     0.029 A 
ATOM     55  N   UNL A   1      40.089  29.188  29.822  1.00  0.00    -0.354 N 
ATOM     56  C   UNL A   1      43.218  27.638  32.394  1.00  0.00     0.074 A 
ATOM     57  C   UNL A   1      44.045  26.690  31.683  1.00  0.00     0.031 C 
ATOM     58  C   UNL A   1      38.984  29.469  27.901  1.00  0.00     0.029 A 
ATOM     59  C   UNL A   1      39.017  29.873  29.306  1.00  0.00     0.049 A 
ATOM     60  H   UNL A   1      40.387  29.279  30.757  1.00  0.00     0.167 HD
ATOM     61  C   UNL A   1      43.420  27.998  33.682  1.00  0.00     0.037 A 
ATOM     62  C   UNL A   1      38.159  30.717  29.911  1.00  0.00     0.037 A 
ATOM     63  C   UNL A   1      42.592  28.938  34.387  1.00  0.00     0.049 A 
ATOM     64  C   UNL A   1      38.351  31.036  31.373  1.00  0.00     0.074 A 
ATOM     65  C   UNL A   1      42.711  29.384  35.690  1.00  0.00     0.029 A 
ATOM     66  N   UNL A   1      41.479  29.566  33.847  1.00  0.00    -0.354 N 
ATOM     67  N   UNL A   1      39.292  30.638  32.195  1.00  0.00    -0.248 NA
ATOM     68  C   UNL A   1      37.357  31.929  31.988  1.00  0.00     0.031 C 
ATOM     69  C   UNL A   1      41.633  30.234  35.958  1.00  0.00     0.029 A 
ATOM     70  C   UNL A   1      40.883  30.372  34.801  1.00  0.00     0.049 A 
ATOM     71  H   UNL A   1      41.160  29.454  32.921  1.00  0.00     0.167 HD
ATOM     72  C   UNL A   1      39.030  31.262  33.410  1.00  0.00     0.074 A 
ATOM     73  C   UNL A   1      37.845  32.071  33.213  1.00  0.00     0.031 C 
ATOM     74  C   UNL A   1      39.709  31.179  34.583  1.00  0.00     0.037 A 
BRANCH  61  75
ATOM     75  C   UNL A   1      44.549  27.333  34.415  1.00  0.00     0.057 A 
ATOM     76  C   UNL A   1      44.364  26.175  35.183  1.00  0.00     0.134 A 
ATOM     77  C   UNL A   1      45.842  27.865  34.351  1.00  0.00     0.134 A 
ATOM     78  F   UNL A   1      43.145  25.628  35.305  1.00  0.00    -0.206 F 
ATOM     79  C   UNL A   1      45.418  25.590  35.886  1.00  0.00     0.040 A 
ATOM     80  C   UNL A   1      46.911  27.270  35.024  1.00  0.00     0.040 A 
ATOM     81  F   UNL A   1      46.090  28.973  33.636  1.00  0.00    -0.206 F 
ATOM     82  C   UNL A   1      46.698  26.135  35.801  1.00  0.00     0.006 A 
ENDBRANCH  61  75
BRANCH  62  83
ATOM     83  C   UNL A   1      37.039  31.323  29.147  1.00  0.00     0.057 A 
ATOM     84  C   UNL A   1      37.099  32.648  28.698  1.00  0.00     0.134 A 
ATOM     85  C   UNL A   1      35.867  30.606  28.878  1.00  0.00     0.134 A 
ATOM     86  F   UNL A   1      38.184  33.397  28.947  1.00  0.00    -0.206 F 
ATOM     87  C   UNL A   1      36.028  33.245  28.029  1.00  0.00     0.040 A 
ATOM     88  C   UNL A   1      34.799  31.180  28.185  1.00  0.00     0.040 A 
ATOM     89  F   UNL A   1      35.743  29.334  29.282  1.00  0.00    -0.206 F 
ATOM     90  C   UNL A   1      34.875  32.507  27.767  1.00  0.00     0.006 A 
ENDBRANCH  62  83
BRANCH  74  91
ATOM     91  C   UNL A   1      39.220  32.025  35.724  1.00  0.00     0.057 A 
ATOM     92  C   UNL A   1      39.622  33.358  35.892  1.00  0.00     0.134 A 
ATOM     93  C   UNL A   1      38.307  31.506  36.651  1.00  0.00     0.134 A 
ATOM     94  F   UNL A   1      40.501  33.915  35.046  1.00  0.00    -0.206 F 
ATOM     95  C   UNL A   1      39.159  34.129  36.959  1.00  0.00     0.040 A 
ATOM     96  C   UNL A   1      37.811  32.278  37.702  1.00  0.00     0.040 A 
ATOM     97  F   UNL A   1      37.868  30.242  36.541  1.00  0.00    -0.206 F 
ATOM     98  C   UNL A   1      38.245  33.591  37.864  1.00  0.00     0.006 A 
ENDBRANCH  74  91
ENDBRANCH  48  49
ENDBRANCH  41  43
ENDBRANCH  40  41
ENDBRANCH  39  40
ENDBRANCH  38  39
ENDBRANCH  37  38
ENDBRANCH  36  37
ENDBRANCH  35  36
ENDBRANCH  34  35
ENDBRANCH   1  34
TORSDOF 25
ENDMDL
MODEL 3
REMARK VINA RESULT:     -10.4      1.150      5.982
REMARK SMILES O=C(C[C@H](NC(=O)[C@]12C[C@H]3C[C@H](C[C@H](C3)C1)C2)c1cccc([N+](=O)[O-])c1)OCCOCCOCCOCCOC(=O)c1ccc(-c2c3nc(c(-c4c(F)cccc4F)c4ccc([nH]4)c(-c4c(F)cccc4F)c4nc(c(-c5c(F)cccc5F)c5ccc2[nH]5)C=C4)C=C3)cc1
REMARK SMILES IDX 32 1 31 2 30 3 29 4 28 5 27 6 2 7 1 8 3 9 4 10 18 11 19 12
REMARK SMILES IDX 26 13 20 14 22 15 21 16 23 17 24 18 25 19 5 20 6 21 7 23
REMARK SMILES IDX 8 24 9 25 16 26 17 27 10 28 14 29 12 30 11 31 15 32 13 33
REMARK SMILES IDX 33 34 34 35 35 36 36 37 37 38 38 39 39 40 40 41 41 42 42 43
REMARK SMILES IDX 43 44 95 45 44 46 94 47 45 48 46 49 47 50 88 51 48 52 93 53
REMARK SMILES IDX 87 54 89 55 49 56 92 57 86 58 85 59 50 61 76 62 59 63 75 64
REMARK SMILES IDX 60 65 63 66 74 67 90 68 61 69 62 70 73 72 91 73 64 74 51 75
REMARK SMILES IDX 52 76 57 77 53 78 54 79 56 80 58 81 55 82 77 83 78 84 83 85
REMARK SMILES IDX 79 86 80 87 82 88 84 89 81 90 65 91 66 92 71 93 67 94 68 95
REMARK SMILES IDX 70 96 72 97 69 98
REMARK H PARENT 5 22 89 60 63 71
REMARK Flexibility Score: inf
ROOT
ATOM      1  C   UNL A   1      38.583  21.713  25.876  1.00  0.00     0.188 C 
ENDROOT
BRANCH   1   2
ATOM      2  C   UNL A   1      37.469  22.544  25.229  1.00  0.00     0.188 C 
BRANCH   2   3
ATOM      3  O   UNL A   1      36.585  23.242  26.080  1.00  0.00    -0.376 OA
BRANCH   3   4
ATOM      4  C   UNL A   1      35.188  23.091  26.150  1.00  0.00     0.202 C 
BRANCH   4   5
ATOM      5  C   UNL A   1      34.511  22.622  27.426  1.00  0.00     0.261 C 
BRANCH   5   6
ATOM      6  O   UNL A   1      33.113  22.313  27.353  1.00  0.00    -0.463 OA
BRANCH   6   7
ATOM      7  C   UNL A   1      32.080  23.090  27.001  1.00  0.00     0.308 C 
ATOM      8  O   UNL A   1      31.798  24.053  27.713  1.00  0.00    -0.252 OA
BRANCH   7   9
ATOM      9  C   UNL A   1      31.157  22.717  25.877  1.00  0.00     0.152 C 
BRANCH   9  10
ATOM     10  C   UNL A   1      31.501  23.013  24.430  1.00  0.00     0.123 C 
BRANCH  10  11
ATOM     11  C   UNL A   1      31.755  21.658  23.793  1.00  0.00    -0.018 A 
ATOM     12  C   UNL A   1      31.716  21.482  22.409  1.00  0.00     0.006 A 
ATOM     13  C   UNL A   1      32.048  20.556  24.629  1.00  0.00     0.091 A 
ATOM     14  C   UNL A   1      32.057  20.250  21.855  1.00  0.00     0.007 A 
ATOM     15  C   UNL A   1      32.431  19.339  24.064  1.00  0.00     0.269 A 
ATOM     16  C   UNL A   1      32.439  19.183  22.674  1.00  0.00     0.085 A 
BRANCH  15  17
ATOM     17  N   UNL A   1      32.889  18.249  24.935  1.00  0.00     0.062 N 
ATOM     18  O   UNL A   1      32.549  18.281  26.125  1.00  0.00    -0.258 OA
ATOM     19  O   UNL A   1      33.576  17.353  24.423  1.00  0.00    -0.258 OA
ENDBRANCH  15  17
ENDBRANCH  10  11
BRANCH  10  20
ATOM     20  N   UNL A   1      30.580  23.888  23.724  1.00  0.00    -0.348 N 
ATOM     21  C   UNL A   1      30.368  25.235  23.778  1.00  0.00     0.226 C 
ATOM     22  H   UNL A   1      29.997  23.419  23.084  1.00  0.00     0.164 HD
ATOM     23  O   UNL A   1      29.261  25.599  23.360  1.00  0.00    -0.274 OA
BRANCH  21  24
ATOM     24  C   UNL A   1      31.374  26.276  24.332  1.00  0.00     0.050 C 
ATOM     25  C   UNL A   1      32.804  25.703  24.114  1.00  0.00     0.020 C 
ATOM     26  C   UNL A   1      31.202  26.529  25.831  1.00  0.00     0.020 C 
ATOM     27  C   UNL A   1      31.318  27.640  23.606  1.00  0.00     0.020 C 
ATOM     28  C   UNL A   1      33.876  26.633  24.709  1.00  0.00    -0.010 C 
ATOM     29  C   UNL A   1      32.256  27.451  26.426  1.00  0.00    -0.010 C 
ATOM     30  C   UNL A   1      32.384  28.603  24.195  1.00  0.00    -0.010 C 
ATOM     31  C   UNL A   1      33.790  28.002  24.016  1.00  0.00     0.007 C 
ATOM     32  C   UNL A   1      33.623  26.808  26.213  1.00  0.00     0.007 C 
ATOM     33  C   UNL A   1      32.146  28.801  25.702  1.00  0.00     0.007 C 
ENDBRANCH  21  24
ENDBRANCH  10  20
ENDBRANCH   9  10
ENDBRANCH   7   9
ENDBRANCH   6   7
ENDBRANCH   5   6
ENDBRANCH   4   5
ENDBRANCH   3   4
ENDBRANCH   2   3
ENDBRANCH   1   2
BRANCH   1  34
ATOM     34  O   UNL A   1      39.617  22.353  26.597  1.00  0.00    -0.377 OA
BRANCH  34  35
ATOM     35  C   UNL A   1      40.726  21.557  26.961  1.00  0.00     0.188 C 
BRANCH  35  36
ATOM     36  C   UNL A   1      41.230  20.643  25.827  1.00  0.00     0.188 C 
BRANCH  36  37
ATOM     37  O   UNL A   1      42.625  20.525  25.627  1.00  0.00    -0.376 OA
BRANCH  37  38
ATOM     38  C   UNL A   1      43.485  21.644  25.496  1.00  0.00     0.202 C 
BRANCH  38  39
ATOM     39  C   UNL A   1      44.629  22.081  26.438  1.00  0.00     0.261 C 
BRANCH  39  40
ATOM     40  O   UNL A   1      45.002  23.455  26.491  1.00  0.00    -0.460 OA
BRANCH  40  41
ATOM     41  C   UNL A   1      44.394  24.282  25.621  1.00  0.00     0.338 C 
ATOM     42  O   UNL A   1      44.398  24.204  24.402  1.00  0.00    -0.246 OA
BRANCH  41  43
ATOM     43  C   UNL A   1      43.503  25.173  26.393  1.00  0.00     0.060 A 
ATOM     44  C   UNL A   1      43.874  26.521  26.518  1.00  0.00     0.016 A 
ATOM     45  C   UNL A   1      42.303  24.715  26.946  1.00  0.00     0.016 A 
ATOM     46  C   UNL A   1      43.076  27.402  27.238  1.00  0.00     0.010 A 
ATOM     47  C   UNL A   1      41.526  25.587  27.712  1.00  0.00     0.010 A 
ATOM     48  C   UNL A   1      41.943  26.918  27.901  1.00  0.00    -0.014 A 
BRANCH  48  49
ATOM     49  C   UNL A   1      41.421  27.711  29.037  1.00  0.00     0.031 A 
ATOM     50  C   UNL A   1      42.176  27.623  30.337  1.00  0.00     0.074 A 
ATOM     51  C   UNL A   1      40.378  28.546  28.905  1.00  0.00     0.049 A 
ATOM     52  N   UNL A   1      41.958  28.233  31.473  1.00  0.00    -0.248 NA
ATOM     53  C   UNL A   1      43.341  26.721  30.353  1.00  0.00     0.031 C 
ATOM     54  C   UNL A   1      39.614  28.766  27.680  1.00  0.00     0.029 A 
ATOM     55  N   UNL A   1      39.791  29.376  29.826  1.00  0.00    -0.354 N 
ATOM     56  C   UNL A   1      42.951  27.783  32.333  1.00  0.00     0.074 A 
ATOM     57  C   UNL A   1      43.751  26.825  31.605  1.00  0.00     0.031 C 
ATOM     58  C   UNL A   1      38.652  29.674  27.927  1.00  0.00     0.029 A 
ATOM     59  C   UNL A   1      38.718  30.075  29.332  1.00  0.00     0.049 A 
ATOM     60  H   UNL A   1      40.109  29.461  30.754  1.00  0.00     0.167 HD
ATOM     61  C   UNL A   1      43.183  28.139  33.618  1.00  0.00     0.037 A 
ATOM     62  C   UNL A   1      37.883  30.929  29.955  1.00  0.00     0.037 A 
ATOM     63  C   UNL A   1      42.381  29.088  34.340  1.00  0.00     0.049 A 
ATOM     64  C   UNL A   1      38.108  31.244  31.413  1.00  0.00     0.074 A 
ATOM     65  C   UNL A   1      42.532  29.531  35.641  1.00  0.00     0.029 A 
ATOM     66  N   UNL A   1      41.265  29.730  33.822  1.00  0.00    -0.354 N 
ATOM     67  N   UNL A   1      39.061  30.833  32.216  1.00  0.00    -0.248 NA
ATOM     68  C   UNL A   1      37.138  32.148  32.049  1.00  0.00     0.031 C 
ATOM     69  C   UNL A   1      41.470  30.394  35.931  1.00  0.00     0.029 A 
ATOM     70  C   UNL A   1      40.698  30.543  34.789  1.00  0.00     0.049 A 
ATOM     71  H   UNL A   1      40.927  29.624  32.903  1.00  0.00     0.167 HD
ATOM     72  C   UNL A   1      38.830  31.458  33.437  1.00  0.00     0.074 A 
ATOM     73  C   UNL A   1      37.651  32.283  33.263  1.00  0.00     0.031 C 
ATOM     74  C   UNL A   1      39.531  31.365  34.595  1.00  0.00     0.037 A 
BRANCH  61  75
ATOM     75  C   UNL A   1      44.317  27.458  34.327  1.00  0.00     0.057 A 
ATOM     76  C   UNL A   1      45.613  27.992  34.352  1.00  0.00     0.134 A 
ATOM     77  C   UNL A   1      44.108  26.244  34.991  1.00  0.00     0.134 A 
ATOM     78  F   UNL A   1      45.887  29.141  33.716  1.00  0.00    -0.206 F 
ATOM     79  C   UNL A   1      46.663  27.328  34.987  1.00  0.00     0.040 A 
ATOM     80  C   UNL A   1      45.144  25.585  35.656  1.00  0.00     0.040 A 
ATOM     81  F   UNL A   1      42.893  25.674  35.004  1.00  0.00    -0.206 F 
ATOM     82  C   UNL A   1      46.428  26.123  35.647  1.00  0.00     0.006 A 
ENDBRANCH  61  75
BRANCH  62  83
ATOM     83  C   UNL A   1      36.756  31.551  29.214  1.00  0.00     0.057 A 
ATOM     84  C   UNL A   1      35.604  30.821  28.898  1.00  0.00     0.134 A 
ATOM     85  C   UNL A   1      36.816  32.878  28.773  1.00  0.00     0.134 A 
ATOM     86  F   UNL A   1      35.495  29.536  29.269  1.00  0.00    -0.206 F 
ATOM     87  C   UNL A   1      34.563  31.380  28.152  1.00  0.00     0.040 A 
ATOM     88  C   UNL A   1      35.772  33.459  28.051  1.00  0.00     0.040 A 
ATOM     89  F   UNL A   1      37.893  33.632  29.039  1.00  0.00    -0.206 F 
ATOM     90  C   UNL A   1      34.644  32.705  27.732  1.00  0.00     0.006 A 
ENDBRANCH  62  83
BRANCH  74  91
ATOM     91  C   UNL A   1      39.076  32.216  35.747  1.00  0.00     0.057 A 
ATOM     92  C   UNL A   1      38.232  31.725  36.752  1.00  0.00     0.134 A 
ATOM     93  C   UNL A   1      39.520  33.540  35.868  1.00  0.00     0.134 A 
ATOM     94  F   UNL A   1      37.763  30.470  36.692  1.00  0.00    -0.206 F 
ATOM     95  C   UNL A   1      37.818  32.530  37.814  1.00  0.00     0.040 A 
ATOM     96  C   UNL A   1      39.142  34.343  36.944  1.00  0.00     0.040 A 
ATOM     97  F   UNL A   1      40.343  34.069  34.950  1.00  0.00    -0.206 F 
ATOM     98  C   UNL A   1      38.279  33.842  37.916  1.00  0.00     0.006 A 
ENDBRANCH  74  91
ENDBRANCH  48  49
ENDBRANCH  41  43
ENDBRANCH  40  41
ENDBRANCH  39  40
ENDBRANCH  38  39
ENDBRANCH  37  38
ENDBRANCH  36  37
ENDBRANCH  35  36
ENDBRANCH  34  35
ENDBRANCH   1  34
TORSDOF 25
ENDMDL
