MODEL 1
REMARK VINA RESULT:      -8.9      0.000      0.000
REMARK SMILES Nc1ccc(S[C@@H](C(=O)OCCOCCOCCOCCOC(=O)c2ccc(-c3c4nc(c(-c5c(F)cccc5F)c5ccc([nH]5)c(-c5c(F)cccc5F)c5nc(c(-c6c(F)cccc6F)c6ccc3[nH]6)C=C5)C=C4)cc2)C2CC2)cc1F
REMARK SMILES IDX 15 1 14 2 13 3 12 4 11 5 10 6 8 7 9 8 7 9 6 10 5 11 2 12
REMARK SMILES IDX 3 13 83 14 4 15 82 16 84 17 1 18 79 21 80 22 81 23 16 24
REMARK SMILES IDX 17 25 18 26 19 27 20 28 21 29 22 30 23 31 24 32 25 33 26 34
REMARK SMILES IDX 78 35 27 36 77 37 28 38 29 39 30 40 71 41 31 42 76 43 70 44
REMARK SMILES IDX 72 45 32 46 75 47 69 48 68 49 33 51 59 52 42 53 58 54 43 55
REMARK SMILES IDX 46 56 57 57 73 58 44 59 45 60 56 62 74 63 47 64 34 65 35 66
REMARK SMILES IDX 40 67 36 68 37 69 39 70 41 71 38 72 60 73 61 74 66 75 62 76
REMARK SMILES IDX 63 77 65 78 67 79 64 80 48 81 49 82 54 83 50 84 51 85 53 86
REMARK SMILES IDX 55 87 52 88
REMARK H PARENT 1 19 1 20 72 50 46 61
REMARK Flexibility Score: inf
ROOT
ATOM      1  C   UNL A   1      36.174  24.135  26.087  1.00  0.00     0.188 C 
ENDROOT
BRANCH   1   2
ATOM      2  C   UNL A   1      37.565  23.742  25.537  1.00  0.00     0.188 C 
BRANCH   2   3
ATOM      3  O   UNL A   1      38.152  22.591  26.100  1.00  0.00    -0.376 OA
BRANCH   3   4
ATOM      4  C   UNL A   1      38.386  21.432  25.325  1.00  0.00     0.202 C 
BRANCH   4   5
ATOM      5  C   UNL A   1      37.297  20.394  24.984  1.00  0.00     0.261 C 
BRANCH   5   6
ATOM      6  O   UNL A   1      36.042  20.902  24.486  1.00  0.00    -0.462 OA
BRANCH   6   7
ATOM      7  C   UNL A   1      34.938  20.751  25.247  1.00  0.00     0.319 C 
ATOM      8  O   UNL A   1      34.932  21.101  26.427  1.00  0.00    -0.251 OA
BRANCH   7   9
ATOM      9  C   UNL A   1      33.705  20.102  24.568  1.00  0.00     0.164 C 
BRANCH   9  10
ATOM     10  S   UNL A   1      32.089  21.023  24.459  1.00  0.00    -0.110 SA
BRANCH  10  11
ATOM     11  C   UNL A   1      32.188  22.636  23.651  1.00  0.00     0.011 A 
ATOM     12  C   UNL A   1      31.934  25.075  22.151  1.00  0.00     0.068 A 
ATOM     13  C   UNL A   1      33.042  24.254  22.009  1.00  0.00     0.030 A 
ATOM     14  C   UNL A   1      31.016  24.732  23.148  1.00  0.00     0.147 A 
ATOM     15  C   UNL A   1      33.162  23.063  22.752  1.00  0.00     0.017 A 
ATOM     16  C   UNL A   1      31.124  23.533  23.874  1.00  0.00     0.056 A 
ATOM     17  F   UNL A   1      29.950  25.524  23.356  1.00  0.00    -0.205 F 
BRANCH  12  18
ATOM     18  N   UNL A   1      31.786  26.206  21.360  1.00  0.00    -0.396 N 
ATOM     19  H   UNL A   1      30.966  26.747  21.424  1.00  0.00     0.156 HD
ATOM     20  H   UNL A   1      32.501  26.466  20.736  1.00  0.00     0.156 HD
ENDBRANCH  12  18
ENDBRANCH  10  11
ENDBRANCH   9  10
BRANCH   9  21
ATOM     21  C   UNL A   1      33.577  18.599  24.625  1.00  0.00     0.014 C 
ATOM     22  C   UNL A   1      33.666  17.740  23.373  1.00  0.00     0.006 C 
ATOM     23  C   UNL A   1      34.692  17.587  24.441  1.00  0.00     0.006 C 
ENDBRANCH   9  21
ENDBRANCH   7   9
ENDBRANCH   6   7
ENDBRANCH   5   6
ENDBRANCH   4   5
ENDBRANCH   3   4
ENDBRANCH   2   3
ENDBRANCH   1   2
BRANCH   1  24
ATOM     24  O   UNL A   1      34.990  24.308  25.332  1.00  0.00    -0.377 OA
BRANCH  24  25
ATOM     25  C   UNL A   1      34.433  25.595  25.268  1.00  0.00     0.188 C 
BRANCH  25  26
ATOM     26  C   UNL A   1      33.172  25.735  26.128  1.00  0.00     0.188 C 
BRANCH  26  27
ATOM     27  O   UNL A   1      32.194  26.597  25.563  1.00  0.00    -0.376 OA
BRANCH  27  28
ATOM     28  C   UNL A   1      32.090  27.938  26.025  1.00  0.00     0.202 C 
BRANCH  28  29
ATOM     29  C   UNL A   1      32.950  28.475  27.183  1.00  0.00     0.261 C 
BRANCH  29  30
ATOM     30  O   UNL A   1      34.155  29.165  26.864  1.00  0.00    -0.460 OA
BRANCH  30  31
ATOM     31  C   UNL A   1      34.481  30.260  27.563  1.00  0.00     0.338 C 
ATOM     32  O   UNL A   1      33.787  31.232  27.808  1.00  0.00    -0.246 OA
BRANCH  31  33
ATOM     33  C   UNL A   1      35.783  29.941  28.173  1.00  0.00     0.060 A 
ATOM     34  C   UNL A   1      36.941  30.138  27.411  1.00  0.00     0.016 A 
ATOM     35  C   UNL A   1      35.860  29.558  29.517  1.00  0.00     0.016 A 
ATOM     36  C   UNL A   1      38.186  29.940  27.990  1.00  0.00     0.010 A 
ATOM     37  C   UNL A   1      37.107  29.317  30.086  1.00  0.00     0.010 A 
ATOM     38  C   UNL A   1      38.266  29.475  29.309  1.00  0.00    -0.014 A 
BRANCH  38  39
ATOM     39  C   UNL A   1      39.539  28.886  29.760  1.00  0.00     0.031 A 
ATOM     40  C   UNL A   1      40.177  29.498  30.974  1.00  0.00     0.074 A 
ATOM     41  C   UNL A   1      40.065  27.812  29.152  1.00  0.00     0.049 A 
ATOM     42  N   UNL A   1      41.291  29.181  31.578  1.00  0.00    -0.248 NA
ATOM     43  C   UNL A   1      39.454  30.623  31.595  1.00  0.00     0.031 C 
ATOM     44  C   UNL A   1      39.484  27.120  28.004  1.00  0.00     0.029 A 
ATOM     45  N   UNL A   1      41.214  27.117  29.423  1.00  0.00    -0.354 N 
ATOM     46  C   UNL A   1      41.400  30.068  32.641  1.00  0.00     0.074 A 
ATOM     47  C   UNL A   1      40.263  30.956  32.585  1.00  0.00     0.031 C 
ATOM     48  C   UNL A   1      40.289  26.099  27.659  1.00  0.00     0.029 A 
ATOM     49  C   UNL A   1      41.454  26.092  28.542  1.00  0.00     0.049 A 
ATOM     50  H   UNL A   1      41.810  27.332  30.177  1.00  0.00     0.167 HD
ATOM     51  C   UNL A   1      42.365  30.125  33.587  1.00  0.00     0.037 A 
ATOM     52  C   UNL A   1      42.513  25.266  28.456  1.00  0.00     0.037 A 
ATOM     53  C   UNL A   1      43.496  29.240  33.613  1.00  0.00     0.049 A 
ATOM     54  C   UNL A   1      43.622  25.408  29.469  1.00  0.00     0.074 A 
ATOM     55  C   UNL A   1      44.542  29.204  34.515  1.00  0.00     0.029 A 
ATOM     56  N   UNL A   1      43.730  28.240  32.680  1.00  0.00    -0.354 N 
ATOM     57  N   UNL A   1      43.716  26.237  30.483  1.00  0.00    -0.248 NA
ATOM     58  C   UNL A   1      44.767  24.499  29.330  1.00  0.00     0.031 C 
ATOM     59  C   UNL A   1      45.441  28.221  34.092  1.00  0.00     0.029 A 
ATOM     60  C   UNL A   1      44.920  27.596  32.968  1.00  0.00     0.049 A 
ATOM     61  H   UNL A   1      43.137  28.020  31.925  1.00  0.00     0.167 HD
ATOM     62  C   UNL A   1      44.911  25.928  31.121  1.00  0.00     0.074 A 
ATOM     63  C   UNL A   1      45.500  24.828  30.384  1.00  0.00     0.031 C 
ATOM     64  C   UNL A   1      45.471  26.495  32.220  1.00  0.00     0.037 A 
BRANCH  51  65
ATOM     65  C   UNL A   1      42.253  31.204  34.623  1.00  0.00     0.057 A 
ATOM     66  C   UNL A   1      42.893  32.443  34.485  1.00  0.00     0.134 A 
ATOM     67  C   UNL A   1      41.490  30.999  35.779  1.00  0.00     0.134 A 
ATOM     68  F   UNL A   1      43.661  32.697  33.413  1.00  0.00    -0.206 F 
ATOM     69  C   UNL A   1      42.797  33.429  35.468  1.00  0.00     0.040 A 
ATOM     70  C   UNL A   1      41.361  31.988  36.756  1.00  0.00     0.040 A 
ATOM     71  F   UNL A   1      40.855  29.834  35.980  1.00  0.00    -0.206 F 
ATOM     72  C   UNL A   1      42.023  33.205  36.605  1.00  0.00     0.006 A 
ENDBRANCH  51  65
BRANCH  52  73
ATOM     73  C   UNL A   1      42.587  24.252  27.374  1.00  0.00     0.057 A 
ATOM     74  C   UNL A   1      42.088  22.956  27.550  1.00  0.00     0.134 A 
ATOM     75  C   UNL A   1      43.172  24.551  26.136  1.00  0.00     0.134 A 
ATOM     76  F   UNL A   1      41.532  22.600  28.718  1.00  0.00    -0.206 F 
ATOM     77  C   UNL A   1      42.187  21.990  26.547  1.00  0.00     0.040 A 
ATOM     78  C   UNL A   1      43.252  23.603  25.114  1.00  0.00     0.040 A 
ATOM     79  F   UNL A   1      43.667  25.775  25.899  1.00  0.00    -0.206 F 
ATOM     80  C   UNL A   1      42.766  22.315  25.322  1.00  0.00     0.006 A 
ENDBRANCH  52  73
BRANCH  64  81
ATOM     81  C   UNL A   1      46.756  25.902  32.719  1.00  0.00     0.057 A 
ATOM     82  C   UNL A   1      46.783  24.877  33.672  1.00  0.00     0.134 A 
ATOM     83  C   UNL A   1      47.982  26.329  32.191  1.00  0.00     0.134 A 
ATOM     84  F   UNL A   1      45.644  24.430  34.224  1.00  0.00    -0.206 F 
ATOM     85  C   UNL A   1      47.987  24.314  34.100  1.00  0.00     0.040 A 
ATOM     86  C   UNL A   1      49.188  25.751  32.586  1.00  0.00     0.040 A 
ATOM     87  F   UNL A   1      48.025  27.297  31.264  1.00  0.00    -0.206 F 
ATOM     88  C   UNL A   1      49.192  24.745  33.550  1.00  0.00     0.006 A 
ENDBRANCH  64  81
ENDBRANCH  38  39
ENDBRANCH  31  33
ENDBRANCH  30  31
ENDBRANCH  29  30
ENDBRANCH  28  29
ENDBRANCH  27  28
ENDBRANCH  26  27
ENDBRANCH  25  26
ENDBRANCH  24  25
ENDBRANCH   1  24
TORSDOF 24
ENDMDL
MODEL 2
REMARK VINA RESULT:      -8.7      3.741      8.585
REMARK SMILES Nc1ccc(S[C@@H](C(=O)OCCOCCOCCOCCOC(=O)c2ccc(-c3c4nc(c(-c5c(F)cccc5F)c5ccc([nH]5)c(-c5c(F)cccc5F)c5nc(c(-c6c(F)cccc6F)c6ccc3[nH]6)C=C5)C=C4)cc2)C2CC2)cc1F
REMARK SMILES IDX 15 1 14 2 13 3 12 4 11 5 10 6 8 7 9 8 7 9 6 10 5 11 2 12
REMARK SMILES IDX 3 13 83 14 4 15 82 16 84 17 1 18 79 21 80 22 81 23 16 24
REMARK SMILES IDX 17 25 18 26 19 27 20 28 21 29 22 30 23 31 24 32 25 33 26 34
REMARK SMILES IDX 78 35 27 36 77 37 28 38 29 39 30 40 71 41 31 42 76 43 70 44
REMARK SMILES IDX 72 45 32 46 75 47 69 48 68 49 33 51 59 52 42 53 58 54 43 55
REMARK SMILES IDX 46 56 57 57 73 58 44 59 45 60 56 62 74 63 47 64 34 65 35 66
REMARK SMILES IDX 40 67 36 68 37 69 39 70 41 71 38 72 60 73 61 74 66 75 62 76
REMARK SMILES IDX 63 77 65 78 67 79 64 80 48 81 49 82 54 83 50 84 51 85 53 86
REMARK SMILES IDX 55 87 52 88
REMARK H PARENT 1 19 1 20 72 50 46 61
REMARK Flexibility Score: inf
ROOT
ATOM      1  C   UNL A   1      33.795  24.994  25.834  1.00  0.00     0.188 C 
ENDROOT
BRANCH   1   2
ATOM      2  C   UNL A   1      33.627  26.527  25.726  1.00  0.00     0.188 C 
BRANCH   2   3
ATOM      3  O   UNL A   1      32.862  27.140  26.739  1.00  0.00    -0.376 OA
BRANCH   3   4
ATOM      4  C   UNL A   1      31.968  28.195  26.447  1.00  0.00     0.202 C 
BRANCH   4   5
ATOM      5  C   UNL A   1      32.249  29.293  25.401  1.00  0.00     0.261 C 
BRANCH   5   6
ATOM      6  O   UNL A   1      31.125  29.756  24.623  1.00  0.00    -0.462 OA
BRANCH   6   7
ATOM      7  C   UNL A   1      30.769  29.056  23.525  1.00  0.00     0.319 C 
ATOM      8  O   UNL A   1      31.481  29.049  22.522  1.00  0.00    -0.251 OA
BRANCH   7   9
ATOM      9  C   UNL A   1      29.422  28.292  23.591  1.00  0.00     0.164 C 
BRANCH   9  10
ATOM     10  S   UNL A   1      29.373  26.499  24.095  1.00  0.00    -0.110 SA
BRANCH  10  11
ATOM     11  C   UNL A   1      30.666  25.469  23.363  1.00  0.00     0.011 A 
ATOM     12  C   UNL A   1      32.864  23.759  22.654  1.00  0.00     0.068 A 
ATOM     13  C   UNL A   1      32.781  25.060  22.179  1.00  0.00     0.030 A 
ATOM     14  C   UNL A   1      31.769  23.278  23.379  1.00  0.00     0.147 A 
ATOM     15  C   UNL A   1      31.697  25.890  22.528  1.00  0.00     0.017 A 
ATOM     16  C   UNL A   1      30.698  24.113  23.744  1.00  0.00     0.056 A 
ATOM     17  F   UNL A   1      31.784  22.008  23.818  1.00  0.00    -0.205 F 
BRANCH  12  18
ATOM     18  N   UNL A   1      33.972  22.973  22.370  1.00  0.00    -0.396 N 
ATOM     19  H   UNL A   1      34.813  23.113  22.862  1.00  0.00     0.156 HD
ATOM     20  H   UNL A   1      33.917  22.276  21.678  1.00  0.00     0.156 HD
ENDBRANCH  12  18
ENDBRANCH  10  11
ENDBRANCH   9  10
BRANCH   9  21
ATOM     21  C   UNL A   1      28.322  28.717  22.648  1.00  0.00     0.014 C 
ATOM     22  C   UNL A   1      26.897  28.940  23.130  1.00  0.00     0.006 C 
ATOM     23  C   UNL A   1      27.671  30.085  22.574  1.00  0.00     0.006 C 
ENDBRANCH   9  21
ENDBRANCH   7   9
ENDBRANCH   6   7
ENDBRANCH   5   6
ENDBRANCH   4   5
ENDBRANCH   3   4
ENDBRANCH   2   3
ENDBRANCH   1   2
BRANCH   1  24
ATOM     24  O   UNL A   1      34.871  24.228  25.325  1.00  0.00    -0.377 OA
BRANCH  24  25
ATOM     25  C   UNL A   1      35.319  23.137  26.085  1.00  0.00     0.188 C 
BRANCH  25  26
ATOM     26  C   UNL A   1      35.839  21.987  25.215  1.00  0.00     0.188 C 
BRANCH  26  27
ATOM     27  O   UNL A   1      36.915  21.272  25.805  1.00  0.00    -0.376 OA
BRANCH  27  28
ATOM     28  C   UNL A   1      38.235  21.451  25.304  1.00  0.00     0.202 C 
BRANCH  28  29
ATOM     29  C   UNL A   1      39.479  21.005  26.093  1.00  0.00     0.261 C 
BRANCH  29  30
ATOM     30  O   UNL A   1      39.970  19.684  25.886  1.00  0.00    -0.460 OA
BRANCH  30  31
ATOM     31  C   UNL A   1      41.266  19.430  26.109  1.00  0.00     0.338 C 
ATOM     32  O   UNL A   1      41.874  18.390  25.918  1.00  0.00    -0.246 OA
BRANCH  31  33
ATOM     33  C   UNL A   1      41.858  20.743  26.417  1.00  0.00     0.060 A 
ATOM     34  C   UNL A   1      42.011  21.106  27.760  1.00  0.00     0.016 A 
ATOM     35  C   UNL A   1      42.354  21.554  25.389  1.00  0.00     0.016 A 
ATOM     36  C   UNL A   1      42.654  22.292  28.082  1.00  0.00     0.010 A 
ATOM     37  C   UNL A   1      42.960  22.765  25.710  1.00  0.00     0.010 A 
ATOM     38  C   UNL A   1      43.077  23.147  27.056  1.00  0.00    -0.014 A 
BRANCH  38  39
ATOM     39  C   UNL A   1      43.369  24.550  27.399  1.00  0.00     0.031 A 
ATOM     40  C   UNL A   1      44.799  24.994  27.280  1.00  0.00     0.074 A 
ATOM     41  C   UNL A   1      42.391  25.404  27.738  1.00  0.00     0.049 A 
ATOM     42  N   UNL A   1      45.330  26.162  27.521  1.00  0.00    -0.248 NA
ATOM     43  C   UNL A   1      45.762  23.976  26.822  1.00  0.00     0.031 C 
ATOM     44  C   UNL A   1      40.970  25.073  27.823  1.00  0.00     0.029 A 
ATOM     45  N   UNL A   1      42.452  26.730  28.074  1.00  0.00    -0.354 N 
ATOM     46  C   UNL A   1      46.684  26.016  27.247  1.00  0.00     0.074 A 
ATOM     47  C   UNL A   1      46.902  24.643  26.855  1.00  0.00     0.031 C 
ATOM     48  C   UNL A   1      40.290  26.171  28.200  1.00  0.00     0.029 A 
ATOM     49  C   UNL A   1      41.235  27.266  28.413  1.00  0.00     0.049 A 
ATOM     50  H   UNL A   1      43.289  27.249  28.071  1.00  0.00     0.167 HD
ATOM     51  C   UNL A   1      47.656  26.953  27.311  1.00  0.00     0.037 A 
ATOM     52  C   UNL A   1      40.937  28.497  28.867  1.00  0.00     0.037 A 
ATOM     53  C   UNL A   1      47.417  28.309  27.719  1.00  0.00     0.049 A 
ATOM     54  C   UNL A   1      42.053  29.500  29.015  1.00  0.00     0.074 A 
ATOM     55  C   UNL A   1      48.321  29.349  27.830  1.00  0.00     0.029 A 
ATOM     56  N   UNL A   1      46.178  28.807  28.097  1.00  0.00    -0.354 N 
ATOM     57  N   UNL A   1      43.331  29.365  28.742  1.00  0.00    -0.248 NA
ATOM     58  C   UNL A   1      41.689  30.826  29.531  1.00  0.00     0.031 C 
ATOM     59  C   UNL A   1      47.639  30.459  28.333  1.00  0.00     0.029 A 
ATOM     60  C   UNL A   1      46.298  30.134  28.468  1.00  0.00     0.049 A 
ATOM     61  H   UNL A   1      45.339  28.293  28.101  1.00  0.00     0.167 HD
ATOM     62  C   UNL A   1      43.914  30.595  29.018  1.00  0.00     0.074 A 
ATOM     63  C   UNL A   1      42.848  31.465  29.471  1.00  0.00     0.031 C 
ATOM     64  C   UNL A   1      45.212  30.976  28.903  1.00  0.00     0.037 A 
BRANCH  51  65
ATOM     65  C   UNL A   1      49.053  26.522  26.977  1.00  0.00     0.057 A 
ATOM     66  C   UNL A   1      49.930  26.012  27.946  1.00  0.00     0.134 A 
ATOM     67  C   UNL A   1      49.531  26.618  25.664  1.00  0.00     0.134 A 
ATOM     68  F   UNL A   1      49.546  25.916  29.228  1.00  0.00    -0.206 F 
ATOM     69  C   UNL A   1      51.235  25.636  27.624  1.00  0.00     0.040 A 
ATOM     70  C   UNL A   1      50.824  26.216  25.325  1.00  0.00     0.040 A 
ATOM     71  F   UNL A   1      48.749  27.103  24.688  1.00  0.00    -0.206 F 
ATOM     72  C   UNL A   1      51.682  25.730  26.308  1.00  0.00     0.006 A 
ENDBRANCH  51  65
BRANCH  52  73
ATOM     73  C   UNL A   1      39.539  28.844  29.228  1.00  0.00     0.057 A 
ATOM     74  C   UNL A   1      39.052  28.661  30.527  1.00  0.00     0.134 A 
ATOM     75  C   UNL A   1      38.648  29.357  28.275  1.00  0.00     0.134 A 
ATOM     76  F   UNL A   1      39.848  28.156  31.482  1.00  0.00    -0.206 F 
ATOM     77  C   UNL A   1      37.727  28.953  30.862  1.00  0.00     0.040 A 
ATOM     78  C   UNL A   1      37.330  29.680  28.602  1.00  0.00     0.040 A 
ATOM     79  F   UNL A   1      39.050  29.560  27.012  1.00  0.00    -0.206 F 
ATOM     80  C   UNL A   1      36.863  29.470  29.898  1.00  0.00     0.006 A 
ENDBRANCH  52  73
BRANCH  64  81
ATOM     81  C   UNL A   1      45.539  32.405  29.222  1.00  0.00     0.057 A 
ATOM     82  C   UNL A   1      45.978  32.805  30.489  1.00  0.00     0.134 A 
ATOM     83  C   UNL A   1      45.467  33.385  28.222  1.00  0.00     0.134 A 
ATOM     84  F   UNL A   1      46.059  31.917  31.493  1.00  0.00    -0.206 F 
ATOM     85  C   UNL A   1      46.310  34.134  30.758  1.00  0.00     0.040 A 
ATOM     86  C   UNL A   1      45.829  34.709  28.470  1.00  0.00     0.040 A 
ATOM     87  F   UNL A   1      45.068  33.066  26.982  1.00  0.00    -0.206 F 
ATOM     88  C   UNL A   1      46.245  35.088  29.744  1.00  0.00     0.006 A 
ENDBRANCH  64  81
ENDBRANCH  38  39
ENDBRANCH  31  33
ENDBRANCH  30  31
ENDBRANCH  29  30
ENDBRANCH  28  29
ENDBRANCH  27  28
ENDBRANCH  26  27
ENDBRANCH  25  26
ENDBRANCH  24  25
ENDBRANCH   1  24
TORSDOF 24
ENDMDL
MODEL 3
REMARK VINA RESULT:      -8.5      3.834      8.358
REMARK SMILES Nc1ccc(S[C@@H](C(=O)OCCOCCOCCOCCOC(=O)c2ccc(-c3c4nc(c(-c5c(F)cccc5F)c5ccc([nH]5)c(-c5c(F)cccc5F)c5nc(c(-c6c(F)cccc6F)c6ccc3[nH]6)C=C5)C=C4)cc2)C2CC2)cc1F
REMARK SMILES IDX 15 1 14 2 13 3 12 4 11 5 10 6 8 7 9 8 7 9 6 10 5 11 2 12
REMARK SMILES IDX 3 13 83 14 4 15 82 16 84 17 1 18 79 21 80 22 81 23 16 24
REMARK SMILES IDX 17 25 18 26 19 27 20 28 21 29 22 30 23 31 24 32 25 33 26 34
REMARK SMILES IDX 78 35 27 36 77 37 28 38 29 39 30 40 71 41 31 42 76 43 70 44
REMARK SMILES IDX 72 45 32 46 75 47 69 48 68 49 33 51 59 52 42 53 58 54 43 55
REMARK SMILES IDX 46 56 57 57 73 58 44 59 45 60 56 62 74 63 47 64 34 65 35 66
REMARK SMILES IDX 40 67 36 68 37 69 39 70 41 71 38 72 60 73 61 74 66 75 62 76
REMARK SMILES IDX 63 77 65 78 67 79 64 80 48 81 49 82 54 83 50 84 51 85 53 86
REMARK SMILES IDX 55 87 52 88
REMARK H PARENT 1 19 1 20 72 50 46 61
REMARK Flexibility Score: inf
ROOT
ATOM      1  C   UNL A   1      34.766  23.662  23.579  1.00  0.00     0.188 C 
ENDROOT
BRANCH   1   2
ATOM      2  C   UNL A   1      33.930  24.616  22.695  1.00  0.00     0.188 C 
BRANCH   2   3
ATOM      3  O   UNL A   1      32.611  24.864  23.125  1.00  0.00    -0.376 OA
BRANCH   3   4
ATOM      4  C   UNL A   1      32.281  26.033  23.847  1.00  0.00     0.202 C 
BRANCH   4   5
ATOM      5  C   UNL A   1      31.356  26.047  25.082  1.00  0.00     0.261 C 
BRANCH   5   6
ATOM      6  O   UNL A   1      31.844  25.393  26.272  1.00  0.00    -0.462 OA
BRANCH   6   7
ATOM      7  C   UNL A   1      31.404  24.148  26.549  1.00  0.00     0.319 C 
ATOM      8  O   UNL A   1      30.410  23.971  27.252  1.00  0.00    -0.251 OA
BRANCH   7   9
ATOM      9  C   UNL A   1      32.223  22.971  25.960  1.00  0.00     0.164 C 
BRANCH   9  10
ATOM     10  S   UNL A   1      31.571  21.993  24.515  1.00  0.00    -0.110 SA
BRANCH  10  11
ATOM     11  C   UNL A   1      32.259  20.329  24.353  1.00  0.00     0.011 A 
ATOM     12  C   UNL A   1      32.906  17.555  23.971  1.00  0.00     0.068 A 
ATOM     13  C   UNL A   1      33.110  18.181  25.192  1.00  0.00     0.030 A 
ATOM     14  C   UNL A   1      32.499  18.363  22.906  1.00  0.00     0.147 A 
ATOM     15  C   UNL A   1      32.795  19.543  25.369  1.00  0.00     0.017 A 
ATOM     16  C   UNL A   1      32.165  19.716  23.088  1.00  0.00     0.056 A 
ATOM     17  F   UNL A   1      32.335  17.809  21.692  1.00  0.00    -0.205 F 
BRANCH  12  18
ATOM     18  N   UNL A   1      33.144  16.195  23.827  1.00  0.00    -0.396 N 
ATOM     19  H   UNL A   1      32.881  15.735  22.998  1.00  0.00     0.156 HD
ATOM     20  H   UNL A   1      33.578  15.692  24.553  1.00  0.00     0.156 HD
ENDBRANCH  12  18
ENDBRANCH  10  11
ENDBRANCH   9  10
BRANCH   9  21
ATOM     21  C   UNL A   1      33.124  22.200  26.894  1.00  0.00     0.014 C 
ATOM     22  C   UNL A   1      34.523  22.685  27.239  1.00  0.00     0.006 C 
ATOM     23  C   UNL A   1      33.498  22.583  28.314  1.00  0.00     0.006 C 
ENDBRANCH   9  21
ENDBRANCH   7   9
ENDBRANCH   6   7
ENDBRANCH   5   6
ENDBRANCH   4   5
ENDBRANCH   3   4
ENDBRANCH   2   3
ENDBRANCH   1   2
BRANCH   1  24
ATOM     24  O   UNL A   1      36.098  23.865  24.011  1.00  0.00    -0.377 OA
BRANCH  24  25
ATOM     25  C   UNL A   1      36.980  22.775  23.962  1.00  0.00     0.188 C 
BRANCH  25  26
ATOM     26  C   UNL A   1      36.326  21.467  24.418  1.00  0.00     0.188 C 
BRANCH  26  27
ATOM     27  O   UNL A   1      37.186  20.645  25.194  1.00  0.00    -0.376 OA
BRANCH  27  28
ATOM     28  C   UNL A   1      38.362  21.203  25.768  1.00  0.00     0.202 C 
BRANCH  28  29
ATOM     29  C   UNL A   1      39.770  20.704  25.400  1.00  0.00     0.261 C 
BRANCH  29  30
ATOM     30  O   UNL A   1      40.184  19.433  25.891  1.00  0.00    -0.460 OA
BRANCH  30  31
ATOM     31  C   UNL A   1      41.489  19.202  26.079  1.00  0.00     0.338 C 
ATOM     32  O   UNL A   1      42.115  18.181  25.846  1.00  0.00    -0.246 OA
BRANCH  31  33
ATOM     33  C   UNL A   1      42.060  20.518  26.410  1.00  0.00     0.060 A 
ATOM     34  C   UNL A   1      42.007  20.951  27.740  1.00  0.00     0.016 A 
ATOM     35  C   UNL A   1      42.734  21.263  25.435  1.00  0.00     0.016 A 
ATOM     36  C   UNL A   1      42.622  22.141  28.100  1.00  0.00     0.010 A 
ATOM     37  C   UNL A   1      43.314  22.478  25.787  1.00  0.00     0.010 A 
ATOM     38  C   UNL A   1      43.225  22.931  27.113  1.00  0.00    -0.014 A 
BRANCH  38  39
ATOM     39  C   UNL A   1      43.496  24.345  27.426  1.00  0.00     0.031 A 
ATOM     40  C   UNL A   1      44.922  24.803  27.315  1.00  0.00     0.074 A 
ATOM     41  C   UNL A   1      42.505  25.195  27.731  1.00  0.00     0.049 A 
ATOM     42  N   UNL A   1      45.437  25.983  27.535  1.00  0.00    -0.248 NA
ATOM     43  C   UNL A   1      45.904  23.786  26.893  1.00  0.00     0.031 C 
ATOM     44  C   UNL A   1      41.086  24.849  27.806  1.00  0.00     0.029 A 
ATOM     45  N   UNL A   1      42.546  26.529  28.036  1.00  0.00    -0.354 N 
ATOM     46  C   UNL A   1      46.796  25.846  27.282  1.00  0.00     0.074 A 
ATOM     47  C   UNL A   1      47.035  24.468  26.925  1.00  0.00     0.031 C 
ATOM     48  C   UNL A   1      40.389  25.947  28.148  1.00  0.00     0.029 A 
ATOM     49  C   UNL A   1      41.318  27.058  28.347  1.00  0.00     0.049 A 
ATOM     50  H   UNL A   1      43.377  27.058  28.032  1.00  0.00     0.167 HD
ATOM     51  C   UNL A   1      47.756  26.796  27.335  1.00  0.00     0.037 A 
ATOM     52  C   UNL A   1      41.000  28.297  28.768  1.00  0.00     0.037 A 
ATOM     53  C   UNL A   1      47.497  28.158  27.708  1.00  0.00     0.049 A 
ATOM     54  C   UNL A   1      42.102  29.316  28.906  1.00  0.00     0.074 A 
ATOM     55  C   UNL A   1      48.387  29.211  27.806  1.00  0.00     0.029 A 
ATOM     56  N   UNL A   1      46.247  28.650  28.058  1.00  0.00    -0.354 N 
ATOM     57  N   UNL A   1      43.385  29.189  28.652  1.00  0.00    -0.248 NA
ATOM     58  C   UNL A   1      41.716  30.650  29.386  1.00  0.00     0.031 C 
ATOM     59  C   UNL A   1      47.685  30.325  28.274  1.00  0.00     0.029 A 
ATOM     60  C   UNL A   1      46.347  29.987  28.399  1.00  0.00     0.049 A 
ATOM     61  H   UNL A   1      45.413  28.127  28.063  1.00  0.00     0.167 HD
ATOM     62  C   UNL A   1      43.950  30.433  28.907  1.00  0.00     0.074 A 
ATOM     63  C   UNL A   1      42.869  31.301  29.325  1.00  0.00     0.031 C 
ATOM     64  C   UNL A   1      45.245  30.826  28.800  1.00  0.00     0.037 A 
BRANCH  51  65
ATOM     65  C   UNL A   1      49.163  26.374  27.030  1.00  0.00     0.057 A 
ATOM     66  C   UNL A   1      50.057  25.973  28.033  1.00  0.00     0.134 A 
ATOM     67  C   UNL A   1      49.631  26.367  25.711  1.00  0.00     0.134 A 
ATOM     68  F   UNL A   1      49.683  25.979  29.322  1.00  0.00    -0.206 F 
ATOM     69  C   UNL A   1      51.370  25.604  27.736  1.00  0.00     0.040 A 
ATOM     70  C   UNL A   1      50.933  25.971  25.398  1.00  0.00     0.040 A 
ATOM     71  F   UNL A   1      48.831  26.746  24.702  1.00  0.00    -0.206 F 
ATOM     72  C   UNL A   1      51.808  25.595  26.413  1.00  0.00     0.006 A 
ENDBRANCH  51  65
BRANCH  52  73
ATOM     73  C   UNL A   1      39.593  28.635  29.102  1.00  0.00     0.057 A 
ATOM     74  C   UNL A   1      38.719  29.159  28.143  1.00  0.00     0.134 A 
ATOM     75  C   UNL A   1      39.090  28.457  30.398  1.00  0.00     0.134 A 
ATOM     76  F   UNL A   1      39.143  29.373  26.888  1.00  0.00    -0.206 F 
ATOM     77  C   UNL A   1      37.406  29.512  28.463  1.00  0.00     0.040 A 
ATOM     78  C   UNL A   1      37.772  28.778  30.725  1.00  0.00     0.040 A 
ATOM     79  F   UNL A   1      39.874  27.955  31.366  1.00  0.00    -0.206 F 
ATOM     80  C   UNL A   1      36.928  29.316  29.757  1.00  0.00     0.006 A 
ENDBRANCH  52  73
BRANCH  64  81
ATOM     81  C   UNL A   1      45.551  32.266  29.088  1.00  0.00     0.057 A 
ATOM     82  C   UNL A   1      45.957  32.703  30.355  1.00  0.00     0.134 A 
ATOM     83  C   UNL A   1      45.493  33.220  28.062  1.00  0.00     0.134 A 
ATOM     84  F   UNL A   1      46.024  31.843  31.383  1.00  0.00    -0.206 F 
ATOM     85  C   UNL A   1      46.271  34.042  30.596  1.00  0.00     0.040 A 
ATOM     86  C   UNL A   1      45.836  34.553  28.284  1.00  0.00     0.040 A 
ATOM     87  F   UNL A   1      45.125  32.864  26.822  1.00  0.00    -0.206 F 
ATOM     88  C   UNL A   1      46.220  34.969  29.557  1.00  0.00     0.006 A 
ENDBRANCH  64  81
ENDBRANCH  38  39
ENDBRANCH  31  33
ENDBRANCH  30  31
ENDBRANCH  29  30
ENDBRANCH  28  29
ENDBRANCH  27  28
ENDBRANCH  26  27
ENDBRANCH  25  26
ENDBRANCH  24  25
ENDBRANCH   1  24
TORSDOF 24
ENDMDL
