MODEL 1
REMARK VINA RESULT:     -10.1      0.000      0.000
REMARK SMILES CNC(=O)NC1=[NH+]N=CN[C@@H]1C(=O)OCCOCCOCCOCCOC(=O)c1ccc(-c2c3nc(c(-c4c(F)cccc4F)c4ccc([nH]4)c(-c4c(F)cccc4F)c4nc(c(-c5c(F)cccc5F)c5ccc2[nH]5)C=C4)C=C3)cc1
REMARK SMILES IDX 21 1 20 2 19 3 18 4 17 5 16 6 15 7 14 8 12 9 13 10 11 11
REMARK SMILES IDX 1 12 2 13 3 14 4 16 5 17 6 18 7 20 8 21 10 23 9 24 22 26
REMARK SMILES IDX 23 27 24 28 25 29 26 30 27 31 28 32 29 33 30 34 82 35 31 36
REMARK SMILES IDX 81 37 32 38 33 39 34 40 75 41 35 42 80 43 74 44 76 45 36 46
REMARK SMILES IDX 79 47 73 48 72 49 37 51 63 52 46 53 62 54 47 55 50 56 61 57
REMARK SMILES IDX 77 58 48 59 49 60 60 62 78 63 51 64 38 65 39 66 44 67 40 68
REMARK SMILES IDX 41 69 43 70 45 71 42 72 64 73 65 74 70 75 66 76 67 77 69 78
REMARK SMILES IDX 71 79 68 80 52 81 53 82 58 83 54 84 55 85 57 86 59 87 56 88
REMARK H PARENT 2 15 5 19 7 22 10 25 76 50 50 61
REMARK Flexibility Score: inf
ROOT
ATOM      1  C   UNL A   1      41.418  21.160  25.901  1.00  0.00     0.188 C 
ENDROOT
BRANCH   1   2
ATOM      2  O   UNL A   1      40.049  20.952  26.268  1.00  0.00    -0.377 OA
BRANCH   2   3
ATOM      3  C   UNL A   1      39.164  22.059  26.302  1.00  0.00     0.188 C 
BRANCH   3   4
ATOM      4  C   UNL A   1      37.771  21.880  25.676  1.00  0.00     0.188 C 
BRANCH   4   5
ATOM      5  O   UNL A   1      37.437  22.816  24.679  1.00  0.00    -0.376 OA
BRANCH   5   6
ATOM      6  C   UNL A   1      36.204  22.773  23.978  1.00  0.00     0.202 C 
BRANCH   6   7
ATOM      7  C   UNL A   1      35.032  23.759  24.156  1.00  0.00     0.261 C 
BRANCH   7   8
ATOM      8  O   UNL A   1      33.958  23.659  23.222  1.00  0.00    -0.461 OA
BRANCH   8   9
ATOM      9  C   UNL A   1      32.705  23.726  23.745  1.00  0.00     0.341 C 
ATOM     10  O   UNL A   1      31.687  23.654  23.065  1.00  0.00    -0.249 OA
BRANCH   9  11
ATOM     11  C   UNL A   1      32.699  23.697  25.276  1.00  0.00     0.308 C 
ATOM     12  C   UNL A   1      34.164  21.530  27.304  1.00  0.00     0.147 C 
ATOM     13  N   UNL A   1      33.902  20.852  26.050  1.00  0.00    -0.321 N 
ATOM     14  C   UNL A   1      32.711  20.646  25.430  1.00  0.00     0.406 C 
ATOM     15  H   UNL A   1      34.691  20.493  25.586  1.00  0.00     0.167 HD
ATOM     16  O   UNL A   1      32.603  19.725  24.626  1.00  0.00    -0.221 OA
ATOM     17  N   UNL A   1      31.656  21.454  25.738  1.00  0.00    -0.191 N 
ATOM     18  C   UNL A   1      31.547  22.825  25.749  1.00  0.00     0.311 C 
ATOM     19  H   UNL A   1      30.834  20.975  25.996  1.00  0.00     0.317 HD
ATOM     20  N   UNL A   1      30.406  23.301  26.147  1.00  0.00    -0.148 N 
ATOM     21  N   UNL A   1      30.267  24.699  26.300  1.00  0.00    -0.077 NA
ATOM     22  H   UNL A   1      29.652  22.698  26.341  1.00  0.00     0.342 HD
ATOM     23  N   UNL A   1      32.578  25.005  25.912  1.00  0.00    -0.350 N 
ATOM     24  C   UNL A   1      31.334  25.425  26.245  1.00  0.00     0.241 C 
ATOM     25  H   UNL A   1      33.371  25.560  26.092  1.00  0.00     0.163 HD
ENDBRANCH   9  11
ENDBRANCH   8   9
ENDBRANCH   7   8
ENDBRANCH   6   7
ENDBRANCH   5   6
ENDBRANCH   4   5
ENDBRANCH   3   4
ENDBRANCH   2   3
ENDBRANCH   1   2
BRANCH   1  26
ATOM     26  C   UNL A   1      42.491  20.052  26.042  1.00  0.00     0.188 C 
BRANCH  26  27
ATOM     27  O   UNL A   1      43.447  20.002  24.999  1.00  0.00    -0.376 OA
BRANCH  27  28
ATOM     28  C   UNL A   1      44.746  20.511  25.258  1.00  0.00     0.202 C 
BRANCH  28  29
ATOM     29  C   UNL A   1      45.016  21.975  24.867  1.00  0.00     0.261 C 
BRANCH  29  30
ATOM     30  O   UNL A   1      44.372  22.970  25.681  1.00  0.00    -0.460 OA
BRANCH  30  31
ATOM     31  C   UNL A   1      44.646  24.261  25.407  1.00  0.00     0.338 C 
ATOM     32  O   UNL A   1      45.340  24.689  24.496  1.00  0.00    -0.246 OA
BRANCH  31  33
ATOM     33  C   UNL A   1      43.798  25.110  26.266  1.00  0.00     0.060 A 
ATOM     34  C   UNL A   1      44.156  26.452  26.438  1.00  0.00     0.016 A 
ATOM     35  C   UNL A   1      42.675  24.587  26.912  1.00  0.00     0.016 A 
ATOM     36  C   UNL A   1      43.422  27.264  27.301  1.00  0.00     0.010 A 
ATOM     37  C   UNL A   1      41.952  25.398  27.794  1.00  0.00     0.010 A 
ATOM     38  C   UNL A   1      42.352  26.727  28.026  1.00  0.00    -0.014 A 
BRANCH  38  39
ATOM     39  C   UNL A   1      41.801  27.505  29.163  1.00  0.00     0.031 A 
ATOM     40  C   UNL A   1      42.510  27.436  30.490  1.00  0.00     0.074 A 
ATOM     41  C   UNL A   1      40.746  28.323  29.002  1.00  0.00     0.049 A 
ATOM     42  N   UNL A   1      42.251  28.069  31.606  1.00  0.00    -0.248 NA
ATOM     43  C   UNL A   1      43.671  26.533  30.567  1.00  0.00     0.031 C 
ATOM     44  C   UNL A   1      40.002  28.511  27.759  1.00  0.00     0.029 A 
ATOM     45  N   UNL A   1      40.125  29.158  29.897  1.00  0.00    -0.354 N 
ATOM     46  C   UNL A   1      43.210  27.638  32.515  1.00  0.00     0.074 A 
ATOM     47  C   UNL A   1      44.036  26.666  31.833  1.00  0.00     0.031 C 
ATOM     48  C   UNL A   1      39.026  29.412  27.968  1.00  0.00     0.029 A 
ATOM     49  C   UNL A   1      39.059  29.843  29.365  1.00  0.00     0.049 A 
ATOM     50  H   UNL A   1      40.415  29.258  30.833  1.00  0.00     0.167 HD
ATOM     51  C   UNL A   1      43.393  28.024  33.800  1.00  0.00     0.037 A 
ATOM     52  C   UNL A   1      38.205  30.708  29.945  1.00  0.00     0.037 A 
ATOM     53  C   UNL A   1      42.574  28.994  34.477  1.00  0.00     0.049 A 
ATOM     54  C   UNL A   1      38.389  31.065  31.399  1.00  0.00     0.074 A 
ATOM     55  C   UNL A   1      42.698  29.474  35.769  1.00  0.00     0.029 A 
ATOM     56  N   UNL A   1      41.471  29.624  33.920  1.00  0.00    -0.354 N 
ATOM     57  N   UNL A   1      39.324  30.684  32.236  1.00  0.00    -0.248 NA
ATOM     58  C   UNL A   1      37.399  31.979  31.984  1.00  0.00     0.031 C 
ATOM     59  C   UNL A   1      41.631  30.344  36.016  1.00  0.00     0.029 A 
ATOM     60  C   UNL A   1      40.883  30.461  34.856  1.00  0.00     0.049 A 
ATOM     61  H   UNL A   1      41.153  29.496  32.998  1.00  0.00     0.167 HD
ATOM     62  C   UNL A   1      39.055  31.340  33.433  1.00  0.00     0.074 A 
ATOM     63  C   UNL A   1      37.882  32.157  33.205  1.00  0.00     0.031 C 
ATOM     64  C   UNL A   1      39.717  31.273  34.615  1.00  0.00     0.037 A 
BRANCH  51  65
ATOM     65  C   UNL A   1      44.502  27.368  34.572  1.00  0.00     0.057 A 
ATOM     66  C   UNL A   1      45.789  27.916  34.644  1.00  0.00     0.134 A 
ATOM     67  C   UNL A   1      44.263  26.188  35.290  1.00  0.00     0.134 A 
ATOM     68  F   UNL A   1      46.091  29.035  33.967  1.00  0.00    -0.206 F 
ATOM     69  C   UNL A   1      46.803  27.305  35.384  1.00  0.00     0.040 A 
ATOM     70  C   UNL A   1      45.260  25.584  36.057  1.00  0.00     0.040 A 
ATOM     71  F   UNL A   1      43.052  25.611  35.268  1.00  0.00    -0.206 F 
ATOM     72  C   UNL A   1      46.536  26.140  36.101  1.00  0.00     0.006 A 
ENDBRANCH  51  65
BRANCH  52  73
ATOM     73  C   UNL A   1      37.087  31.302  29.165  1.00  0.00     0.057 A 
ATOM     74  C   UNL A   1      37.139  32.624  28.707  1.00  0.00     0.134 A 
ATOM     75  C   UNL A   1      35.916  30.577  28.904  1.00  0.00     0.134 A 
ATOM     76  F   UNL A   1      38.222  33.379  28.948  1.00  0.00    -0.206 F 
ATOM     77  C   UNL A   1      36.059  33.214  28.046  1.00  0.00     0.040 A 
ATOM     78  C   UNL A   1      34.843  31.145  28.216  1.00  0.00     0.040 A 
ATOM     79  F   UNL A   1      35.800  29.306  29.316  1.00  0.00    -0.206 F 
ATOM     80  C   UNL A   1      34.909  32.471  27.796  1.00  0.00     0.006 A 
ENDBRANCH  52  73
BRANCH  64  81
ATOM     81  C   UNL A   1      39.214  32.140  35.736  1.00  0.00     0.057 A 
ATOM     82  C   UNL A   1      39.625  33.471  35.892  1.00  0.00     0.134 A 
ATOM     83  C   UNL A   1      38.291  31.640  36.664  1.00  0.00     0.134 A 
ATOM     84  F   UNL A   1      40.513  34.012  35.044  1.00  0.00    -0.206 F 
ATOM     85  C   UNL A   1      39.173  34.256  36.954  1.00  0.00     0.040 A 
ATOM     86  C   UNL A   1      37.803  32.426  37.709  1.00  0.00     0.040 A 
ATOM     87  F   UNL A   1      37.841  30.379  36.567  1.00  0.00    -0.206 F 
ATOM     88  C   UNL A   1      38.254  33.735  37.863  1.00  0.00     0.006 A 
ENDBRANCH  64  81
ENDBRANCH  38  39
ENDBRANCH  31  33
ENDBRANCH  30  31
ENDBRANCH  29  30
ENDBRANCH  28  29
ENDBRANCH  27  28
ENDBRANCH  26  27
ENDBRANCH   1  26
TORSDOF 20
ENDMDL
MODEL 2
REMARK VINA RESULT:     -10.1      4.631      9.810
REMARK SMILES CNC(=O)NC1=[NH+]N=CN[C@@H]1C(=O)OCCOCCOCCOCCOC(=O)c1ccc(-c2c3nc(c(-c4c(F)cccc4F)c4ccc([nH]4)c(-c4c(F)cccc4F)c4nc(c(-c5c(F)cccc5F)c5ccc2[nH]5)C=C4)C=C3)cc1
REMARK SMILES IDX 21 1 20 2 19 3 18 4 17 5 16 6 15 7 14 8 12 9 13 10 11 11
REMARK SMILES IDX 1 12 2 13 3 14 4 16 5 17 6 18 7 20 8 21 10 23 9 24 22 26
REMARK SMILES IDX 23 27 24 28 25 29 26 30 27 31 28 32 29 33 30 34 82 35 31 36
REMARK SMILES IDX 81 37 32 38 33 39 34 40 75 41 35 42 80 43 74 44 76 45 36 46
REMARK SMILES IDX 79 47 73 48 72 49 37 51 63 52 46 53 62 54 47 55 50 56 61 57
REMARK SMILES IDX 77 58 48 59 49 60 60 62 78 63 51 64 38 65 39 66 44 67 40 68
REMARK SMILES IDX 41 69 43 70 45 71 42 72 64 73 65 74 70 75 66 76 67 77 69 78
REMARK SMILES IDX 71 79 68 80 52 81 53 82 58 83 54 84 55 85 57 86 59 87 56 88
REMARK H PARENT 2 15 5 19 7 22 10 25 76 50 50 61
REMARK Flexibility Score: inf
ROOT
ATOM      1  C   UNL A   1      34.846  32.409  28.086  1.00  0.00     0.188 C 
ENDROOT
BRANCH   1   2
ATOM      2  O   UNL A   1      34.252  31.123  28.294  1.00  0.00    -0.377 OA
BRANCH   2   3
ATOM      3  C   UNL A   1      34.411  30.118  27.306  1.00  0.00     0.188 C 
BRANCH   3   4
ATOM      4  C   UNL A   1      33.171  29.719  26.487  1.00  0.00     0.188 C 
BRANCH   4   5
ATOM      5  O   UNL A   1      32.870  28.344  26.486  1.00  0.00    -0.376 OA
BRANCH   5   6
ATOM      6  C   UNL A   1      31.572  27.850  26.774  1.00  0.00     0.202 C 
BRANCH   6   7
ATOM      7  C   UNL A   1      30.973  26.532  26.243  1.00  0.00     0.261 C 
BRANCH   7   8
ATOM      8  O   UNL A   1      31.742  25.347  26.443  1.00  0.00    -0.461 OA
BRANCH   8   9
ATOM      9  C   UNL A   1      31.054  24.176  26.402  1.00  0.00     0.341 C 
ATOM     10  O   UNL A   1      30.178  23.882  27.208  1.00  0.00    -0.249 OA
BRANCH   9  11
ATOM     11  C   UNL A   1      31.344  23.360  25.139  1.00  0.00     0.308 C 
ATOM     12  C   UNL A   1      32.421  20.240  24.900  1.00  0.00     0.147 C 
ATOM     13  N   UNL A   1      32.884  20.770  26.167  1.00  0.00    -0.321 N 
ATOM     14  C   UNL A   1      33.680  21.845  26.396  1.00  0.00     0.406 C 
ATOM     15  H   UNL A   1      32.581  20.285  26.968  1.00  0.00     0.167 HD
ATOM     16  O   UNL A   1      34.309  21.916  27.448  1.00  0.00    -0.221 OA
ATOM     17  N   UNL A   1      33.782  22.810  25.437  1.00  0.00    -0.191 N 
ATOM     18  C   UNL A   1      32.811  23.522  24.772  1.00  0.00     0.311 C 
ATOM     19  H   UNL A   1      34.705  23.035  25.177  1.00  0.00     0.317 HD
ATOM     20  N   UNL A   1      33.234  24.345  23.861  1.00  0.00    -0.148 N 
ATOM     21  N   UNL A   1      32.286  25.017  23.056  1.00  0.00    -0.077 NA
ATOM     22  H   UNL A   1      34.198  24.498  23.732  1.00  0.00     0.342 HD
ATOM     23  N   UNL A   1      30.537  23.722  23.979  1.00  0.00    -0.350 N 
ATOM     24  C   UNL A   1      31.056  24.626  23.114  1.00  0.00     0.241 C 
ATOM     25  H   UNL A   1      29.649  23.324  23.830  1.00  0.00     0.163 HD
ENDBRANCH   9  11
ENDBRANCH   8   9
ENDBRANCH   7   8
ENDBRANCH   6   7
ENDBRANCH   5   6
ENDBRANCH   4   5
ENDBRANCH   3   4
ENDBRANCH   2   3
ENDBRANCH   1   2
BRANCH   1  26
ATOM     26  C   UNL A   1      34.110  33.727  28.432  1.00  0.00     0.188 C 
BRANCH  26  27
ATOM     27  O   UNL A   1      33.585  33.797  29.745  1.00  0.00    -0.376 OA
BRANCH  27  28
ATOM     28  C   UNL A   1      34.150  34.740  30.642  1.00  0.00     0.202 C 
BRANCH  28  29
ATOM     29  C   UNL A   1      34.673  34.204  31.986  1.00  0.00     0.261 C 
BRANCH  29  30
ATOM     30  O   UNL A   1      34.985  32.801  32.022  1.00  0.00    -0.460 OA
BRANCH  30  31
ATOM     31  C   UNL A   1      35.963  32.410  32.862  1.00  0.00     0.338 C 
ATOM     32  O   UNL A   1      35.989  32.547  34.077  1.00  0.00    -0.246 OA
BRANCH  31  33
ATOM     33  C   UNL A   1      36.928  31.590  32.105  1.00  0.00     0.060 A 
ATOM     34  C   UNL A   1      38.027  31.052  32.785  1.00  0.00     0.016 A 
ATOM     35  C   UNL A   1      36.766  31.368  30.734  1.00  0.00     0.016 A 
ATOM     36  C   UNL A   1      38.996  30.335  32.088  1.00  0.00     0.010 A 
ATOM     37  C   UNL A   1      37.752  30.666  30.032  1.00  0.00     0.010 A 
ATOM     38  C   UNL A   1      38.893  30.187  30.699  1.00  0.00    -0.014 A 
BRANCH  38  39
ATOM     39  C   UNL A   1      40.081  29.715  29.944  1.00  0.00     0.031 A 
ATOM     40  C   UNL A   1      41.238  30.661  29.762  1.00  0.00     0.074 A 
ATOM     41  C   UNL A   1      40.167  28.448  29.503  1.00  0.00     0.049 A 
ATOM     42  N   UNL A   1      42.398  30.456  29.192  1.00  0.00    -0.248 NA
ATOM     43  C   UNL A   1      41.064  32.020  30.300  1.00  0.00     0.031 C 
ATOM     44  C   UNL A   1      39.134  27.425  29.655  1.00  0.00     0.029 A 
ATOM     45  N   UNL A   1      41.184  27.805  28.842  1.00  0.00    -0.354 N 
ATOM     46  C   UNL A   1      43.088  31.659  29.298  1.00  0.00     0.074 A 
ATOM     47  C   UNL A   1      42.206  32.597  29.956  1.00  0.00     0.031 C 
ATOM     48  C   UNL A   1      39.574  26.278  29.108  1.00  0.00     0.029 A 
ATOM     49  C   UNL A   1      40.906  26.493  28.543  1.00  0.00     0.049 A 
ATOM     50  H   UNL A   1      42.034  28.242  28.605  1.00  0.00     0.167 HD
ATOM     51  C   UNL A   1      44.345  31.952  28.893  1.00  0.00     0.037 A 
ATOM     52  C   UNL A   1      41.639  25.578  27.881  1.00  0.00     0.037 A 
ATOM     53  C   UNL A   1      45.224  31.017  28.242  1.00  0.00     0.049 A 
ATOM     54  C   UNL A   1      43.009  25.955  27.376  1.00  0.00     0.074 A 
ATOM     55  C   UNL A   1      46.528  31.210  27.820  1.00  0.00     0.029 A 
ATOM     56  N   UNL A   1      44.885  29.714  27.908  1.00  0.00    -0.354 N 
ATOM     57  N   UNL A   1      43.667  27.081  27.519  1.00  0.00    -0.248 NA
ATOM     58  C   UNL A   1      43.741  24.927  26.622  1.00  0.00     0.031 C 
ATOM     59  C   UNL A   1      46.955  30.047  27.171  1.00  0.00     0.029 A 
ATOM     60  C   UNL A   1      45.942  29.104  27.252  1.00  0.00     0.049 A 
ATOM     61  H   UNL A   1      44.021  29.286  28.108  1.00  0.00     0.167 HD
ATOM     62  C   UNL A   1      44.900  26.883  26.906  1.00  0.00     0.074 A 
ATOM     63  C   UNL A   1      44.904  25.523  26.409  1.00  0.00     0.031 C 
ATOM     64  C   UNL A   1      45.936  27.748  26.766  1.00  0.00     0.037 A 
BRANCH  51  65
ATOM     65  C   UNL A   1      44.836  33.356  29.108  1.00  0.00     0.057 A 
ATOM     66  C   UNL A   1      45.550  33.731  30.253  1.00  0.00     0.134 A 
ATOM     67  C   UNL A   1      44.625  34.337  28.129  1.00  0.00     0.134 A 
ATOM     68  F   UNL A   1      45.772  32.846  31.237  1.00  0.00    -0.206 F 
ATOM     69  C   UNL A   1      46.017  35.036  30.428  1.00  0.00     0.040 A 
ATOM     70  C   UNL A   1      45.113  35.636  28.279  1.00  0.00     0.040 A 
ATOM     71  F   UNL A   1      43.952  34.045  27.006  1.00  0.00    -0.206 F 
ATOM     72  C   UNL A   1      45.806  35.989  29.434  1.00  0.00     0.006 A 
ENDBRANCH  51  65
BRANCH  52  73
ATOM     73  C   UNL A   1      41.104  24.212  27.640  1.00  0.00     0.057 A 
ATOM     74  C   UNL A   1      41.600  23.102  28.335  1.00  0.00     0.134 A 
ATOM     75  C   UNL A   1      40.119  23.975  26.673  1.00  0.00     0.134 A 
ATOM     76  F   UNL A   1      42.563  23.258  29.256  1.00  0.00    -0.206 F 
ATOM     77  C   UNL A   1      41.161  21.806  28.056  1.00  0.00     0.040 A 
ATOM     78  C   UNL A   1      39.647  22.689  26.407  1.00  0.00     0.040 A 
ATOM     79  F   UNL A   1      39.601  24.994  25.970  1.00  0.00    -0.206 F 
ATOM     80  C   UNL A   1      40.178  21.598  27.092  1.00  0.00     0.006 A 
ENDBRANCH  52  73
BRANCH  64  81
ATOM     81  C   UNL A   1      47.175  27.233  26.087  1.00  0.00     0.057 A 
ATOM     82  C   UNL A   1      47.344  27.292  24.697  1.00  0.00     0.134 A 
ATOM     83  C   UNL A   1      48.222  26.682  26.838  1.00  0.00     0.134 A 
ATOM     84  F   UNL A   1      46.378  27.800  23.915  1.00  0.00    -0.206 F 
ATOM     85  C   UNL A   1      48.487  26.784  24.077  1.00  0.00     0.040 A 
ATOM     86  C   UNL A   1      49.385  26.203  26.234  1.00  0.00     0.040 A 
ATOM     87  F   UNL A   1      48.136  26.607  28.175  1.00  0.00    -0.206 F 
ATOM     88  C   UNL A   1      49.514  26.242  24.847  1.00  0.00     0.006 A 
ENDBRANCH  64  81
ENDBRANCH  38  39
ENDBRANCH  31  33
ENDBRANCH  30  31
ENDBRANCH  29  30
ENDBRANCH  28  29
ENDBRANCH  27  28
ENDBRANCH  26  27
ENDBRANCH   1  26
TORSDOF 20
ENDMDL
MODEL 3
REMARK VINA RESULT:     -10.1      1.347      2.224
REMARK SMILES CNC(=O)NC1=[NH+]N=CN[C@@H]1C(=O)OCCOCCOCCOCCOC(=O)c1ccc(-c2c3nc(c(-c4c(F)cccc4F)c4ccc([nH]4)c(-c4c(F)cccc4F)c4nc(c(-c5c(F)cccc5F)c5ccc2[nH]5)C=C4)C=C3)cc1
REMARK SMILES IDX 21 1 20 2 19 3 18 4 17 5 16 6 15 7 14 8 12 9 13 10 11 11
REMARK SMILES IDX 1 12 2 13 3 14 4 16 5 17 6 18 7 20 8 21 10 23 9 24 22 26
REMARK SMILES IDX 23 27 24 28 25 29 26 30 27 31 28 32 29 33 30 34 82 35 31 36
REMARK SMILES IDX 81 37 32 38 33 39 34 40 75 41 35 42 80 43 74 44 76 45 36 46
REMARK SMILES IDX 79 47 73 48 72 49 37 51 63 52 46 53 62 54 47 55 50 56 61 57
REMARK SMILES IDX 77 58 48 59 49 60 60 62 78 63 51 64 38 65 39 66 44 67 40 68
REMARK SMILES IDX 41 69 43 70 45 71 42 72 64 73 65 74 70 75 66 76 67 77 69 78
REMARK SMILES IDX 71 79 68 80 52 81 53 82 58 83 54 84 55 85 57 86 59 87 56 88
REMARK H PARENT 2 15 5 19 7 22 10 25 76 50 50 61
REMARK Flexibility Score: inf
ROOT
ATOM      1  C   UNL A   1      39.960  21.784  26.237  1.00  0.00     0.188 C 
ENDROOT
BRANCH   1   2
ATOM      2  O   UNL A   1      38.634  21.284  26.028  1.00  0.00    -0.377 OA
BRANCH   2   3
ATOM      3  C   UNL A   1      37.671  22.114  25.399  1.00  0.00     0.188 C 
BRANCH   3   4
ATOM      4  C   UNL A   1      36.297  21.499  25.081  1.00  0.00     0.188 C 
BRANCH   4   5
ATOM      5  O   UNL A   1      35.304  21.717  26.054  1.00  0.00    -0.376 OA
BRANCH   5   6
ATOM      6  C   UNL A   1      35.055  22.997  26.613  1.00  0.00     0.202 C 
BRANCH   6   7
ATOM      7  C   UNL A   1      33.913  23.950  26.207  1.00  0.00     0.261 C 
BRANCH   7   8
ATOM      8  O   UNL A   1      32.797  23.370  25.533  1.00  0.00    -0.461 OA
BRANCH   8   9
ATOM      9  C   UNL A   1      32.579  23.800  24.262  1.00  0.00     0.341 C 
ATOM     10  O   UNL A   1      32.195  23.065  23.359  1.00  0.00    -0.249 OA
BRANCH   9  11
ATOM     11  C   UNL A   1      32.666  25.323  24.129  1.00  0.00     0.308 C 
ATOM     12  C   UNL A   1      32.092  27.632  26.429  1.00  0.00     0.147 C 
ATOM     13  N   UNL A   1      31.312  26.461  26.776  1.00  0.00    -0.321 N 
ATOM     14  C   UNL A   1      30.348  25.839  26.051  1.00  0.00     0.406 C 
ATOM     15  H   UNL A   1      31.507  26.064  27.655  1.00  0.00     0.167 HD
ATOM     16  O   UNL A   1      29.514  25.147  26.626  1.00  0.00    -0.221 OA
ATOM     17  N   UNL A   1      30.316  26.020  24.698  1.00  0.00    -0.191 N 
ATOM     18  C   UNL A   1      31.298  25.865  23.748  1.00  0.00     0.311 C 
ATOM     19  H   UNL A   1      29.444  26.311  24.344  1.00  0.00     0.317 HD
ATOM     20  N   UNL A   1      30.964  26.174  22.531  1.00  0.00    -0.148 N 
ATOM     21  N   UNL A   1      31.957  26.155  21.526  1.00  0.00    -0.077 NA
ATOM     22  H   UNL A   1      30.035  26.417  22.313  1.00  0.00     0.342 HD
ATOM     23  N   UNL A   1      33.638  25.796  23.148  1.00  0.00    -0.350 N 
ATOM     24  C   UNL A   1      33.191  26.044  21.894  1.00  0.00     0.241 C 
ATOM     25  H   UNL A   1      34.583  25.930  23.390  1.00  0.00     0.163 HD
ENDBRANCH   9  11
ENDBRANCH   8   9
ENDBRANCH   7   8
ENDBRANCH   6   7
ENDBRANCH   5   6
ENDBRANCH   4   5
ENDBRANCH   3   4
ENDBRANCH   2   3
ENDBRANCH   1   2
BRANCH   1  26
ATOM     26  C   UNL A   1      41.212  20.880  26.128  1.00  0.00     0.188 C 
BRANCH  26  27
ATOM     27  O   UNL A   1      42.440  21.510  26.441  1.00  0.00    -0.376 OA
BRANCH  27  28
ATOM     28  C   UNL A   1      43.599  21.107  25.729  1.00  0.00     0.202 C 
BRANCH  28  29
ATOM     29  C   UNL A   1      44.171  22.099  24.702  1.00  0.00     0.261 C 
BRANCH  29  30
ATOM     30  O   UNL A   1      43.541  23.390  24.660  1.00  0.00    -0.460 OA
BRANCH  30  31
ATOM     31  C   UNL A   1      44.288  24.452  25.024  1.00  0.00     0.338 C 
ATOM     32  O   UNL A   1      45.383  24.769  24.581  1.00  0.00    -0.246 OA
BRANCH  31  33
ATOM     33  C   UNL A   1      43.479  25.308  25.912  1.00  0.00     0.060 A 
ATOM     34  C   UNL A   1      43.929  26.607  26.179  1.00  0.00     0.016 A 
ATOM     35  C   UNL A   1      42.300  24.834  26.494  1.00  0.00     0.016 A 
ATOM     36  C   UNL A   1      43.231  27.418  27.071  1.00  0.00     0.010 A 
ATOM     37  C   UNL A   1      41.612  25.642  27.405  1.00  0.00     0.010 A 
ATOM     38  C   UNL A   1      42.101  26.920  27.731  1.00  0.00    -0.014 A 
BRANCH  38  39
ATOM     39  C   UNL A   1      41.574  27.667  28.900  1.00  0.00     0.031 A 
ATOM     40  C   UNL A   1      42.303  27.553  30.213  1.00  0.00     0.074 A 
ATOM     41  C   UNL A   1      40.521  28.495  28.781  1.00  0.00     0.049 A 
ATOM     42  N   UNL A   1      42.067  28.154  31.351  1.00  0.00    -0.248 NA
ATOM     43  C   UNL A   1      43.460  26.642  30.243  1.00  0.00     0.031 C 
ATOM     44  C   UNL A   1      39.759  28.725  27.556  1.00  0.00     0.029 A 
ATOM     45  N   UNL A   1      39.920  29.307  29.711  1.00  0.00    -0.354 N 
ATOM     46  C   UNL A   1      43.037  27.690  32.232  1.00  0.00     0.074 A 
ATOM     47  C   UNL A   1      43.846  26.734  31.507  1.00  0.00     0.031 C 
ATOM     48  C   UNL A   1      38.792  29.626  27.809  1.00  0.00     0.029 A 
ATOM     49  C   UNL A   1      38.851  30.014  29.217  1.00  0.00     0.049 A 
ATOM     50  H   UNL A   1      40.227  29.377  30.644  1.00  0.00     0.167 HD
ATOM     51  C   UNL A   1      43.244  28.036  33.524  1.00  0.00     0.037 A 
ATOM     52  C   UNL A   1      38.012  30.866  29.837  1.00  0.00     0.037 A 
ATOM     53  C   UNL A   1      42.442  28.990  34.243  1.00  0.00     0.049 A 
ATOM     54  C   UNL A   1      38.221  31.178  31.297  1.00  0.00     0.074 A 
ATOM     55  C   UNL A   1      42.590  29.430  35.547  1.00  0.00     0.029 A 
ATOM     56  N   UNL A   1      41.334  29.643  33.724  1.00  0.00    -0.354 N 
ATOM     57  N   UNL A   1      39.167  30.766  32.108  1.00  0.00    -0.248 NA
ATOM     58  C   UNL A   1      37.247  32.080  31.927  1.00  0.00     0.031 C 
ATOM     59  C   UNL A   1      41.532  30.298  35.838  1.00  0.00     0.029 A 
ATOM     60  C   UNL A   1      40.767  30.455  34.693  1.00  0.00     0.049 A 
ATOM     61  H   UNL A   1      41.000  29.544  32.803  1.00  0.00     0.167 HD
ATOM     62  C   UNL A   1      38.922  31.387  33.328  1.00  0.00     0.074 A 
ATOM     63  C   UNL A   1      37.750  32.218  33.143  1.00  0.00     0.031 C 
ATOM     64  C   UNL A   1      39.603  31.280  34.497  1.00  0.00     0.037 A 
BRANCH  51  65
ATOM     65  C   UNL A   1      44.361  27.350  34.258  1.00  0.00     0.057 A 
ATOM     66  C   UNL A   1      45.644  27.903  34.352  1.00  0.00     0.134 A 
ATOM     67  C   UNL A   1      44.133  26.134  34.918  1.00  0.00     0.134 A 
ATOM     68  F   UNL A   1      45.935  29.057  33.730  1.00  0.00    -0.206 F 
ATOM     69  C   UNL A   1      46.666  27.263  35.056  1.00  0.00     0.040 A 
ATOM     70  C   UNL A   1      45.138  25.500  35.649  1.00  0.00     0.040 A 
ATOM     71  F   UNL A   1      42.927  25.551  34.872  1.00  0.00    -0.206 F 
ATOM     72  C   UNL A   1      46.411  26.062  35.715  1.00  0.00     0.006 A 
ENDBRANCH  51  65
BRANCH  52  73
ATOM     73  C   UNL A   1      36.885  31.490  29.094  1.00  0.00     0.057 A 
ATOM     74  C   UNL A   1      36.934  32.828  28.683  1.00  0.00     0.134 A 
ATOM     75  C   UNL A   1      35.710  30.778  28.822  1.00  0.00     0.134 A 
ATOM     76  F   UNL A   1      38.022  33.571  28.937  1.00  0.00    -0.206 F 
ATOM     77  C   UNL A   1      35.848  33.443  28.058  1.00  0.00     0.040 A 
ATOM     78  C   UNL A   1      34.628  31.371  28.168  1.00  0.00     0.040 A 
ATOM     79  F   UNL A   1      35.596  29.492  29.189  1.00  0.00    -0.206 F 
ATOM     80  C   UNL A   1      34.692  32.712  27.796  1.00  0.00     0.006 A 
ENDBRANCH  52  73
BRANCH  64  81
ATOM     81  C   UNL A   1      39.123  32.116  35.651  1.00  0.00     0.057 A 
ATOM     82  C   UNL A   1      38.273  31.604  36.641  1.00  0.00     0.134 A 
ATOM     83  C   UNL A   1      39.531  33.450  35.782  1.00  0.00     0.134 A 
ATOM     84  F   UNL A   1      37.837  30.336  36.573  1.00  0.00    -0.206 F 
ATOM     85  C   UNL A   1      37.812  32.399  37.691  1.00  0.00     0.040 A 
ATOM     86  C   UNL A   1      39.106  34.245  36.847  1.00  0.00     0.040 A 
ATOM     87  F   UNL A   1      40.357  34.002  34.881  1.00  0.00    -0.206 F 
ATOM     88  C   UNL A   1      38.233  33.723  37.799  1.00  0.00     0.006 A 
ENDBRANCH  64  81
ENDBRANCH  38  39
ENDBRANCH  31  33
ENDBRANCH  30  31
ENDBRANCH  29  30
ENDBRANCH  28  29
ENDBRANCH  27  28
ENDBRANCH  26  27
ENDBRANCH   1  26
TORSDOF 20
ENDMDL
