MODEL 1
REMARK VINA RESULT:     -11.8      0.000      0.000
REMARK SMILES O=C(OCCOCCOCCOCCOC(=O)c1ccc(-c2c3nc(c(-c4c(F)cccc4F)c4ccc([nH]4)c(-c4c(F)cccc4F)c4nc(c(-c5c(F)cccc5F)c5ccc2[nH]5)C=C4)C=C3)cc1)C1=Cc2cc(Cl)cc(-c3ccc(O)cc3)c2O[C@@H]1C(F)(F)F
REMARK SMILES IDX 9 1 8 2 7 3 6 4 5 5 4 6 3 7 2 8 1 9 72 10 73 11 89 12 74 13
REMARK SMILES IDX 88 14 75 15 87 16 76 17 79 18 77 19 78 20 90 21 91 22 92 23
REMARK SMILES IDX 93 24 80 25 81 26 86 27 82 28 85 29 83 30 84 31 10 33 11 34
REMARK SMILES IDX 12 35 13 36 14 37 15 38 16 39 17 40 18 41 19 42 71 43 20 44
REMARK SMILES IDX 70 45 21 46 22 47 23 48 64 49 24 50 69 51 63 52 65 53 25 54
REMARK SMILES IDX 68 55 62 56 61 57 26 59 52 60 35 61 51 62 36 63 39 64 50 65
REMARK SMILES IDX 66 66 37 67 38 68 49 70 67 71 40 72 27 73 28 74 33 75 29 76
REMARK SMILES IDX 30 77 32 78 34 79 31 80 53 81 54 82 59 83 55 84 56 85 58 86
REMARK SMILES IDX 60 87 57 88 41 89 42 90 47 91 43 92 44 93 46 94 48 95 45 96
REMARK H PARENT 84 32 65 58 39 69
REMARK Flexibility Score: inf
ROOT
ATOM      1  O   UNL A   1      35.551  33.051  28.434  1.00  0.00    -0.377 OA
ENDROOT
BRANCH   1   2
ATOM      2  C   UNL A   1      34.495  32.283  27.929  1.00  0.00     0.188 C 
BRANCH   2   3
ATOM      3  C   UNL A   1      34.861  30.810  27.984  1.00  0.00     0.188 C 
BRANCH   3   4
ATOM      4  O   UNL A   1      34.390  29.780  27.052  1.00  0.00    -0.376 OA
BRANCH   4   5
ATOM      5  C   UNL A   1      32.933  29.294  26.442  1.00  0.00     0.202 C 
BRANCH   5   6
ATOM      6  C   UNL A   1      32.115  27.269  26.414  1.00  0.00     0.261 C 
BRANCH   6   7
ATOM      7  O   UNL A   1      32.842  25.996  26.822  1.00  0.00    -0.460 OA
BRANCH   7   8
ATOM      8  C   UNL A   1      32.168  24.890  26.487  1.00  0.00     0.338 C 
ATOM      9  O   UNL A   1      31.571  24.127  27.205  1.00  0.00    -0.246 OA
BRANCH   8  10
ATOM     10  C   UNL A   1      32.799  24.696  25.193  1.00  0.00     0.087 C 
ATOM     11  C   UNL A   1      34.230  24.426  25.251  1.00  0.00     0.027 C 
ATOM     12  C   UNL A   1      31.468  23.449  24.594  1.00  0.00     0.316 C 
ATOM     13  C   UNL A   1      34.962  22.806  25.001  1.00  0.00     0.019 A 
ATOM     14  O   UNL A   1      32.211  21.639  24.456  1.00  0.00    -0.475 OA
ATOM     15  C   UNL A   1      36.326  22.720  25.127  1.00  0.00     0.032 A 
ATOM     16  C   UNL A   1      34.017  21.367  24.751  1.00  0.00     0.135 A 
ATOM     17  C   UNL A   1      36.854  21.432  25.044  1.00  0.00     0.042 A 
ATOM     18  C   UNL A   1      34.645  20.114  24.792  1.00  0.00     0.026 A 
ATOM     19  Cl  UNL A   1      38.577  21.269  25.148  1.00  0.00    -0.084 Cl
ATOM     20  C   UNL A   1      36.073  20.227  24.904  1.00  0.00     0.033 A 
BRANCH  12  21
ATOM     21  C   UNL A   1      30.935  24.633  23.469  1.00  0.00     0.430 C 
ATOM     22  F   UNL A   1      30.998  25.942  23.772  1.00  0.00    -0.167 F 
ATOM     23  F   UNL A   1      31.772  24.525  22.386  1.00  0.00    -0.167 F 
ATOM     24  F   UNL A   1      29.698  24.408  22.957  1.00  0.00    -0.167 F 
ENDBRANCH  12  21
BRANCH  18  25
ATOM     25  C   UNL A   1      34.135  18.744  24.757  1.00  0.00    -0.014 A 
ATOM     26  C   UNL A   1      34.952  17.603  24.727  1.00  0.00     0.012 A 
ATOM     27  C   UNL A   1      32.794  18.522  24.499  1.00  0.00     0.012 A 
ATOM     28  C   UNL A   1      34.400  16.308  24.689  1.00  0.00     0.047 A 
ATOM     29  C   UNL A   1      32.229  17.262  24.674  1.00  0.00     0.047 A 
ATOM     30  C   UNL A   1      33.030  16.149  24.757  1.00  0.00     0.115 A 
BRANCH  30  31
ATOM     31  O   UNL A   1      32.489  14.908  24.857  1.00  0.00    -0.508 OA
ATOM     32  H   UNL A   1      32.443  14.482  25.691  1.00  0.00     0.293 HD
ENDBRANCH  30  31
ENDBRANCH  18  25
ENDBRANCH   8  10
ENDBRANCH   7   8
ENDBRANCH   6   7
ENDBRANCH   5   6
ENDBRANCH   4   5
ENDBRANCH   3   4
ENDBRANCH   2   3
ENDBRANCH   1   2
BRANCH   1  33
ATOM     33  C   UNL A   1      35.052  34.274  28.915  1.00  0.00     0.188 C 
BRANCH  33  34
ATOM     34  C   UNL A   1      33.750  34.242  29.701  1.00  0.00     0.188 C 
BRANCH  34  35
ATOM     35  O   UNL A   1      33.856  34.669  31.031  1.00  0.00    -0.376 OA
BRANCH  35  36
ATOM     36  C   UNL A   1      34.248  33.741  32.031  1.00  0.00     0.202 C 
BRANCH  36  37
ATOM     37  C   UNL A   1      35.490  33.895  32.941  1.00  0.00     0.261 C 
BRANCH  37  38
ATOM     38  O   UNL A   1      36.621  34.649  32.464  1.00  0.00    -0.460 OA
BRANCH  38  39
ATOM     39  C   UNL A   1      37.813  34.507  33.081  1.00  0.00     0.338 C 
ATOM     40  O   UNL A   1      38.136  34.948  34.167  1.00  0.00    -0.246 OA
BRANCH  39  41
ATOM     41  C   UNL A   1      38.598  33.517  32.294  1.00  0.00     0.060 A 
ATOM     42  C   UNL A   1      39.461  32.632  32.960  1.00  0.00     0.016 A 
ATOM     43  C   UNL A   1      38.445  33.423  30.908  1.00  0.00     0.016 A 
ATOM     44  C   UNL A   1      40.201  31.679  32.244  1.00  0.00     0.010 A 
ATOM     45  C   UNL A   1      39.178  32.465  30.192  1.00  0.00     0.010 A 
ATOM     46  C   UNL A   1      40.098  31.614  30.848  1.00  0.00    -0.014 A 
BRANCH  46  47
ATOM     47  C   UNL A   1      41.151  30.930  30.043  1.00  0.00     0.031 A 
ATOM     48  C   UNL A   1      42.314  31.794  29.618  1.00  0.00     0.074 A 
ATOM     49  C   UNL A   1      41.132  29.626  29.695  1.00  0.00     0.049 A 
ATOM     50  N   UNL A   1      43.364  31.494  28.901  1.00  0.00    -0.248 NA
ATOM     51  C   UNL A   1      42.268  33.203  30.050  1.00  0.00     0.031 C 
ATOM     52  C   UNL A   1      40.105  28.653  30.053  1.00  0.00     0.029 A 
ATOM     53  N   UNL A   1      42.020  28.896  28.934  1.00  0.00    -0.354 N 
ATOM     54  C   UNL A   1      44.087  32.675  28.803  1.00  0.00     0.074 A 
ATOM     55  C   UNL A   1      43.306  33.717  29.419  1.00  0.00     0.031 C 
ATOM     56  C   UNL A   1      40.397  27.467  29.485  1.00  0.00     0.029 A 
ATOM     57  C   UNL A   1      41.645  27.586  28.736  1.00  0.00     0.049 A 
ATOM     58  H   UNL A   1      42.848  29.278  28.564  1.00  0.00     0.167 HD
ATOM     59  C   UNL A   1      45.328  32.877  28.307  1.00  0.00     0.037 A 
ATOM     60  C   UNL A   1      42.251  26.596  28.044  1.00  0.00     0.037 A 
ATOM     61  C   UNL A   1      46.121  31.846  27.707  1.00  0.00     0.049 A 
ATOM     62  C   UNL A   1      43.597  26.861  27.408  1.00  0.00     0.074 A 
ATOM     63  C   UNL A   1      47.403  31.935  27.201  1.00  0.00     0.029 A 
ATOM     64  N   UNL A   1      45.696  30.541  27.518  1.00  0.00    -0.354 N 
ATOM     65  N   UNL A   1      44.310  27.961  27.401  1.00  0.00    -0.248 NA
ATOM     66  C   UNL A   1      44.239  25.730  26.719  1.00  0.00     0.031 C 
ATOM     67  C   UNL A   1      47.727  30.699  26.633  1.00  0.00     0.029 A 
ATOM     68  C   UNL A   1      46.681  29.819  26.867  1.00  0.00     0.049 A 
ATOM     69  H   UNL A   1      44.825  30.181  27.803  1.00  0.00     0.167 HD
ATOM     70  C   UNL A   1      45.509  27.637  26.771  1.00  0.00     0.074 A 
ATOM     71  C   UNL A   1      45.423  26.239  26.410  1.00  0.00     0.031 C 
ATOM     72  C   UNL A   1      46.589  28.422  26.531  1.00  0.00     0.037 A 
BRANCH  59  73
ATOM     73  C   UNL A   1      45.872  34.272  28.397  1.00  0.00     0.057 A 
ATOM     74  C   UNL A   1      45.668  35.219  27.380  1.00  0.00     0.134 A 
ATOM     75  C   UNL A   1      46.648  34.659  29.494  1.00  0.00     0.134 A 
ATOM     76  F   UNL A   1      44.957  34.902  26.286  1.00  0.00    -0.206 F 
ATOM     77  C   UNL A   1      46.257  36.482  27.432  1.00  0.00     0.040 A 
ATOM     78  C   UNL A   1      47.209  35.934  29.574  1.00  0.00     0.040 A 
ATOM     79  F   UNL A   1      46.889  33.801  30.496  1.00  0.00    -0.206 F 
ATOM     80  C   UNL A   1      47.025  36.844  28.535  1.00  0.00     0.006 A 
ENDBRANCH  59  73
BRANCH  60  81
ATOM     81  C   UNL A   1      41.643  25.237  27.953  1.00  0.00     0.057 A 
ATOM     82  C   UNL A   1      42.130  24.169  28.720  1.00  0.00     0.134 A 
ATOM     83  C   UNL A   1      40.616  24.950  27.045  1.00  0.00     0.134 A 
ATOM     84  F   UNL A   1      43.133  24.366  29.589  1.00  0.00    -0.206 F 
ATOM     85  C   UNL A   1      41.647  22.866  28.566  1.00  0.00     0.040 A 
ATOM     86  C   UNL A   1      40.104  23.656  26.899  1.00  0.00     0.040 A 
ATOM     87  F   UNL A   1      40.102  25.918  26.274  1.00  0.00    -0.206 F 
ATOM     88  C   UNL A   1      40.628  22.608  27.653  1.00  0.00     0.006 A 
ENDBRANCH  60  81
BRANCH  72  89
ATOM     89  C   UNL A   1      47.800  27.777  25.915  1.00  0.00     0.057 A 
ATOM     90  C   UNL A   1      48.848  27.253  26.681  1.00  0.00     0.134 A 
ATOM     91  C   UNL A   1      47.890  27.639  24.521  1.00  0.00     0.134 A 
ATOM     92  F   UNL A   1      48.828  27.349  28.019  1.00  0.00    -0.206 F 
ATOM     93  C   UNL A   1      49.959  26.654  26.084  1.00  0.00     0.040 A 
ATOM     94  C   UNL A   1      48.975  27.006  23.916  1.00  0.00     0.040 A 
ATOM     95  F   UNL A   1      46.914  28.100  23.725  1.00  0.00    -0.206 F 
ATOM     96  C   UNL A   1      50.021  26.523  24.698  1.00  0.00     0.006 A 
ENDBRANCH  72  89
ENDBRANCH  46  47
ENDBRANCH  39  41
ENDBRANCH  38  39
ENDBRANCH  37  38
ENDBRANCH  36  37
ENDBRANCH  35  36
ENDBRANCH  34  35
ENDBRANCH  33  34
ENDBRANCH   1  33
TORSDOF 23
ENDMDL
MODEL 2
REMARK VINA RESULT:     -10.8      2.827      6.354
REMARK SMILES O=C(OCCOCCOCCOCCOC(=O)c1ccc(-c2c3nc(c(-c4c(F)cccc4F)c4ccc([nH]4)c(-c4c(F)cccc4F)c4nc(c(-c5c(F)cccc5F)c5ccc2[nH]5)C=C4)C=C3)cc1)C1=Cc2cc(Cl)cc(-c3ccc(O)cc3)c2O[C@@H]1C(F)(F)F
REMARK SMILES IDX 9 1 8 2 7 3 6 4 5 5 4 6 3 7 2 8 1 9 72 10 73 11 89 12 74 13
REMARK SMILES IDX 88 14 75 15 87 16 76 17 79 18 77 19 78 20 90 21 91 22 92 23
REMARK SMILES IDX 93 24 80 25 81 26 86 27 82 28 85 29 83 30 84 31 10 33 11 34
REMARK SMILES IDX 12 35 13 36 14 37 15 38 16 39 17 40 18 41 19 42 71 43 20 44
REMARK SMILES IDX 70 45 21 46 22 47 23 48 64 49 24 50 69 51 63 52 65 53 25 54
REMARK SMILES IDX 68 55 62 56 61 57 26 59 52 60 35 61 51 62 36 63 39 64 50 65
REMARK SMILES IDX 66 66 37 67 38 68 49 70 67 71 40 72 27 73 28 74 33 75 29 76
REMARK SMILES IDX 30 77 32 78 34 79 31 80 53 81 54 82 59 83 55 84 56 85 58 86
REMARK SMILES IDX 60 87 57 88 41 89 42 90 47 91 43 92 44 93 46 94 48 95 45 96
REMARK H PARENT 84 32 65 58 39 69
REMARK Flexibility Score: inf
ROOT
ATOM      1  O   UNL A   1      36.443  31.187  29.737  1.00  0.00    -0.377 OA
ENDROOT
BRANCH   1   2
ATOM      2  C   UNL A   1      35.535  30.248  29.233  1.00  0.00     0.188 C 
BRANCH   2   3
ATOM      3  C   UNL A   1      35.935  29.855  27.822  1.00  0.00     0.188 C 
BRANCH   3   4
ATOM      4  O   UNL A   1      35.098  30.001  26.626  1.00  0.00    -0.376 OA
BRANCH   4   5
ATOM      5  C   UNL A   1      33.765  29.250  26.001  1.00  0.00     0.202 C 
BRANCH   5   6
ATOM      6  C   UNL A   1      32.568  27.677  26.932  1.00  0.00     0.261 C 
BRANCH   6   7
ATOM      7  O   UNL A   1      32.902  26.193  26.971  1.00  0.00    -0.460 OA
BRANCH   7   8
ATOM      8  C   UNL A   1      31.959  25.439  26.395  1.00  0.00     0.338 C 
ATOM      9  O   UNL A   1      31.062  24.827  26.918  1.00  0.00    -0.246 OA
BRANCH   8  10
ATOM     10  C   UNL A   1      32.656  25.234  25.137  1.00  0.00     0.087 C 
ATOM     11  C   UNL A   1      34.085  24.978  25.271  1.00  0.00     0.027 C 
ATOM     12  C   UNL A   1      31.368  23.967  24.488  1.00  0.00     0.316 C 
ATOM     13  C   UNL A   1      34.842  23.361  25.081  1.00  0.00     0.019 A 
ATOM     14  O   UNL A   1      32.132  22.163  24.413  1.00  0.00    -0.475 OA
ATOM     15  C   UNL A   1      36.198  23.289  25.278  1.00  0.00     0.032 A 
ATOM     16  C   UNL A   1      33.922  21.910  24.803  1.00  0.00     0.135 A 
ATOM     17  C   UNL A   1      36.741  22.004  25.239  1.00  0.00     0.042 A 
ATOM     18  C   UNL A   1      34.558  20.663  24.893  1.00  0.00     0.026 A 
ATOM     19  Cl  UNL A   1      38.457  21.858  25.432  1.00  0.00    -0.084 Cl
ATOM     20  C   UNL A   1      35.978  20.791  25.076  1.00  0.00     0.033 A 
BRANCH  12  21
ATOM     21  C   UNL A   1      30.884  25.132  23.322  1.00  0.00     0.430 C 
ATOM     22  F   UNL A   1      31.409  26.370  23.331  1.00  0.00    -0.167 F 
ATOM     23  F   UNL A   1      31.285  24.635  22.106  1.00  0.00    -0.167 F 
ATOM     24  F   UNL A   1      29.540  25.278  23.195  1.00  0.00    -0.167 F 
ENDBRANCH  12  21
BRANCH  18  25
ATOM     25  C   UNL A   1      34.062  19.288  24.850  1.00  0.00    -0.014 A 
ATOM     26  C   UNL A   1      32.826  18.883  25.377  1.00  0.00     0.012 A 
ATOM     27  C   UNL A   1      34.922  18.265  24.496  1.00  0.00     0.012 A 
ATOM     28  C   UNL A   1      32.406  17.540  25.308  1.00  0.00     0.047 A 
ATOM     29  C   UNL A   1      34.444  16.985  24.230  1.00  0.00     0.047 A 
ATOM     30  C   UNL A   1      33.188  16.614  24.646  1.00  0.00     0.115 A 
BRANCH  30  31
ATOM     31  O   UNL A   1      32.737  15.349  24.454  1.00  0.00    -0.508 OA
ATOM     32  H   UNL A   1      32.216  14.932  25.112  1.00  0.00     0.293 HD
ENDBRANCH  30  31
ENDBRANCH  18  25
ENDBRANCH   8  10
ENDBRANCH   7   8
ENDBRANCH   6   7
ENDBRANCH   5   6
ENDBRANCH   4   5
ENDBRANCH   3   4
ENDBRANCH   2   3
ENDBRANCH   1   2
BRANCH   1  33
ATOM     33  C   UNL A   1      37.648  31.106  29.018  1.00  0.00     0.188 C 
BRANCH  33  34
ATOM     34  C   UNL A   1      38.929  30.906  29.813  1.00  0.00     0.188 C 
BRANCH  34  35
ATOM     35  O   UNL A   1      39.746  29.863  29.358  1.00  0.00    -0.376 OA
BRANCH  35  36
ATOM     36  C   UNL A   1      39.247  28.534  29.366  1.00  0.00     0.202 C 
BRANCH  36  37
ATOM     37  C   UNL A   1      39.365  27.539  28.186  1.00  0.00     0.261 C 
BRANCH  37  38
ATOM     38  O   UNL A   1      39.813  26.195  28.442  1.00  0.00    -0.460 OA
BRANCH  38  39
ATOM     39  C   UNL A   1      40.384  25.492  27.441  1.00  0.00     0.338 C 
ATOM     40  O   UNL A   1      39.844  24.686  26.708  1.00  0.00    -0.246 OA
BRANCH  39  41
ATOM     41  C   UNL A   1      41.752  26.043  27.243  1.00  0.00     0.060 A 
ATOM     42  C   UNL A   1      42.613  26.171  28.345  1.00  0.00     0.016 A 
ATOM     43  C   UNL A   1      42.208  26.383  25.966  1.00  0.00     0.016 A 
ATOM     44  C   UNL A   1      43.913  26.673  28.184  1.00  0.00     0.010 A 
ATOM     45  C   UNL A   1      43.511  26.877  25.803  1.00  0.00     0.010 A 
ATOM     46  C   UNL A   1      44.360  27.070  26.917  1.00  0.00    -0.014 A 
BRANCH  46  47
ATOM     47  C   UNL A   1      45.538  27.976  26.780  1.00  0.00     0.031 A 
ATOM     48  C   UNL A   1      45.233  29.454  26.807  1.00  0.00     0.074 A 
ATOM     49  C   UNL A   1      46.817  27.565  26.650  1.00  0.00     0.049 A 
ATOM     50  N   UNL A   1      46.035  30.478  26.691  1.00  0.00    -0.248 NA
ATOM     51  C   UNL A   1      43.814  29.822  26.966  1.00  0.00     0.031 C 
ATOM     52  C   UNL A   1      47.281  26.181  26.642  1.00  0.00     0.029 A 
ATOM     53  N   UNL A   1      47.973  28.297  26.484  1.00  0.00    -0.354 N 
ATOM     54  C   UNL A   1      45.213  31.595  26.763  1.00  0.00     0.074 A 
ATOM     55  C   UNL A   1      43.850  31.130  26.804  1.00  0.00     0.031 C 
ATOM     56  C   UNL A   1      48.614  26.159  26.442  1.00  0.00     0.029 A 
ATOM     57  C   UNL A   1      49.106  27.529  26.328  1.00  0.00     0.049 A 
ATOM     58  H   UNL A   1      47.988  29.281  26.478  1.00  0.00     0.167 HD
ATOM     59  C   UNL A   1      45.552  32.899  26.856  1.00  0.00     0.037 A 
ATOM     60  C   UNL A   1      50.392  27.895  26.133  1.00  0.00     0.037 A 
ATOM     61  C   UNL A   1      46.903  33.372  26.832  1.00  0.00     0.049 A 
ATOM     62  C   UNL A   1      50.748  29.365  26.141  1.00  0.00     0.074 A 
ATOM     63  C   UNL A   1      47.361  34.670  26.952  1.00  0.00     0.029 A 
ATOM     64  N   UNL A   1      48.015  32.562  26.660  1.00  0.00    -0.354 N 
ATOM     65  N   UNL A   1      49.968  30.407  26.300  1.00  0.00    -0.248 NA
ATOM     66  C   UNL A   1      52.171  29.704  25.985  1.00  0.00     0.031 C 
ATOM     67  C   UNL A   1      48.747  34.656  26.773  1.00  0.00     0.029 A 
ATOM     68  C   UNL A   1      49.159  33.339  26.633  1.00  0.00     0.049 A 
ATOM     69  H   UNL A   1      47.993  31.582  26.570  1.00  0.00     0.167 HD
ATOM     70  C   UNL A   1      50.811  31.515  26.332  1.00  0.00     0.074 A 
ATOM     71  C   UNL A   1      52.160  31.015  26.174  1.00  0.00     0.031 C 
ATOM     72  C   UNL A   1      50.498  32.825  26.495  1.00  0.00     0.037 A 
BRANCH  59  73
ATOM     73  C   UNL A   1      44.426  33.882  26.982  1.00  0.00     0.057 A 
ATOM     74  C   UNL A   1      43.805  34.452  25.859  1.00  0.00     0.134 A 
ATOM     75  C   UNL A   1      43.987  34.298  28.243  1.00  0.00     0.134 A 
ATOM     76  F   UNL A   1      44.199  34.119  24.620  1.00  0.00    -0.206 F 
ATOM     77  C   UNL A   1      42.823  35.434  25.989  1.00  0.00     0.040 A 
ATOM     78  C   UNL A   1      42.977  35.250  28.384  1.00  0.00     0.040 A 
ATOM     79  F   UNL A   1      44.543  33.799  29.357  1.00  0.00    -0.206 F 
ATOM     80  C   UNL A   1      42.403  35.831  27.256  1.00  0.00     0.006 A 
ENDBRANCH  59  73
BRANCH  60  81
ATOM     81  C   UNL A   1      51.467  26.874  25.972  1.00  0.00     0.057 A 
ATOM     82  C   UNL A   1      52.197  26.406  27.074  1.00  0.00     0.134 A 
ATOM     83  C   UNL A   1      51.846  26.397  24.711  1.00  0.00     0.134 A 
ATOM     84  F   UNL A   1      51.907  26.843  28.309  1.00  0.00    -0.206 F 
ATOM     85  C   UNL A   1      53.280  25.534  26.928  1.00  0.00     0.040 A 
ATOM     86  C   UNL A   1      52.910  25.503  24.552  1.00  0.00     0.040 A 
ATOM     87  F   UNL A   1      51.198  26.802  23.610  1.00  0.00    -0.206 F 
ATOM     88  C   UNL A   1      53.638  25.078  25.662  1.00  0.00     0.006 A 
ENDBRANCH  60  81
BRANCH  72  89
ATOM     89  C   UNL A   1      51.631  33.809  26.590  1.00  0.00     0.057 A 
ATOM     90  C   UNL A   1      52.141  34.483  25.475  1.00  0.00     0.134 A 
ATOM     91  C   UNL A   1      52.188  34.119  27.840  1.00  0.00     0.134 A 
ATOM     92  F   UNL A   1      51.655  34.236  24.248  1.00  0.00    -0.206 F 
ATOM     93  C   UNL A   1      53.190  35.397  25.591  1.00  0.00     0.040 A 
ATOM     94  C   UNL A   1      53.208  35.061  27.974  1.00  0.00     0.040 A 
ATOM     95  F   UNL A   1      51.736  33.527  28.955  1.00  0.00    -0.206 F 
ATOM     96  C   UNL A   1      53.721  35.693  26.845  1.00  0.00     0.006 A 
ENDBRANCH  72  89
ENDBRANCH  46  47
ENDBRANCH  39  41
ENDBRANCH  38  39
ENDBRANCH  37  38
ENDBRANCH  36  37
ENDBRANCH  35  36
ENDBRANCH  34  35
ENDBRANCH  33  34
ENDBRANCH   1  33
TORSDOF 23
ENDMDL
MODEL 3
REMARK VINA RESULT:     -10.6      6.145      8.538
REMARK SMILES O=C(OCCOCCOCCOCCOC(=O)c1ccc(-c2c3nc(c(-c4c(F)cccc4F)c4ccc([nH]4)c(-c4c(F)cccc4F)c4nc(c(-c5c(F)cccc5F)c5ccc2[nH]5)C=C4)C=C3)cc1)C1=Cc2cc(Cl)cc(-c3ccc(O)cc3)c2O[C@@H]1C(F)(F)F
REMARK SMILES IDX 9 1 8 2 7 3 6 4 5 5 4 6 3 7 2 8 1 9 72 10 73 11 89 12 74 13
REMARK SMILES IDX 88 14 75 15 87 16 76 17 79 18 77 19 78 20 90 21 91 22 92 23
REMARK SMILES IDX 93 24 80 25 81 26 86 27 82 28 85 29 83 30 84 31 10 33 11 34
REMARK SMILES IDX 12 35 13 36 14 37 15 38 16 39 17 40 18 41 19 42 71 43 20 44
REMARK SMILES IDX 70 45 21 46 22 47 23 48 64 49 24 50 69 51 63 52 65 53 25 54
REMARK SMILES IDX 68 55 62 56 61 57 26 59 52 60 35 61 51 62 36 63 39 64 50 65
REMARK SMILES IDX 66 66 37 67 38 68 49 70 67 71 40 72 27 73 28 74 33 75 29 76
REMARK SMILES IDX 30 77 32 78 34 79 31 80 53 81 54 82 59 83 55 84 56 85 58 86
REMARK SMILES IDX 60 87 57 88 41 89 42 90 47 91 43 92 44 93 46 94 48 95 45 96
REMARK H PARENT 84 32 65 58 39 69
REMARK Flexibility Score: inf
ROOT
ATOM      1  O   UNL A   1      32.079  30.953  26.372  1.00  0.00    -0.377 OA
ENDROOT
BRANCH   1   2
ATOM      2  C   UNL A   1      31.754  29.755  25.725  1.00  0.00     0.188 C 
BRANCH   2   3
ATOM      3  C   UNL A   1      30.842  30.041  24.545  1.00  0.00     0.188 C 
BRANCH   3   4
ATOM      4  O   UNL A   1      30.596  29.134  23.419  1.00  0.00    -0.376 OA
BRANCH   4   5
ATOM      5  C   UNL A   1      31.518  28.233  22.385  1.00  0.00     0.202 C 
BRANCH   5   6
ATOM      6  C   UNL A   1      31.189  26.160  21.777  1.00  0.00     0.261 C 
BRANCH   6   7
ATOM      7  O   UNL A   1      31.556  24.918  22.574  1.00  0.00    -0.460 OA
BRANCH   7   8
ATOM      8  C   UNL A   1      32.856  24.875  22.888  1.00  0.00     0.338 C 
ATOM      9  O   UNL A   1      33.810  25.001  22.162  1.00  0.00    -0.246 OA
BRANCH   8  10
ATOM     10  C   UNL A   1      32.699  24.180  24.154  1.00  0.00     0.087 C 
ATOM     11  C   UNL A   1      32.926  22.742  24.088  1.00  0.00     0.027 C 
ATOM     12  C   UNL A   1      33.800  25.425  25.115  1.00  0.00     0.316 C 
ATOM     13  C   UNL A   1      34.406  21.925  24.692  1.00  0.00     0.019 A 
ATOM     14  O   UNL A   1      35.492  24.593  25.657  1.00  0.00    -0.475 OA
ATOM     15  C   UNL A   1      34.475  20.566  24.518  1.00  0.00     0.032 A 
ATOM     16  C   UNL A   1      35.769  22.792  25.342  1.00  0.00     0.135 A 
ATOM     17  C   UNL A   1      35.683  19.976  24.890  1.00  0.00     0.042 A 
ATOM     18  C   UNL A   1      36.970  22.109  25.580  1.00  0.00     0.026 A 
ATOM     19  Cl  UNL A   1      35.809  18.254  24.738  1.00  0.00    -0.084 Cl
ATOM     20  C   UNL A   1      36.840  20.694  25.366  1.00  0.00     0.033 A 
BRANCH  12  21
ATOM     21  C   UNL A   1      32.391  25.961  25.937  1.00  0.00     0.430 C 
ATOM     22  F   UNL A   1      31.686  25.117  26.710  1.00  0.00    -0.167 F 
ATOM     23  F   UNL A   1      32.816  26.915  26.829  1.00  0.00    -0.167 F 
ATOM     24  F   UNL A   1      31.495  26.615  25.153  1.00  0.00    -0.167 F 
ENDBRANCH  12  21
BRANCH  18  25
ATOM     25  C   UNL A   1      38.304  22.553  25.982  1.00  0.00    -0.014 A 
ATOM     26  C   UNL A   1      39.406  21.696  26.126  1.00  0.00     0.012 A 
ATOM     27  C   UNL A   1      38.474  23.831  26.484  1.00  0.00     0.012 A 
ATOM     28  C   UNL A   1      40.666  22.185  26.521  1.00  0.00     0.047 A 
ATOM     29  C   UNL A   1      39.746  24.365  26.669  1.00  0.00     0.047 A 
ATOM     30  C   UNL A   1      40.846  23.542  26.700  1.00  0.00     0.115 A 
BRANCH  30  31
ATOM     31  O   UNL A   1      42.083  24.043  26.949  1.00  0.00    -0.508 OA
ATOM     32  H   UNL A   1      42.744  23.494  27.325  1.00  0.00     0.293 HD
ENDBRANCH  30  31
ENDBRANCH  18  25
ENDBRANCH   8  10
ENDBRANCH   7   8
ENDBRANCH   6   7
ENDBRANCH   5   6
ENDBRANCH   4   5
ENDBRANCH   3   4
ENDBRANCH   2   3
ENDBRANCH   1   2
BRANCH   1  33
ATOM     33  C   UNL A   1      33.041  30.702  27.366  1.00  0.00     0.188 C 
BRANCH  33  34
ATOM     34  C   UNL A   1      34.092  31.772  27.613  1.00  0.00     0.188 C 
BRANCH  34  35
ATOM     35  O   UNL A   1      34.346  32.045  28.964  1.00  0.00    -0.376 OA
BRANCH  35  36
ATOM     36  C   UNL A   1      35.450  32.868  29.313  1.00  0.00     0.202 C 
BRANCH  36  37
ATOM     37  C   UNL A   1      35.426  33.956  30.413  1.00  0.00     0.261 C 
BRANCH  37  38
ATOM     38  O   UNL A   1      35.487  33.557  31.796  1.00  0.00    -0.460 OA
BRANCH  38  39
ATOM     39  C   UNL A   1      36.198  34.307  32.665  1.00  0.00     0.338 C 
ATOM     40  O   UNL A   1      35.910  35.409  33.090  1.00  0.00    -0.246 OA
BRANCH  39  41
ATOM     41  C   UNL A   1      37.294  33.448  33.191  1.00  0.00     0.060 A 
ATOM     42  C   UNL A   1      37.010  32.489  34.176  1.00  0.00     0.016 A 
ATOM     43  C   UNL A   1      38.590  33.550  32.677  1.00  0.00     0.016 A 
ATOM     44  C   UNL A   1      38.021  31.657  34.678  1.00  0.00     0.010 A 
ATOM     45  C   UNL A   1      39.600  32.712  33.172  1.00  0.00     0.010 A 
ATOM     46  C   UNL A   1      39.335  31.789  34.211  1.00  0.00    -0.014 A 
BRANCH  46  47
ATOM     47  C   UNL A   1      40.477  31.239  34.998  1.00  0.00     0.031 A 
ATOM     48  C   UNL A   1      41.070  32.170  36.027  1.00  0.00     0.074 A 
ATOM     49  C   UNL A   1      40.985  29.996  34.857  1.00  0.00     0.049 A 
ATOM     50  N   UNL A   1      42.074  31.988  36.843  1.00  0.00    -0.248 NA
ATOM     51  C   UNL A   1      40.451  33.504  36.130  1.00  0.00     0.031 C 
ATOM     52  C   UNL A   1      40.505  28.968  33.939  1.00  0.00     0.029 A 
ATOM     53  N   UNL A   1      42.047  29.393  35.496  1.00  0.00    -0.354 N 
ATOM     54  C   UNL A   1      42.195  33.182  37.543  1.00  0.00     0.074 A 
ATOM     55  C   UNL A   1      41.257  34.116  36.976  1.00  0.00     0.031 C 
ATOM     56  C   UNL A   1      41.289  27.877  34.043  1.00  0.00     0.029 A 
ATOM     57  C   UNL A   1      42.317  28.117  35.051  1.00  0.00     0.049 A 
ATOM     58  H   UNL A   1      42.566  29.834  36.206  1.00  0.00     0.167 HD
ATOM     59  C   UNL A   1      42.968  33.468  38.613  1.00  0.00     0.037 A 
ATOM     60  C   UNL A   1      43.275  27.242  35.430  1.00  0.00     0.037 A 
ATOM     61  C   UNL A   1      43.893  32.543  39.195  1.00  0.00     0.049 A 
ATOM     62  C   UNL A   1      44.202  27.613  36.566  1.00  0.00     0.074 A 
ATOM     63  C   UNL A   1      44.703  32.720  40.301  1.00  0.00     0.029 A 
ATOM     64  N   UNL A   1      44.143  31.271  38.706  1.00  0.00    -0.354 N 
ATOM     65  N   UNL A   1      44.244  28.714  37.278  1.00  0.00    -0.248 NA
ATOM     66  C   UNL A   1      45.186  26.599  36.978  1.00  0.00     0.031 C 
ATOM     67  C   UNL A   1      45.502  31.581  40.434  1.00  0.00     0.029 A 
ATOM     68  C   UNL A   1      45.124  30.662  39.467  1.00  0.00     0.049 A 
ATOM     69  H   UNL A   1      43.690  30.862  37.933  1.00  0.00     0.167 HD
ATOM     70  C   UNL A   1      45.207  28.498  38.260  1.00  0.00     0.074 A 
ATOM     71  C   UNL A   1      45.723  27.162  38.050  1.00  0.00     0.031 C 
ATOM     72  C   UNL A   1      45.614  29.324  39.257  1.00  0.00     0.037 A 
BRANCH  59  73
ATOM     73  C   UNL A   1      42.834  34.845  39.194  1.00  0.00     0.057 A 
ATOM     74  C   UNL A   1      41.893  35.144  40.193  1.00  0.00     0.134 A 
ATOM     75  C   UNL A   1      43.625  35.894  38.717  1.00  0.00     0.134 A 
ATOM     76  F   UNL A   1      41.082  34.188  40.673  1.00  0.00    -0.206 F 
ATOM     77  C   UNL A   1      41.713  36.446  40.658  1.00  0.00     0.040 A 
ATOM     78  C   UNL A   1      43.482  37.193  39.206  1.00  0.00     0.040 A 
ATOM     79  F   UNL A   1      44.538  35.679  37.758  1.00  0.00    -0.206 F 
ATOM     80  C   UNL A   1      42.515  37.474  40.168  1.00  0.00     0.006 A 
ENDBRANCH  59  73
BRANCH  60  81
ATOM     81  C   UNL A   1      43.390  25.901  34.788  1.00  0.00     0.057 A 
ATOM     82  C   UNL A   1      42.747  24.778  35.330  1.00  0.00     0.134 A 
ATOM     83  C   UNL A   1      44.202  25.689  33.668  1.00  0.00     0.134 A 
ATOM     84  F   UNL A   1      41.976  24.903  36.421  1.00  0.00    -0.206 F 
ATOM     85  C   UNL A   1      42.934  23.495  34.806  1.00  0.00     0.040 A 
ATOM     86  C   UNL A   1      44.377  24.415  33.117  1.00  0.00     0.040 A 
ATOM     87  F   UNL A   1      44.852  26.713  33.098  1.00  0.00    -0.206 F 
ATOM     88  C   UNL A   1      43.750  23.312  33.693  1.00  0.00     0.006 A 
ENDBRANCH  60  81
BRANCH  72  89
ATOM     89  C   UNL A   1      46.611  28.788  40.247  1.00  0.00     0.057 A 
ATOM     90  C   UNL A   1      46.230  28.131  41.423  1.00  0.00     0.134 A 
ATOM     91  C   UNL A   1      47.986  28.896  39.988  1.00  0.00     0.134 A 
ATOM     92  F   UNL A   1      44.932  27.992  41.735  1.00  0.00    -0.206 F 
ATOM     93  C   UNL A   1      47.176  27.639  42.323  1.00  0.00     0.040 A 
ATOM     94  C   UNL A   1      48.940  28.371  40.859  1.00  0.00     0.040 A 
ATOM     95  F   UNL A   1      48.425  29.496  38.871  1.00  0.00    -0.206 F 
ATOM     96  C   UNL A   1      48.535  27.752  42.038  1.00  0.00     0.006 A 
ENDBRANCH  72  89
ENDBRANCH  46  47
ENDBRANCH  39  41
ENDBRANCH  38  39
ENDBRANCH  37  38
ENDBRANCH  36  37
ENDBRANCH  35  36
ENDBRANCH  34  35
ENDBRANCH  33  34
ENDBRANCH   1  33
TORSDOF 23
ENDMDL
