MODEL 1
REMARK VINA RESULT:      -9.9      0.000      0.000
REMARK SMILES Cc1ccccc1C(=O)Nc1ccc(OCC(=O)OCCOCCOCCOCCOC(=O)c2ccc(-c3c4nc(c(-c5c(F)cccc5F)c5ccc([nH]5)c(-c5c(F)cccc5F)c5nc(c(-c6c(F)cccc6F)c6ccc3[nH]6)C=C5)C=C4)cc2)c(-c2nc3ccccc3s2)c1
REMARK SMILES IDX 24 1 23 2 22 3 21 4 20 5 19 6 17 7 18 8 16 9 15 10 14 11
REMARK SMILES IDX 11 12 12 13 98 14 13 15 88 16 10 17 8 18 9 19 7 21 1 22 2 23
REMARK SMILES IDX 3 24 4 25 6 26 5 27 89 28 90 29 97 30 91 31 96 32 92 33
REMARK SMILES IDX 95 34 93 35 94 36 25 37 26 38 27 39 28 40 29 41 30 42 31 43
REMARK SMILES IDX 32 44 33 45 34 46 35 47 87 48 36 49 86 50 37 51 38 52 39 53
REMARK SMILES IDX 80 54 40 55 85 56 79 57 81 58 41 59 84 60 78 61 77 62 42 64
REMARK SMILES IDX 68 65 51 66 67 67 52 68 55 69 66 70 82 71 53 72 54 73 65 75
REMARK SMILES IDX 83 76 56 77 43 78 44 79 49 80 45 81 46 82 48 83 50 84 47 85
REMARK SMILES IDX 69 86 70 87 75 88 71 89 72 90 74 91 76 92 73 93 57 94 58 95
REMARK SMILES IDX 63 96 59 97 60 98 62 99 64 100 61 101
REMARK H PARENT 10 20 81 63 55 74
REMARK Flexibility Score: inf
ROOT
ATOM      1  C   UNL A   1      40.108  22.293  27.003  1.00  0.00     0.188 C 
ENDROOT
BRANCH   1   2
ATOM      2  C   UNL A   1      39.097  23.218  26.358  1.00  0.00     0.188 C 
BRANCH   2   3
ATOM      3  O   UNL A   1      37.801  22.675  26.123  1.00  0.00    -0.376 OA
BRANCH   3   4
ATOM      4  C   UNL A   1      37.695  21.775  25.026  1.00  0.00     0.202 C 
BRANCH   4   5
ATOM      5  C   UNL A   1      36.321  21.879  24.349  1.00  0.00     0.261 C 
BRANCH   5   6
ATOM      6  O   UNL A   1      36.208  23.089  23.604  1.00  0.00    -0.461 OA
BRANCH   6   7
ATOM      7  C   UNL A   1      35.270  23.994  23.981  1.00  0.00     0.344 C 
ATOM      8  O   UNL A   1      35.296  24.649  25.015  1.00  0.00    -0.248 OA
BRANCH   7   9
ATOM      9  C   UNL A   1      34.203  24.121  22.887  1.00  0.00     0.352 C 
BRANCH   9  10
ATOM     10  O   UNL A   1      34.034  25.497  22.591  1.00  0.00    -0.481 OA
BRANCH  10  11
ATOM     11  C   UNL A   1      32.954  26.268  22.913  1.00  0.00     0.130 A 
ATOM     12  C   UNL A   1      31.965  28.490  24.364  1.00  0.00     0.042 A 
ATOM     13  C   UNL A   1      32.744  28.694  23.235  1.00  0.00     0.030 A 
ATOM     14  C   UNL A   1      31.443  27.208  24.546  1.00  0.00     0.041 A 
ATOM     15  C   UNL A   1      33.224  27.596  22.512  1.00  0.00     0.049 A 
ATOM     16  C   UNL A   1      31.991  26.037  23.922  1.00  0.00     0.055 A 
BRANCH  12  17
ATOM     17  N   UNL A   1      31.591  29.603  25.139  1.00  0.00    -0.322 N 
ATOM     18  C   UNL A   1      32.121  30.362  26.184  1.00  0.00     0.255 C 
ATOM     19  O   UNL A   1      31.404  31.325  26.509  1.00  0.00    -0.269 OA
ATOM     20  H   UNL A   1      30.706  29.941  24.869  1.00  0.00     0.170 HD
BRANCH  18  21
ATOM     21  C   UNL A   1      33.483  30.330  26.848  1.00  0.00     0.043 A 
ATOM     22  C   UNL A   1      33.979  27.849  26.746  1.00  0.00     0.045 C 
ATOM     23  C   UNL A   1      34.343  29.248  27.051  1.00  0.00    -0.038 A 
ATOM     24  C   UNL A   1      35.630  29.434  27.625  1.00  0.00     0.004 A 
ATOM     25  C   UNL A   1      36.032  30.661  28.130  1.00  0.00     0.000 A 
ATOM     26  C   UNL A   1      33.895  31.554  27.444  1.00  0.00     0.014 A 
ATOM     27  C   UNL A   1      35.141  31.719  28.076  1.00  0.00     0.001 A 
ENDBRANCH  18  21
ENDBRANCH  12  17
BRANCH  16  28
ATOM     28  C   UNL A   1      31.708  24.776  24.680  1.00  0.00     0.128 A 
ATOM     29  N   UNL A   1      32.037  24.616  25.958  1.00  0.00    -0.236 NA
ATOM     30  S   UNL A   1      31.012  23.334  24.068  1.00  0.00    -0.114 S 
ATOM     31  C   UNL A   1      32.385  23.293  26.172  1.00  0.00     0.082 A 
ATOM     32  C   UNL A   1      31.981  22.420  25.167  1.00  0.00     0.055 A 
ATOM     33  C   UNL A   1      33.162  22.789  27.235  1.00  0.00     0.030 A 
ATOM     34  C   UNL A   1      32.385  21.075  25.146  1.00  0.00     0.021 A 
ATOM     35  C   UNL A   1      33.654  21.483  27.175  1.00  0.00     0.002 A 
ATOM     36  C   UNL A   1      33.282  20.643  26.132  1.00  0.00     0.002 A 
ENDBRANCH  16  28
ENDBRANCH  10  11
ENDBRANCH   9  10
ENDBRANCH   7   9
ENDBRANCH   6   7
ENDBRANCH   5   6
ENDBRANCH   4   5
ENDBRANCH   3   4
ENDBRANCH   2   3
ENDBRANCH   1   2
BRANCH   1  37
ATOM     37  O   UNL A   1      40.774  21.408  26.114  1.00  0.00    -0.377 OA
BRANCH  37  38
ATOM     38  C   UNL A   1      42.137  21.232  26.451  1.00  0.00     0.188 C 
BRANCH  38  39
ATOM     39  C   UNL A   1      42.632  19.885  25.957  1.00  0.00     0.188 C 
BRANCH  39  40
ATOM     40  O   UNL A   1      43.679  19.930  25.000  1.00  0.00    -0.376 OA
BRANCH  40  41
ATOM     41  C   UNL A   1      44.305  21.193  24.840  1.00  0.00     0.202 C 
BRANCH  41  42
ATOM     42  C   UNL A   1      45.826  21.297  25.233  1.00  0.00     0.261 C 
BRANCH  42  43
ATOM     43  O   UNL A   1      46.207  22.718  25.530  1.00  0.00    -0.460 OA
BRANCH  43  44
ATOM     44  C   UNL A   1      45.721  23.956  25.850  1.00  0.00     0.338 C 
ATOM     45  O   UNL A   1      45.425  24.915  25.193  1.00  0.00    -0.246 OA
BRANCH  44  46
ATOM     46  C   UNL A   1      45.724  23.995  27.359  1.00  0.00     0.060 A 
ATOM     47  C   UNL A   1      44.741  23.333  28.097  1.00  0.00     0.016 A 
ATOM     48  C   UNL A   1      46.654  24.768  28.051  1.00  0.00     0.016 A 
ATOM     49  C   UNL A   1      44.564  23.626  29.465  1.00  0.00     0.010 A 
ATOM     50  C   UNL A   1      46.395  25.164  29.375  1.00  0.00     0.010 A 
ATOM     51  C   UNL A   1      45.270  24.685  30.067  1.00  0.00    -0.014 A 
BRANCH  51  52
ATOM     52  C   UNL A   1      44.619  25.518  31.139  1.00  0.00     0.031 A 
ATOM     53  C   UNL A   1      43.656  26.661  30.931  1.00  0.00     0.074 A 
ATOM     54  C   UNL A   1      44.623  24.990  32.395  1.00  0.00     0.049 A 
ATOM     55  N   UNL A   1      43.243  27.474  31.864  1.00  0.00    -0.248 NA
ATOM     56  C   UNL A   1      43.049  26.978  29.654  1.00  0.00     0.031 C 
ATOM     57  C   UNL A   1      43.714  25.339  33.481  1.00  0.00     0.029 A 
ATOM     58  N   UNL A   1      45.308  23.912  32.938  1.00  0.00    -0.354 N 
ATOM     59  C   UNL A   1      42.154  28.206  31.415  1.00  0.00     0.074 A 
ATOM     60  C   UNL A   1      42.154  27.911  29.999  1.00  0.00     0.031 C 
ATOM     61  C   UNL A   1      43.819  24.458  34.483  1.00  0.00     0.029 A 
ATOM     62  C   UNL A   1      45.066  23.773  34.305  1.00  0.00     0.049 A 
ATOM     63  H   UNL A   1      45.895  23.315  32.419  1.00  0.00     0.167 HD
ATOM     64  C   UNL A   1      41.345  28.905  32.293  1.00  0.00     0.037 A 
ATOM     65  C   UNL A   1      46.066  23.928  35.221  1.00  0.00     0.037 A 
ATOM     66  C   UNL A   1      41.777  28.768  33.729  1.00  0.00     0.049 A 
ATOM     67  C   UNL A   1      46.054  25.307  35.887  1.00  0.00     0.074 A 
ATOM     68  C   UNL A   1      41.129  28.565  34.945  1.00  0.00     0.029 A 
ATOM     69  N   UNL A   1      43.138  28.754  34.068  1.00  0.00    -0.354 N 
ATOM     70  N   UNL A   1      45.037  26.141  35.840  1.00  0.00    -0.248 NA
ATOM     71  C   UNL A   1      47.178  25.900  36.604  1.00  0.00     0.031 C 
ATOM     72  C   UNL A   1      42.100  28.267  35.953  1.00  0.00     0.029 A 
ATOM     73  C   UNL A   1      43.356  28.414  35.396  1.00  0.00     0.049 A 
ATOM     74  H   UNL A   1      43.860  28.962  33.433  1.00  0.00     0.167 HD
ATOM     75  C   UNL A   1      45.421  27.389  36.240  1.00  0.00     0.074 A 
ATOM     76  C   UNL A   1      46.727  27.151  36.830  1.00  0.00     0.031 C 
ATOM     77  C   UNL A   1      44.700  28.525  35.972  1.00  0.00     0.037 A 
BRANCH  64  78
ATOM     78  C   UNL A   1      40.008  29.632  31.916  1.00  0.00     0.057 A 
ATOM     79  C   UNL A   1      39.928  31.042  31.785  1.00  0.00     0.134 A 
ATOM     80  C   UNL A   1      38.752  29.027  31.689  1.00  0.00     0.134 A 
ATOM     81  F   UNL A   1      41.020  31.815  31.789  1.00  0.00    -0.206 F 
ATOM     82  C   UNL A   1      38.724  31.758  31.584  1.00  0.00     0.040 A 
ATOM     83  C   UNL A   1      37.547  29.722  31.462  1.00  0.00     0.040 A 
ATOM     84  F   UNL A   1      38.578  27.712  31.627  1.00  0.00    -0.206 F 
ATOM     85  C   UNL A   1      37.520  31.098  31.439  1.00  0.00     0.006 A 
ENDBRANCH  64  78
BRANCH  65  86
ATOM     86  C   UNL A   1      47.118  22.885  35.028  1.00  0.00     0.057 A 
ATOM     87  C   UNL A   1      48.340  23.415  34.567  1.00  0.00     0.134 A 
ATOM     88  C   UNL A   1      47.208  21.787  35.897  1.00  0.00     0.134 A 
ATOM     89  F   UNL A   1      48.335  24.407  33.663  1.00  0.00    -0.206 F 
ATOM     90  C   UNL A   1      49.559  23.093  35.173  1.00  0.00     0.040 A 
ATOM     91  C   UNL A   1      48.434  21.430  36.486  1.00  0.00     0.040 A 
ATOM     92  F   UNL A   1      46.100  21.182  36.346  1.00  0.00    -0.206 F 
ATOM     93  C   UNL A   1      49.597  22.141  36.187  1.00  0.00     0.006 A 
ENDBRANCH  65  86
BRANCH  77  94
ATOM     94  C   UNL A   1      45.202  29.937  36.188  1.00  0.00     0.057 A 
ATOM     95  C   UNL A   1      45.130  30.605  37.416  1.00  0.00     0.134 A 
ATOM     96  C   UNL A   1      45.970  30.586  35.192  1.00  0.00     0.134 A 
ATOM     97  F   UNL A   1      44.526  30.056  38.478  1.00  0.00    -0.206 F 
ATOM     98  C   UNL A   1      45.739  31.849  37.628  1.00  0.00     0.040 A 
ATOM     99  C   UNL A   1      46.636  31.793  35.413  1.00  0.00     0.040 A 
ATOM    100  F   UNL A   1      46.131  30.064  33.968  1.00  0.00    -0.206 F 
ATOM    101  C   UNL A   1      46.511  32.437  36.633  1.00  0.00     0.006 A 
ENDBRANCH  77  94
ENDBRANCH  51  52
ENDBRANCH  44  46
ENDBRANCH  43  44
ENDBRANCH  42  43
ENDBRANCH  41  42
ENDBRANCH  40  41
ENDBRANCH  39  40
ENDBRANCH  38  39
ENDBRANCH  37  38
ENDBRANCH   1  37
TORSDOF 25
ENDMDL
MODEL 2
REMARK VINA RESULT:      -9.9      4.144      9.037
REMARK SMILES Cc1ccccc1C(=O)Nc1ccc(OCC(=O)OCCOCCOCCOCCOC(=O)c2ccc(-c3c4nc(c(-c5c(F)cccc5F)c5ccc([nH]5)c(-c5c(F)cccc5F)c5nc(c(-c6c(F)cccc6F)c6ccc3[nH]6)C=C5)C=C4)cc2)c(-c2nc3ccccc3s2)c1
REMARK SMILES IDX 24 1 23 2 22 3 21 4 20 5 19 6 17 7 18 8 16 9 15 10 14 11
REMARK SMILES IDX 11 12 12 13 98 14 13 15 88 16 10 17 8 18 9 19 7 21 1 22 2 23
REMARK SMILES IDX 3 24 4 25 6 26 5 27 89 28 90 29 97 30 91 31 96 32 92 33
REMARK SMILES IDX 95 34 93 35 94 36 25 37 26 38 27 39 28 40 29 41 30 42 31 43
REMARK SMILES IDX 32 44 33 45 34 46 35 47 87 48 36 49 86 50 37 51 38 52 39 53
REMARK SMILES IDX 80 54 40 55 85 56 79 57 81 58 41 59 84 60 78 61 77 62 42 64
REMARK SMILES IDX 68 65 51 66 67 67 52 68 55 69 66 70 82 71 53 72 54 73 65 75
REMARK SMILES IDX 83 76 56 77 43 78 44 79 49 80 45 81 46 82 48 83 50 84 47 85
REMARK SMILES IDX 69 86 70 87 75 88 71 89 72 90 74 91 76 92 73 93 57 94 58 95
REMARK SMILES IDX 63 96 59 97 60 98 62 99 64 100 61 101
REMARK H PARENT 10 20 81 63 55 74
REMARK Flexibility Score: inf
ROOT
ATOM      1  C   UNL A   1      35.621  31.847  30.600  1.00  0.00     0.188 C 
ENDROOT
BRANCH   1   2
ATOM      2  C   UNL A   1      36.767  32.056  29.631  1.00  0.00     0.188 C 
BRANCH   2   3
ATOM      3  O   UNL A   1      36.670  31.380  28.380  1.00  0.00    -0.376 OA
BRANCH   3   4
ATOM      4  C   UNL A   1      35.350  31.151  27.900  1.00  0.00     0.202 C 
BRANCH   4   5
ATOM      5  C   UNL A   1      35.105  29.659  27.633  1.00  0.00     0.261 C 
BRANCH   5   6
ATOM      6  O   UNL A   1      34.149  29.475  26.592  1.00  0.00    -0.461 OA
BRANCH   6   7
ATOM      7  C   UNL A   1      32.887  29.111  26.933  1.00  0.00     0.344 C 
ATOM      8  O   UNL A   1      31.997  29.881  27.270  1.00  0.00    -0.248 OA
BRANCH   7   9
ATOM      9  C   UNL A   1      32.722  27.595  26.771  1.00  0.00     0.352 C 
BRANCH   9  10
ATOM     10  O   UNL A   1      31.337  27.300  26.737  1.00  0.00    -0.481 OA
BRANCH  10  11
ATOM     11  C   UNL A   1      30.706  26.478  25.847  1.00  0.00     0.130 A 
ATOM     12  C   UNL A   1      30.935  24.334  24.012  1.00  0.00     0.042 A 
ATOM     13  C   UNL A   1      30.997  24.086  25.376  1.00  0.00     0.030 A 
ATOM     14  C   UNL A   1      30.444  25.580  23.621  1.00  0.00     0.041 A 
ATOM     15  C   UNL A   1      30.874  25.144  26.283  1.00  0.00     0.049 A 
ATOM     16  C   UNL A   1      30.421  26.727  24.485  1.00  0.00     0.055 A 
BRANCH  12  17
ATOM     17  N   UNL A   1      31.178  23.274  23.120  1.00  0.00    -0.322 N 
ATOM     18  C   UNL A   1      32.210  22.379  22.831  1.00  0.00     0.255 C 
ATOM     19  O   UNL A   1      31.916  21.553  21.949  1.00  0.00    -0.269 OA
ATOM     20  H   UNL A   1      30.402  23.120  22.533  1.00  0.00     0.170 HD
BRANCH  18  21
ATOM     21  C   UNL A   1      33.531  22.123  23.527  1.00  0.00     0.043 A 
ATOM     22  C   UNL A   1      32.844  20.298  25.144  1.00  0.00     0.045 C 
ATOM     23  C   UNL A   1      33.848  21.173  24.503  1.00  0.00    -0.038 A 
ATOM     24  C   UNL A   1      35.179  21.030  24.980  1.00  0.00     0.004 A 
ATOM     25  C   UNL A   1      36.185  21.908  24.605  1.00  0.00     0.000 A 
ATOM     26  C   UNL A   1      34.565  23.051  23.225  1.00  0.00     0.014 A 
ATOM     27  C   UNL A   1      35.866  22.951  23.753  1.00  0.00     0.001 A 
ENDBRANCH  18  21
ENDBRANCH  12  17
BRANCH  16  28
ATOM     28  C   UNL A   1      30.443  28.027  23.742  1.00  0.00     0.128 A 
ATOM     29  N   UNL A   1      30.381  29.205  24.354  1.00  0.00    -0.236 NA
ATOM     30  S   UNL A   1      30.472  28.248  22.042  1.00  0.00    -0.114 S 
ATOM     31  C   UNL A   1      29.679  30.092  23.554  1.00  0.00     0.082 A 
ATOM     32  C   UNL A   1      29.536  29.687  22.231  1.00  0.00     0.055 A 
ATOM     33  C   UNL A   1      29.045  31.281  23.971  1.00  0.00     0.030 A 
ATOM     34  C   UNL A   1      28.722  30.387  21.325  1.00  0.00     0.021 A 
ATOM     35  C   UNL A   1      28.154  31.929  23.112  1.00  0.00     0.002 A 
ATOM     36  C   UNL A   1      27.983  31.474  21.810  1.00  0.00     0.002 A 
ENDBRANCH  16  28
ENDBRANCH  10  11
ENDBRANCH   9  10
ENDBRANCH   7   9
ENDBRANCH   6   7
ENDBRANCH   5   6
ENDBRANCH   4   5
ENDBRANCH   3   4
ENDBRANCH   2   3
ENDBRANCH   1   2
BRANCH   1  37
ATOM     37  O   UNL A   1      34.945  33.030  31.003  1.00  0.00    -0.377 OA
BRANCH  37  38
ATOM     38  C   UNL A   1      34.471  32.951  32.334  1.00  0.00     0.188 C 
BRANCH  38  39
ATOM     39  C   UNL A   1      35.632  32.790  33.298  1.00  0.00     0.188 C 
BRANCH  39  40
ATOM     40  O   UNL A   1      35.510  33.493  34.526  1.00  0.00    -0.376 OA
BRANCH  40  41
ATOM     41  C   UNL A   1      36.646  33.441  35.374  1.00  0.00     0.202 C 
BRANCH  41  42
ATOM     42  C   UNL A   1      37.638  32.235  35.175  1.00  0.00     0.261 C 
BRANCH  42  43
ATOM     43  O   UNL A   1      39.009  32.582  35.675  1.00  0.00    -0.460 OA
BRANCH  43  44
ATOM     44  C   UNL A   1      39.900  32.401  36.698  1.00  0.00     0.338 C 
ATOM     45  O   UNL A   1      39.993  32.873  37.796  1.00  0.00    -0.246 OA
BRANCH  44  46
ATOM     46  C   UNL A   1      40.962  31.491  36.130  1.00  0.00     0.060 A 
ATOM     47  C   UNL A   1      42.283  31.923  35.999  1.00  0.00     0.016 A 
ATOM     48  C   UNL A   1      40.633  30.229  35.640  1.00  0.00     0.016 A 
ATOM     49  C   UNL A   1      43.188  31.202  35.193  1.00  0.00     0.010 A 
ATOM     50  C   UNL A   1      41.489  29.583  34.729  1.00  0.00     0.010 A 
ATOM     51  C   UNL A   1      42.741  30.127  34.401  1.00  0.00    -0.014 A 
BRANCH  51  52
ATOM     52  C   UNL A   1      43.355  29.875  33.050  1.00  0.00     0.031 A 
ATOM     53  C   UNL A   1      43.313  30.797  31.855  1.00  0.00     0.074 A 
ATOM     54  C   UNL A   1      44.311  28.907  32.996  1.00  0.00     0.049 A 
ATOM     55  N   UNL A   1      43.701  30.483  30.650  1.00  0.00    -0.248 NA
ATOM     56  C   UNL A   1      42.853  32.170  31.916  1.00  0.00     0.031 C 
ATOM     57  C   UNL A   1      45.346  28.770  31.976  1.00  0.00     0.029 A 
ATOM     58  N   UNL A   1      44.691  27.937  33.913  1.00  0.00    -0.354 N 
ATOM     59  C   UNL A   1      43.814  31.623  29.870  1.00  0.00     0.074 A 
ATOM     60  C   UNL A   1      43.177  32.622  30.698  1.00  0.00     0.031 C 
ATOM     61  C   UNL A   1      46.269  27.881  32.360  1.00  0.00     0.029 A 
ATOM     62  C   UNL A   1      45.680  27.094  33.403  1.00  0.00     0.049 A 
ATOM     63  H   UNL A   1      44.309  27.854  34.817  1.00  0.00     0.167 HD
ATOM     64  C   UNL A   1      44.492  31.606  28.664  1.00  0.00     0.037 A 
ATOM     65  C   UNL A   1      45.442  25.764  33.203  1.00  0.00     0.037 A 
ATOM     66  C   UNL A   1      45.069  30.255  28.330  1.00  0.00     0.049 A 
ATOM     67  C   UNL A   1      45.133  25.428  31.741  1.00  0.00     0.074 A 
ATOM     68  C   UNL A   1      46.276  29.790  27.814  1.00  0.00     0.029 A 
ATOM     69  N   UNL A   1      44.356  29.082  28.621  1.00  0.00    -0.354 N 
ATOM     70  N   UNL A   1      45.370  26.239  30.731  1.00  0.00    -0.248 NA
ATOM     71  C   UNL A   1      44.485  24.205  31.282  1.00  0.00     0.031 C 
ATOM     72  C   UNL A   1      46.335  28.368  27.957  1.00  0.00     0.029 A 
ATOM     73  C   UNL A   1      45.114  27.935  28.441  1.00  0.00     0.049 A 
ATOM     74  H   UNL A   1      43.419  29.075  28.920  1.00  0.00     0.167 HD
ATOM     75  C   UNL A   1      44.714  25.815  29.611  1.00  0.00     0.074 A 
ATOM     76  C   UNL A   1      44.288  24.474  29.976  1.00  0.00     0.031 C 
ATOM     77  C   UNL A   1      44.482  26.615  28.521  1.00  0.00     0.037 A 
BRANCH  64  78
ATOM     78  C   UNL A   1      44.815  32.863  27.782  1.00  0.00     0.057 A 
ATOM     79  C   UNL A   1      44.408  32.956  26.427  1.00  0.00     0.134 A 
ATOM     80  C   UNL A   1      45.536  34.010  28.179  1.00  0.00     0.134 A 
ATOM     81  F   UNL A   1      43.571  32.068  25.878  1.00  0.00    -0.206 F 
ATOM     82  C   UNL A   1      44.789  33.998  25.550  1.00  0.00     0.040 A 
ATOM     83  C   UNL A   1      45.903  35.071  27.326  1.00  0.00     0.040 A 
ATOM     84  F   UNL A   1      45.921  34.232  29.429  1.00  0.00    -0.206 F 
ATOM     85  C   UNL A   1      45.556  35.057  25.994  1.00  0.00     0.006 A 
ENDBRANCH  64  78
BRANCH  65  86
ATOM     86  C   UNL A   1      45.153  25.083  34.501  1.00  0.00     0.057 A 
ATOM     87  C   UNL A   1      43.808  24.679  34.622  1.00  0.00     0.134 A 
ATOM     88  C   UNL A   1      46.106  24.249  35.103  1.00  0.00     0.134 A 
ATOM     89  F   UNL A   1      42.831  25.471  34.152  1.00  0.00    -0.206 F 
ATOM     90  C   UNL A   1      43.461  23.384  35.022  1.00  0.00     0.040 A 
ATOM     91  C   UNL A   1      45.763  22.958  35.541  1.00  0.00     0.040 A 
ATOM     92  F   UNL A   1      47.405  24.578  35.086  1.00  0.00    -0.206 F 
ATOM     93  C   UNL A   1      44.452  22.495  35.422  1.00  0.00     0.006 A 
ENDBRANCH  65  86
BRANCH  77  94
ATOM     94  C   UNL A   1      43.564  26.260  27.371  1.00  0.00     0.057 A 
ATOM     95  C   UNL A   1      44.009  25.693  26.171  1.00  0.00     0.134 A 
ATOM     96  C   UNL A   1      42.158  26.295  27.537  1.00  0.00     0.134 A 
ATOM     97  F   UNL A   1      45.312  25.499  25.929  1.00  0.00    -0.206 F 
ATOM     98  C   UNL A   1      43.124  25.234  25.187  1.00  0.00     0.040 A 
ATOM     99  C   UNL A   1      41.269  25.781  26.592  1.00  0.00     0.040 A 
ATOM    100  F   UNL A   1      41.587  26.808  28.636  1.00  0.00    -0.206 F 
ATOM    101  C   UNL A   1      41.751  25.257  25.403  1.00  0.00     0.006 A 
ENDBRANCH  77  94
ENDBRANCH  51  52
ENDBRANCH  44  46
ENDBRANCH  43  44
ENDBRANCH  42  43
ENDBRANCH  41  42
ENDBRANCH  40  41
ENDBRANCH  39  40
ENDBRANCH  38  39
ENDBRANCH  37  38
ENDBRANCH   1  37
TORSDOF 25
ENDMDL
MODEL 3
REMARK VINA RESULT:      -9.7      7.160     12.030
REMARK SMILES Cc1ccccc1C(=O)Nc1ccc(OCC(=O)OCCOCCOCCOCCOC(=O)c2ccc(-c3c4nc(c(-c5c(F)cccc5F)c5ccc([nH]5)c(-c5c(F)cccc5F)c5nc(c(-c6c(F)cccc6F)c6ccc3[nH]6)C=C5)C=C4)cc2)c(-c2nc3ccccc3s2)c1
REMARK SMILES IDX 24 1 23 2 22 3 21 4 20 5 19 6 17 7 18 8 16 9 15 10 14 11
REMARK SMILES IDX 11 12 12 13 98 14 13 15 88 16 10 17 8 18 9 19 7 21 1 22 2 23
REMARK SMILES IDX 3 24 4 25 6 26 5 27 89 28 90 29 97 30 91 31 96 32 92 33
REMARK SMILES IDX 95 34 93 35 94 36 25 37 26 38 27 39 28 40 29 41 30 42 31 43
REMARK SMILES IDX 32 44 33 45 34 46 35 47 87 48 36 49 86 50 37 51 38 52 39 53
REMARK SMILES IDX 80 54 40 55 85 56 79 57 81 58 41 59 84 60 78 61 77 62 42 64
REMARK SMILES IDX 68 65 51 66 67 67 52 68 55 69 66 70 82 71 53 72 54 73 65 75
REMARK SMILES IDX 83 76 56 77 43 78 44 79 49 80 45 81 46 82 48 83 50 84 47 85
REMARK SMILES IDX 69 86 70 87 75 88 71 89 72 90 74 91 76 92 73 93 57 94 58 95
REMARK SMILES IDX 63 96 59 97 60 98 62 99 64 100 61 101
REMARK H PARENT 10 20 81 63 55 74
REMARK Flexibility Score: inf
ROOT
ATOM      1  C   UNL A   1      35.755  31.659  30.519  1.00  0.00     0.188 C 
ENDROOT
BRANCH   1   2
ATOM      2  C   UNL A   1      36.945  31.785  29.591  1.00  0.00     0.188 C 
BRANCH   2   3
ATOM      3  O   UNL A   1      36.948  30.939  28.444  1.00  0.00    -0.376 OA
BRANCH   3   4
ATOM      4  C   UNL A   1      35.707  30.824  27.756  1.00  0.00     0.202 C 
BRANCH   4   5
ATOM      5  C   UNL A   1      35.272  29.357  27.634  1.00  0.00     0.261 C 
BRANCH   5   6
ATOM      6  O   UNL A   1      34.289  29.198  26.615  1.00  0.00    -0.461 OA
BRANCH   6   7
ATOM      7  C   UNL A   1      33.006  28.955  26.988  1.00  0.00     0.344 C 
ATOM      8  O   UNL A   1      32.186  29.810  27.296  1.00  0.00    -0.248 OA
BRANCH   7   9
ATOM      9  C   UNL A   1      32.718  27.451  26.903  1.00  0.00     0.352 C 
BRANCH   9  10
ATOM     10  O   UNL A   1      31.317  27.275  26.772  1.00  0.00    -0.481 OA
BRANCH  10  11
ATOM     11  C   UNL A   1      30.684  26.461  25.877  1.00  0.00     0.130 A 
ATOM     12  C   UNL A   1      30.903  24.315  24.043  1.00  0.00     0.042 A 
ATOM     13  C   UNL A   1      30.950  24.066  25.406  1.00  0.00     0.030 A 
ATOM     14  C   UNL A   1      30.432  25.567  23.648  1.00  0.00     0.041 A 
ATOM     15  C   UNL A   1      30.832  25.125  26.313  1.00  0.00     0.049 A 
ATOM     16  C   UNL A   1      30.415  26.714  24.512  1.00  0.00     0.055 A 
BRANCH  12  17
ATOM     17  N   UNL A   1      31.141  23.253  23.152  1.00  0.00    -0.322 N 
ATOM     18  C   UNL A   1      32.178  22.370  22.846  1.00  0.00     0.255 C 
ATOM     19  O   UNL A   1      31.876  21.534  21.976  1.00  0.00    -0.269 OA
ATOM     20  H   UNL A   1      30.354  23.085  22.583  1.00  0.00     0.170 HD
BRANCH  18  21
ATOM     21  C   UNL A   1      33.517  22.136  23.515  1.00  0.00     0.043 A 
ATOM     22  C   UNL A   1      32.861  20.414  25.253  1.00  0.00     0.045 C 
ATOM     23  C   UNL A   1      33.854  21.239  24.533  1.00  0.00    -0.038 A 
ATOM     24  C   UNL A   1      35.197  21.105  24.976  1.00  0.00     0.004 A 
ATOM     25  C   UNL A   1      36.201  21.948  24.521  1.00  0.00     0.000 A 
ATOM     26  C   UNL A   1      34.552  23.031  23.129  1.00  0.00     0.014 A 
ATOM     27  C   UNL A   1      35.868  22.945  23.622  1.00  0.00     0.001 A 
ENDBRANCH  18  21
ENDBRANCH  12  17
BRANCH  16  28
ATOM     28  C   UNL A   1      30.460  28.015  23.770  1.00  0.00     0.128 A 
ATOM     29  N   UNL A   1      30.402  29.193  24.382  1.00  0.00    -0.236 NA
ATOM     30  S   UNL A   1      30.512  28.235  22.071  1.00  0.00    -0.114 S 
ATOM     31  C   UNL A   1      29.719  30.087  23.573  1.00  0.00     0.082 A 
ATOM     32  C   UNL A   1      29.589  29.684  22.248  1.00  0.00     0.055 A 
ATOM     33  C   UNL A   1      29.093  31.282  23.983  1.00  0.00     0.030 A 
ATOM     34  C   UNL A   1      28.794  30.393  21.332  1.00  0.00     0.021 A 
ATOM     35  C   UNL A   1      28.219  31.939  23.113  1.00  0.00     0.002 A 
ATOM     36  C   UNL A   1      28.060  31.487  21.809  1.00  0.00     0.002 A 
ENDBRANCH  16  28
ENDBRANCH  10  11
ENDBRANCH   9  10
ENDBRANCH   7   9
ENDBRANCH   6   7
ENDBRANCH   5   6
ENDBRANCH   4   5
ENDBRANCH   3   4
ENDBRANCH   2   3
ENDBRANCH   1   2
BRANCH   1  37
ATOM     37  O   UNL A   1      34.993  32.845  30.692  1.00  0.00    -0.377 OA
BRANCH  37  38
ATOM     38  C   UNL A   1      34.505  32.983  32.014  1.00  0.00     0.188 C 
BRANCH  38  39
ATOM     39  C   UNL A   1      35.651  33.251  32.972  1.00  0.00     0.188 C 
BRANCH  39  40
ATOM     40  O   UNL A   1      35.280  33.778  34.237  1.00  0.00    -0.376 OA
BRANCH  40  41
ATOM     41  C   UNL A   1      36.277  33.707  35.244  1.00  0.00     0.202 C 
BRANCH  41  42
ATOM     42  C   UNL A   1      37.712  33.231  34.804  1.00  0.00     0.261 C 
BRANCH  42  43
ATOM     43  O   UNL A   1      38.775  34.077  35.441  1.00  0.00    -0.460 OA
BRANCH  43  44
ATOM     44  C   UNL A   1      39.856  34.059  36.279  1.00  0.00     0.338 C 
ATOM     45  O   UNL A   1      39.967  34.033  37.473  1.00  0.00    -0.246 OA
BRANCH  44  46
ATOM     46  C   UNL A   1      41.052  34.224  35.373  1.00  0.00     0.060 A 
ATOM     47  C   UNL A   1      42.246  34.768  35.850  1.00  0.00     0.016 A 
ATOM     48  C   UNL A   1      40.966  33.921  34.016  1.00  0.00     0.016 A 
ATOM     49  C   UNL A   1      43.236  35.206  34.947  1.00  0.00     0.010 A 
ATOM     50  C   UNL A   1      41.887  34.478  33.110  1.00  0.00     0.010 A 
ATOM     51  C   UNL A   1      42.980  35.235  33.563  1.00  0.00    -0.014 A 
BRANCH  51  52
ATOM     52  C   UNL A   1      43.559  36.330  32.708  1.00  0.00     0.031 A 
ATOM     53  C   UNL A   1      43.537  37.810  33.002  1.00  0.00     0.074 A 
ATOM     54  C   UNL A   1      44.472  35.943  31.773  1.00  0.00     0.049 A 
ATOM     55  N   UNL A   1      43.891  38.747  32.167  1.00  0.00    -0.248 NA
ATOM     56  C   UNL A   1      43.137  38.370  34.278  1.00  0.00     0.031 C 
ATOM     57  C   UNL A   1      45.482  36.790  31.150  1.00  0.00     0.029 A 
ATOM     58  N   UNL A   1      44.825  34.688  31.297  1.00  0.00    -0.354 N 
ATOM     59  C   UNL A   1      44.040  39.954  32.833  1.00  0.00     0.074 A 
ATOM     60  C   UNL A   1      43.460  39.660  34.125  1.00  0.00     0.031 C 
ATOM     61  C   UNL A   1      46.372  36.047  30.483  1.00  0.00     0.029 A 
ATOM     62  C   UNL A   1      45.768  34.764  30.271  1.00  0.00     0.049 A 
ATOM     63  H   UNL A   1      44.455  33.844  31.644  1.00  0.00     0.167 HD
ATOM     64  C   UNL A   1      44.696  41.023  32.250  1.00  0.00     0.037 A 
ATOM     65  C   UNL A   1      45.470  34.352  29.004  1.00  0.00     0.037 A 
ATOM     66  C   UNL A   1      45.208  40.717  30.867  1.00  0.00     0.049 A 
ATOM     67  C   UNL A   1      45.122  35.513  28.067  1.00  0.00     0.074 A 
ATOM     68  C   UNL A   1      46.385  40.967  30.166  1.00  0.00     0.029 A 
ATOM     69  N   UNL A   1      44.450  39.938  29.980  1.00  0.00    -0.354 N 
ATOM     70  N   UNL A   1      45.376  36.777  28.331  1.00  0.00    -0.248 NA
ATOM     71  C   UNL A   1      44.413  35.381  26.798  1.00  0.00     0.031 C 
ATOM     72  C   UNL A   1      46.385  40.205  28.955  1.00  0.00     0.029 A 
ATOM     73  C   UNL A   1      45.155  39.584  28.839  1.00  0.00     0.049 A 
ATOM     74  H   UNL A   1      43.518  39.670  30.150  1.00  0.00     0.167 HD
ATOM     75  C   UNL A   1      44.684  37.593  27.483  1.00  0.00     0.074 A 
ATOM     76  C   UNL A   1      44.207  36.671  26.466  1.00  0.00     0.031 C 
ATOM     77  C   UNL A   1      44.468  38.927  27.724  1.00  0.00     0.037 A 
BRANCH  64  78
ATOM     78  C   UNL A   1      45.057  42.371  32.966  1.00  0.00     0.057 A 
ATOM     79  C   UNL A   1      45.852  42.410  34.140  1.00  0.00     0.134 A 
ATOM     80  C   UNL A   1      44.647  43.667  32.584  1.00  0.00     0.134 A 
ATOM     81  F   UNL A   1      46.492  41.328  34.596  1.00  0.00    -0.206 F 
ATOM     82  C   UNL A   1      46.091  43.578  34.902  1.00  0.00     0.040 A 
ATOM     83  C   UNL A   1      44.898  44.845  33.316  1.00  0.00     0.040 A 
ATOM     84  F   UNL A   1      44.000  43.922  31.453  1.00  0.00    -0.206 F 
ATOM     85  C   UNL A   1      45.598  44.804  34.500  1.00  0.00     0.006 A 
ENDBRANCH  64  78
BRANCH  65  86
ATOM     86  C   UNL A   1      45.174  32.888  28.986  1.00  0.00     0.057 A 
ATOM     87  C   UNL A   1      43.832  32.602  28.661  1.00  0.00     0.134 A 
ATOM     88  C   UNL A   1      46.129  31.967  28.533  1.00  0.00     0.134 A 
ATOM     89  F   UNL A   1      42.851  33.387  29.137  1.00  0.00    -0.206 F 
ATOM     90  C   UNL A   1      43.494  31.657  27.687  1.00  0.00     0.040 A 
ATOM     91  C   UNL A   1      45.795  30.989  27.579  1.00  0.00     0.040 A 
ATOM     92  F   UNL A   1      47.424  32.126  28.837  1.00  0.00    -0.206 F 
ATOM     93  C   UNL A   1      44.491  30.891  27.094  1.00  0.00     0.006 A 
ENDBRANCH  65  86
BRANCH  77  94
ATOM     94  C   UNL A   1      43.516  39.802  26.937  1.00  0.00     0.057 A 
ATOM     95  C   UNL A   1      43.934  40.741  25.986  1.00  0.00     0.134 A 
ATOM     96  C   UNL A   1      42.121  39.564  26.977  1.00  0.00     0.134 A 
ATOM     97  F   UNL A   1      45.232  40.986  25.766  1.00  0.00    -0.206 F 
ATOM     98  C   UNL A   1      43.029  41.426  25.164  1.00  0.00     0.040 A 
ATOM     99  C   UNL A   1      41.218  40.192  26.118  1.00  0.00     0.040 A 
ATOM    100  F   UNL A   1      41.576  38.689  27.835  1.00  0.00    -0.206 F 
ATOM    101  C   UNL A   1      41.670  41.139  25.213  1.00  0.00     0.006 A 
ENDBRANCH  77  94
ENDBRANCH  51  52
ENDBRANCH  44  46
ENDBRANCH  43  44
ENDBRANCH  42  43
ENDBRANCH  41  42
ENDBRANCH  40  41
ENDBRANCH  39  40
ENDBRANCH  38  39
ENDBRANCH  37  38
ENDBRANCH   1  37
TORSDOF 25
ENDMDL
