MODEL 1
REMARK VINA RESULT:     -11.1      0.000      0.000
REMARK SMILES O=C(Cn1cc(/C=C2\SC(N3CCOCC3)=[NH+]C2=O)c2ccccc21)OCCOCCOCCOCCOC(=O)c1ccc(-c2c3nc(c(-c4c(F)cccc4F)c4ccc([nH]4)c(-c4c(F)cccc4F)c4nc(c(-c5c(F)cccc5F)c5ccc2[nH]5)C=C4)C=C3)cc1
REMARK SMILES IDX 32 1 31 2 30 3 29 4 28 5 27 6 26 7 2 8 1 9 3 10 4 11 5 12
REMARK SMILES IDX 25 13 6 14 20 15 24 16 21 17 23 18 22 19 7 20 8 21 9 22
REMARK SMILES IDX 18 23 10 24 17 25 19 26 11 27 12 29 16 30 13 31 15 32 14 33
REMARK SMILES IDX 33 34 34 35 35 36 36 37 37 38 38 39 39 40 40 41 41 42 42 43
REMARK SMILES IDX 94 44 43 45 93 46 44 47 45 48 46 49 87 50 47 51 92 52 86 53
REMARK SMILES IDX 88 54 48 55 91 56 85 57 84 58 49 60 75 61 58 62 74 63 59 64
REMARK SMILES IDX 62 65 73 66 89 67 60 68 61 69 72 71 90 72 63 73 50 74 51 75
REMARK SMILES IDX 56 76 52 77 53 78 55 79 57 80 54 81 76 82 77 83 82 84 78 85
REMARK SMILES IDX 79 86 81 87 83 88 80 89 64 90 65 91 70 92 66 93 67 94 69 95
REMARK SMILES IDX 71 96 68 97
REMARK H PARENT 17 28 88 59 62 70
REMARK Flexibility Score: inf
ROOT
ATOM      1  O   UNL A   1      38.460  22.299  26.566  1.00  0.00    -0.377 OA
ENDROOT
BRANCH   1   2
ATOM      2  C   UNL A   1      38.266  23.591  26.038  1.00  0.00     0.188 C 
BRANCH   2   3
ATOM      3  C   UNL A   1      37.143  23.665  25.003  1.00  0.00     0.188 C 
BRANCH   3   4
ATOM      4  O   UNL A   1      35.845  24.114  25.393  1.00  0.00    -0.376 OA
BRANCH   4   5
ATOM      5  C   UNL A   1      35.070  24.971  24.563  1.00  0.00     0.202 C 
BRANCH   5   6
ATOM      6  C   UNL A   1      34.404  24.383  23.332  1.00  0.00     0.261 C 
BRANCH   6   7
ATOM      7  O   UNL A   1      33.139  24.952  22.996  1.00  0.00    -0.462 OA
BRANCH   7   8
ATOM      8  C   UNL A   1      33.012  25.913  22.047  1.00  0.00     0.326 C 
ATOM      9  O   UNL A   1      33.285  25.627  20.880  1.00  0.00    -0.250 OA
BRANCH   8  10
ATOM     10  C   UNL A   1      32.724  27.347  22.459  1.00  0.00     0.244 C 
BRANCH  10  11
ATOM     11  N   UNL A   1      31.975  27.448  23.695  1.00  0.00    -0.336 N 
ATOM     12  C   UNL A   1      30.976  26.585  24.034  1.00  0.00     0.095 A 
ATOM     13  C   UNL A   1      32.266  28.263  24.768  1.00  0.00     0.049 A 
ATOM     14  C   UNL A   1      30.908  26.603  25.408  1.00  0.00     0.001 A 
ATOM     15  C   UNL A   1      31.785  27.599  25.897  1.00  0.00     0.007 A 
ATOM     16  C   UNL A   1      32.983  29.453  24.871  1.00  0.00     0.027 A 
ATOM     17  C   UNL A   1      32.227  28.009  27.170  1.00  0.00     0.011 A 
ATOM     18  C   UNL A   1      33.474  29.794  26.131  1.00  0.00     0.002 A 
ATOM     19  C   UNL A   1      33.119  29.078  27.265  1.00  0.00     0.001 A 
BRANCH  14  20
ATOM     20  C   UNL A   1      30.164  25.637  26.125  1.00  0.00     0.034 C 
ATOM     21  C   UNL A   1      30.692  24.465  26.493  1.00  0.00     0.110 C 
ATOM     22  S   UNL A   1      32.325  23.965  26.340  1.00  0.00     0.006 SA
ATOM     23  C   UNL A   1      29.855  23.303  26.872  1.00  0.00     0.346 C 
ATOM     24  C   UNL A   1      31.775  22.305  26.332  1.00  0.00     0.319 C 
ATOM     25  N   UNL A   1      30.527  22.124  26.621  1.00  0.00    -0.200 N 
ATOM     26  O   UNL A   1      28.709  23.401  27.274  1.00  0.00    -0.240 OA
ATOM     27  N   UNL A   1      32.653  21.339  25.931  1.00  0.00    -0.251 N 
ATOM     28  H   UNL A   1      30.101  21.237  26.659  1.00  0.00     0.316 HD
ATOM     29  C   UNL A   1      34.047  21.256  26.380  1.00  0.00     0.265 C 
ATOM     30  C   UNL A   1      32.182  20.163  25.197  1.00  0.00     0.265 C 
ATOM     31  C   UNL A   1      34.962  20.847  25.220  1.00  0.00     0.206 C 
ATOM     32  C   UNL A   1      33.172  19.833  24.072  1.00  0.00     0.206 C 
ATOM     33  O   UNL A   1      34.500  19.642  24.586  1.00  0.00    -0.373 OA
ENDBRANCH  14  20
ENDBRANCH  10  11
ENDBRANCH   8  10
ENDBRANCH   7   8
ENDBRANCH   6   7
ENDBRANCH   5   6
ENDBRANCH   4   5
ENDBRANCH   3   4
ENDBRANCH   2   3
ENDBRANCH   1   2
BRANCH   1  34
ATOM     34  C   UNL A   1      39.406  21.496  25.858  1.00  0.00     0.188 C 
BRANCH  34  35
ATOM     35  C   UNL A   1      40.689  21.027  26.583  1.00  0.00     0.188 C 
BRANCH  35  36
ATOM     36  O   UNL A   1      41.271  19.929  25.887  1.00  0.00    -0.376 OA
BRANCH  36  37
ATOM     37  C   UNL A   1      42.435  19.371  26.496  1.00  0.00     0.202 C 
BRANCH  37  38
ATOM     38  C   UNL A   1      43.540  18.833  25.559  1.00  0.00     0.261 C 
BRANCH  38  39
ATOM     39  O   UNL A   1      44.677  19.716  25.430  1.00  0.00    -0.460 OA
BRANCH  39  40
ATOM     40  C   UNL A   1      44.714  20.618  24.419  1.00  0.00     0.338 C 
ATOM     41  O   UNL A   1      44.536  20.395  23.241  1.00  0.00    -0.246 OA
BRANCH  40  42
ATOM     42  C   UNL A   1      44.641  21.966  25.057  1.00  0.00     0.060 A 
ATOM     43  C   UNL A   1      45.366  22.293  26.207  1.00  0.00     0.016 A 
ATOM     44  C   UNL A   1      43.594  22.799  24.637  1.00  0.00     0.016 A 
ATOM     45  C   UNL A   1      44.960  23.383  26.989  1.00  0.00     0.010 A 
ATOM     46  C   UNL A   1      43.204  23.894  25.412  1.00  0.00     0.010 A 
ATOM     47  C   UNL A   1      43.853  24.170  26.617  1.00  0.00    -0.014 A 
BRANCH  47  48
ATOM     48  C   UNL A   1      43.585  25.398  27.398  1.00  0.00     0.031 A 
ATOM     49  C   UNL A   1      44.653  26.436  27.244  1.00  0.00     0.074 A 
ATOM     50  C   UNL A   1      42.427  25.762  27.993  1.00  0.00     0.049 A 
ATOM     51  N   UNL A   1      45.342  27.070  28.139  1.00  0.00    -0.248 NA
ATOM     52  C   UNL A   1      45.046  26.735  25.854  1.00  0.00     0.031 C 
ATOM     53  C   UNL A   1      41.134  25.080  27.919  1.00  0.00     0.029 A 
ATOM     54  N   UNL A   1      42.135  26.899  28.709  1.00  0.00    -0.354 N 
ATOM     55  C   UNL A   1      46.136  27.969  27.424  1.00  0.00     0.074 A 
ATOM     56  C   UNL A   1      46.023  27.616  26.035  1.00  0.00     0.031 C 
ATOM     57  C   UNL A   1      40.168  25.907  28.383  1.00  0.00     0.029 A 
ATOM     58  C   UNL A   1      40.776  27.127  28.895  1.00  0.00     0.049 A 
ATOM     59  H   UNL A   1      42.831  27.499  29.062  1.00  0.00     0.167 HD
ATOM     60  C   UNL A   1      46.656  29.098  27.972  1.00  0.00     0.037 A 
ATOM     61  C   UNL A   1      40.168  28.234  29.395  1.00  0.00     0.037 A 
ATOM     62  C   UNL A   1      46.771  29.024  29.399  1.00  0.00     0.049 A 
ATOM     63  C   UNL A   1      41.202  29.101  30.011  1.00  0.00     0.074 A 
ATOM     64  C   UNL A   1      47.420  28.200  30.297  1.00  0.00     0.029 A 
ATOM     65  N   UNL A   1      45.930  29.798  30.157  1.00  0.00    -0.354 N 
ATOM     66  N   UNL A   1      41.818  28.877  31.137  1.00  0.00    -0.248 NA
ATOM     67  C   UNL A   1      41.814  30.105  29.153  1.00  0.00     0.031 C 
ATOM     68  C   UNL A   1      46.604  28.197  31.465  1.00  0.00     0.029 A 
ATOM     69  C   UNL A   1      45.506  29.015  31.196  1.00  0.00     0.049 A 
ATOM     70  H   UNL A   1      45.681  30.735  29.988  1.00  0.00     0.167 HD
ATOM     71  C   UNL A   1      43.078  29.440  30.975  1.00  0.00     0.074 A 
ATOM     72  C   UNL A   1      42.990  30.242  29.763  1.00  0.00     0.031 C 
ATOM     73  C   UNL A   1      44.154  29.005  31.692  1.00  0.00     0.037 A 
BRANCH  60  74
ATOM     74  C   UNL A   1      46.714  30.410  27.224  1.00  0.00     0.057 A 
ATOM     75  C   UNL A   1      45.569  31.110  26.787  1.00  0.00     0.134 A 
ATOM     76  C   UNL A   1      47.910  31.148  27.207  1.00  0.00     0.134 A 
ATOM     77  F   UNL A   1      44.341  30.579  26.834  1.00  0.00    -0.206 F 
ATOM     78  C   UNL A   1      45.607  32.443  26.375  1.00  0.00     0.040 A 
ATOM     79  C   UNL A   1      47.948  32.501  26.852  1.00  0.00     0.040 A 
ATOM     80  F   UNL A   1      49.061  30.600  27.624  1.00  0.00    -0.206 F 
ATOM     81  C   UNL A   1      46.792  33.155  26.440  1.00  0.00     0.006 A 
ENDBRANCH  60  74
BRANCH  61  82
ATOM     82  C   UNL A   1      38.768  28.702  29.213  1.00  0.00     0.057 A 
ATOM     83  C   UNL A   1      38.342  29.310  28.018  1.00  0.00     0.134 A 
ATOM     84  C   UNL A   1      37.850  28.749  30.275  1.00  0.00     0.134 A 
ATOM     85  F   UNL A   1      39.172  29.439  26.974  1.00  0.00    -0.206 F 
ATOM     86  C   UNL A   1      37.074  29.884  27.869  1.00  0.00     0.040 A 
ATOM     87  C   UNL A   1      36.584  29.342  30.147  1.00  0.00     0.040 A 
ATOM     88  F   UNL A   1      38.176  28.262  31.481  1.00  0.00    -0.206 F 
ATOM     89  C   UNL A   1      36.190  29.907  28.938  1.00  0.00     0.006 A 
ENDBRANCH  61  82
BRANCH  73  90
ATOM     90  C   UNL A   1      43.895  28.200  32.920  1.00  0.00     0.057 A 
ATOM     91  C   UNL A   1      43.941  28.840  34.164  1.00  0.00     0.134 A 
ATOM     92  C   UNL A   1      43.751  26.808  32.908  1.00  0.00     0.134 A 
ATOM     93  F   UNL A   1      44.141  30.166  34.237  1.00  0.00    -0.206 F 
ATOM     94  C   UNL A   1      43.830  28.125  35.356  1.00  0.00     0.040 A 
ATOM     95  C   UNL A   1      43.615  26.085  34.096  1.00  0.00     0.040 A 
ATOM     96  F   UNL A   1      43.793  26.123  31.756  1.00  0.00    -0.206 F 
ATOM     97  C   UNL A   1      43.657  26.743  35.324  1.00  0.00     0.006 A 
ENDBRANCH  73  90
ENDBRANCH  47  48
ENDBRANCH  40  42
ENDBRANCH  39  40
ENDBRANCH  38  39
ENDBRANCH  37  38
ENDBRANCH  36  37
ENDBRANCH  35  36
ENDBRANCH  34  35
ENDBRANCH   1  34
TORSDOF 22
ENDMDL
MODEL 2
REMARK VINA RESULT:      -9.6      2.880      6.873
REMARK SMILES O=C(Cn1cc(/C=C2\SC(N3CCOCC3)=[NH+]C2=O)c2ccccc21)OCCOCCOCCOCCOC(=O)c1ccc(-c2c3nc(c(-c4c(F)cccc4F)c4ccc([nH]4)c(-c4c(F)cccc4F)c4nc(c(-c5c(F)cccc5F)c5ccc2[nH]5)C=C4)C=C3)cc1
REMARK SMILES IDX 32 1 31 2 30 3 29 4 28 5 27 6 26 7 2 8 1 9 3 10 4 11 5 12
REMARK SMILES IDX 25 13 6 14 20 15 24 16 21 17 23 18 22 19 7 20 8 21 9 22
REMARK SMILES IDX 18 23 10 24 17 25 19 26 11 27 12 29 16 30 13 31 15 32 14 33
REMARK SMILES IDX 33 34 34 35 35 36 36 37 37 38 38 39 39 40 40 41 41 42 42 43
REMARK SMILES IDX 94 44 43 45 93 46 44 47 45 48 46 49 87 50 47 51 92 52 86 53
REMARK SMILES IDX 88 54 48 55 91 56 85 57 84 58 49 60 75 61 58 62 74 63 59 64
REMARK SMILES IDX 62 65 73 66 89 67 60 68 61 69 72 71 90 72 63 73 50 74 51 75
REMARK SMILES IDX 56 76 52 77 53 78 55 79 57 80 54 81 76 82 77 83 82 84 78 85
REMARK SMILES IDX 79 86 81 87 83 88 80 89 64 90 65 91 70 92 66 93 67 94 69 95
REMARK SMILES IDX 71 96 68 97
REMARK H PARENT 17 28 88 59 62 70
REMARK Flexibility Score: inf
ROOT
ATOM      1  O   UNL A   1      36.594  23.603  24.778  1.00  0.00    -0.377 OA
ENDROOT
BRANCH   1   2
ATOM      2  C   UNL A   1      35.292  23.082  24.912  1.00  0.00     0.188 C 
BRANCH   2   3
ATOM      3  C   UNL A   1      35.252  21.704  25.575  1.00  0.00     0.188 C 
BRANCH   3   4
ATOM      4  O   UNL A   1      34.095  21.301  26.308  1.00  0.00    -0.376 OA
BRANCH   4   5
ATOM      5  C   UNL A   1      32.945  20.772  25.659  1.00  0.00     0.202 C 
BRANCH   5   6
ATOM      6  C   UNL A   1      31.925  21.740  25.086  1.00  0.00     0.261 C 
BRANCH   6   7
ATOM      7  O   UNL A   1      30.886  22.129  25.984  1.00  0.00    -0.462 OA
BRANCH   7   8
ATOM      8  C   UNL A   1      30.915  23.310  26.650  1.00  0.00     0.326 C 
ATOM      9  O   UNL A   1      29.902  23.671  27.251  1.00  0.00    -0.250 OA
BRANCH   8  10
ATOM     10  C   UNL A   1      32.107  24.239  26.487  1.00  0.00     0.244 C 
BRANCH  10  11
ATOM     11  N   UNL A   1      31.807  25.423  25.709  1.00  0.00    -0.336 N 
ATOM     12  C   UNL A   1      31.387  26.594  26.265  1.00  0.00     0.095 A 
ATOM     13  C   UNL A   1      32.076  25.617  24.371  1.00  0.00     0.049 A 
ATOM     14  C   UNL A   1      31.752  27.587  25.384  1.00  0.00     0.001 A 
ATOM     15  C   UNL A   1      32.273  26.989  24.213  1.00  0.00     0.007 A 
ATOM     16  C   UNL A   1      32.262  24.726  23.315  1.00  0.00     0.027 A 
ATOM     17  C   UNL A   1      32.895  27.458  23.039  1.00  0.00     0.011 A 
ATOM     18  C   UNL A   1      32.948  25.198  22.197  1.00  0.00     0.002 A 
ATOM     19  C   UNL A   1      33.278  26.539  22.061  1.00  0.00     0.001 A 
BRANCH  14  20
ATOM     20  C   UNL A   1      31.712  28.952  25.749  1.00  0.00     0.034 C 
ATOM     21  C   UNL A   1      32.794  29.600  26.192  1.00  0.00     0.110 C 
ATOM     22  S   UNL A   1      34.404  29.014  26.259  1.00  0.00     0.006 SA
ATOM     23  C   UNL A   1      32.702  30.873  26.944  1.00  0.00     0.346 C 
ATOM     24  C   UNL A   1      34.721  30.147  27.552  1.00  0.00     0.319 C 
ATOM     25  N   UNL A   1      33.793  31.018  27.778  1.00  0.00    -0.200 N 
ATOM     26  O   UNL A   1      31.750  31.629  26.875  1.00  0.00    -0.240 OA
ATOM     27  N   UNL A   1      35.859  29.978  28.289  1.00  0.00    -0.251 N 
ATOM     28  H   UNL A   1      33.857  31.715  28.472  1.00  0.00     0.316 HD
ATOM     29  C   UNL A   1      37.180  29.706  27.714  1.00  0.00     0.265 C 
ATOM     30  C   UNL A   1      35.875  30.300  29.717  1.00  0.00     0.265 C 
ATOM     31  C   UNL A   1      37.938  28.682  28.567  1.00  0.00     0.206 C 
ATOM     32  C   UNL A   1      36.666  29.224  30.474  1.00  0.00     0.206 C 
ATOM     33  O   UNL A   1      37.995  29.086  29.945  1.00  0.00    -0.373 OA
ENDBRANCH  14  20
ENDBRANCH  10  11
ENDBRANCH   8  10
ENDBRANCH   7   8
ENDBRANCH   6   7
ENDBRANCH   5   6
ENDBRANCH   4   5
ENDBRANCH   3   4
ENDBRANCH   2   3
ENDBRANCH   1   2
BRANCH   1  34
ATOM     34  C   UNL A   1      37.581  22.976  25.600  1.00  0.00     0.188 C 
BRANCH  34  35
ATOM     35  C   UNL A   1      38.481  23.855  26.501  1.00  0.00     0.188 C 
BRANCH  35  36
ATOM     36  O   UNL A   1      39.512  23.063  27.082  1.00  0.00    -0.376 OA
BRANCH  36  37
ATOM     37  C   UNL A   1      39.777  21.827  26.418  1.00  0.00     0.202 C 
BRANCH  37  38
ATOM     38  C   UNL A   1      41.257  21.440  26.197  1.00  0.00     0.261 C 
BRANCH  38  39
ATOM     39  O   UNL A   1      42.194  22.306  26.875  1.00  0.00    -0.460 OA
BRANCH  39  40
ATOM     40  C   UNL A   1      42.860  23.255  26.173  1.00  0.00     0.338 C 
ATOM     41  O   UNL A   1      43.028  23.284  24.972  1.00  0.00    -0.246 OA
BRANCH  40  42
ATOM     42  C   UNL A   1      43.016  24.424  27.089  1.00  0.00     0.060 A 
ATOM     43  C   UNL A   1      42.059  24.756  28.053  1.00  0.00     0.016 A 
ATOM     44  C   UNL A   1      44.012  25.352  26.752  1.00  0.00     0.016 A 
ATOM     45  C   UNL A   1      42.036  26.053  28.582  1.00  0.00     0.010 A 
ATOM     46  C   UNL A   1      43.994  26.639  27.295  1.00  0.00     0.010 A 
ATOM     47  C   UNL A   1      42.982  27.016  28.179  1.00  0.00    -0.014 A 
BRANCH  47  48
ATOM     48  C   UNL A   1      43.000  28.309  28.899  1.00  0.00     0.031 A 
ATOM     49  C   UNL A   1      43.093  28.152  30.385  1.00  0.00     0.074 A 
ATOM     50  C   UNL A   1      43.191  29.542  28.377  1.00  0.00     0.049 A 
ATOM     51  N   UNL A   1      42.349  28.638  31.327  1.00  0.00    -0.248 NA
ATOM     52  C   UNL A   1      44.149  27.237  30.858  1.00  0.00     0.031 C 
ATOM     53  C   UNL A   1      43.529  29.883  26.995  1.00  0.00     0.029 A 
ATOM     54  N   UNL A   1      43.232  30.760  29.014  1.00  0.00    -0.354 N 
ATOM     55  C   UNL A   1      42.947  28.224  32.519  1.00  0.00     0.074 A 
ATOM     56  C   UNL A   1      43.949  27.253  32.171  1.00  0.00     0.031 C 
ATOM     57  C   UNL A   1      43.935  31.173  26.940  1.00  0.00     0.029 A 
ATOM     58  C   UNL A   1      43.779  31.787  28.251  1.00  0.00     0.049 A 
ATOM     59  H   UNL A   1      42.902  30.893  29.931  1.00  0.00     0.167 HD
ATOM     60  C   UNL A   1      42.762  28.862  33.704  1.00  0.00     0.037 A 
ATOM     61  C   UNL A   1      44.117  33.042  28.648  1.00  0.00     0.037 A 
ATOM     62  C   UNL A   1      41.550  29.626  33.743  1.00  0.00     0.049 A 
ATOM     63  C   UNL A   1      43.541  33.282  29.994  1.00  0.00     0.074 A 
ATOM     64  C   UNL A   1      40.205  29.352  33.596  1.00  0.00     0.029 A 
ATOM     65  N   UNL A   1      41.645  30.994  33.739  1.00  0.00    -0.354 N 
ATOM     66  N   UNL A   1      42.284  33.489  30.263  1.00  0.00    -0.248 NA
ATOM     67  C   UNL A   1      44.378  32.943  31.136  1.00  0.00     0.031 C 
ATOM     68  C   UNL A   1      39.636  30.537  33.046  1.00  0.00     0.029 A 
ATOM     69  C   UNL A   1      40.677  31.452  32.889  1.00  0.00     0.049 A 
ATOM     70  H   UNL A   1      42.285  31.540  34.250  1.00  0.00     0.167 HD
ATOM     71  C   UNL A   1      42.098  32.959  31.534  1.00  0.00     0.074 A 
ATOM     72  C   UNL A   1      43.436  32.705  32.047  1.00  0.00     0.031 C 
ATOM     73  C   UNL A   1      40.873  32.537  31.961  1.00  0.00     0.037 A 
BRANCH  60  74
ATOM     74  C   UNL A   1      43.885  29.079  34.693  1.00  0.00     0.057 A 
ATOM     75  C   UNL A   1      45.034  29.850  34.412  1.00  0.00     0.134 A 
ATOM     76  C   UNL A   1      43.684  28.777  36.050  1.00  0.00     0.134 A 
ATOM     77  F   UNL A   1      45.314  30.301  33.183  1.00  0.00    -0.206 F 
ATOM     78  C   UNL A   1      45.909  30.295  35.405  1.00  0.00     0.040 A 
ATOM     79  C   UNL A   1      44.522  29.267  37.058  1.00  0.00     0.040 A 
ATOM     80  F   UNL A   1      42.613  28.071  36.445  1.00  0.00    -0.206 F 
ATOM     81  C   UNL A   1      45.636  30.034  36.737  1.00  0.00     0.006 A 
ENDBRANCH  60  74
BRANCH  61  82
ATOM     82  C   UNL A   1      45.074  33.998  28.028  1.00  0.00     0.057 A 
ATOM     83  C   UNL A   1      46.465  33.853  28.180  1.00  0.00     0.134 A 
ATOM     84  C   UNL A   1      44.654  35.198  27.433  1.00  0.00     0.134 A 
ATOM     85  F   UNL A   1      46.983  32.810  28.843  1.00  0.00    -0.206 F 
ATOM     86  C   UNL A   1      47.381  34.810  27.729  1.00  0.00     0.040 A 
ATOM     87  C   UNL A   1      45.560  36.178  26.997  1.00  0.00     0.040 A 
ATOM     88  F   UNL A   1      43.348  35.474  27.302  1.00  0.00    -0.206 F 
ATOM     89  C   UNL A   1      46.930  35.982  27.139  1.00  0.00     0.006 A 
ENDBRANCH  61  82
BRANCH  73  90
ATOM     90  C   UNL A   1      39.673  33.003  31.209  1.00  0.00     0.057 A 
ATOM     91  C   UNL A   1      38.878  34.009  31.770  1.00  0.00     0.134 A 
ATOM     92  C   UNL A   1      39.214  32.387  30.040  1.00  0.00     0.134 A 
ATOM     93  F   UNL A   1      39.238  34.590  32.927  1.00  0.00    -0.206 F 
ATOM     94  C   UNL A   1      37.678  34.405  31.181  1.00  0.00     0.040 A 
ATOM     95  C   UNL A   1      38.025  32.792  29.427  1.00  0.00     0.040 A 
ATOM     96  F   UNL A   1      39.879  31.354  29.501  1.00  0.00    -0.206 F 
ATOM     97  C   UNL A   1      37.253  33.802  30.000  1.00  0.00     0.006 A 
ENDBRANCH  73  90
ENDBRANCH  47  48
ENDBRANCH  40  42
ENDBRANCH  39  40
ENDBRANCH  38  39
ENDBRANCH  37  38
ENDBRANCH  36  37
ENDBRANCH  35  36
ENDBRANCH  34  35
ENDBRANCH   1  34
TORSDOF 22
ENDMDL
MODEL 3
REMARK VINA RESULT:      -9.5      1.746      5.145
REMARK SMILES O=C(Cn1cc(/C=C2\SC(N3CCOCC3)=[NH+]C2=O)c2ccccc21)OCCOCCOCCOCCOC(=O)c1ccc(-c2c3nc(c(-c4c(F)cccc4F)c4ccc([nH]4)c(-c4c(F)cccc4F)c4nc(c(-c5c(F)cccc5F)c5ccc2[nH]5)C=C4)C=C3)cc1
REMARK SMILES IDX 32 1 31 2 30 3 29 4 28 5 27 6 26 7 2 8 1 9 3 10 4 11 5 12
REMARK SMILES IDX 25 13 6 14 20 15 24 16 21 17 23 18 22 19 7 20 8 21 9 22
REMARK SMILES IDX 18 23 10 24 17 25 19 26 11 27 12 29 16 30 13 31 15 32 14 33
REMARK SMILES IDX 33 34 34 35 35 36 36 37 37 38 38 39 39 40 40 41 41 42 42 43
REMARK SMILES IDX 94 44 43 45 93 46 44 47 45 48 46 49 87 50 47 51 92 52 86 53
REMARK SMILES IDX 88 54 48 55 91 56 85 57 84 58 49 60 75 61 58 62 74 63 59 64
REMARK SMILES IDX 62 65 73 66 89 67 60 68 61 69 72 71 90 72 63 73 50 74 51 75
REMARK SMILES IDX 56 76 52 77 53 78 55 79 57 80 54 81 76 82 77 83 82 84 78 85
REMARK SMILES IDX 79 86 81 87 83 88 80 89 64 90 65 91 70 92 66 93 67 94 69 95
REMARK SMILES IDX 71 96 68 97
REMARK H PARENT 17 28 88 59 62 70
REMARK Flexibility Score: inf
ROOT
ATOM      1  O   UNL A   1      38.846  23.012  26.560  1.00  0.00    -0.377 OA
ENDROOT
BRANCH   1   2
ATOM      2  C   UNL A   1      38.100  24.043  25.957  1.00  0.00     0.188 C 
BRANCH   2   3
ATOM      3  C   UNL A   1      37.102  23.543  24.911  1.00  0.00     0.188 C 
BRANCH   3   4
ATOM      4  O   UNL A   1      35.832  24.181  24.779  1.00  0.00    -0.376 OA
BRANCH   4   5
ATOM      5  C   UNL A   1      35.004  23.969  23.642  1.00  0.00     0.202 C 
BRANCH   5   6
ATOM      6  C   UNL A   1      34.306  25.164  23.019  1.00  0.00     0.261 C 
BRANCH   6   7
ATOM      7  O   UNL A   1      33.052  24.880  22.399  1.00  0.00    -0.462 OA
BRANCH   7   8
ATOM      8  C   UNL A   1      32.578  25.616  21.363  1.00  0.00     0.326 C 
ATOM      9  O   UNL A   1      33.094  25.471  20.254  1.00  0.00    -0.250 OA
BRANCH   8  10
ATOM     10  C   UNL A   1      31.568  26.721  21.623  1.00  0.00     0.244 C 
BRANCH  10  11
ATOM     11  N   UNL A   1      31.260  26.896  23.028  1.00  0.00    -0.336 N 
ATOM     12  C   UNL A   1      30.360  26.119  23.696  1.00  0.00     0.095 A 
ATOM     13  C   UNL A   1      31.935  27.697  23.924  1.00  0.00     0.049 A 
ATOM     14  C   UNL A   1      30.733  26.158  25.020  1.00  0.00     0.001 A 
ATOM     15  C   UNL A   1      31.790  27.086  25.170  1.00  0.00     0.007 A 
ATOM     16  C   UNL A   1      32.732  28.827  23.752  1.00  0.00     0.027 A 
ATOM     17  C   UNL A   1      32.643  27.474  26.223  1.00  0.00     0.011 A 
ATOM     18  C   UNL A   1      33.621  29.142  24.780  1.00  0.00     0.002 A 
ATOM     19  C   UNL A   1      33.594  28.469  25.993  1.00  0.00     0.001 A 
BRANCH  14  20
ATOM     20  C   UNL A   1      30.188  25.263  25.970  1.00  0.00     0.034 C 
ATOM     21  C   UNL A   1      30.864  24.197  26.409  1.00  0.00     0.110 C 
ATOM     22  S   UNL A   1      32.496  23.788  26.075  1.00  0.00     0.006 SA
ATOM     23  C   UNL A   1      30.196  23.052  27.069  1.00  0.00     0.346 C 
ATOM     24  C   UNL A   1      32.098  22.113  26.381  1.00  0.00     0.319 C 
ATOM     25  N   UNL A   1      30.925  21.895  26.882  1.00  0.00    -0.200 N 
ATOM     26  O   UNL A   1      29.115  23.133  27.627  1.00  0.00    -0.240 OA
ATOM     27  N   UNL A   1      32.991  21.158  25.986  1.00  0.00    -0.251 N 
ATOM     28  H   UNL A   1      30.588  20.998  27.107  1.00  0.00     0.316 HD
ATOM     29  C   UNL A   1      34.436  21.235  26.220  1.00  0.00     0.265 C 
ATOM     30  C   UNL A   1      32.524  19.857  25.502  1.00  0.00     0.265 C 
ATOM     31  C   UNL A   1      35.208  20.719  25.000  1.00  0.00     0.206 C 
ATOM     32  C   UNL A   1      33.367  19.430  24.293  1.00  0.00     0.206 C 
ATOM     33  O   UNL A   1      34.767  19.405  24.617  1.00  0.00    -0.373 OA
ENDBRANCH  14  20
ENDBRANCH  10  11
ENDBRANCH   8  10
ENDBRANCH   7   8
ENDBRANCH   6   7
ENDBRANCH   5   6
ENDBRANCH   4   5
ENDBRANCH   3   4
ENDBRANCH   2   3
ENDBRANCH   1   2
BRANCH   1  34
ATOM     34  C   UNL A   1      38.803  21.758  25.876  1.00  0.00     0.188 C 
BRANCH  34  35
ATOM     35  C   UNL A   1      40.095  20.915  25.763  1.00  0.00     0.188 C 
BRANCH  35  36
ATOM     36  O   UNL A   1      40.092  19.882  26.742  1.00  0.00    -0.376 OA
BRANCH  36  37
ATOM     37  C   UNL A   1      41.281  19.094  26.798  1.00  0.00     0.202 C 
BRANCH  37  38
ATOM     38  C   UNL A   1      42.238  19.161  25.586  1.00  0.00     0.261 C 
BRANCH  38  39
ATOM     39  O   UNL A   1      43.571  19.608  25.920  1.00  0.00    -0.460 OA
BRANCH  39  40
ATOM     40  C   UNL A   1      44.090  20.694  25.298  1.00  0.00     0.338 C 
ATOM     41  O   UNL A   1      44.531  20.742  24.169  1.00  0.00    -0.246 OA
BRANCH  40  42
ATOM     42  C   UNL A   1      43.680  21.879  26.108  1.00  0.00     0.060 A 
ATOM     43  C   UNL A   1      44.108  23.177  25.811  1.00  0.00     0.016 A 
ATOM     44  C   UNL A   1      43.092  21.611  27.352  1.00  0.00     0.016 A 
ATOM     45  C   UNL A   1      44.053  24.165  26.803  1.00  0.00     0.010 A 
ATOM     46  C   UNL A   1      43.024  22.605  28.334  1.00  0.00     0.010 A 
ATOM     47  C   UNL A   1      43.544  23.876  28.084  1.00  0.00    -0.014 A 
BRANCH  47  48
ATOM     48  C   UNL A   1      43.363  25.004  29.025  1.00  0.00     0.031 A 
ATOM     49  C   UNL A   1      42.208  25.887  28.668  1.00  0.00     0.074 A 
ATOM     50  C   UNL A   1      43.933  25.165  30.241  1.00  0.00     0.049 A 
ATOM     51  N   UNL A   1      42.156  27.170  28.494  1.00  0.00    -0.248 NA
ATOM     52  C   UNL A   1      40.941  25.186  28.389  1.00  0.00     0.031 C 
ATOM     53  C   UNL A   1      44.781  24.214  30.961  1.00  0.00     0.029 A 
ATOM     54  N   UNL A   1      43.775  26.186  31.148  1.00  0.00    -0.354 N 
ATOM     55  C   UNL A   1      40.811  27.454  28.250  1.00  0.00     0.074 A 
ATOM     56  C   UNL A   1      40.145  26.194  28.050  1.00  0.00     0.031 C 
ATOM     57  C   UNL A   1      44.893  24.606  32.252  1.00  0.00     0.029 A 
ATOM     58  C   UNL A   1      44.229  25.889  32.430  1.00  0.00     0.049 A 
ATOM     59  H   UNL A   1      43.377  27.054  30.910  1.00  0.00     0.167 HD
ATOM     60  C   UNL A   1      40.261  28.679  28.455  1.00  0.00     0.037 A 
ATOM     61  C   UNL A   1      44.057  26.607  33.570  1.00  0.00     0.037 A 
ATOM     62  C   UNL A   1      41.228  29.736  28.430  1.00  0.00     0.049 A 
ATOM     63  C   UNL A   1      43.544  27.951  33.209  1.00  0.00     0.074 A 
ATOM     64  C   UNL A   1      42.141  30.218  27.513  1.00  0.00     0.029 A 
ATOM     65  N   UNL A   1      41.529  30.368  29.609  1.00  0.00    -0.354 N 
ATOM     66  N   UNL A   1      44.231  28.911  32.657  1.00  0.00    -0.248 NA
ATOM     67  C   UNL A   1      42.097  28.111  33.163  1.00  0.00     0.031 C 
ATOM     68  C   UNL A   1      43.216  30.742  28.289  1.00  0.00     0.029 A 
ATOM     69  C   UNL A   1      42.886  30.536  29.629  1.00  0.00     0.049 A 
ATOM     70  H   UNL A   1      40.893  30.647  30.306  1.00  0.00     0.167 HD
ATOM     71  C   UNL A   1      43.313  29.610  31.884  1.00  0.00     0.074 A 
ATOM     72  C   UNL A   1      42.006  29.115  32.293  1.00  0.00     0.031 C 
ATOM     73  C   UNL A   1      43.701  30.343  30.801  1.00  0.00     0.037 A 
BRANCH  60  74
ATOM     74  C   UNL A   1      38.882  28.860  29.048  1.00  0.00     0.057 A 
ATOM     75  C   UNL A   1      38.555  28.521  30.380  1.00  0.00     0.134 A 
ATOM     76  C   UNL A   1      37.943  29.669  28.388  1.00  0.00     0.134 A 
ATOM     77  F   UNL A   1      39.389  27.838  31.173  1.00  0.00    -0.206 F 
ATOM     78  C   UNL A   1      37.389  28.962  31.009  1.00  0.00     0.040 A 
ATOM     79  C   UNL A   1      36.800  30.163  29.029  1.00  0.00     0.040 A 
ATOM     80  F   UNL A   1      38.154  30.078  27.128  1.00  0.00    -0.206 F 
ATOM     81  C   UNL A   1      36.524  29.814  30.346  1.00  0.00     0.006 A 
ENDBRANCH  60  74
BRANCH  61  82
ATOM     82  C   UNL A   1      44.121  26.152  34.986  1.00  0.00     0.057 A 
ATOM     83  C   UNL A   1      45.190  26.508  35.828  1.00  0.00     0.134 A 
ATOM     84  C   UNL A   1      43.239  25.190  35.503  1.00  0.00     0.134 A 
ATOM     85  F   UNL A   1      46.165  27.321  35.400  1.00  0.00    -0.206 F 
ATOM     86  C   UNL A   1      45.348  25.983  37.115  1.00  0.00     0.040 A 
ATOM     87  C   UNL A   1      43.398  24.637  36.784  1.00  0.00     0.040 A 
ATOM     88  F   UNL A   1      42.224  24.725  34.761  1.00  0.00    -0.206 F 
ATOM     89  C   UNL A   1      44.453  25.038  37.597  1.00  0.00     0.006 A 
ENDBRANCH  61  82
BRANCH  73  90
ATOM     90  C   UNL A   1      45.143  30.707  30.685  1.00  0.00     0.057 A 
ATOM     91  C   UNL A   1      46.033  29.764  30.158  1.00  0.00     0.134 A 
ATOM     92  C   UNL A   1      45.679  31.888  31.209  1.00  0.00     0.134 A 
ATOM     93  F   UNL A   1      45.579  28.586  29.700  1.00  0.00    -0.206 F 
ATOM     94  C   UNL A   1      47.408  29.993  30.134  1.00  0.00     0.040 A 
ATOM     95  C   UNL A   1      47.053  32.138  31.169  1.00  0.00     0.040 A 
ATOM     96  F   UNL A   1      44.892  32.791  31.812  1.00  0.00    -0.206 F 
ATOM     97  C   UNL A   1      47.922  31.188  30.633  1.00  0.00     0.006 A 
ENDBRANCH  73  90
ENDBRANCH  47  48
ENDBRANCH  40  42
ENDBRANCH  39  40
ENDBRANCH  38  39
ENDBRANCH  37  38
ENDBRANCH  36  37
ENDBRANCH  35  36
ENDBRANCH  34  35
ENDBRANCH   1  34
TORSDOF 22
ENDMDL
