MODEL 1
REMARK VINA RESULT:      -9.8      0.000      0.000
REMARK SMILES O=C(COc1ccccc1[C@@H]1[NH2+]CCc2cc(O)c(O)cc21)OCCOCCOCCOCCOC(=O)c1ccc(-c2c3nc(c(-c4c(F)cccc4F)c4ccc([nH]4)c(-c4c(F)cccc4F)c4nc(c(-c5c(F)cccc5F)c5ccc2[nH]5)C=C4)C=C3)cc1
REMARK SMILES IDX 28 1 27 2 26 3 25 4 24 5 23 6 2 7 1 8 3 9 4 10 5 11 6 12
REMARK SMILES IDX 10 13 7 14 9 15 8 16 11 17 12 18 22 19 13 20 15 23 21 24
REMARK SMILES IDX 14 25 16 26 19 27 17 28 20 29 18 31 29 33 30 34 31 35 32 36
REMARK SMILES IDX 33 37 34 38 35 39 36 40 37 41 38 42 39 43 91 44 40 45 90 46
REMARK SMILES IDX 41 47 42 48 43 49 84 50 44 51 89 52 83 53 85 54 45 55 88 56
REMARK SMILES IDX 82 57 81 58 46 60 72 61 55 62 71 63 56 64 59 65 70 66 86 67
REMARK SMILES IDX 57 68 58 69 69 71 87 72 60 73 47 74 48 75 53 76 49 77 50 78
REMARK SMILES IDX 52 79 54 80 51 81 73 82 74 83 79 84 75 85 76 86 78 87 80 88
REMARK SMILES IDX 77 89 61 90 62 91 67 92 63 93 64 94 66 95 68 96 65 97
REMARK H PARENT 12 21 12 22 20 30 18 32 85 59 59 70
REMARK Flexibility Score: inf
ROOT
ATOM      1  C   UNL A   1      34.691  32.698  28.422  1.00  0.00     0.188 C 
ENDROOT
BRANCH   1   2
ATOM      2  C   UNL A   1      34.356  31.481  27.516  1.00  0.00     0.188 C 
BRANCH   2   3
ATOM      3  O   UNL A   1      33.185  30.663  27.398  1.00  0.00    -0.376 OA
BRANCH   3   4
ATOM      4  C   UNL A   1      32.928  29.373  26.874  1.00  0.00     0.202 C 
BRANCH   4   5
ATOM      5  C   UNL A   1      33.678  29.008  25.584  1.00  0.00     0.261 C 
BRANCH   5   6
ATOM      6  O   UNL A   1      32.865  29.192  24.434  1.00  0.00    -0.461 OA
BRANCH   6   7
ATOM      7  C   UNL A   1      33.176  28.526  23.299  1.00  0.00     0.344 C 
ATOM      8  O   UNL A   1      34.364  28.474  22.995  1.00  0.00    -0.248 OA
BRANCH   7   9
ATOM      9  C   UNL A   1      32.027  27.853  22.516  1.00  0.00     0.351 C 
BRANCH   9  10
ATOM     10  O   UNL A   1      32.037  26.462  22.607  1.00  0.00    -0.481 OA
BRANCH  10  11
ATOM     11  C   UNL A   1      31.853  25.826  23.801  1.00  0.00     0.129 A 
ATOM     12  C   UNL A   1      30.773  26.444  24.453  1.00  0.00     0.047 A 
ATOM     13  C   UNL A   1      32.706  24.926  24.488  1.00  0.00     0.056 A 
ATOM     14  C   UNL A   1      30.637  26.370  25.825  1.00  0.00     0.004 A 
ATOM     15  C   UNL A   1      32.594  24.948  25.892  1.00  0.00     0.014 A 
ATOM     16  C   UNL A   1      31.597  25.681  26.550  1.00  0.00     0.001 A 
BRANCH  13  17
ATOM     17  C   UNL A   1      33.810  24.084  23.850  1.00  0.00     0.249 C 
ATOM     18  N   UNL A   1      33.486  23.590  22.489  1.00  0.00    -0.336 N 
ATOM     19  C   UNL A   1      34.437  22.867  24.544  1.00  0.00     0.021 A 
ATOM     20  C   UNL A   1      32.542  22.462  22.453  1.00  0.00     0.266 C 
ATOM     21  H   UNL A   1      34.354  23.293  22.044  1.00  0.00     0.347 HD
ATOM     22  H   UNL A   1      33.030  24.363  22.004  1.00  0.00     0.347 HD
ATOM     23  C   UNL A   1      33.768  21.623  24.413  1.00  0.00    -0.029 A 
ATOM     24  C   UNL A   1      35.788  22.894  24.927  1.00  0.00     0.060 A 
ATOM     25  C   UNL A   1      32.415  21.656  23.753  1.00  0.00     0.097 C 
ATOM     26  C   UNL A   1      34.440  20.425  24.662  1.00  0.00     0.054 A 
ATOM     27  C   UNL A   1      36.458  21.691  25.112  1.00  0.00     0.157 A 
ATOM     28  C   UNL A   1      35.789  20.474  24.981  1.00  0.00     0.157 A 
BRANCH  27  29
ATOM     29  O   UNL A   1      37.809  21.650  25.331  1.00  0.00    -0.504 OA
ATOM     30  H   UNL A   1      38.159  21.087  25.992  1.00  0.00     0.293 HD
ENDBRANCH  27  29
BRANCH  28  31
ATOM     31  O   UNL A   1      36.489  19.304  25.073  1.00  0.00    -0.504 OA
ATOM     32  H   UNL A   1      36.122  18.573  25.533  1.00  0.00     0.293 HD
ENDBRANCH  28  31
ENDBRANCH  13  17
ENDBRANCH  10  11
ENDBRANCH   9  10
ENDBRANCH   7   9
ENDBRANCH   6   7
ENDBRANCH   5   6
ENDBRANCH   4   5
ENDBRANCH   3   4
ENDBRANCH   2   3
ENDBRANCH   1   2
BRANCH   1  33
ATOM     33  O   UNL A   1      33.714  33.673  28.748  1.00  0.00    -0.377 OA
BRANCH  33  34
ATOM     34  C   UNL A   1      34.030  34.965  28.284  1.00  0.00     0.188 C 
BRANCH  34  35
ATOM     35  C   UNL A   1      33.367  36.041  29.168  1.00  0.00     0.188 C 
BRANCH  35  36
ATOM     36  O   UNL A   1      33.072  35.611  30.480  1.00  0.00    -0.376 OA
BRANCH  36  37
ATOM     37  C   UNL A   1      34.104  35.389  31.428  1.00  0.00     0.202 C 
BRANCH  37  38
ATOM     38  C   UNL A   1      34.557  34.023  31.990  1.00  0.00     0.261 C 
BRANCH  38  39
ATOM     39  O   UNL A   1      35.873  33.550  31.705  1.00  0.00    -0.460 OA
BRANCH  39  40
ATOM     40  C   UNL A   1      36.384  32.560  32.466  1.00  0.00     0.338 C 
ATOM     41  O   UNL A   1      35.829  31.945  33.359  1.00  0.00    -0.246 OA
BRANCH  40  42
ATOM     42  C   UNL A   1      37.666  32.186  31.827  1.00  0.00     0.060 A 
ATOM     43  C   UNL A   1      37.709  31.966  30.439  1.00  0.00     0.016 A 
ATOM     44  C   UNL A   1      38.839  32.173  32.585  1.00  0.00     0.016 A 
ATOM     45  C   UNL A   1      38.927  31.727  29.805  1.00  0.00     0.010 A 
ATOM     46  C   UNL A   1      40.047  31.874  31.962  1.00  0.00     0.010 A 
ATOM     47  C   UNL A   1      40.087  31.617  30.580  1.00  0.00    -0.014 A 
BRANCH  47  48
ATOM     48  C   UNL A   1      41.265  30.905  30.040  1.00  0.00     0.031 A 
ATOM     49  C   UNL A   1      42.477  31.742  29.751  1.00  0.00     0.074 A 
ATOM     50  C   UNL A   1      41.239  29.598  29.742  1.00  0.00     0.049 A 
ATOM     51  N   UNL A   1      43.563  31.440  29.094  1.00  0.00    -0.248 NA
ATOM     52  C   UNL A   1      42.440  33.125  30.261  1.00  0.00     0.031 C 
ATOM     53  C   UNL A   1      40.135  28.684  30.019  1.00  0.00     0.029 A 
ATOM     54  N   UNL A   1      42.171  28.827  29.097  1.00  0.00    -0.354 N 
ATOM     55  C   UNL A   1      44.323  32.602  29.086  1.00  0.00     0.074 A 
ATOM     56  C   UNL A   1      43.572  33.615  29.788  1.00  0.00     0.031 C 
ATOM     57  C   UNL A   1      40.435  27.478  29.503  1.00  0.00     0.029 A 
ATOM     58  C   UNL A   1      41.728  27.557  28.822  1.00  0.00     0.049 A 
ATOM     59  H   UNL A   1      43.068  29.152  28.852  1.00  0.00     0.167 HD
ATOM     60  C   UNL A   1      45.537  32.808  28.528  1.00  0.00     0.037 A 
ATOM     61  C   UNL A   1      42.286  26.594  28.064  1.00  0.00     0.037 A 
ATOM     62  C   UNL A   1      46.260  31.799  27.807  1.00  0.00     0.049 A 
ATOM     63  C   UNL A   1      43.609  26.856  27.391  1.00  0.00     0.074 A 
ATOM     64  C   UNL A   1      47.506  31.887  27.218  1.00  0.00     0.029 A 
ATOM     65  N   UNL A   1      45.784  30.519  27.562  1.00  0.00    -0.354 N 
ATOM     66  N   UNL A   1      44.342  27.946  27.404  1.00  0.00    -0.248 NA
ATOM     67  C   UNL A   1      44.182  25.760  26.596  1.00  0.00     0.031 C 
ATOM     68  C   UNL A   1      47.758  30.678  26.562  1.00  0.00     0.029 A 
ATOM     69  C   UNL A   1      46.700  29.813  26.803  1.00  0.00     0.049 A 
ATOM     70  H   UNL A   1      44.922  30.165  27.881  1.00  0.00     0.167 HD
ATOM     71  C   UNL A   1      45.474  27.658  26.649  1.00  0.00     0.074 A 
ATOM     72  C   UNL A   1      45.329  26.290  26.193  1.00  0.00     0.031 C 
ATOM     73  C   UNL A   1      46.539  28.448  26.369  1.00  0.00     0.037 A 
BRANCH  60  74
ATOM     74  C   UNL A   1      46.104  34.193  28.630  1.00  0.00     0.057 A 
ATOM     75  C   UNL A   1      45.886  35.166  27.646  1.00  0.00     0.134 A 
ATOM     76  C   UNL A   1      46.918  34.544  29.715  1.00  0.00     0.134 A 
ATOM     77  F   UNL A   1      45.138  34.887  26.567  1.00  0.00    -0.206 F 
ATOM     78  C   UNL A   1      46.490  36.423  27.715  1.00  0.00     0.040 A 
ATOM     79  C   UNL A   1      47.500  35.809  29.812  1.00  0.00     0.040 A 
ATOM     80  F   UNL A   1      47.173  33.660  30.691  1.00  0.00    -0.206 F 
ATOM     81  C   UNL A   1      47.296  36.749  28.803  1.00  0.00     0.006 A 
ENDBRANCH  60  74
BRANCH  61  82
ATOM     82  C   UNL A   1      41.573  25.304  27.879  1.00  0.00     0.057 A 
ATOM     83  C   UNL A   1      40.483  25.196  27.010  1.00  0.00     0.134 A 
ATOM     84  C   UNL A   1      41.982  24.144  28.548  1.00  0.00     0.134 A 
ATOM     85  F   UNL A   1      40.029  26.278  26.358  1.00  0.00    -0.206 F 
ATOM     86  C   UNL A   1      39.822  23.982  26.812  1.00  0.00     0.040 A 
ATOM     87  C   UNL A   1      41.346  22.918  28.343  1.00  0.00     0.040 A 
ATOM     88  F   UNL A   1      43.020  24.180  29.395  1.00  0.00    -0.206 F 
ATOM     89  C   UNL A   1      40.260  22.836  27.473  1.00  0.00     0.006 A 
ENDBRANCH  61  82
BRANCH  73  90
ATOM     90  C   UNL A   1      47.665  27.848  25.575  1.00  0.00     0.057 A 
ATOM     91  C   UNL A   1      48.804  27.309  26.184  1.00  0.00     0.134 A 
ATOM     92  C   UNL A   1      47.559  27.734  24.182  1.00  0.00     0.134 A 
ATOM     93  F   UNL A   1      48.969  27.394  27.513  1.00  0.00    -0.206 F 
ATOM     94  C   UNL A   1      49.804  26.685  25.435  1.00  0.00     0.040 A 
ATOM     95  C   UNL A   1      48.538  27.088  23.425  1.00  0.00     0.040 A 
ATOM     96  F   UNL A   1      46.487  28.219  23.537  1.00  0.00    -0.206 F 
ATOM     97  C   UNL A   1      49.666  26.564  24.053  1.00  0.00     0.006 A 
ENDBRANCH  73  90
ENDBRANCH  47  48
ENDBRANCH  40  42
ENDBRANCH  39  40
ENDBRANCH  38  39
ENDBRANCH  37  38
ENDBRANCH  36  37
ENDBRANCH  35  36
ENDBRANCH  34  35
ENDBRANCH  33  34
ENDBRANCH   1  33
TORSDOF 25
ENDMDL
MODEL 2
REMARK VINA RESULT:      -9.5      3.671     10.101
REMARK SMILES O=C(COc1ccccc1[C@@H]1[NH2+]CCc2cc(O)c(O)cc21)OCCOCCOCCOCCOC(=O)c1ccc(-c2c3nc(c(-c4c(F)cccc4F)c4ccc([nH]4)c(-c4c(F)cccc4F)c4nc(c(-c5c(F)cccc5F)c5ccc2[nH]5)C=C4)C=C3)cc1
REMARK SMILES IDX 28 1 27 2 26 3 25 4 24 5 23 6 2 7 1 8 3 9 4 10 5 11 6 12
REMARK SMILES IDX 10 13 7 14 9 15 8 16 11 17 12 18 22 19 13 20 15 23 21 24
REMARK SMILES IDX 14 25 16 26 19 27 17 28 20 29 18 31 29 33 30 34 31 35 32 36
REMARK SMILES IDX 33 37 34 38 35 39 36 40 37 41 38 42 39 43 91 44 40 45 90 46
REMARK SMILES IDX 41 47 42 48 43 49 84 50 44 51 89 52 83 53 85 54 45 55 88 56
REMARK SMILES IDX 82 57 81 58 46 60 72 61 55 62 71 63 56 64 59 65 70 66 86 67
REMARK SMILES IDX 57 68 58 69 69 71 87 72 60 73 47 74 48 75 53 76 49 77 50 78
REMARK SMILES IDX 52 79 54 80 51 81 73 82 74 83 79 84 75 85 76 86 78 87 80 88
REMARK SMILES IDX 77 89 61 90 62 91 67 92 63 93 64 94 66 95 68 96 65 97
REMARK H PARENT 12 21 12 22 20 30 18 32 85 59 59 70
REMARK Flexibility Score: inf
ROOT
ATOM      1  C   UNL A   1      33.770  23.703  26.072  1.00  0.00     0.188 C 
ENDROOT
BRANCH   1   2
ATOM      2  C   UNL A   1      32.838  24.917  25.803  1.00  0.00     0.188 C 
BRANCH   2   3
ATOM      3  O   UNL A   1      32.274  25.907  26.672  1.00  0.00    -0.376 OA
BRANCH   3   4
ATOM      4  C   UNL A   1      31.530  27.094  26.468  1.00  0.00     0.202 C 
BRANCH   4   5
ATOM      5  C   UNL A   1      31.768  28.221  27.485  1.00  0.00     0.261 C 
BRANCH   5   6
ATOM      6  O   UNL A   1      31.565  29.502  26.905  1.00  0.00    -0.461 OA
BRANCH   6   7
ATOM      7  C   UNL A   1      32.625  30.161  26.384  1.00  0.00     0.344 C 
ATOM      8  O   UNL A   1      33.064  29.745  25.317  1.00  0.00    -0.248 OA
BRANCH   7   9
ATOM      9  C   UNL A   1      33.154  31.397  27.145  1.00  0.00     0.351 C 
BRANCH   9  10
ATOM     10  O   UNL A   1      33.985  31.073  28.216  1.00  0.00    -0.481 OA
BRANCH  10  11
ATOM     11  C   UNL A   1      35.343  31.040  28.077  1.00  0.00     0.129 A 
ATOM     12  C   UNL A   1      35.713  29.711  27.809  1.00  0.00     0.047 A 
ATOM     13  C   UNL A   1      36.312  32.016  28.418  1.00  0.00     0.056 A 
ATOM     14  C   UNL A   1      36.990  29.262  28.083  1.00  0.00     0.004 A 
ATOM     15  C   UNL A   1      37.576  31.507  28.774  1.00  0.00     0.014 A 
ATOM     16  C   UNL A   1      37.900  30.149  28.638  1.00  0.00     0.001 A 
BRANCH  13  17
ATOM     17  C   UNL A   1      36.049  33.512  28.579  1.00  0.00     0.249 C 
ATOM     18  N   UNL A   1      37.173  34.263  29.192  1.00  0.00    -0.336 N 
ATOM     19  C   UNL A   1      34.805  34.069  29.285  1.00  0.00     0.021 A 
ATOM     20  C   UNL A   1      37.310  34.085  30.646  1.00  0.00     0.266 C 
ATOM     21  H   UNL A   1      37.030  35.256  29.005  1.00  0.00     0.347 HD
ATOM     22  H   UNL A   1      38.027  33.894  28.774  1.00  0.00     0.347 HD
ATOM     23  C   UNL A   1      34.853  34.189  30.698  1.00  0.00    -0.029 A 
ATOM     24  C   UNL A   1      33.850  34.798  28.558  1.00  0.00     0.060 A 
ATOM     25  C   UNL A   1      36.056  33.591  31.380  1.00  0.00     0.097 C 
ATOM     26  C   UNL A   1      33.959  35.023  31.371  1.00  0.00     0.054 A 
ATOM     27  C   UNL A   1      33.008  35.669  29.237  1.00  0.00     0.157 A 
ATOM     28  C   UNL A   1      33.065  35.777  30.627  1.00  0.00     0.157 A 
BRANCH  27  29
ATOM     29  O   UNL A   1      32.167  36.518  28.570  1.00  0.00    -0.504 OA
ATOM     30  H   UNL A   1      32.071  37.404  28.858  1.00  0.00     0.293 HD
ENDBRANCH  27  29
BRANCH  28  31
ATOM     31  O   UNL A   1      32.295  36.708  31.265  1.00  0.00    -0.504 OA
ATOM     32  H   UNL A   1      31.644  36.435  31.882  1.00  0.00     0.293 HD
ENDBRANCH  28  31
ENDBRANCH  13  17
ENDBRANCH  10  11
ENDBRANCH   9  10
ENDBRANCH   7   9
ENDBRANCH   6   7
ENDBRANCH   5   6
ENDBRANCH   4   5
ENDBRANCH   3   4
ENDBRANCH   2   3
ENDBRANCH   1   2
BRANCH   1  33
ATOM     33  O   UNL A   1      35.178  23.851  26.150  1.00  0.00    -0.377 OA
BRANCH  33  34
ATOM     34  C   UNL A   1      35.878  23.129  25.164  1.00  0.00     0.188 C 
BRANCH  34  35
ATOM     35  C   UNL A   1      37.401  23.290  25.342  1.00  0.00     0.188 C 
BRANCH  35  36
ATOM     36  O   UNL A   1      37.777  23.931  26.542  1.00  0.00    -0.376 OA
BRANCH  36  37
ATOM     37  C   UNL A   1      39.143  24.076  26.900  1.00  0.00     0.202 C 
BRANCH  37  38
ATOM     38  C   UNL A   1      39.762  25.233  27.714  1.00  0.00     0.261 C 
BRANCH  38  39
ATOM     39  O   UNL A   1      41.114  25.131  28.161  1.00  0.00    -0.460 OA
BRANCH  39  40
ATOM     40  C   UNL A   1      42.040  25.942  27.611  1.00  0.00     0.338 C 
ATOM     41  O   UNL A   1      42.713  25.737  26.615  1.00  0.00    -0.246 OA
BRANCH  40  42
ATOM     42  C   UNL A   1      41.894  27.243  28.300  1.00  0.00     0.060 A 
ATOM     43  C   UNL A   1      41.185  28.282  27.671  1.00  0.00     0.016 A 
ATOM     44  C   UNL A   1      42.352  27.389  29.611  1.00  0.00     0.016 A 
ATOM     45  C   UNL A   1      40.937  29.473  28.352  1.00  0.00     0.010 A 
ATOM     46  C   UNL A   1      42.159  28.600  30.269  1.00  0.00     0.010 A 
ATOM     47  C   UNL A   1      41.483  29.653  29.627  1.00  0.00    -0.014 A 
BRANCH  47  48
ATOM     48  C   UNL A   1      41.662  31.019  30.163  1.00  0.00     0.031 A 
ATOM     49  C   UNL A   1      42.788  31.823  29.580  1.00  0.00     0.074 A 
ATOM     50  C   UNL A   1      40.920  31.499  31.172  1.00  0.00     0.049 A 
ATOM     51  N   UNL A   1      43.308  32.949  29.986  1.00  0.00    -0.248 NA
ATOM     52  C   UNL A   1      43.429  31.256  28.380  1.00  0.00     0.031 C 
ATOM     53  C   UNL A   1      39.778  30.825  31.782  1.00  0.00     0.029 A 
ATOM     54  N   UNL A   1      41.056  32.661  31.886  1.00  0.00    -0.354 N 
ATOM     55  C   UNL A   1      44.354  33.208  29.110  1.00  0.00     0.074 A 
ATOM     56  C   UNL A   1      44.405  32.120  28.163  1.00  0.00     0.031 C 
ATOM     57  C   UNL A   1      39.341  31.568  32.815  1.00  0.00     0.029 A 
ATOM     58  C   UNL A   1      40.206  32.740  32.961  1.00  0.00     0.049 A 
ATOM     59  H   UNL A   1      41.700  33.368  31.653  1.00  0.00     0.167 HD
ATOM     60  C   UNL A   1      45.207  34.257  29.106  1.00  0.00     0.037 A 
ATOM     61  C   UNL A   1      40.172  33.631  33.970  1.00  0.00     0.037 A 
ATOM     62  C   UNL A   1      45.163  35.318  30.072  1.00  0.00     0.049 A 
ATOM     63  C   UNL A   1      41.169  34.761  33.993  1.00  0.00     0.074 A 
ATOM     64  C   UNL A   1      45.961  36.442  30.154  1.00  0.00     0.029 A 
ATOM     65  N   UNL A   1      44.277  35.370  31.139  1.00  0.00    -0.354 N 
ATOM     66  N   UNL A   1      42.143  35.021  33.151  1.00  0.00    -0.248 NA
ATOM     67  C   UNL A   1      41.068  35.717  35.104  1.00  0.00     0.031 C 
ATOM     68  C   UNL A   1      45.599  37.144  31.308  1.00  0.00     0.029 A 
ATOM     69  C   UNL A   1      44.528  36.494  31.905  1.00  0.00     0.049 A 
ATOM     70  H   UNL A   1      43.575  34.705  31.324  1.00  0.00     0.167 HD
ATOM     71  C   UNL A   1      42.748  36.186  33.611  1.00  0.00     0.074 A 
ATOM     72  C   UNL A   1      42.032  36.579  34.808  1.00  0.00     0.031 C 
ATOM     73  C   UNL A   1      43.794  36.871  33.087  1.00  0.00     0.037 A 
BRANCH  60  74
ATOM     74  C   UNL A   1      46.285  34.251  28.063  1.00  0.00     0.057 A 
ATOM     75  C   UNL A   1      46.127  34.877  26.820  1.00  0.00     0.134 A 
ATOM     76  C   UNL A   1      47.487  33.571  28.294  1.00  0.00     0.134 A 
ATOM     77  F   UNL A   1      44.989  35.524  26.523  1.00  0.00    -0.206 F 
ATOM     78  C   UNL A   1      47.107  34.792  25.829  1.00  0.00     0.040 A 
ATOM     79  C   UNL A   1      48.489  33.506  27.324  1.00  0.00     0.040 A 
ATOM     80  F   UNL A   1      47.703  32.944  29.461  1.00  0.00    -0.206 F 
ATOM     81  C   UNL A   1      48.294  34.109  26.082  1.00  0.00     0.006 A 
ENDBRANCH  60  74
BRANCH  61  82
ATOM     82  C   UNL A   1      39.173  33.467  35.057  1.00  0.00     0.057 A 
ATOM     83  C   UNL A   1      37.890  34.016  34.952  1.00  0.00     0.134 A 
ATOM     84  C   UNL A   1      39.469  32.736  36.214  1.00  0.00     0.134 A 
ATOM     85  F   UNL A   1      37.554  34.747  33.878  1.00  0.00    -0.206 F 
ATOM     86  C   UNL A   1      36.938  33.846  35.959  1.00  0.00     0.040 A 
ATOM     87  C   UNL A   1      38.519  32.537  37.218  1.00  0.00     0.040 A 
ATOM     88  F   UNL A   1      40.680  32.184  36.375  1.00  0.00    -0.206 F 
ATOM     89  C   UNL A   1      37.249  33.096  37.092  1.00  0.00     0.006 A 
ENDBRANCH  61  82
BRANCH  73  90
ATOM     90  C   UNL A   1      44.202  38.149  33.764  1.00  0.00     0.057 A 
ATOM     91  C   UNL A   1      43.768  39.402  33.317  1.00  0.00     0.134 A 
ATOM     92  C   UNL A   1      44.972  38.110  34.934  1.00  0.00     0.134 A 
ATOM     93  F   UNL A   1      43.035  39.509  32.198  1.00  0.00    -0.206 F 
ATOM     94  C   UNL A   1      44.094  40.573  34.005  1.00  0.00     0.040 A 
ATOM     95  C   UNL A   1      45.281  39.269  35.646  1.00  0.00     0.040 A 
ATOM     96  F   UNL A   1      45.410  36.939  35.423  1.00  0.00    -0.206 F 
ATOM     97  C   UNL A   1      44.843  40.506  35.179  1.00  0.00     0.006 A 
ENDBRANCH  73  90
ENDBRANCH  47  48
ENDBRANCH  40  42
ENDBRANCH  39  40
ENDBRANCH  38  39
ENDBRANCH  37  38
ENDBRANCH  36  37
ENDBRANCH  35  36
ENDBRANCH  34  35
ENDBRANCH  33  34
ENDBRANCH   1  33
TORSDOF 25
ENDMDL
MODEL 3
REMARK VINA RESULT:      -9.2      5.225     11.853
REMARK SMILES O=C(COc1ccccc1[C@@H]1[NH2+]CCc2cc(O)c(O)cc21)OCCOCCOCCOCCOC(=O)c1ccc(-c2c3nc(c(-c4c(F)cccc4F)c4ccc([nH]4)c(-c4c(F)cccc4F)c4nc(c(-c5c(F)cccc5F)c5ccc2[nH]5)C=C4)C=C3)cc1
REMARK SMILES IDX 28 1 27 2 26 3 25 4 24 5 23 6 2 7 1 8 3 9 4 10 5 11 6 12
REMARK SMILES IDX 10 13 7 14 9 15 8 16 11 17 12 18 22 19 13 20 15 23 21 24
REMARK SMILES IDX 14 25 16 26 19 27 17 28 20 29 18 31 29 33 30 34 31 35 32 36
REMARK SMILES IDX 33 37 34 38 35 39 36 40 37 41 38 42 39 43 91 44 40 45 90 46
REMARK SMILES IDX 41 47 42 48 43 49 84 50 44 51 89 52 83 53 85 54 45 55 88 56
REMARK SMILES IDX 82 57 81 58 46 60 72 61 55 62 71 63 56 64 59 65 70 66 86 67
REMARK SMILES IDX 57 68 58 69 69 71 87 72 60 73 47 74 48 75 53 76 49 77 50 78
REMARK SMILES IDX 52 79 54 80 51 81 73 82 74 83 79 84 75 85 76 86 78 87 80 88
REMARK SMILES IDX 77 89 61 90 62 91 67 92 63 93 64 94 66 95 68 96 65 97
REMARK H PARENT 12 21 12 22 20 30 18 32 85 59 59 70
REMARK Flexibility Score: inf
ROOT
ATOM      1  C   UNL A   1      44.417  24.527  30.182  1.00  0.00     0.188 C 
ENDROOT
BRANCH   1   2
ATOM      2  C   UNL A   1      44.118  23.765  31.504  1.00  0.00     0.188 C 
BRANCH   2   3
ATOM      3  O   UNL A   1      43.905  24.216  32.846  1.00  0.00    -0.376 OA
BRANCH   3   4
ATOM      4  C   UNL A   1      44.449  25.256  33.639  1.00  0.00     0.202 C 
BRANCH   4   5
ATOM      5  C   UNL A   1      44.259  25.116  35.157  1.00  0.00     0.261 C 
BRANCH   5   6
ATOM      6  O   UNL A   1      44.067  26.378  35.780  1.00  0.00    -0.461 OA
BRANCH   6   7
ATOM      7  C   UNL A   1      42.968  26.570  36.545  1.00  0.00     0.344 C 
ATOM      8  O   UNL A   1      42.586  25.616  37.215  1.00  0.00    -0.248 OA
BRANCH   7   9
ATOM      9  C   UNL A   1      42.323  27.974  36.546  1.00  0.00     0.351 C 
BRANCH   9  10
ATOM     10  O   UNL A   1      41.126  28.033  35.834  1.00  0.00    -0.481 OA
BRANCH  10  11
ATOM     11  C   UNL A   1      41.015  28.776  34.693  1.00  0.00     0.129 A 
ATOM     12  C   UNL A   1      41.132  27.900  33.600  1.00  0.00     0.047 A 
ATOM     13  C   UNL A   1      41.081  30.181  34.517  1.00  0.00     0.056 A 
ATOM     14  C   UNL A   1      41.532  28.363  32.362  1.00  0.00     0.004 A 
ATOM     15  C   UNL A   1      41.577  30.606  33.270  1.00  0.00     0.014 A 
ATOM     16  C   UNL A   1      41.827  29.710  32.220  1.00  0.00     0.001 A 
BRANCH  13  17
ATOM     17  C   UNL A   1      40.816  31.226  35.600  1.00  0.00     0.249 C 
ATOM     18  N   UNL A   1      39.618  30.949  36.430  1.00  0.00    -0.336 N 
ATOM     19  C   UNL A   1      40.719  32.728  35.301  1.00  0.00     0.021 A 
ATOM     20  C   UNL A   1      38.334  31.238  35.772  1.00  0.00     0.266 C 
ATOM     21  H   UNL A   1      39.679  31.518  37.274  1.00  0.00     0.347 HD
ATOM     22  H   UNL A   1      39.625  29.947  36.619  1.00  0.00     0.347 HD
ATOM     23  C   UNL A   1      39.463  33.231  34.873  1.00  0.00    -0.029 A 
ATOM     24  C   UNL A   1      41.682  33.611  35.816  1.00  0.00     0.060 A 
ATOM     25  C   UNL A   1      38.396  32.207  34.583  1.00  0.00     0.097 C 
ATOM     26  C   UNL A   1      39.177  34.594  34.957  1.00  0.00     0.054 A 
ATOM     27  C   UNL A   1      41.359  34.956  35.948  1.00  0.00     0.157 A 
ATOM     28  C   UNL A   1      40.121  35.438  35.522  1.00  0.00     0.157 A 
BRANCH  27  29
ATOM     29  O   UNL A   1      42.195  35.834  36.585  1.00  0.00    -0.504 OA
ATOM     30  H   UNL A   1      42.978  35.522  36.993  1.00  0.00     0.293 HD
ENDBRANCH  27  29
BRANCH  28  31
ATOM     31  O   UNL A   1      39.788  36.743  35.749  1.00  0.00    -0.504 OA
ATOM     32  H   UNL A   1      40.460  37.375  35.920  1.00  0.00     0.293 HD
ENDBRANCH  28  31
ENDBRANCH  13  17
ENDBRANCH  10  11
ENDBRANCH   9  10
ENDBRANCH   7   9
ENDBRANCH   6   7
ENDBRANCH   5   6
ENDBRANCH   4   5
ENDBRANCH   3   4
ENDBRANCH   2   3
ENDBRANCH   1   2
BRANCH   1  33
ATOM     33  O   UNL A   1      45.716  25.008  29.880  1.00  0.00    -0.377 OA
BRANCH  33  34
ATOM     34  C   UNL A   1      46.215  24.550  28.646  1.00  0.00     0.188 C 
BRANCH  34  35
ATOM     35  C   UNL A   1      45.123  23.802  27.855  1.00  0.00     0.188 C 
BRANCH  35  36
ATOM     36  O   UNL A   1      45.621  22.946  26.849  1.00  0.00    -0.376 OA
BRANCH  36  37
ATOM     37  C   UNL A   1      44.864  22.667  25.682  1.00  0.00     0.202 C 
BRANCH  37  38
ATOM     38  C   UNL A   1      43.623  21.752  25.590  1.00  0.00     0.261 C 
BRANCH  38  39
ATOM     39  O   UNL A   1      42.342  22.332  25.342  1.00  0.00    -0.460 OA
BRANCH  39  40
ATOM     40  C   UNL A   1      41.444  22.373  26.348  1.00  0.00     0.338 C 
ATOM     41  O   UNL A   1      40.959  21.432  26.952  1.00  0.00    -0.246 OA
BRANCH  40  42
ATOM     42  C   UNL A   1      41.362  23.793  26.755  1.00  0.00     0.060 A 
ATOM     43  C   UNL A   1      41.239  24.789  25.770  1.00  0.00     0.016 A 
ATOM     44  C   UNL A   1      41.286  24.122  28.110  1.00  0.00     0.016 A 
ATOM     45  C   UNL A   1      41.044  26.119  26.138  1.00  0.00     0.010 A 
ATOM     46  C   UNL A   1      41.153  25.457  28.479  1.00  0.00     0.010 A 
ATOM     47  C   UNL A   1      41.067  26.459  27.495  1.00  0.00    -0.014 A 
BRANCH  47  48
ATOM     48  C   UNL A   1      41.350  27.852  27.898  1.00  0.00     0.031 A 
ATOM     49  C   UNL A   1      42.797  28.246  27.972  1.00  0.00     0.074 A 
ATOM     50  C   UNL A   1      40.381  28.706  28.261  1.00  0.00     0.049 A 
ATOM     51  N   UNL A   1      43.347  29.312  28.485  1.00  0.00    -0.248 NA
ATOM     52  C   UNL A   1      43.756  27.280  27.405  1.00  0.00     0.031 C 
ATOM     53  C   UNL A   1      38.947  28.446  28.187  1.00  0.00     0.029 A 
ATOM     54  N   UNL A   1      40.476  29.960  28.806  1.00  0.00    -0.354 N 
ATOM     55  C   UNL A   1      44.715  29.132  28.328  1.00  0.00     0.074 A 
ATOM     56  C   UNL A   1      44.912  27.852  27.689  1.00  0.00     0.031 C 
ATOM     57  C   UNL A   1      38.291  29.495  28.715  1.00  0.00     0.029 A 
ATOM     58  C   UNL A   1      39.266  30.472  29.203  1.00  0.00     0.049 A 
ATOM     59  H   UNL A   1      41.328  30.445  28.906  1.00  0.00     0.167 HD
ATOM     60  C   UNL A   1      45.719  29.957  28.699  1.00  0.00     0.037 A 
ATOM     61  C   UNL A   1      38.990  31.577  29.922  1.00  0.00     0.037 A 
ATOM     62  C   UNL A   1      45.510  31.214  29.359  1.00  0.00     0.049 A 
ATOM     63  C   UNL A   1      40.122  32.457  30.389  1.00  0.00     0.074 A 
ATOM     64  C   UNL A   1      46.449  32.142  29.763  1.00  0.00     0.029 A 
ATOM     65  N   UNL A   1      44.267  31.705  29.732  1.00  0.00    -0.354 N 
ATOM     66  N   UNL A   1      41.415  32.301  30.219  1.00  0.00    -0.248 NA
ATOM     67  C   UNL A   1      39.760  33.662  31.147  1.00  0.00     0.031 C 
ATOM     68  C   UNL A   1      45.779  33.169  30.436  1.00  0.00     0.029 A 
ATOM     69  C   UNL A   1      44.416  32.913  30.389  1.00  0.00     0.049 A 
ATOM     70  H   UNL A   1      43.406  31.260  29.556  1.00  0.00     0.167 HD
ATOM     71  C   UNL A   1      42.018  33.400  30.820  1.00  0.00     0.074 A 
ATOM     72  C   UNL A   1      40.947  34.215  31.359  1.00  0.00     0.031 C 
ATOM     73  C   UNL A   1      43.334  33.713  30.908  1.00  0.00     0.037 A 
BRANCH  60  74
ATOM     74  C   UNL A   1      47.119  29.477  28.449  1.00  0.00     0.057 A 
ATOM     75  C   UNL A   1      47.828  28.717  29.389  1.00  0.00     0.134 A 
ATOM     76  C   UNL A   1      47.781  29.818  27.264  1.00  0.00     0.134 A 
ATOM     77  F   UNL A   1      47.261  28.378  30.558  1.00  0.00    -0.206 F 
ATOM     78  C   UNL A   1      49.158  28.349  29.177  1.00  0.00     0.040 A 
ATOM     79  C   UNL A   1      49.100  29.428  27.025  1.00  0.00     0.040 A 
ATOM     80  F   UNL A   1      47.163  30.549  26.323  1.00  0.00    -0.206 F 
ATOM     81  C   UNL A   1      49.796  28.701  27.990  1.00  0.00     0.006 A 
ENDBRANCH  60  74
BRANCH  61  82
ATOM     82  C   UNL A   1      37.581  31.891  30.269  1.00  0.00     0.057 A 
ATOM     83  C   UNL A   1      36.828  32.787  29.502  1.00  0.00     0.134 A 
ATOM     84  C   UNL A   1      36.946  31.284  31.359  1.00  0.00     0.134 A 
ATOM     85  F   UNL A   1      37.387  33.419  28.459  1.00  0.00    -0.206 F 
ATOM     86  C   UNL A   1      35.495  33.070  29.807  1.00  0.00     0.040 A 
ATOM     87  C   UNL A   1      35.607  31.538  31.662  1.00  0.00     0.040 A 
ATOM     88  F   UNL A   1      37.613  30.416  32.134  1.00  0.00    -0.206 F 
ATOM     89  C   UNL A   1      34.878  32.436  30.886  1.00  0.00     0.006 A 
ENDBRANCH  61  82
BRANCH  73  90
ATOM     90  C   UNL A   1      43.702  35.013  31.565  1.00  0.00     0.057 A 
ATOM     91  C   UNL A   1      43.776  36.215  30.851  1.00  0.00     0.134 A 
ATOM     92  C   UNL A   1      43.898  35.069  32.951  1.00  0.00     0.134 A 
ATOM     93  F   UNL A   1      43.607  36.227  29.520  1.00  0.00    -0.206 F 
ATOM     94  C   UNL A   1      44.042  37.426  31.493  1.00  0.00     0.040 A 
ATOM     95  C   UNL A   1      44.137  36.277  33.607  1.00  0.00     0.040 A 
ATOM     96  F   UNL A   1      43.828  33.955  33.696  1.00  0.00    -0.206 F 
ATOM     97  C   UNL A   1      44.212  37.460  32.876  1.00  0.00     0.006 A 
ENDBRANCH  73  90
ENDBRANCH  47  48
ENDBRANCH  40  42
ENDBRANCH  39  40
ENDBRANCH  38  39
ENDBRANCH  37  38
ENDBRANCH  36  37
ENDBRANCH  35  36
ENDBRANCH  34  35
ENDBRANCH  33  34
ENDBRANCH   1  33
TORSDOF 25
ENDMDL
