MODEL 1
REMARK VINA RESULT:     -10.3      0.000      0.000
REMARK SMILES C[C@H]1[C@H](C)CC[C@@]2(C(=O)OCCOCCOCCOCCOC(=O)c3ccc(-c4c5nc(c(-c6c(F)cccc6F)c6ccc([nH]6)c(-c6c(F)cccc6F)c6nc(c(-c7c(F)cccc7F)c7ccc4[nH]7)C=C6)C=C5)cc3)CC[C@@]3(C)C(=CC[C@@H]4[C@@]5(C)CC[C@H](O)C(C)(C)[C@@H]5CC[C@]43C)[C@H]12
REMARK SMILES IDX 17 1 16 2 15 3 14 4 13 5 12 6 11 7 10 8 8 9 9 10 7 11 1 12
REMARK SMILES IDX 2 13 3 14 101 15 4 16 5 17 83 18 6 19 79 20 81 21 84 22
REMARK SMILES IDX 80 23 82 24 99 25 85 26 86 27 98 28 100 29 87 30 97 31 88 32
REMARK SMILES IDX 89 33 96 34 90 35 93 36 91 37 94 38 95 39 92 40 18 42 19 43
REMARK SMILES IDX 20 44 21 45 22 46 23 47 24 48 25 49 26 50 78 51 27 52 77 53
REMARK SMILES IDX 28 54 29 55 30 56 71 57 31 58 76 59 70 60 72 61 32 62 75 63
REMARK SMILES IDX 69 64 68 65 33 67 59 68 42 69 58 70 43 71 46 72 57 73 73 74
REMARK SMILES IDX 44 75 45 76 56 78 74 79 47 80 34 81 35 82 40 83 36 84 37 85
REMARK SMILES IDX 39 86 41 87 38 88 60 89 61 90 66 91 62 92 63 93 65 94 67 95
REMARK SMILES IDX 64 96 48 97 49 98 54 99 50 100 51 101 53 102 55 103 52 104
REMARK H PARENT 92 41 72 66 46 77
REMARK Flexibility Score: inf
ROOT
ATOM      1  C   UNL A   1      33.953  25.258  24.236  1.00  0.00     0.188 C 
ENDROOT
BRANCH   1   2
ATOM      2  O   UNL A   1      33.916  26.569  24.756  1.00  0.00    -0.377 OA
BRANCH   2   3
ATOM      3  C   UNL A   1      33.285  26.822  25.989  1.00  0.00     0.188 C 
BRANCH   3   4
ATOM      4  C   UNL A   1      33.509  28.208  26.621  1.00  0.00     0.188 C 
BRANCH   4   5
ATOM      5  O   UNL A   1      34.853  28.567  26.888  1.00  0.00    -0.376 OA
BRANCH   5   6
ATOM      6  C   UNL A   1      35.065  29.663  27.743  1.00  0.00     0.202 C 
BRANCH   6   7
ATOM      7  C   UNL A   1      36.143  29.621  28.814  1.00  0.00     0.261 C 
BRANCH   7   8
ATOM      8  O   UNL A   1      37.438  28.942  28.627  1.00  0.00    -0.463 OA
BRANCH   8   9
ATOM      9  C   UNL A   1      38.727  28.918  28.229  1.00  0.00     0.312 C 
ATOM     10  O   UNL A   1      39.303  29.646  27.434  1.00  0.00    -0.252 OA
BRANCH   9  11
ATOM     11  C   UNL A   1      39.496  27.834  29.016  1.00  0.00     0.075 C 
ATOM     12  C   UNL A   1      43.320  28.830  28.513  1.00  0.00     0.008 C 
ATOM     13  C   UNL A   1      41.872  28.474  28.187  1.00  0.00    -0.003 C 
ATOM     14  C   UNL A   1      41.792  27.257  27.184  1.00  0.00    -0.011 C 
ATOM     15  C   UNL A   1      40.880  28.405  29.470  1.00  0.00     0.036 C 
ATOM     16  C   UNL A   1      42.454  27.532  25.817  1.00  0.00     0.008 C 
ATOM     17  C   UNL A   1      40.363  26.822  26.855  1.00  0.00     0.005 C 
ATOM     18  C   UNL A   1      40.453  29.694  30.348  1.00  0.00    -0.063 C 
ATOM     19  C   UNL A   1      39.562  26.593  28.110  1.00  0.00     0.020 C 
ATOM     20  C   UNL A   1      38.694  27.387  30.257  1.00  0.00     0.020 C 
ATOM     21  C   UNL A   1      39.480  29.471  31.585  1.00  0.00    -0.006 C 
ATOM     22  C   UNL A   1      40.665  30.956  29.917  1.00  0.00    -0.027 C 
ATOM     23  C   UNL A   1      38.316  28.526  31.185  1.00  0.00     0.013 C 
ATOM     24  C   UNL A   1      40.305  28.754  32.679  1.00  0.00     0.017 C 
ATOM     25  C   UNL A   1      38.830  30.882  32.191  1.00  0.00    -0.020 C 
ATOM     26  C   UNL A   1      39.795  32.142  30.298  1.00  0.00     0.032 C 
ATOM     27  C   UNL A   1      38.443  31.753  30.948  1.00  0.00     0.006 C 
ATOM     28  C   UNL A   1      37.576  30.683  33.084  1.00  0.00     0.008 C 
ATOM     29  C   UNL A   1      39.876  31.606  33.093  1.00  0.00     0.012 C 
ATOM     30  C   UNL A   1      37.363  32.953  31.102  1.00  0.00    -0.025 C 
ATOM     31  C   UNL A   1      36.850  32.002  33.429  1.00  0.00     0.005 C 
ATOM     32  C   UNL A   1      38.103  34.285  31.332  1.00  0.00     0.012 C 
ATOM     33  C   UNL A   1      36.556  33.114  29.770  1.00  0.00     0.010 C 
ATOM     34  C   UNL A   1      36.248  32.606  32.156  1.00  0.00     0.003 C 
ATOM     35  C   UNL A   1      35.392  34.113  29.798  1.00  0.00     0.033 C 
ATOM     36  C   UNL A   1      35.116  33.703  32.348  1.00  0.00    -0.006 C 
ATOM     37  C   UNL A   1      34.423  33.904  30.963  1.00  0.00     0.120 C 
ATOM     38  C   UNL A   1      35.597  35.047  32.939  1.00  0.00     0.014 C 
ATOM     39  C   UNL A   1      34.025  33.198  33.330  1.00  0.00     0.014 C 
BRANCH  37  40
ATOM     40  O   UNL A   1      33.482  34.980  30.994  1.00  0.00    -0.393 OA
ATOM     41  H   UNL A   1      33.916  35.778  31.336  1.00  0.00     0.210 HD
ENDBRANCH  37  40
ENDBRANCH   9  11
ENDBRANCH   8   9
ENDBRANCH   7   8
ENDBRANCH   6   7
ENDBRANCH   5   6
ENDBRANCH   4   5
ENDBRANCH   3   4
ENDBRANCH   2   3
ENDBRANCH   1   2
BRANCH   1  42
ATOM     42  C   UNL A   1      34.324  24.033  25.097  1.00  0.00     0.188 C 
BRANCH  42  43
ATOM     43  O   UNL A   1      35.686  23.940  25.463  1.00  0.00    -0.376 OA
BRANCH  43  44
ATOM     44  C   UNL A   1      36.528  23.028  24.785  1.00  0.00     0.202 C 
BRANCH  44  45
ATOM     45  C   UNL A   1      37.346  22.027  25.616  1.00  0.00     0.261 C 
BRANCH  45  46
ATOM     46  O   UNL A   1      38.736  22.327  25.802  1.00  0.00    -0.460 OA
BRANCH  46  47
ATOM     47  C   UNL A   1      39.576  21.325  26.143  1.00  0.00     0.338 C 
ATOM     48  O   UNL A   1      39.519  20.160  25.782  1.00  0.00    -0.246 OA
BRANCH  47  49
ATOM     49  C   UNL A   1      40.749  21.954  26.803  1.00  0.00     0.060 A 
ATOM     50  C   UNL A   1      40.568  23.191  27.450  1.00  0.00     0.016 A 
ATOM     51  C   UNL A   1      41.949  21.248  26.963  1.00  0.00     0.016 A 
ATOM     52  C   UNL A   1      41.584  23.726  28.241  1.00  0.00     0.010 A 
ATOM     53  C   UNL A   1      42.993  21.818  27.693  1.00  0.00     0.010 A 
ATOM     54  C   UNL A   1      42.828  23.080  28.291  1.00  0.00    -0.014 A 
BRANCH  54  55
ATOM     55  C   UNL A   1      44.027  23.912  28.546  1.00  0.00     0.031 A 
ATOM     56  C   UNL A   1      44.386  24.102  29.999  1.00  0.00     0.074 A 
ATOM     57  C   UNL A   1      44.771  24.461  27.573  1.00  0.00     0.049 A 
ATOM     58  N   UNL A   1      45.347  24.801  30.539  1.00  0.00    -0.248 NA
ATOM     59  C   UNL A   1      43.537  23.395  30.978  1.00  0.00     0.031 C 
ATOM     60  C   UNL A   1      44.557  24.306  26.136  1.00  0.00     0.029 A 
ATOM     61  N   UNL A   1      45.869  25.281  27.664  1.00  0.00    -0.354 N 
ATOM     62  C   UNL A   1      45.219  24.605  31.910  1.00  0.00     0.074 A 
ATOM     63  C   UNL A   1      44.082  23.745  32.126  1.00  0.00     0.031 C 
ATOM     64  C   UNL A   1      45.486  25.026  25.478  1.00  0.00     0.029 A 
ATOM     65  C   UNL A   1      46.338  25.715  26.447  1.00  0.00     0.049 A 
ATOM     66  H   UNL A   1      46.283  25.532  28.521  1.00  0.00     0.167 HD
ATOM     67  C   UNL A   1      45.979  25.099  32.910  1.00  0.00     0.037 A 
ATOM     68  C   UNL A   1      47.325  26.591  26.168  1.00  0.00     0.037 A 
ATOM     69  C   UNL A   1      47.078  25.992  32.701  1.00  0.00     0.049 A 
ATOM     70  C   UNL A   1      48.095  27.217  27.307  1.00  0.00     0.074 A 
ATOM     71  C   UNL A   1      47.902  26.580  33.640  1.00  0.00     0.029 A 
ATOM     72  N   UNL A   1      47.492  26.439  31.456  1.00  0.00    -0.354 N 
ATOM     73  N   UNL A   1      47.980  27.013  28.599  1.00  0.00    -0.248 NA
ATOM     74  C   UNL A   1      49.130  28.199  26.949  1.00  0.00     0.031 C 
ATOM     75  C   UNL A   1      48.788  27.423  32.965  1.00  0.00     0.029 A 
ATOM     76  C   UNL A   1      48.550  27.315  31.603  1.00  0.00     0.049 A 
ATOM     77  H   UNL A   1      47.092  26.174  30.596  1.00  0.00     0.167 HD
ATOM     78  C   UNL A   1      48.946  27.811  29.202  1.00  0.00     0.074 A 
ATOM     79  C   UNL A   1      49.644  28.497  28.134  1.00  0.00     0.031 C 
ATOM     80  C   UNL A   1      49.235  27.968  30.518  1.00  0.00     0.037 A 
BRANCH  67  81
ATOM     81  C   UNL A   1      45.599  24.714  34.306  1.00  0.00     0.057 A 
ATOM     82  C   UNL A   1      46.183  23.616  34.953  1.00  0.00     0.134 A 
ATOM     83  C   UNL A   1      44.623  25.434  35.002  1.00  0.00     0.134 A 
ATOM     84  F   UNL A   1      47.096  22.862  34.324  1.00  0.00    -0.206 F 
ATOM     85  C   UNL A   1      45.796  23.241  36.240  1.00  0.00     0.040 A 
ATOM     86  C   UNL A   1      44.246  25.084  36.299  1.00  0.00     0.040 A 
ATOM     87  F   UNL A   1      44.013  26.483  34.430  1.00  0.00    -0.206 F 
ATOM     88  C   UNL A   1      44.830  23.982  36.919  1.00  0.00     0.006 A 
ENDBRANCH  67  81
BRANCH  68  89
ATOM     89  C   UNL A   1      47.634  26.963  24.762  1.00  0.00     0.057 A 
ATOM     90  C   UNL A   1      48.771  26.467  24.110  1.00  0.00     0.134 A 
ATOM     91  C   UNL A   1      46.832  27.865  24.053  1.00  0.00     0.134 A 
ATOM     92  F   UNL A   1      49.597  25.623  24.743  1.00  0.00    -0.206 F 
ATOM     93  C   UNL A   1      49.110  26.873  22.817  1.00  0.00     0.040 A 
ATOM     94  C   UNL A   1      47.145  28.260  22.750  1.00  0.00     0.040 A 
ATOM     95  F   UNL A   1      45.732  28.384  24.620  1.00  0.00    -0.206 F 
ATOM     96  C   UNL A   1      48.293  27.770  22.132  1.00  0.00     0.006 A 
ENDBRANCH  68  89
BRANCH  80  97
ATOM     97  C   UNL A   1      50.377  28.871  30.875  1.00  0.00     0.057 A 
ATOM     98  C   UNL A   1      50.187  30.226  31.172  1.00  0.00     0.134 A 
ATOM     99  C   UNL A   1      51.675  28.357  30.990  1.00  0.00     0.134 A 
ATOM    100  F   UNL A   1      48.968  30.779  31.074  1.00  0.00    -0.206 F 
ATOM    101  C   UNL A   1      51.252  31.043  31.551  1.00  0.00     0.040 A 
ATOM    102  C   UNL A   1      52.743  29.157  31.395  1.00  0.00     0.040 A 
ATOM    103  F   UNL A   1      51.921  27.063  30.736  1.00  0.00    -0.206 F 
ATOM    104  C   UNL A   1      52.533  30.506  31.671  1.00  0.00     0.006 A 
ENDBRANCH  80  97
ENDBRANCH  54  55
ENDBRANCH  47  49
ENDBRANCH  46  47
ENDBRANCH  45  46
ENDBRANCH  44  45
ENDBRANCH  43  44
ENDBRANCH  42  43
ENDBRANCH   1  42
TORSDOF 21
ENDMDL
MODEL 2
REMARK VINA RESULT:     -10.3      4.586     11.655
REMARK SMILES C[C@H]1[C@H](C)CC[C@@]2(C(=O)OCCOCCOCCOCCOC(=O)c3ccc(-c4c5nc(c(-c6c(F)cccc6F)c6ccc([nH]6)c(-c6c(F)cccc6F)c6nc(c(-c7c(F)cccc7F)c7ccc4[nH]7)C=C6)C=C5)cc3)CC[C@@]3(C)C(=CC[C@@H]4[C@@]5(C)CC[C@H](O)C(C)(C)[C@@H]5CC[C@]43C)[C@H]12
REMARK SMILES IDX 17 1 16 2 15 3 14 4 13 5 12 6 11 7 10 8 8 9 9 10 7 11 1 12
REMARK SMILES IDX 2 13 3 14 101 15 4 16 5 17 83 18 6 19 79 20 81 21 84 22
REMARK SMILES IDX 80 23 82 24 99 25 85 26 86 27 98 28 100 29 87 30 97 31 88 32
REMARK SMILES IDX 89 33 96 34 90 35 93 36 91 37 94 38 95 39 92 40 18 42 19 43
REMARK SMILES IDX 20 44 21 45 22 46 23 47 24 48 25 49 26 50 78 51 27 52 77 53
REMARK SMILES IDX 28 54 29 55 30 56 71 57 31 58 76 59 70 60 72 61 32 62 75 63
REMARK SMILES IDX 69 64 68 65 33 67 59 68 42 69 58 70 43 71 46 72 57 73 73 74
REMARK SMILES IDX 44 75 45 76 56 78 74 79 47 80 34 81 35 82 40 83 36 84 37 85
REMARK SMILES IDX 39 86 41 87 38 88 60 89 61 90 66 91 62 92 63 93 65 94 67 95
REMARK SMILES IDX 64 96 48 97 49 98 54 99 50 100 51 101 53 102 55 103 52 104
REMARK H PARENT 92 41 72 66 46 77
REMARK Flexibility Score: inf
ROOT
ATOM      1  C   UNL A   1      33.978  26.048  25.586  1.00  0.00     0.188 C 
ENDROOT
BRANCH   1   2
ATOM      2  O   UNL A   1      34.779  25.193  24.801  1.00  0.00    -0.377 OA
BRANCH   2   3
ATOM      3  C   UNL A   1      35.293  24.004  25.352  1.00  0.00     0.188 C 
BRANCH   3   4
ATOM      4  C   UNL A   1      36.825  23.849  25.382  1.00  0.00     0.188 C 
BRANCH   4   5
ATOM      5  O   UNL A   1      37.471  24.231  26.584  1.00  0.00    -0.376 OA
BRANCH   5   6
ATOM      6  C   UNL A   1      38.869  24.089  26.632  1.00  0.00     0.202 C 
BRANCH   6   7
ATOM      7  C   UNL A   1      39.783  25.294  26.467  1.00  0.00     0.261 C 
BRANCH   7   8
ATOM      8  O   UNL A   1      39.631  26.532  27.252  1.00  0.00    -0.463 OA
BRANCH   8   9
ATOM      9  C   UNL A   1      39.710  27.234  28.401  1.00  0.00     0.312 C 
ATOM     10  O   UNL A   1      39.687  26.831  29.555  1.00  0.00    -0.252 OA
BRANCH   9  11
ATOM     11  C   UNL A   1      39.940  28.728  28.085  1.00  0.00     0.075 C 
ATOM     12  C   UNL A   1      41.341  30.216  31.505  1.00  0.00     0.008 C 
ATOM     13  C   UNL A   1      40.429  29.489  30.519  1.00  0.00    -0.003 C 
ATOM     14  C   UNL A   1      38.953  30.045  30.586  1.00  0.00    -0.011 C 
ATOM     15  C   UNL A   1      41.050  29.294  29.032  1.00  0.00     0.036 C 
ATOM     16  C   UNL A   1      38.281  29.861  31.963  1.00  0.00     0.008 C 
ATOM     17  C   UNL A   1      38.001  29.387  29.585  1.00  0.00     0.005 C 
ATOM     18  C   UNL A   1      42.310  28.338  28.701  1.00  0.00    -0.063 C 
ATOM     19  C   UNL A   1      38.570  29.419  28.191  1.00  0.00     0.020 C 
ATOM     20  C   UNL A   1      40.375  28.916  26.616  1.00  0.00     0.020 C 
ATOM     21  C   UNL A   1      42.815  28.254  27.195  1.00  0.00    -0.006 C 
ATOM     22  C   UNL A   1      42.765  27.420  29.581  1.00  0.00    -0.027 C 
ATOM     23  C   UNL A   1      41.605  28.113  26.234  1.00  0.00     0.013 C 
ATOM     24  C   UNL A   1      43.504  29.602  26.879  1.00  0.00     0.017 C 
ATOM     25  C   UNL A   1      43.866  26.993  26.908  1.00  0.00    -0.020 C 
ATOM     26  C   UNL A   1      43.447  26.123  29.182  1.00  0.00     0.032 C 
ATOM     27  C   UNL A   1      43.291  25.759  27.684  1.00  0.00     0.006 C 
ATOM     28  C   UNL A   1      44.033  26.619  25.410  1.00  0.00     0.008 C 
ATOM     29  C   UNL A   1      45.295  27.366  27.408  1.00  0.00     0.012 C 
ATOM     30  C   UNL A   1      43.742  24.257  27.272  1.00  0.00    -0.025 C 
ATOM     31  C   UNL A   1      44.810  25.303  25.186  1.00  0.00     0.005 C 
ATOM     32  C   UNL A   1      44.906  23.804  28.173  1.00  0.00     0.012 C 
ATOM     33  C   UNL A   1      42.563  23.261  27.529  1.00  0.00     0.010 C 
ATOM     34  C   UNL A   1      43.991  24.125  25.724  1.00  0.00     0.003 C 
ATOM     35  C   UNL A   1      42.778  21.818  27.053  1.00  0.00     0.033 C 
ATOM     36  C   UNL A   1      44.397  22.677  25.213  1.00  0.00    -0.006 C 
ATOM     37  C   UNL A   1      43.236  21.706  25.599  1.00  0.00     0.120 C 
ATOM     38  C   UNL A   1      45.760  22.158  25.722  1.00  0.00     0.014 C 
ATOM     39  C   UNL A   1      44.510  22.655  23.665  1.00  0.00     0.014 C 
BRANCH  37  40
ATOM     40  O   UNL A   1      43.569  20.345  25.311  1.00  0.00    -0.393 OA
ATOM     41  H   UNL A   1      44.111  20.308  24.507  1.00  0.00     0.210 HD
ENDBRANCH  37  40
ENDBRANCH   9  11
ENDBRANCH   8   9
ENDBRANCH   7   8
ENDBRANCH   6   7
ENDBRANCH   5   6
ENDBRANCH   4   5
ENDBRANCH   3   4
ENDBRANCH   2   3
ENDBRANCH   1   2
BRANCH   1  42
ATOM     42  C   UNL A   1      33.594  27.473  25.135  1.00  0.00     0.188 C 
BRANCH  42  43
ATOM     43  O   UNL A   1      33.616  28.457  26.149  1.00  0.00    -0.376 OA
BRANCH  43  44
ATOM     44  C   UNL A   1      33.006  29.711  25.915  1.00  0.00     0.202 C 
BRANCH  44  45
ATOM     45  C   UNL A   1      32.837  30.676  27.099  1.00  0.00     0.261 C 
BRANCH  45  46
ATOM     46  O   UNL A   1      33.920  31.582  27.352  1.00  0.00    -0.460 OA
BRANCH  46  47
ATOM     47  C   UNL A   1      33.646  32.785  27.902  1.00  0.00     0.338 C 
ATOM     48  O   UNL A   1      32.662  33.480  27.702  1.00  0.00    -0.246 OA
BRANCH  47  49
ATOM     49  C   UNL A   1      34.614  32.980  29.012  1.00  0.00     0.060 A 
ATOM     50  C   UNL A   1      34.823  34.286  29.495  1.00  0.00     0.016 A 
ATOM     51  C   UNL A   1      35.147  31.883  29.702  1.00  0.00     0.016 A 
ATOM     52  C   UNL A   1      35.572  34.495  30.652  1.00  0.00     0.010 A 
ATOM     53  C   UNL A   1      35.959  32.098  30.818  1.00  0.00     0.010 A 
ATOM     54  C   UNL A   1      36.211  33.407  31.264  1.00  0.00    -0.014 A 
BRANCH  54  55
ATOM     55  C   UNL A   1      37.456  33.677  32.021  1.00  0.00     0.031 A 
ATOM     56  C   UNL A   1      38.678  33.949  31.181  1.00  0.00     0.074 A 
ATOM     57  C   UNL A   1      37.520  33.697  33.362  1.00  0.00     0.049 A 
ATOM     58  N   UNL A   1      39.911  34.180  31.546  1.00  0.00    -0.248 NA
ATOM     59  C   UNL A   1      38.474  33.969  29.720  1.00  0.00     0.031 C 
ATOM     60  C   UNL A   1      36.400  33.503  34.280  1.00  0.00     0.029 A 
ATOM     61  N   UNL A   1      38.602  33.888  34.186  1.00  0.00    -0.354 N 
ATOM     62  C   UNL A   1      40.613  34.379  30.363  1.00  0.00     0.074 A 
ATOM     63  C   UNL A   1      39.687  34.224  29.270  1.00  0.00     0.031 C 
ATOM     64  C   UNL A   1      36.858  33.565  35.545  1.00  0.00     0.029 A 
ATOM     65  C   UNL A   1      38.306  33.773  35.523  1.00  0.00     0.049 A 
ATOM     66  H   UNL A   1      39.505  34.090  33.851  1.00  0.00     0.167 HD
ATOM     67  C   UNL A   1      41.922  34.666  30.194  1.00  0.00     0.037 A 
ATOM     68  C   UNL A   1      39.128  33.807  36.592  1.00  0.00     0.037 A 
ATOM     69  C   UNL A   1      42.854  34.772  31.275  1.00  0.00     0.049 A 
ATOM     70  C   UNL A   1      40.607  34.021  36.375  1.00  0.00     0.074 A 
ATOM     71  C   UNL A   1      44.210  35.029  31.222  1.00  0.00     0.029 A 
ATOM     72  N   UNL A   1      42.521  34.606  32.610  1.00  0.00    -0.354 N 
ATOM     73  N   UNL A   1      41.261  34.226  35.256  1.00  0.00    -0.248 NA
ATOM     74  C   UNL A   1      41.464  34.003  37.571  1.00  0.00     0.031 C 
ATOM     75  C   UNL A   1      44.708  34.973  32.526  1.00  0.00     0.029 A 
ATOM     76  C   UNL A   1      43.652  34.735  33.393  1.00  0.00     0.049 A 
ATOM     77  H   UNL A   1      41.615  34.423  32.950  1.00  0.00     0.167 HD
ATOM     78  C   UNL A   1      42.594  34.396  35.615  1.00  0.00     0.074 A 
ATOM     79  C   UNL A   1      42.655  34.277  37.056  1.00  0.00     0.031 C 
ATOM     80  C   UNL A   1      43.675  34.629  34.828  1.00  0.00     0.037 A 
BRANCH  67  81
ATOM     81  C   UNL A   1      42.406  34.827  28.786  1.00  0.00     0.057 A 
ATOM     82  C   UNL A   1      42.176  36.002  28.058  1.00  0.00     0.134 A 
ATOM     83  C   UNL A   1      43.088  33.788  28.145  1.00  0.00     0.134 A 
ATOM     84  F   UNL A   1      41.493  37.019  28.604  1.00  0.00    -0.206 F 
ATOM     85  C   UNL A   1      42.597  36.130  26.734  1.00  0.00     0.040 A 
ATOM     86  C   UNL A   1      43.536  33.915  26.830  1.00  0.00     0.040 A 
ATOM     87  F   UNL A   1      43.321  32.631  28.782  1.00  0.00    -0.206 F 
ATOM     88  C   UNL A   1      43.287  35.087  26.119  1.00  0.00     0.006 A 
ENDBRANCH  67  81
BRANCH  68  89
ATOM     89  C   UNL A   1      38.594  33.604  37.966  1.00  0.00     0.057 A 
ATOM     90  C   UNL A   1      38.048  32.375  38.362  1.00  0.00     0.134 A 
ATOM     91  C   UNL A   1      38.565  34.647  38.899  1.00  0.00     0.134 A 
ATOM     92  F   UNL A   1      38.018  31.344  37.505  1.00  0.00    -0.206 F 
ATOM     93  C   UNL A   1      37.474  32.200  39.623  1.00  0.00     0.040 A 
ATOM     94  C   UNL A   1      38.018  34.479  40.173  1.00  0.00     0.040 A 
ATOM     95  F   UNL A   1      39.064  35.851  38.583  1.00  0.00    -0.206 F 
ATOM     96  C   UNL A   1      37.461  33.254  40.534  1.00  0.00     0.006 A 
ENDBRANCH  68  89
BRANCH  80  97
ATOM     97  C   UNL A   1      44.999  34.819  35.507  1.00  0.00     0.057 A 
ATOM     98  C   UNL A   1      45.881  33.755  35.723  1.00  0.00     0.134 A 
ATOM     99  C   UNL A   1      45.421  36.101  35.884  1.00  0.00     0.134 A 
ATOM    100  F   UNL A   1      45.532  32.503  35.389  1.00  0.00    -0.206 F 
ATOM    101  C   UNL A   1      47.130  33.955  36.311  1.00  0.00     0.040 A 
ATOM    102  C   UNL A   1      46.679  36.318  36.446  1.00  0.00     0.040 A 
ATOM    103  F   UNL A   1      44.628  37.165  35.687  1.00  0.00    -0.206 F 
ATOM    104  C   UNL A   1      47.535  35.242  36.666  1.00  0.00     0.006 A 
ENDBRANCH  80  97
ENDBRANCH  54  55
ENDBRANCH  47  49
ENDBRANCH  46  47
ENDBRANCH  45  46
ENDBRANCH  44  45
ENDBRANCH  43  44
ENDBRANCH  42  43
ENDBRANCH   1  42
TORSDOF 21
ENDMDL
MODEL 3
REMARK VINA RESULT:      -9.8      4.077      8.203
REMARK SMILES C[C@H]1[C@H](C)CC[C@@]2(C(=O)OCCOCCOCCOCCOC(=O)c3ccc(-c4c5nc(c(-c6c(F)cccc6F)c6ccc([nH]6)c(-c6c(F)cccc6F)c6nc(c(-c7c(F)cccc7F)c7ccc4[nH]7)C=C6)C=C5)cc3)CC[C@@]3(C)C(=CC[C@@H]4[C@@]5(C)CC[C@H](O)C(C)(C)[C@@H]5CC[C@]43C)[C@H]12
REMARK SMILES IDX 17 1 16 2 15 3 14 4 13 5 12 6 11 7 10 8 8 9 9 10 7 11 1 12
REMARK SMILES IDX 2 13 3 14 101 15 4 16 5 17 83 18 6 19 79 20 81 21 84 22
REMARK SMILES IDX 80 23 82 24 99 25 85 26 86 27 98 28 100 29 87 30 97 31 88 32
REMARK SMILES IDX 89 33 96 34 90 35 93 36 91 37 94 38 95 39 92 40 18 42 19 43
REMARK SMILES IDX 20 44 21 45 22 46 23 47 24 48 25 49 26 50 78 51 27 52 77 53
REMARK SMILES IDX 28 54 29 55 30 56 71 57 31 58 76 59 70 60 72 61 32 62 75 63
REMARK SMILES IDX 69 64 68 65 33 67 59 68 42 69 58 70 43 71 46 72 57 73 73 74
REMARK SMILES IDX 44 75 45 76 56 78 74 79 47 80 34 81 35 82 40 83 36 84 37 85
REMARK SMILES IDX 39 86 41 87 38 88 60 89 61 90 66 91 62 92 63 93 65 94 67 95
REMARK SMILES IDX 64 96 48 97 49 98 54 99 50 100 51 101 53 102 55 103 52 104
REMARK H PARENT 92 41 72 66 46 77
REMARK Flexibility Score: inf
ROOT
ATOM      1  C   UNL A   1      32.586  36.464  29.607  1.00  0.00     0.188 C 
ENDROOT
BRANCH   1   2
ATOM      2  O   UNL A   1      32.835  37.204  30.781  1.00  0.00    -0.377 OA
BRANCH   2   3
ATOM      3  C   UNL A   1      32.965  36.544  32.018  1.00  0.00     0.188 C 
BRANCH   3   4
ATOM      4  C   UNL A   1      34.176  36.919  32.891  1.00  0.00     0.188 C 
BRANCH   4   5
ATOM      5  O   UNL A   1      34.426  36.087  34.010  1.00  0.00    -0.376 OA
BRANCH   5   6
ATOM      6  C   UNL A   1      34.995  34.827  33.757  1.00  0.00     0.202 C 
BRANCH   6   7
ATOM      7  C   UNL A   1      35.843  34.127  34.808  1.00  0.00     0.261 C 
BRANCH   7   8
ATOM      8  O   UNL A   1      37.313  34.051  34.734  1.00  0.00    -0.463 OA
BRANCH   8   9
ATOM      9  C   UNL A   1      38.491  34.289  34.122  1.00  0.00     0.312 C 
ATOM     10  O   UNL A   1      39.132  35.328  34.058  1.00  0.00    -0.252 OA
BRANCH   9  11
ATOM     11  C   UNL A   1      39.046  32.976  33.528  1.00  0.00     0.075 C 
ATOM     12  C   UNL A   1      41.659  34.205  30.783  1.00  0.00     0.008 C 
ATOM     13  C   UNL A   1      40.353  34.052  31.559  1.00  0.00    -0.003 C 
ATOM     14  C   UNL A   1      39.167  33.625  30.608  1.00  0.00    -0.011 C 
ATOM     15  C   UNL A   1      40.478  33.230  32.953  1.00  0.00     0.036 C 
ATOM     16  C   UNL A   1      38.857  34.654  29.500  1.00  0.00     0.008 C 
ATOM     17  C   UNL A   1      37.839  33.410  31.336  1.00  0.00     0.005 C 
ATOM     18  C   UNL A   1      41.282  33.770  34.248  1.00  0.00    -0.063 C 
ATOM     19  C   UNL A   1      38.007  32.478  32.508  1.00  0.00     0.020 C 
ATOM     20  C   UNL A   1      39.114  31.873  34.607  1.00  0.00     0.020 C 
ATOM     21  C   UNL A   1      41.328  32.848  35.542  1.00  0.00    -0.006 C 
ATOM     22  C   UNL A   1      41.671  35.058  34.363  1.00  0.00    -0.027 C 
ATOM     23  C   UNL A   1      39.919  32.264  35.831  1.00  0.00     0.013 C 
ATOM     24  C   UNL A   1      42.263  31.662  35.213  1.00  0.00     0.017 C 
ATOM     25  C   UNL A   1      41.862  33.637  36.910  1.00  0.00    -0.020 C 
ATOM     26  C   UNL A   1      41.827  35.784  35.689  1.00  0.00     0.032 C 
ATOM     27  C   UNL A   1      41.185  35.049  36.893  1.00  0.00     0.006 C 
ATOM     28  C   UNL A   1      41.517  32.922  38.245  1.00  0.00     0.008 C 
ATOM     29  C   UNL A   1      43.418  33.749  36.886  1.00  0.00     0.012 C 
ATOM     30  C   UNL A   1      41.066  35.910  38.262  1.00  0.00    -0.025 C 
ATOM     31  C   UNL A   1      41.800  33.783  39.495  1.00  0.00     0.005 C 
ATOM     32  C   UNL A   1      42.248  36.894  38.356  1.00  0.00     0.012 C 
ATOM     33  C   UNL A   1      39.763  36.776  38.231  1.00  0.00     0.010 C 
ATOM     34  C   UNL A   1      40.851  34.986  39.517  1.00  0.00     0.003 C 
ATOM     35  C   UNL A   1      39.426  37.541  39.518  1.00  0.00     0.033 C 
ATOM     36  C   UNL A   1      40.680  35.739  40.905  1.00  0.00    -0.006 C 
ATOM     37  C   UNL A   1      39.434  36.673  40.776  1.00  0.00     0.120 C 
ATOM     38  C   UNL A   1      41.922  36.518  41.389  1.00  0.00     0.014 C 
ATOM     39  C   UNL A   1      40.370  34.727  42.042  1.00  0.00     0.014 C 
BRANCH  37  40
ATOM     40  O   UNL A   1      39.278  37.506  41.928  1.00  0.00    -0.393 OA
ATOM     41  H   UNL A   1      39.971  37.296  42.574  1.00  0.00     0.210 HD
ENDBRANCH  37  40
ENDBRANCH   9  11
ENDBRANCH   8   9
ENDBRANCH   7   8
ENDBRANCH   6   7
ENDBRANCH   5   6
ENDBRANCH   4   5
ENDBRANCH   3   4
ENDBRANCH   2   3
ENDBRANCH   1   2
BRANCH   1  42
ATOM     42  C   UNL A   1      33.701  35.724  28.839  1.00  0.00     0.188 C 
BRANCH  42  43
ATOM     43  O   UNL A   1      33.986  34.417  29.294  1.00  0.00    -0.376 OA
BRANCH  43  44
ATOM     44  C   UNL A   1      35.204  33.801  28.924  1.00  0.00     0.202 C 
BRANCH  44  45
ATOM     45  C   UNL A   1      35.155  32.581  27.991  1.00  0.00     0.261 C 
BRANCH  45  46
ATOM     46  O   UNL A   1      35.052  31.294  28.615  1.00  0.00    -0.460 OA
BRANCH  46  47
ATOM     47  C   UNL A   1      35.701  31.083  29.781  1.00  0.00     0.338 C 
ATOM     48  O   UNL A   1      35.297  31.333  30.905  1.00  0.00    -0.246 OA
BRANCH  47  49
ATOM     49  C   UNL A   1      36.875  30.228  29.469  1.00  0.00     0.060 A 
ATOM     50  C   UNL A   1      37.420  29.440  30.500  1.00  0.00     0.016 A 
ATOM     51  C   UNL A   1      37.300  30.045  28.146  1.00  0.00     0.016 A 
ATOM     52  C   UNL A   1      38.395  28.485  30.214  1.00  0.00     0.010 A 
ATOM     53  C   UNL A   1      38.329  29.141  27.871  1.00  0.00     0.010 A 
ATOM     54  C   UNL A   1      38.910  28.397  28.912  1.00  0.00    -0.014 A 
BRANCH  54  55
ATOM     55  C   UNL A   1      40.301  27.911  28.753  1.00  0.00     0.031 A 
ATOM     56  C   UNL A   1      41.377  28.943  28.979  1.00  0.00     0.074 A 
ATOM     57  C   UNL A   1      40.613  26.642  28.444  1.00  0.00     0.049 A 
ATOM     58  N   UNL A   1      42.674  28.837  28.877  1.00  0.00    -0.248 NA
ATOM     59  C   UNL A   1      40.917  30.287  29.381  1.00  0.00     0.031 C 
ATOM     60  C   UNL A   1      39.668  25.545  28.255  1.00  0.00     0.029 A 
ATOM     61  N   UNL A   1      41.843  26.070  28.225  1.00  0.00    -0.354 N 
ATOM     62  C   UNL A   1      43.174  30.089  29.213  1.00  0.00     0.074 A 
ATOM     63  C   UNL A   1      42.052  30.948  29.500  1.00  0.00     0.031 C 
ATOM     64  C   UNL A   1      40.353  24.432  27.928  1.00  0.00     0.029 A 
ATOM     65  C   UNL A   1      41.780  24.748  27.855  1.00  0.00     0.049 A 
ATOM     66  H   UNL A   1      42.690  26.560  28.325  1.00  0.00     0.167 HD
ATOM     67  C   UNL A   1      44.459  30.499  29.277  1.00  0.00     0.037 A 
ATOM     68  C   UNL A   1      42.768  23.912  27.479  1.00  0.00     0.037 A 
ATOM     69  C   UNL A   1      45.572  29.663  28.945  1.00  0.00     0.049 A 
ATOM     70  C   UNL A   1      44.190  24.420  27.453  1.00  0.00     0.074 A 
ATOM     71  C   UNL A   1      46.917  29.978  28.945  1.00  0.00     0.029 A 
ATOM     72  N   UNL A   1      45.461  28.344  28.535  1.00  0.00    -0.354 N 
ATOM     73  N   UNL A   1      44.657  25.600  27.788  1.00  0.00    -0.248 NA
ATOM     74  C   UNL A   1      45.224  23.481  26.990  1.00  0.00     0.031 C 
ATOM     75  C   UNL A   1      47.619  28.859  28.488  1.00  0.00     0.029 A 
ATOM     76  C   UNL A   1      46.714  27.834  28.258  1.00  0.00     0.049 A 
ATOM     77  H   UNL A   1      44.616  27.845  28.453  1.00  0.00     0.167 HD
ATOM     78  C   UNL A   1      46.035  25.533  27.611  1.00  0.00     0.074 A 
ATOM     79  C   UNL A   1      46.330  24.195  27.146  1.00  0.00     0.031 C 
ATOM     80  C   UNL A   1      46.976  26.489  27.813  1.00  0.00     0.037 A 
BRANCH  67  81
ATOM     81  C   UNL A   1      44.699  31.923  29.671  1.00  0.00     0.057 A 
ATOM     82  C   UNL A   1      44.692  32.960  28.729  1.00  0.00     0.134 A 
ATOM     83  C   UNL A   1      44.963  32.258  31.004  1.00  0.00     0.134 A 
ATOM     84  F   UNL A   1      44.485  32.698  27.430  1.00  0.00    -0.206 F 
ATOM     85  C   UNL A   1      44.955  34.280  29.099  1.00  0.00     0.040 A 
ATOM     86  C   UNL A   1      45.201  33.577  31.389  1.00  0.00     0.040 A 
ATOM     87  F   UNL A   1      45.003  31.307  31.950  1.00  0.00    -0.206 F 
ATOM     88  C   UNL A   1      45.202  34.592  30.435  1.00  0.00     0.006 A 
ENDBRANCH  67  81
BRANCH  68  89
ATOM     89  C   UNL A   1      42.464  22.516  27.062  1.00  0.00     0.057 A 
ATOM     90  C   UNL A   1      42.113  21.536  28.000  1.00  0.00     0.134 A 
ATOM     91  C   UNL A   1      42.570  22.114  25.726  1.00  0.00     0.134 A 
ATOM     92  F   UNL A   1      42.024  21.848  29.301  1.00  0.00    -0.206 F 
ATOM     93  C   UNL A   1      41.903  20.206  27.628  1.00  0.00     0.040 A 
ATOM     94  C   UNL A   1      42.337  20.794  25.335  1.00  0.00     0.040 A 
ATOM     95  F   UNL A   1      42.909  23.000  24.777  1.00  0.00    -0.206 F 
ATOM     96  C   UNL A   1      42.012  19.833  26.290  1.00  0.00     0.006 A 
ENDBRANCH  68  89
BRANCH  80  97
ATOM     97  C   UNL A   1      48.409  26.112  27.583  1.00  0.00     0.057 A 
ATOM     98  C   UNL A   1      49.048  26.340  26.359  1.00  0.00     0.134 A 
ATOM     99  C   UNL A   1      49.175  25.578  28.627  1.00  0.00     0.134 A 
ATOM    100  F   UNL A   1      48.366  26.843  25.318  1.00  0.00    -0.206 F 
ATOM    101  C   UNL A   1      50.395  26.029  26.174  1.00  0.00     0.040 A 
ATOM    102  C   UNL A   1      50.530  25.290  28.463  1.00  0.00     0.040 A 
ATOM    103  F   UNL A   1      48.626  25.353  29.830  1.00  0.00    -0.206 F 
ATOM    104  C   UNL A   1      51.142  25.510  27.231  1.00  0.00     0.006 A 
ENDBRANCH  80  97
ENDBRANCH  54  55
ENDBRANCH  47  49
ENDBRANCH  46  47
ENDBRANCH  45  46
ENDBRANCH  44  45
ENDBRANCH  43  44
ENDBRANCH  42  43
ENDBRANCH   1  42
TORSDOF 21
ENDMDL
