MODEL 1
REMARK VINA RESULT:      -9.5      0.000      0.000
REMARK SMILES CS(=O)(=O)c1ccc(-n2nc(C(F)(F)F)cc2-c2ccc(CC(=O)OCCOCCOCCOCCOC(=O)c3ccc(-c4c5nc(c(-c6c(F)cccc6F)c6ccc([nH]6)c(-c6c(F)cccc6F)c6nc(c(-c7c(F)cccc7F)c7ccc4[nH]7)C=C6)C=C5)cc3)cc2)cc1
REMARK SMILES IDX 30 1 29 2 28 3 27 4 26 5 25 6 23 7 24 8 22 9 21 10 18 11
REMARK SMILES IDX 19 12 95 13 20 14 94 15 17 16 9 17 10 18 11 19 16 20 8 21
REMARK SMILES IDX 5 22 6 23 97 24 7 25 96 26 2 27 1 28 3 29 4 30 12 31 13 32
REMARK SMILES IDX 14 33 15 34 31 35 32 36 33 37 34 38 35 39 36 40 37 41 38 42
REMARK SMILES IDX 39 43 40 44 41 45 93 46 42 47 92 48 43 49 44 50 45 51 86 52
REMARK SMILES IDX 46 53 91 54 85 55 87 56 47 57 90 58 84 59 83 60 48 62 74 63
REMARK SMILES IDX 57 64 73 65 58 66 61 67 72 68 88 69 59 70 60 71 71 73 89 74
REMARK SMILES IDX 62 75 49 76 50 77 55 78 51 79 52 80 54 81 56 82 53 83 75 84
REMARK SMILES IDX 76 85 81 86 77 87 78 88 80 89 82 90 79 91 63 92 64 93 69 94
REMARK SMILES IDX 65 95 66 96 68 97 70 98 67 99
REMARK H PARENT 87 61 61 72
REMARK Flexibility Score: inf
ROOT
ATOM      1  C   UNL A   1      43.087  19.859  26.197  1.00  0.00     0.188 C 
ENDROOT
BRANCH   1   2
ATOM      2  C   UNL A   1      41.579  20.140  26.175  1.00  0.00     0.188 C 
BRANCH   2   3
ATOM      3  O   UNL A   1      41.050  21.438  26.387  1.00  0.00    -0.376 OA
BRANCH   3   4
ATOM      4  C   UNL A   1      41.186  22.057  27.648  1.00  0.00     0.202 C 
BRANCH   4   5
ATOM      5  C   UNL A   1      41.996  23.359  27.750  1.00  0.00     0.261 C 
BRANCH   5   6
ATOM      6  O   UNL A   1      41.262  24.601  27.709  1.00  0.00    -0.463 OA
BRANCH   6   7
ATOM      7  C   UNL A   1      40.285  24.677  26.777  1.00  0.00     0.310 C 
ATOM      8  O   UNL A   1      40.477  25.085  25.633  1.00  0.00    -0.252 OA
BRANCH   7   9
ATOM      9  C   UNL A   1      38.893  24.267  27.225  1.00  0.00     0.158 C 
BRANCH   9  10
ATOM     10  C   UNL A   1      37.834  23.630  26.325  1.00  0.00    -0.037 A 
ATOM     11  C   UNL A   1      35.649  22.178  25.117  1.00  0.00     0.000 A 
ATOM     12  C   UNL A   1      35.470  23.471  25.619  1.00  0.00     0.010 A 
ATOM     13  C   UNL A   1      36.953  21.649  25.184  1.00  0.00     0.010 A 
ATOM     14  C   UNL A   1      36.541  24.182  26.215  1.00  0.00     0.005 A 
ATOM     15  C   UNL A   1      38.028  22.363  25.764  1.00  0.00     0.005 A 
BRANCH  11  16
ATOM     16  C   UNL A   1      34.502  21.297  24.763  1.00  0.00     0.075 A 
ATOM     17  N   UNL A   1      33.126  21.586  24.639  1.00  0.00    -0.233 N 
ATOM     18  N   UNL A   1      32.384  20.446  24.570  1.00  0.00    -0.163 NA
ATOM     19  C   UNL A   1      33.256  19.437  24.469  1.00  0.00     0.167 A 
ATOM     20  C   UNL A   1      34.575  19.914  24.632  1.00  0.00     0.064 A 
BRANCH  17  21
ATOM     21  C   UNL A   1      32.418  22.816  24.474  1.00  0.00     0.065 A 
ATOM     22  C   UNL A   1      31.074  25.306  24.131  1.00  0.00     0.067 A 
ATOM     23  C   UNL A   1      31.047  24.593  25.314  1.00  0.00     0.022 A 
ATOM     24  C   UNL A   1      31.899  24.819  23.129  1.00  0.00     0.022 A 
ATOM     25  C   UNL A   1      31.633  23.325  25.485  1.00  0.00     0.030 A 
ATOM     26  C   UNL A   1      32.605  23.610  23.320  1.00  0.00     0.030 A 
BRANCH  22  27
ATOM     27  S   UNL A   1      30.146  26.829  23.881  1.00  0.00     0.175 S 
ATOM     28  C   UNL A   1      30.602  27.639  22.375  1.00  0.00     0.163 C 
ATOM     29  O   UNL A   1      30.590  27.717  24.954  1.00  0.00    -0.224 OA
ATOM     30  O   UNL A   1      28.768  26.461  23.742  1.00  0.00    -0.224 OA
ENDBRANCH  22  27
ENDBRANCH  17  21
BRANCH  19  31
ATOM     31  C   UNL A   1      32.834  18.009  24.233  1.00  0.00     0.435 C 
ATOM     32  F   UNL A   1      32.036  17.849  23.145  1.00  0.00    -0.164 F 
ATOM     33  F   UNL A   1      33.912  17.196  24.052  1.00  0.00    -0.164 F 
ATOM     34  F   UNL A   1      32.149  17.503  25.295  1.00  0.00    -0.164 F 
ENDBRANCH  19  31
ENDBRANCH  11  16
ENDBRANCH   9  10
ENDBRANCH   7   9
ENDBRANCH   6   7
ENDBRANCH   5   6
ENDBRANCH   4   5
ENDBRANCH   3   4
ENDBRANCH   2   3
ENDBRANCH   1   2
BRANCH   1  35
ATOM     35  O   UNL A   1      43.618  18.703  25.581  1.00  0.00    -0.377 OA
BRANCH  35  36
ATOM     36  C   UNL A   1      44.968  18.612  25.156  1.00  0.00     0.188 C 
BRANCH  36  37
ATOM     37  C   UNL A   1      45.633  19.688  24.304  1.00  0.00     0.188 C 
BRANCH  37  38
ATOM     38  O   UNL A   1      46.506  20.546  25.006  1.00  0.00    -0.376 OA
BRANCH  38  39
ATOM     39  C   UNL A   1      45.961  21.810  25.275  1.00  0.00     0.202 C 
BRANCH  39  40
ATOM     40  C   UNL A   1      46.219  22.939  24.281  1.00  0.00     0.261 C 
BRANCH  40  41
ATOM     41  O   UNL A   1      45.819  24.327  24.402  1.00  0.00    -0.460 OA
BRANCH  41  42
ATOM     42  C   UNL A   1      44.649  24.645  25.012  1.00  0.00     0.338 C 
ATOM     43  O   UNL A   1      43.556  24.263  24.624  1.00  0.00    -0.246 OA
BRANCH  42  44
ATOM     44  C   UNL A   1      44.792  25.818  25.953  1.00  0.00     0.060 A 
ATOM     45  C   UNL A   1      45.431  25.513  27.161  1.00  0.00     0.016 A 
ATOM     46  C   UNL A   1      43.924  26.914  25.917  1.00  0.00     0.016 A 
ATOM     47  C   UNL A   1      44.933  26.030  28.359  1.00  0.00     0.010 A 
ATOM     48  C   UNL A   1      43.413  27.421  27.129  1.00  0.00     0.010 A 
ATOM     49  C   UNL A   1      43.834  26.900  28.363  1.00  0.00    -0.014 A 
BRANCH  49  50
ATOM     50  C   UNL A   1      43.450  27.509  29.658  1.00  0.00     0.031 A 
ATOM     51  C   UNL A   1      42.243  28.326  29.453  1.00  0.00     0.074 A 
ATOM     52  C   UNL A   1      43.923  27.363  30.921  1.00  0.00     0.049 A 
ATOM     53  N   UNL A   1      42.147  29.612  29.425  1.00  0.00    -0.248 NA
ATOM     54  C   UNL A   1      41.037  27.605  29.010  1.00  0.00     0.031 C 
ATOM     55  C   UNL A   1      44.881  26.371  31.369  1.00  0.00     0.029 A 
ATOM     56  N   UNL A   1      43.606  28.012  32.103  1.00  0.00    -0.354 N 
ATOM     57  C   UNL A   1      40.794  29.832  29.215  1.00  0.00     0.074 A 
ATOM     58  C   UNL A   1      40.247  28.621  28.673  1.00  0.00     0.031 C 
ATOM     59  C   UNL A   1      44.970  26.356  32.714  1.00  0.00     0.029 A 
ATOM     60  C   UNL A   1      44.114  27.396  33.253  1.00  0.00     0.049 A 
ATOM     61  H   UNL A   1      43.070  28.838  32.130  1.00  0.00     0.167 HD
ATOM     62  C   UNL A   1      40.151  30.789  29.927  1.00  0.00     0.037 A 
ATOM     63  C   UNL A   1      43.852  27.660  34.562  1.00  0.00     0.037 A 
ATOM     64  C   UNL A   1      41.060  31.778  30.442  1.00  0.00     0.049 A 
ATOM     65  C   UNL A   1      43.279  29.018  34.671  1.00  0.00     0.074 A 
ATOM     66  C   UNL A   1      41.804  32.824  29.942  1.00  0.00     0.029 A 
ATOM     67  N   UNL A   1      41.544  31.501  31.688  1.00  0.00    -0.354 N 
ATOM     68  N   UNL A   1      43.968  30.118  34.572  1.00  0.00    -0.248 NA
ATOM     69  C   UNL A   1      41.829  29.183  34.679  1.00  0.00     0.031 C 
ATOM     70  C   UNL A   1      42.784  33.141  30.928  1.00  0.00     0.029 A 
ATOM     71  C   UNL A   1      42.622  32.281  32.008  1.00  0.00     0.049 A 
ATOM     72  H   UNL A   1      41.161  30.820  32.288  1.00  0.00     0.167 HD
ATOM     73  C   UNL A   1      43.066  31.030  34.073  1.00  0.00     0.074 A 
ATOM     74  C   UNL A   1      41.750  30.472  34.344  1.00  0.00     0.031 C 
ATOM     75  C   UNL A   1      43.454  31.939  33.139  1.00  0.00     0.037 A 
BRANCH  62  76
ATOM     76  C   UNL A   1      38.807  30.542  30.580  1.00  0.00     0.057 A 
ATOM     77  C   UNL A   1      37.751  31.414  30.284  1.00  0.00     0.134 A 
ATOM     78  C   UNL A   1      38.575  29.680  31.679  1.00  0.00     0.134 A 
ATOM     79  F   UNL A   1      37.860  32.308  29.289  1.00  0.00    -0.206 F 
ATOM     80  C   UNL A   1      36.574  31.451  31.043  1.00  0.00     0.040 A 
ATOM     81  C   UNL A   1      37.383  29.665  32.404  1.00  0.00     0.040 A 
ATOM     82  F   UNL A   1      39.515  28.875  32.187  1.00  0.00    -0.206 F 
ATOM     83  C   UNL A   1      36.386  30.574  32.104  1.00  0.00     0.006 A 
ENDBRANCH  62  76
BRANCH  63  84
ATOM     84  C   UNL A   1      43.940  26.794  35.774  1.00  0.00     0.057 A 
ATOM     85  C   UNL A   1      43.328  25.525  35.809  1.00  0.00     0.134 A 
ATOM     86  C   UNL A   1      44.836  27.058  36.823  1.00  0.00     0.134 A 
ATOM     87  F   UNL A   1      42.471  25.148  34.849  1.00  0.00    -0.206 F 
ATOM     88  C   UNL A   1      43.627  24.568  36.790  1.00  0.00     0.040 A 
ATOM     89  C   UNL A   1      45.129  26.118  37.819  1.00  0.00     0.040 A 
ATOM     90  F   UNL A   1      45.530  28.202  36.874  1.00  0.00    -0.206 F 
ATOM     91  C   UNL A   1      44.542  24.859  37.794  1.00  0.00     0.006 A 
ENDBRANCH  63  84
BRANCH  75  92
ATOM     92  C   UNL A   1      44.856  32.451  33.207  1.00  0.00     0.057 A 
ATOM     93  C   UNL A   1      45.279  33.535  33.987  1.00  0.00     0.134 A 
ATOM     94  C   UNL A   1      45.834  31.784  32.455  1.00  0.00     0.134 A 
ATOM     95  F   UNL A   1      44.428  34.184  34.795  1.00  0.00    -0.206 F 
ATOM     96  C   UNL A   1      46.611  33.962  33.979  1.00  0.00     0.040 A 
ATOM     97  C   UNL A   1      47.172  32.177  32.469  1.00  0.00     0.040 A 
ATOM     98  F   UNL A   1      45.503  30.721  31.705  1.00  0.00    -0.206 F 
ATOM     99  C   UNL A   1      47.562  33.279  33.222  1.00  0.00     0.006 A 
ENDBRANCH  75  92
ENDBRANCH  49  50
ENDBRANCH  42  44
ENDBRANCH  41  42
ENDBRANCH  40  41
ENDBRANCH  39  40
ENDBRANCH  38  39
ENDBRANCH  37  38
ENDBRANCH  36  37
ENDBRANCH  35  36
ENDBRANCH   1  35
TORSDOF 25
ENDMDL
MODEL 2
REMARK VINA RESULT:      -9.0      4.486      7.433
REMARK SMILES CS(=O)(=O)c1ccc(-n2nc(C(F)(F)F)cc2-c2ccc(CC(=O)OCCOCCOCCOCCOC(=O)c3ccc(-c4c5nc(c(-c6c(F)cccc6F)c6ccc([nH]6)c(-c6c(F)cccc6F)c6nc(c(-c7c(F)cccc7F)c7ccc4[nH]7)C=C6)C=C5)cc3)cc2)cc1
REMARK SMILES IDX 30 1 29 2 28 3 27 4 26 5 25 6 23 7 24 8 22 9 21 10 18 11
REMARK SMILES IDX 19 12 95 13 20 14 94 15 17 16 9 17 10 18 11 19 16 20 8 21
REMARK SMILES IDX 5 22 6 23 97 24 7 25 96 26 2 27 1 28 3 29 4 30 12 31 13 32
REMARK SMILES IDX 14 33 15 34 31 35 32 36 33 37 34 38 35 39 36 40 37 41 38 42
REMARK SMILES IDX 39 43 40 44 41 45 93 46 42 47 92 48 43 49 44 50 45 51 86 52
REMARK SMILES IDX 46 53 91 54 85 55 87 56 47 57 90 58 84 59 83 60 48 62 74 63
REMARK SMILES IDX 57 64 73 65 58 66 61 67 72 68 88 69 59 70 60 71 71 73 89 74
REMARK SMILES IDX 62 75 49 76 50 77 55 78 51 79 52 80 54 81 56 82 53 83 75 84
REMARK SMILES IDX 76 85 81 86 77 87 78 88 80 89 82 90 79 91 63 92 64 93 69 94
REMARK SMILES IDX 65 95 66 96 68 97 70 98 67 99
REMARK H PARENT 87 61 61 72
REMARK Flexibility Score: inf
ROOT
ATOM      1  C   UNL A   1      45.070  22.668  23.858  1.00  0.00     0.188 C 
ENDROOT
BRANCH   1   2
ATOM      2  C   UNL A   1      43.882  22.806  24.819  1.00  0.00     0.188 C 
BRANCH   2   3
ATOM      3  O   UNL A   1      43.836  22.127  26.063  1.00  0.00    -0.376 OA
BRANCH   3   4
ATOM      4  C   UNL A   1      42.807  21.197  26.319  1.00  0.00     0.202 C 
BRANCH   4   5
ATOM      5  C   UNL A   1      41.951  21.370  27.584  1.00  0.00     0.261 C 
BRANCH   5   6
ATOM      6  O   UNL A   1      41.448  22.693  27.868  1.00  0.00    -0.463 OA
BRANCH   6   7
ATOM      7  C   UNL A   1      40.635  23.229  26.928  1.00  0.00     0.310 C 
ATOM      8  O   UNL A   1      40.806  24.348  26.449  1.00  0.00    -0.252 OA
BRANCH   7   9
ATOM      9  C   UNL A   1      39.444  22.385  26.508  1.00  0.00     0.158 C 
BRANCH   9  10
ATOM     10  C   UNL A   1      38.203  22.917  25.791  1.00  0.00    -0.037 A 
ATOM     11  C   UNL A   1      35.585  23.484  24.709  1.00  0.00     0.000 A 
ATOM     12  C   UNL A   1      36.012  24.058  25.911  1.00  0.00     0.010 A 
ATOM     13  C   UNL A   1      36.513  22.664  24.035  1.00  0.00     0.010 A 
ATOM     14  C   UNL A   1      37.295  23.776  26.443  1.00  0.00     0.005 A 
ATOM     15  C   UNL A   1      37.800  22.395  24.557  1.00  0.00     0.005 A 
BRANCH  11  16
ATOM     16  C   UNL A   1      34.162  23.514  24.276  1.00  0.00     0.075 A 
ATOM     17  N   UNL A   1      33.317  22.479  23.823  1.00  0.00    -0.233 N 
ATOM     18  N   UNL A   1      32.177  22.976  23.267  1.00  0.00    -0.163 NA
ATOM     19  C   UNL A   1      32.185  24.292  23.508  1.00  0.00     0.167 A 
ATOM     20  C   UNL A   1      33.415  24.674  24.087  1.00  0.00     0.064 A 
BRANCH  17  21
ATOM     21  C   UNL A   1      33.399  21.058  23.938  1.00  0.00     0.065 A 
ATOM     22  C   UNL A   1      33.495  18.222  24.207  1.00  0.00     0.067 A 
ATOM     23  C   UNL A   1      34.431  19.063  24.776  1.00  0.00     0.022 A 
ATOM     24  C   UNL A   1      32.410  18.824  23.587  1.00  0.00     0.022 A 
ATOM     25  C   UNL A   1      34.454  20.458  24.593  1.00  0.00     0.030 A 
ATOM     26  C   UNL A   1      32.340  20.232  23.499  1.00  0.00     0.030 A 
BRANCH  22  27
ATOM     27  S   UNL A   1      33.607  16.426  24.292  1.00  0.00     0.175 S 
ATOM     28  C   UNL A   1      34.891  15.896  25.388  1.00  0.00     0.163 C 
ATOM     29  O   UNL A   1      34.037  16.015  22.956  1.00  0.00    -0.224 OA
ATOM     30  O   UNL A   1      32.375  15.957  24.854  1.00  0.00    -0.224 OA
ENDBRANCH  22  27
ENDBRANCH  17  21
BRANCH  19  31
ATOM     31  C   UNL A   1      31.025  25.194  23.172  1.00  0.00     0.435 C 
ATOM     32  F   UNL A   1      31.064  25.685  21.906  1.00  0.00    -0.164 F 
ATOM     33  F   UNL A   1      29.836  24.543  23.304  1.00  0.00    -0.164 F 
ATOM     34  F   UNL A   1      30.964  26.269  24.004  1.00  0.00    -0.164 F 
ENDBRANCH  19  31
ENDBRANCH  11  16
ENDBRANCH   9  10
ENDBRANCH   7   9
ENDBRANCH   6   7
ENDBRANCH   5   6
ENDBRANCH   4   5
ENDBRANCH   3   4
ENDBRANCH   2   3
ENDBRANCH   1   2
BRANCH   1  35
ATOM     35  O   UNL A   1      46.132  23.602  23.877  1.00  0.00    -0.377 OA
BRANCH  35  36
ATOM     36  C   UNL A   1      46.571  24.239  25.065  1.00  0.00     0.188 C 
BRANCH  36  37
ATOM     37  C   UNL A   1      46.639  25.757  25.203  1.00  0.00     0.188 C 
BRANCH  37  38
ATOM     38  O   UNL A   1      45.858  26.293  26.249  1.00  0.00    -0.376 OA
BRANCH  38  39
ATOM     39  C   UNL A   1      44.637  26.836  25.821  1.00  0.00     0.202 C 
BRANCH  39  40
ATOM     40  C   UNL A   1      44.155  28.135  26.461  1.00  0.00     0.261 C 
BRANCH  40  41
ATOM     41  O   UNL A   1      43.458  28.289  27.723  1.00  0.00    -0.460 OA
BRANCH  41  42
ATOM     42  C   UNL A   1      42.553  27.358  28.115  1.00  0.00     0.338 C 
ATOM     43  O   UNL A   1      41.403  27.316  27.709  1.00  0.00    -0.246 OA
BRANCH  42  44
ATOM     44  C   UNL A   1      42.975  26.641  29.377  1.00  0.00     0.060 A 
ATOM     45  C   UNL A   1      43.177  27.484  30.477  1.00  0.00     0.016 A 
ATOM     46  C   UNL A   1      43.638  25.409  29.350  1.00  0.00     0.016 A 
ATOM     47  C   UNL A   1      44.278  27.281  31.313  1.00  0.00     0.010 A 
ATOM     48  C   UNL A   1      44.757  25.218  30.184  1.00  0.00     0.010 A 
ATOM     49  C   UNL A   1      45.153  26.207  31.098  1.00  0.00    -0.014 A 
BRANCH  49  50
ATOM     50  C   UNL A   1      46.219  25.984  32.103  1.00  0.00     0.031 A 
ATOM     51  C   UNL A   1      45.588  25.767  33.415  1.00  0.00     0.074 A 
ATOM     52  C   UNL A   1      47.565  25.849  32.005  1.00  0.00     0.049 A 
ATOM     53  N   UNL A   1      45.543  26.574  34.421  1.00  0.00    -0.248 NA
ATOM     54  C   UNL A   1      44.716  24.586  33.531  1.00  0.00     0.031 C 
ATOM     55  C   UNL A   1      48.325  25.708  30.778  1.00  0.00     0.029 A 
ATOM     56  N   UNL A   1      48.551  25.732  32.971  1.00  0.00    -0.354 N 
ATOM     57  C   UNL A   1      44.846  25.858  35.381  1.00  0.00     0.074 A 
ATOM     58  C   UNL A   1      44.122  24.825  34.696  1.00  0.00     0.031 C 
ATOM     59  C   UNL A   1      49.606  25.376  31.038  1.00  0.00     0.029 A 
ATOM     60  C   UNL A   1      49.799  25.335  32.475  1.00  0.00     0.049 A 
ATOM     61  H   UNL A   1      48.387  25.913  33.925  1.00  0.00     0.167 HD
ATOM     62  C   UNL A   1      45.277  25.859  36.666  1.00  0.00     0.037 A 
ATOM     63  C   UNL A   1      50.919  24.961  33.152  1.00  0.00     0.037 A 
ATOM     64  C   UNL A   1      46.109  26.997  36.952  1.00  0.00     0.049 A 
ATOM     65  C   UNL A   1      50.824  25.451  34.542  1.00  0.00     0.074 A 
ATOM     66  C   UNL A   1      45.937  28.351  37.139  1.00  0.00     0.029 A 
ATOM     67  N   UNL A   1      47.442  26.786  36.746  1.00  0.00    -0.354 N 
ATOM     68  N   UNL A   1      51.004  26.690  34.901  1.00  0.00    -0.248 NA
ATOM     69  C   UNL A   1      50.290  24.570  35.576  1.00  0.00     0.031 C 
ATOM     70  C   UNL A   1      47.222  28.953  36.998  1.00  0.00     0.029 A 
ATOM     71  C   UNL A   1      48.152  27.956  36.725  1.00  0.00     0.049 A 
ATOM     72  H   UNL A   1      47.845  25.896  36.627  1.00  0.00     0.167 HD
ATOM     73  C   UNL A   1      50.216  26.829  36.021  1.00  0.00     0.074 A 
ATOM     74  C   UNL A   1      49.967  25.477  36.498  1.00  0.00     0.031 C 
ATOM     75  C   UNL A   1      49.507  27.971  36.224  1.00  0.00     0.037 A 
BRANCH  62  76
ATOM     76  C   UNL A   1      45.377  24.588  37.484  1.00  0.00     0.057 A 
ATOM     77  C   UNL A   1      44.972  24.625  38.825  1.00  0.00     0.134 A 
ATOM     78  C   UNL A   1      46.098  23.428  37.113  1.00  0.00     0.134 A 
ATOM     79  F   UNL A   1      44.314  25.688  39.312  1.00  0.00    -0.206 F 
ATOM     80  C   UNL A   1      45.291  23.607  39.732  1.00  0.00     0.040 A 
ATOM     81  C   UNL A   1      46.369  22.379  37.992  1.00  0.00     0.040 A 
ATOM     82  F   UNL A   1      46.674  23.277  35.915  1.00  0.00    -0.206 F 
ATOM     83  C   UNL A   1      45.988  22.478  39.317  1.00  0.00     0.006 A 
ENDBRANCH  62  76
BRANCH  63  84
ATOM     84  C   UNL A   1      52.064  24.093  32.749  1.00  0.00     0.057 A 
ATOM     85  C   UNL A   1      53.337  24.638  32.491  1.00  0.00     0.134 A 
ATOM     86  C   UNL A   1      52.021  22.694  32.864  1.00  0.00     0.134 A 
ATOM     87  F   UNL A   1      53.509  25.964  32.384  1.00  0.00    -0.206 F 
ATOM     88  C   UNL A   1      54.493  23.849  32.405  1.00  0.00     0.040 A 
ATOM     89  C   UNL A   1      53.166  21.893  32.761  1.00  0.00     0.040 A 
ATOM     90  F   UNL A   1      50.884  22.054  33.169  1.00  0.00    -0.206 F 
ATOM     91  C   UNL A   1      54.412  22.471  32.553  1.00  0.00     0.006 A 
ENDBRANCH  63  84
BRANCH  75  92
ATOM     92  C   UNL A   1      50.101  29.254  35.740  1.00  0.00     0.057 A 
ATOM     93  C   UNL A   1      50.976  30.063  36.477  1.00  0.00     0.134 A 
ATOM     94  C   UNL A   1      49.785  29.674  34.441  1.00  0.00     0.134 A 
ATOM     95  F   UNL A   1      51.394  29.702  37.699  1.00  0.00    -0.206 F 
ATOM     96  C   UNL A   1      51.475  31.261  35.954  1.00  0.00     0.040 A 
ATOM     97  C   UNL A   1      50.306  30.847  33.895  1.00  0.00     0.040 A 
ATOM     98  F   UNL A   1      48.972  28.934  33.669  1.00  0.00    -0.206 F 
ATOM     99  C   UNL A   1      51.143  31.653  34.658  1.00  0.00     0.006 A 
ENDBRANCH  75  92
ENDBRANCH  49  50
ENDBRANCH  42  44
ENDBRANCH  41  42
ENDBRANCH  40  41
ENDBRANCH  39  40
ENDBRANCH  38  39
ENDBRANCH  37  38
ENDBRANCH  36  37
ENDBRANCH  35  36
ENDBRANCH   1  35
TORSDOF 25
ENDMDL
MODEL 3
REMARK VINA RESULT:      -8.9      5.878      9.242
REMARK SMILES CS(=O)(=O)c1ccc(-n2nc(C(F)(F)F)cc2-c2ccc(CC(=O)OCCOCCOCCOCCOC(=O)c3ccc(-c4c5nc(c(-c6c(F)cccc6F)c6ccc([nH]6)c(-c6c(F)cccc6F)c6nc(c(-c7c(F)cccc7F)c7ccc4[nH]7)C=C6)C=C5)cc3)cc2)cc1
REMARK SMILES IDX 30 1 29 2 28 3 27 4 26 5 25 6 23 7 24 8 22 9 21 10 18 11
REMARK SMILES IDX 19 12 95 13 20 14 94 15 17 16 9 17 10 18 11 19 16 20 8 21
REMARK SMILES IDX 5 22 6 23 97 24 7 25 96 26 2 27 1 28 3 29 4 30 12 31 13 32
REMARK SMILES IDX 14 33 15 34 31 35 32 36 33 37 34 38 35 39 36 40 37 41 38 42
REMARK SMILES IDX 39 43 40 44 41 45 93 46 42 47 92 48 43 49 44 50 45 51 86 52
REMARK SMILES IDX 46 53 91 54 85 55 87 56 47 57 90 58 84 59 83 60 48 62 74 63
REMARK SMILES IDX 57 64 73 65 58 66 61 67 72 68 88 69 59 70 60 71 71 73 89 74
REMARK SMILES IDX 62 75 49 76 50 77 55 78 51 79 52 80 54 81 56 82 53 83 75 84
REMARK SMILES IDX 76 85 81 86 77 87 78 88 80 89 82 90 79 91 63 92 64 93 69 94
REMARK SMILES IDX 65 95 66 96 68 97 70 98 67 99
REMARK H PARENT 87 61 61 72
REMARK Flexibility Score: inf
ROOT
ATOM      1  C   UNL A   1      42.813  19.843  26.533  1.00  0.00     0.188 C 
ENDROOT
BRANCH   1   2
ATOM      2  C   UNL A   1      41.374  20.371  26.476  1.00  0.00     0.188 C 
BRANCH   2   3
ATOM      3  O   UNL A   1      41.065  21.741  26.666  1.00  0.00    -0.376 OA
BRANCH   3   4
ATOM      4  C   UNL A   1      41.096  22.297  27.962  1.00  0.00     0.202 C 
BRANCH   4   5
ATOM      5  C   UNL A   1      41.865  23.609  28.188  1.00  0.00     0.261 C 
BRANCH   5   6
ATOM      6  O   UNL A   1      41.117  24.840  28.093  1.00  0.00    -0.463 OA
BRANCH   6   7
ATOM      7  C   UNL A   1      40.177  24.885  27.121  1.00  0.00     0.310 C 
ATOM      8  O   UNL A   1      40.391  25.341  26.000  1.00  0.00    -0.252 OA
BRANCH   7   9
ATOM      9  C   UNL A   1      38.796  24.375  27.495  1.00  0.00     0.158 C 
BRANCH   9  10
ATOM     10  C   UNL A   1      37.791  23.767  26.516  1.00  0.00    -0.037 A 
ATOM     11  C   UNL A   1      35.685  22.349  25.140  1.00  0.00     0.000 A 
ATOM     12  C   UNL A   1      35.467  23.618  25.685  1.00  0.00     0.010 A 
ATOM     13  C   UNL A   1      36.991  21.828  25.251  1.00  0.00     0.010 A 
ATOM     14  C   UNL A   1      36.500  24.312  26.364  1.00  0.00     0.005 A 
ATOM     15  C   UNL A   1      38.027  22.527  25.914  1.00  0.00     0.005 A 
BRANCH  11  16
ATOM     16  C   UNL A   1      34.568  21.474  24.691  1.00  0.00     0.075 A 
ATOM     17  N   UNL A   1      33.210  21.771  24.448  1.00  0.00    -0.233 N 
ATOM     18  N   UNL A   1      32.468  20.636  24.319  1.00  0.00    -0.163 NA
ATOM     19  C   UNL A   1      33.339  19.620  24.297  1.00  0.00     0.167 A 
ATOM     20  C   UNL A   1      34.642  20.090  24.571  1.00  0.00     0.064 A 
BRANCH  17  21
ATOM     21  C   UNL A   1      32.526  23.005  24.219  1.00  0.00     0.065 A 
ATOM     22  C   UNL A   1      31.230  25.504  23.778  1.00  0.00     0.067 A 
ATOM     23  C   UNL A   1      30.853  24.627  24.776  1.00  0.00     0.022 A 
ATOM     24  C   UNL A   1      32.368  25.176  23.056  1.00  0.00     0.022 A 
ATOM     25  C   UNL A   1      31.421  23.354  24.965  1.00  0.00     0.030 A 
ATOM     26  C   UNL A   1      33.039  23.959  23.311  1.00  0.00     0.030 A 
BRANCH  22  27
ATOM     27  S   UNL A   1      30.351  27.039  23.434  1.00  0.00     0.175 S 
ATOM     28  C   UNL A   1      28.604  26.860  23.644  1.00  0.00     0.163 C 
ATOM     29  O   UNL A   1      30.553  27.272  22.004  1.00  0.00    -0.224 OA
ATOM     30  O   UNL A   1      30.782  27.995  24.411  1.00  0.00    -0.224 OA
ENDBRANCH  22  27
ENDBRANCH  17  21
BRANCH  19  31
ATOM     31  C   UNL A   1      32.929  18.195  24.030  1.00  0.00     0.435 C 
ATOM     32  F   UNL A   1      32.483  17.983  22.764  1.00  0.00    -0.164 F 
ATOM     33  F   UNL A   1      33.966  17.334  24.230  1.00  0.00    -0.164 F 
ATOM     34  F   UNL A   1      31.934  17.791  24.865  1.00  0.00    -0.164 F 
ENDBRANCH  19  31
ENDBRANCH  11  16
ENDBRANCH   9  10
ENDBRANCH   7   9
ENDBRANCH   6   7
ENDBRANCH   5   6
ENDBRANCH   4   5
ENDBRANCH   3   4
ENDBRANCH   2   3
ENDBRANCH   1   2
BRANCH   1  35
ATOM     35  O   UNL A   1      43.116  18.519  26.138  1.00  0.00    -0.377 OA
BRANCH  35  36
ATOM     36  C   UNL A   1      44.385  18.141  25.632  1.00  0.00     0.188 C 
BRANCH  36  37
ATOM     37  C   UNL A   1      45.042  18.854  24.454  1.00  0.00     0.188 C 
BRANCH  37  38
ATOM     38  O   UNL A   1      46.060  19.767  24.805  1.00  0.00    -0.376 OA
BRANCH  38  39
ATOM     39  C   UNL A   1      45.592  21.067  25.046  1.00  0.00     0.202 C 
BRANCH  39  40
ATOM     40  C   UNL A   1      45.268  21.957  23.849  1.00  0.00     0.261 C 
BRANCH  40  41
ATOM     41  O   UNL A   1      44.901  23.359  23.869  1.00  0.00    -0.460 OA
BRANCH  41  42
ATOM     42  C   UNL A   1      44.222  23.868  24.927  1.00  0.00     0.338 C 
ATOM     43  O   UNL A   1      43.010  23.796  25.053  1.00  0.00    -0.246 OA
BRANCH  42  44
ATOM     44  C   UNL A   1      45.044  24.862  25.714  1.00  0.00     0.060 A 
ATOM     45  C   UNL A   1      44.930  26.184  25.269  1.00  0.00     0.016 A 
ATOM     46  C   UNL A   1      46.199  24.490  26.410  1.00  0.00     0.016 A 
ATOM     47  C   UNL A   1      46.070  26.987  25.179  1.00  0.00     0.010 A 
ATOM     48  C   UNL A   1      47.350  25.296  26.303  1.00  0.00     0.010 A 
ATOM     49  C   UNL A   1      47.321  26.502  25.586  1.00  0.00    -0.014 A 
BRANCH  49  50
ATOM     50  C   UNL A   1      48.455  27.456  25.583  1.00  0.00     0.031 A 
ATOM     51  C   UNL A   1      49.234  27.256  24.351  1.00  0.00     0.074 A 
ATOM     52  C   UNL A   1      48.804  28.474  26.409  1.00  0.00     0.049 A 
ATOM     53  N   UNL A   1      50.391  26.701  24.221  1.00  0.00    -0.248 NA
ATOM     54  C   UNL A   1      48.528  27.518  23.085  1.00  0.00     0.031 C 
ATOM     55  C   UNL A   1      47.997  29.028  27.478  1.00  0.00     0.029 A 
ATOM     56  N   UNL A   1      49.921  29.294  26.437  1.00  0.00    -0.354 N 
ATOM     57  C   UNL A   1      50.647  26.795  22.861  1.00  0.00     0.074 A 
ATOM     58  C   UNL A   1      49.386  27.004  22.208  1.00  0.00     0.031 C 
ATOM     59  C   UNL A   1      48.540  30.164  27.958  1.00  0.00     0.029 A 
ATOM     60  C   UNL A   1      49.795  30.411  27.273  1.00  0.00     0.049 A 
ATOM     61  H   UNL A   1      50.734  29.106  25.914  1.00  0.00     0.167 HD
ATOM     62  C   UNL A   1      51.877  27.167  22.433  1.00  0.00     0.037 A 
ATOM     63  C   UNL A   1      50.612  31.491  27.400  1.00  0.00     0.037 A 
ATOM     64  C   UNL A   1      52.887  26.933  23.430  1.00  0.00     0.049 A 
ATOM     65  C   UNL A   1      51.942  31.153  26.853  1.00  0.00     0.074 A 
ATOM     66  C   UNL A   1      53.539  25.846  23.970  1.00  0.00     0.029 A 
ATOM     67  N   UNL A   1      53.110  27.990  24.264  1.00  0.00    -0.354 N 
ATOM     68  N   UNL A   1      52.818  30.403  27.457  1.00  0.00    -0.248 NA
ATOM     69  C   UNL A   1      52.249  31.485  25.466  1.00  0.00     0.031 C 
ATOM     70  C   UNL A   1      54.135  26.287  25.188  1.00  0.00     0.029 A 
ATOM     71  C   UNL A   1      53.832  27.631  25.370  1.00  0.00     0.049 A 
ATOM     72  H   UNL A   1      52.789  28.905  24.089  1.00  0.00     0.167 HD
ATOM     73  C   UNL A   1      53.526  29.826  26.427  1.00  0.00     0.074 A 
ATOM     74  C   UNL A   1      53.278  30.660  25.262  1.00  0.00     0.031 C 
ATOM     75  C   UNL A   1      53.910  28.524  26.504  1.00  0.00     0.037 A 
BRANCH  62  76
ATOM     76  C   UNL A   1      52.073  28.203  21.345  1.00  0.00     0.057 A 
ATOM     77  C   UNL A   1      51.628  29.510  21.580  1.00  0.00     0.134 A 
ATOM     78  C   UNL A   1      52.414  27.924  19.999  1.00  0.00     0.134 A 
ATOM     79  F   UNL A   1      51.238  29.890  22.806  1.00  0.00    -0.206 F 
ATOM     80  C   UNL A   1      51.496  30.453  20.553  1.00  0.00     0.040 A 
ATOM     81  C   UNL A   1      52.347  28.873  18.979  1.00  0.00     0.040 A 
ATOM     82  F   UNL A   1      52.734  26.700  19.564  1.00  0.00    -0.206 F 
ATOM     83  C   UNL A   1      51.859  30.138  19.249  1.00  0.00     0.006 A 
ENDBRANCH  62  76
BRANCH  63  84
ATOM     84  C   UNL A   1      50.332  32.884  27.859  1.00  0.00     0.057 A 
ATOM     85  C   UNL A   1      49.632  33.794  27.041  1.00  0.00     0.134 A 
ATOM     86  C   UNL A   1      50.498  33.282  29.195  1.00  0.00     0.134 A 
ATOM     87  F   UNL A   1      49.390  33.515  25.752  1.00  0.00    -0.206 F 
ATOM     88  C   UNL A   1      49.093  34.991  27.533  1.00  0.00     0.040 A 
ATOM     89  C   UNL A   1      49.981  34.485  29.694  1.00  0.00     0.040 A 
ATOM     90  F   UNL A   1      51.091  32.483  30.091  1.00  0.00    -0.206 F 
ATOM     91  C   UNL A   1      49.256  35.334  28.869  1.00  0.00     0.006 A 
ENDBRANCH  63  84
BRANCH  75  92
ATOM     92  C   UNL A   1      54.249  27.976  27.852  1.00  0.00     0.057 A 
ATOM     93  C   UNL A   1      53.349  27.320  28.702  1.00  0.00     0.134 A 
ATOM     94  C   UNL A   1      55.572  28.102  28.297  1.00  0.00     0.134 A 
ATOM     95  F   UNL A   1      52.083  27.087  28.328  1.00  0.00    -0.206 F 
ATOM     96  C   UNL A   1      53.745  26.853  29.960  1.00  0.00     0.040 A 
ATOM     97  C   UNL A   1      55.987  27.606  29.533  1.00  0.00     0.040 A 
ATOM     98  F   UNL A   1      56.493  28.698  27.522  1.00  0.00    -0.206 F 
ATOM     99  C   UNL A   1      55.068  26.991  30.376  1.00  0.00     0.006 A 
ENDBRANCH  75  92
ENDBRANCH  49  50
ENDBRANCH  42  44
ENDBRANCH  41  42
ENDBRANCH  40  41
ENDBRANCH  39  40
ENDBRANCH  38  39
ENDBRANCH  37  38
ENDBRANCH  36  37
ENDBRANCH  35  36
ENDBRANCH   1  35
TORSDOF 25
ENDMDL
