MODEL 1
REMARK VINA RESULT:     -10.0      0.000      0.000
REMARK SMILES NS(=O)(=O)c1ccc(-n2nc(C(=O)OCCOCCOCCOCCOC(=O)c3ccc(-c4c5nc(c(-c6c(F)cccc6F)c6ccc([nH]6)c(-c6c(F)cccc6F)c6nc(c(-c7c(F)cccc7F)c7ccc4[nH]7)C=C6)C=C5)cc3)cc2-c2ccc(Cl)s2)cc1
REMARK SMILES IDX 19 1 18 2 17 3 16 4 15 5 14 6 12 7 13 8 11 9 9 10 10 11
REMARK SMILES IDX 84 12 83 13 8 14 5 15 6 16 92 17 7 18 91 19 2 20 3 21 4 22
REMARK SMILES IDX 1 23 85 26 86 27 90 28 87 29 88 30 89 31 20 32 21 33 22 34
REMARK SMILES IDX 23 35 24 36 25 37 26 38 27 39 28 40 29 41 30 42 82 43 31 44
REMARK SMILES IDX 81 45 32 46 33 47 34 48 75 49 35 50 80 51 74 52 76 53 36 54
REMARK SMILES IDX 79 55 73 56 72 57 37 59 63 60 46 61 62 62 47 63 50 64 61 65
REMARK SMILES IDX 77 66 48 67 49 68 60 70 78 71 51 72 38 73 39 74 44 75 40 76
REMARK SMILES IDX 41 77 43 78 45 79 42 80 64 81 65 82 70 83 66 84 67 85 69 86
REMARK SMILES IDX 71 87 68 88 52 89 53 90 58 91 54 92 55 93 57 94 59 95 56 96
REMARK H PARENT 1 24 1 25 76 58 50 69
REMARK Flexibility Score: inf
ROOT
ATOM      1  C   UNL A   1      35.923  20.684  24.993  1.00  0.00     0.188 C 
ENDROOT
BRANCH   1   2
ATOM      2  C   UNL A   1      34.826  19.618  24.786  1.00  0.00     0.188 C 
BRANCH   2   3
ATOM      3  O   UNL A   1      33.636  19.914  25.492  1.00  0.00    -0.376 OA
BRANCH   3   4
ATOM      4  C   UNL A   1      32.593  20.643  24.893  1.00  0.00     0.202 C 
BRANCH   4   5
ATOM      5  C   UNL A   1      32.500  22.165  25.074  1.00  0.00     0.261 C 
BRANCH   5   6
ATOM      6  O   UNL A   1      31.198  22.719  25.265  1.00  0.00    -0.458 OA
BRANCH   6   7
ATOM      7  C   UNL A   1      31.043  23.607  26.285  1.00  0.00     0.358 C 
ATOM      8  O   UNL A   1      30.803  23.291  27.444  1.00  0.00    -0.244 OA
BRANCH   7   9
ATOM      9  C   UNL A   1      31.317  24.974  25.822  1.00  0.00     0.171 A 
ATOM     10  N   UNL A   1      32.089  26.969  25.774  1.00  0.00    -0.231 N 
ATOM     11  N   UNL A   1      32.168  25.803  26.459  1.00  0.00    -0.160 NA
ATOM     12  C   UNL A   1      31.303  26.859  24.639  1.00  0.00     0.085 A 
ATOM     13  C   UNL A   1      30.836  25.566  24.628  1.00  0.00     0.068 A 
BRANCH  10  14
ATOM     14  C   UNL A   1      32.610  28.152  26.344  1.00  0.00     0.065 A 
ATOM     15  C   UNL A   1      33.600  30.525  27.377  1.00  0.00     0.082 A 
ATOM     16  C   UNL A   1      32.230  30.400  27.136  1.00  0.00     0.024 A 
ATOM     17  C   UNL A   1      34.478  29.465  27.116  1.00  0.00     0.024 A 
ATOM     18  C   UNL A   1      31.735  29.216  26.599  1.00  0.00     0.030 A 
ATOM     19  C   UNL A   1      33.976  28.256  26.626  1.00  0.00     0.030 A 
BRANCH  15  20
ATOM     20  S   UNL A   1      34.243  32.059  27.979  1.00  0.00     0.238 S 
ATOM     21  O   UNL A   1      34.269  32.028  29.417  1.00  0.00    -0.207 OA
ATOM     22  O   UNL A   1      33.634  33.134  27.222  1.00  0.00    -0.207 OA
BRANCH  20  23
ATOM     23  N   UNL A   1      35.858  32.020  27.506  1.00  0.00    -0.225 NA
ATOM     24  H   UNL A   1      35.922  32.179  26.501  1.00  0.00     0.137 HD
ATOM     25  H   UNL A   1      36.258  31.110  27.733  1.00  0.00     0.137 HD
ENDBRANCH  20  23
ENDBRANCH  15  20
ENDBRANCH  10  14
BRANCH  12  26
ATOM     26  C   UNL A   1      31.037  27.908  23.700  1.00  0.00     0.054 A 
ATOM     27  C   UNL A   1      31.980  28.564  22.932  1.00  0.00     0.024 A 
ATOM     28  S   UNL A   1      29.457  28.506  23.403  1.00  0.00    -0.122 S 
ATOM     29  C   UNL A   1      31.390  29.512  22.045  1.00  0.00     0.033 A 
ATOM     30  C   UNL A   1      30.031  29.560  22.210  1.00  0.00     0.094 A 
ATOM     31  Cl  UNL A   1      28.930  30.553  21.343  1.00  0.00    -0.072 Cl
ENDBRANCH  12  26
ENDBRANCH   7   9
ENDBRANCH   6   7
ENDBRANCH   5   6
ENDBRANCH   4   5
ENDBRANCH   3   4
ENDBRANCH   2   3
ENDBRANCH   1   2
BRANCH   1  32
ATOM     32  O   UNL A   1      37.279  20.263  25.022  1.00  0.00    -0.377 OA
BRANCH  32  33
ATOM     33  C   UNL A   1      38.329  21.218  25.180  1.00  0.00     0.188 C 
BRANCH  33  34
ATOM     34  C   UNL A   1      39.685  20.916  25.883  1.00  0.00     0.188 C 
BRANCH  34  35
ATOM     35  O   UNL A   1      39.838  21.433  27.192  1.00  0.00    -0.376 OA
BRANCH  35  36
ATOM     36  C   UNL A   1      41.064  21.883  27.722  1.00  0.00     0.202 C 
BRANCH  36  37
ATOM     37  C   UNL A   1      41.415  23.359  27.596  1.00  0.00     0.261 C 
BRANCH  37  38
ATOM     38  O   UNL A   1      40.285  24.200  27.523  1.00  0.00    -0.460 OA
BRANCH  38  39
ATOM     39  C   UNL A   1      40.507  25.357  26.874  1.00  0.00     0.338 C 
ATOM     40  O   UNL A   1      41.274  25.555  25.948  1.00  0.00    -0.246 OA
BRANCH  39  41
ATOM     41  C   UNL A   1      39.760  26.404  27.570  1.00  0.00     0.060 A 
ATOM     42  C   UNL A   1      40.014  27.700  27.130  1.00  0.00     0.016 A 
ATOM     43  C   UNL A   1      39.255  26.113  28.847  1.00  0.00     0.016 A 
ATOM     44  C   UNL A   1      40.087  28.674  28.088  1.00  0.00     0.010 A 
ATOM     45  C   UNL A   1      39.353  27.082  29.806  1.00  0.00     0.010 A 
ATOM     46  C   UNL A   1      39.875  28.310  29.425  1.00  0.00    -0.014 A 
BRANCH  46  47
ATOM     47  C   UNL A   1      40.146  29.309  30.424  1.00  0.00     0.031 A 
ATOM     48  C   UNL A   1      38.980  30.184  30.643  1.00  0.00     0.074 A 
ATOM     49  C   UNL A   1      41.309  29.362  31.094  1.00  0.00     0.049 A 
ATOM     50  N   UNL A   1      38.861  31.424  30.316  1.00  0.00    -0.248 NA
ATOM     51  C   UNL A   1      37.728  29.541  31.075  1.00  0.00     0.031 C 
ATOM     52  C   UNL A   1      42.395  28.378  31.132  1.00  0.00     0.029 A 
ATOM     53  N   UNL A   1      41.722  30.302  31.980  1.00  0.00    -0.354 N 
ATOM     54  C   UNL A   1      37.579  31.779  30.713  1.00  0.00     0.074 A 
ATOM     55  C   UNL A   1      36.870  30.553  30.963  1.00  0.00     0.031 C 
ATOM     56  C   UNL A   1      43.216  28.665  32.171  1.00  0.00     0.029 A 
ATOM     57  C   UNL A   1      42.787  29.913  32.779  1.00  0.00     0.049 A 
ATOM     58  H   UNL A   1      41.299  31.189  32.051  1.00  0.00     0.167 HD
ATOM     59  C   UNL A   1      37.306  33.053  31.094  1.00  0.00     0.037 A 
ATOM     60  C   UNL A   1      43.185  30.550  33.910  1.00  0.00     0.037 A 
ATOM     61  C   UNL A   1      38.284  33.974  30.568  1.00  0.00     0.049 A 
ATOM     62  C   UNL A   1      42.602  31.920  33.873  1.00  0.00     0.074 A 
ATOM     63  C   UNL A   1      38.718  34.301  29.296  1.00  0.00     0.029 A 
ATOM     64  N   UNL A   1      39.253  34.441  31.422  1.00  0.00    -0.354 N 
ATOM     65  N   UNL A   1      42.985  32.852  33.047  1.00  0.00    -0.248 NA
ATOM     66  C   UNL A   1      41.272  32.100  34.440  1.00  0.00     0.031 C 
ATOM     67  C   UNL A   1      40.123  34.507  29.423  1.00  0.00     0.029 A 
ATOM     68  C   UNL A   1      40.456  34.354  30.769  1.00  0.00     0.049 A 
ATOM     69  H   UNL A   1      39.109  34.777  32.336  1.00  0.00     0.167 HD
ATOM     70  C   UNL A   1      41.814  33.485  32.658  1.00  0.00     0.074 A 
ATOM     71  C   UNL A   1      40.800  33.030  33.606  1.00  0.00     0.031 C 
ATOM     72  C   UNL A   1      41.707  34.084  31.435  1.00  0.00     0.037 A 
BRANCH  59  73
ATOM     73  C   UNL A   1      36.431  33.376  32.278  1.00  0.00     0.057 A 
ATOM     74  C   UNL A   1      35.403  34.318  32.117  1.00  0.00     0.134 A 
ATOM     75  C   UNL A   1      36.732  33.043  33.617  1.00  0.00     0.134 A 
ATOM     76  F   UNL A   1      35.029  34.727  30.895  1.00  0.00    -0.206 F 
ATOM     77  C   UNL A   1      34.786  34.946  33.206  1.00  0.00     0.040 A 
ATOM     78  C   UNL A   1      36.086  33.623  34.709  1.00  0.00     0.040 A 
ATOM     79  F   UNL A   1      37.732  32.221  33.958  1.00  0.00    -0.206 F 
ATOM     80  C   UNL A   1      35.134  34.605  34.506  1.00  0.00     0.006 A 
ENDBRANCH  59  73
BRANCH  60  81
ATOM     81  C   UNL A   1      43.719  29.973  35.165  1.00  0.00     0.057 A 
ATOM     82  C   UNL A   1      42.929  29.118  35.948  1.00  0.00     0.134 A 
ATOM     83  C   UNL A   1      45.090  29.997  35.471  1.00  0.00     0.134 A 
ATOM     84  F   UNL A   1      41.614  28.999  35.712  1.00  0.00    -0.206 F 
ATOM     85  C   UNL A   1      43.477  28.302  36.947  1.00  0.00     0.040 A 
ATOM     86  C   UNL A   1      45.648  29.195  36.471  1.00  0.00     0.040 A 
ATOM     87  F   UNL A   1      45.952  30.727  34.749  1.00  0.00    -0.206 F 
ATOM     88  C   UNL A   1      44.844  28.328  37.200  1.00  0.00     0.006 A 
ENDBRANCH  60  81
BRANCH  72  89
ATOM     89  C   UNL A   1      42.964  34.259  30.629  1.00  0.00     0.057 A 
ATOM     90  C   UNL A   1      43.462  33.307  29.726  1.00  0.00     0.134 A 
ATOM     91  C   UNL A   1      43.618  35.495  30.670  1.00  0.00     0.134 A 
ATOM     92  F   UNL A   1      42.842  32.134  29.540  1.00  0.00    -0.206 F 
ATOM     93  C   UNL A   1      44.594  33.556  28.942  1.00  0.00     0.040 A 
ATOM     94  C   UNL A   1      44.726  35.770  29.865  1.00  0.00     0.040 A 
ATOM     95  F   UNL A   1      43.164  36.474  31.467  1.00  0.00    -0.206 F 
ATOM     96  C   UNL A   1      45.225  34.794  29.007  1.00  0.00     0.006 A 
ENDBRANCH  72  89
ENDBRANCH  46  47
ENDBRANCH  39  41
ENDBRANCH  38  39
ENDBRANCH  37  38
ENDBRANCH  36  37
ENDBRANCH  35  36
ENDBRANCH  34  35
ENDBRANCH  33  34
ENDBRANCH  32  33
ENDBRANCH   1  32
TORSDOF 24
ENDMDL
MODEL 2
REMARK VINA RESULT:      -9.5      3.488      7.350
REMARK SMILES NS(=O)(=O)c1ccc(-n2nc(C(=O)OCCOCCOCCOCCOC(=O)c3ccc(-c4c5nc(c(-c6c(F)cccc6F)c6ccc([nH]6)c(-c6c(F)cccc6F)c6nc(c(-c7c(F)cccc7F)c7ccc4[nH]7)C=C6)C=C5)cc3)cc2-c2ccc(Cl)s2)cc1
REMARK SMILES IDX 19 1 18 2 17 3 16 4 15 5 14 6 12 7 13 8 11 9 9 10 10 11
REMARK SMILES IDX 84 12 83 13 8 14 5 15 6 16 92 17 7 18 91 19 2 20 3 21 4 22
REMARK SMILES IDX 1 23 85 26 86 27 90 28 87 29 88 30 89 31 20 32 21 33 22 34
REMARK SMILES IDX 23 35 24 36 25 37 26 38 27 39 28 40 29 41 30 42 82 43 31 44
REMARK SMILES IDX 81 45 32 46 33 47 34 48 75 49 35 50 80 51 74 52 76 53 36 54
REMARK SMILES IDX 79 55 73 56 72 57 37 59 63 60 46 61 62 62 47 63 50 64 61 65
REMARK SMILES IDX 77 66 48 67 49 68 60 70 78 71 51 72 38 73 39 74 44 75 40 76
REMARK SMILES IDX 41 77 43 78 45 79 42 80 64 81 65 82 70 83 66 84 67 85 69 86
REMARK SMILES IDX 71 87 68 88 52 89 53 90 58 91 54 92 55 93 57 94 59 95 56 96
REMARK H PARENT 1 24 1 25 76 58 50 69
REMARK Flexibility Score: inf
ROOT
ATOM      1  C   UNL A   1      35.858  21.583  25.556  1.00  0.00     0.188 C 
ENDROOT
BRANCH   1   2
ATOM      2  C   UNL A   1      35.249  20.236  25.112  1.00  0.00     0.188 C 
BRANCH   2   3
ATOM      3  O   UNL A   1      33.941  20.035  25.613  1.00  0.00    -0.376 OA
BRANCH   3   4
ATOM      4  C   UNL A   1      32.821  20.062  24.763  1.00  0.00     0.202 C 
BRANCH   4   5
ATOM      5  C   UNL A   1      32.696  21.133  23.671  1.00  0.00     0.261 C 
BRANCH   5   6
ATOM      6  O   UNL A   1      31.560  21.997  23.734  1.00  0.00    -0.458 OA
BRANCH   6   7
ATOM      7  C   UNL A   1      31.172  22.426  24.966  1.00  0.00     0.358 C 
ATOM      8  O   UNL A   1      30.884  21.683  25.897  1.00  0.00    -0.244 OA
BRANCH   7   9
ATOM      9  C   UNL A   1      31.260  23.890  25.051  1.00  0.00     0.171 A 
ATOM     10  N   UNL A   1      30.850  25.958  24.686  1.00  0.00    -0.231 N 
ATOM     11  N   UNL A   1      30.395  24.711  24.422  1.00  0.00    -0.160 NA
ATOM     12  C   UNL A   1      31.912  25.953  25.577  1.00  0.00     0.085 A 
ATOM     13  C   UNL A   1      32.158  24.630  25.860  1.00  0.00     0.068 A 
BRANCH  10  14
ATOM     14  C   UNL A   1      30.371  27.053  23.933  1.00  0.00     0.065 A 
ATOM     15  C   UNL A   1      29.485  29.264  22.516  1.00  0.00     0.082 A 
ATOM     16  C   UNL A   1      30.849  28.960  22.533  1.00  0.00     0.024 A 
ATOM     17  C   UNL A   1      28.559  28.461  23.195  1.00  0.00     0.024 A 
ATOM     18  C   UNL A   1      31.296  27.862  23.260  1.00  0.00     0.030 A 
ATOM     19  C   UNL A   1      29.000  27.326  23.882  1.00  0.00     0.030 A 
BRANCH  15  20
ATOM     20  S   UNL A   1      28.925  30.708  21.664  1.00  0.00     0.238 S 
ATOM     21  O   UNL A   1      29.737  30.911  20.495  1.00  0.00    -0.207 OA
ATOM     22  O   UNL A   1      28.676  31.746  22.644  1.00  0.00    -0.207 OA
BRANCH  20  23
ATOM     23  N   UNL A   1      27.413  30.257  21.078  1.00  0.00    -0.225 NA
ATOM     24  H   UNL A   1      27.498  29.971  20.102  1.00  0.00     0.137 HD
ATOM     25  H   UNL A   1      26.771  31.046  21.147  1.00  0.00     0.137 HD
ENDBRANCH  20  23
ENDBRANCH  15  20
ENDBRANCH  10  14
BRANCH  12  26
ATOM     26  C   UNL A   1      32.602  27.109  26.065  1.00  0.00     0.054 A 
ATOM     27  C   UNL A   1      33.953  27.359  25.933  1.00  0.00     0.024 A 
ATOM     28  S   UNL A   1      31.808  28.371  26.912  1.00  0.00    -0.122 S 
ATOM     29  C   UNL A   1      34.323  28.629  26.467  1.00  0.00     0.033 A 
ATOM     30  C   UNL A   1      33.241  29.265  27.017  1.00  0.00     0.094 A 
ATOM     31  Cl  UNL A   1      33.234  30.813  27.760  1.00  0.00    -0.072 Cl
ENDBRANCH  12  26
ENDBRANCH   7   9
ENDBRANCH   6   7
ENDBRANCH   5   6
ENDBRANCH   4   5
ENDBRANCH   3   4
ENDBRANCH   2   3
ENDBRANCH   1   2
BRANCH   1  32
ATOM     32  O   UNL A   1      36.952  22.108  24.818  1.00  0.00    -0.377 OA
BRANCH  32  33
ATOM     33  C   UNL A   1      37.702  23.213  25.323  1.00  0.00     0.188 C 
BRANCH  33  34
ATOM     34  C   UNL A   1      38.687  23.123  26.525  1.00  0.00     0.188 C 
BRANCH  34  35
ATOM     35  O   UNL A   1      39.918  22.471  26.275  1.00  0.00    -0.376 OA
BRANCH  35  36
ATOM     36  C   UNL A   1      40.166  21.116  26.575  1.00  0.00     0.202 C 
BRANCH  36  37
ATOM     37  C   UNL A   1      41.566  20.563  26.353  1.00  0.00     0.261 C 
BRANCH  37  38
ATOM     38  O   UNL A   1      42.264  21.205  25.308  1.00  0.00    -0.460 OA
BRANCH  38  39
ATOM     39  C   UNL A   1      43.597  21.038  25.358  1.00  0.00     0.338 C 
ATOM     40  O   UNL A   1      44.213  19.988  25.395  1.00  0.00    -0.246 OA
BRANCH  39  41
ATOM     41  C   UNL A   1      44.202  22.360  25.505  1.00  0.00     0.060 A 
ATOM     42  C   UNL A   1      44.820  22.593  26.731  1.00  0.00     0.016 A 
ATOM     43  C   UNL A   1      43.739  23.392  24.673  1.00  0.00     0.016 A 
ATOM     44  C   UNL A   1      44.663  23.838  27.276  1.00  0.00     0.010 A 
ATOM     45  C   UNL A   1      43.562  24.627  25.229  1.00  0.00     0.010 A 
ATOM     46  C   UNL A   1      43.926  24.790  26.559  1.00  0.00    -0.014 A 
BRANCH  46  47
ATOM     47  C   UNL A   1      43.615  26.020  27.236  1.00  0.00     0.031 A 
ATOM     48  C   UNL A   1      44.608  27.067  26.937  1.00  0.00     0.074 A 
ATOM     49  C   UNL A   1      42.512  26.170  27.989  1.00  0.00     0.049 A 
ATOM     50  N   UNL A   1      45.487  27.563  27.738  1.00  0.00    -0.248 NA
ATOM     51  C   UNL A   1      44.784  27.443  25.525  1.00  0.00     0.031 C 
ATOM     52  C   UNL A   1      41.353  25.281  28.110  1.00  0.00     0.029 A 
ATOM     53  N   UNL A   1      42.158  27.235  28.750  1.00  0.00    -0.354 N 
ATOM     54  C   UNL A   1      46.186  28.489  26.974  1.00  0.00     0.074 A 
ATOM     55  C   UNL A   1      45.866  28.217  25.600  1.00  0.00     0.031 C 
ATOM     56  C   UNL A   1      40.339  25.956  28.704  1.00  0.00     0.029 A 
ATOM     57  C   UNL A   1      40.820  27.264  29.114  1.00  0.00     0.049 A 
ATOM     58  H   UNL A   1      42.800  27.931  29.023  1.00  0.00     0.167 HD
ATOM     59  C   UNL A   1      46.728  29.589  27.557  1.00  0.00     0.037 A 
ATOM     60  C   UNL A   1      40.174  28.347  29.618  1.00  0.00     0.037 A 
ATOM     61  C   UNL A   1      46.912  29.390  28.974  1.00  0.00     0.049 A 
ATOM     62  C   UNL A   1      41.215  29.289  30.117  1.00  0.00     0.074 A 
ATOM     63  C   UNL A   1      47.609  28.473  29.739  1.00  0.00     0.029 A 
ATOM     64  N   UNL A   1      46.013  29.979  29.828  1.00  0.00    -0.354 N 
ATOM     65  N   UNL A   1      41.953  29.068  31.167  1.00  0.00    -0.248 NA
ATOM     66  C   UNL A   1      41.751  30.259  29.171  1.00  0.00     0.031 C 
ATOM     67  C   UNL A   1      46.776  28.220  30.869  1.00  0.00     0.029 A 
ATOM     68  C   UNL A   1      45.652  29.039  30.759  1.00  0.00     0.049 A 
ATOM     69  H   UNL A   1      45.686  30.906  29.780  1.00  0.00     0.167 HD
ATOM     70  C   UNL A   1      43.216  29.521  30.814  1.00  0.00     0.074 A 
ATOM     71  C   UNL A   1      43.014  30.314  29.604  1.00  0.00     0.031 C 
ATOM     72  C   UNL A   1      44.341  28.973  31.360  1.00  0.00     0.037 A 
BRANCH  59  73
ATOM     73  C   UNL A   1      46.670  30.955  26.922  1.00  0.00     0.057 A 
ATOM     74  C   UNL A   1      47.834  31.739  26.906  1.00  0.00     0.134 A 
ATOM     75  C   UNL A   1      45.479  31.645  26.605  1.00  0.00     0.134 A 
ATOM     76  F   UNL A   1      49.028  31.204  27.199  1.00  0.00    -0.206 F 
ATOM     77  C   UNL A   1      47.803  33.120  26.680  1.00  0.00     0.040 A 
ATOM     78  C   UNL A   1      45.443  33.012  26.326  1.00  0.00     0.040 A 
ATOM     79  F   UNL A   1      44.270  31.073  26.646  1.00  0.00    -0.206 F 
ATOM     80  C   UNL A   1      46.603  33.761  26.399  1.00  0.00     0.006 A 
ENDBRANCH  59  73
BRANCH  60  81
ATOM     81  C   UNL A   1      38.780  28.789  29.388  1.00  0.00     0.057 A 
ATOM     82  C   UNL A   1      37.870  28.863  30.454  1.00  0.00     0.134 A 
ATOM     83  C   UNL A   1      38.389  29.429  28.200  1.00  0.00     0.134 A 
ATOM     84  F   UNL A   1      38.166  28.312  31.640  1.00  0.00    -0.206 F 
ATOM     85  C   UNL A   1      36.663  29.568  30.359  1.00  0.00     0.040 A 
ATOM     86  C   UNL A   1      37.183  30.129  28.088  1.00  0.00     0.040 A 
ATOM     87  F   UNL A   1      39.202  29.479  27.136  1.00  0.00    -0.206 F 
ATOM     88  C   UNL A   1      36.324  30.217  29.177  1.00  0.00     0.006 A 
ENDBRANCH  60  81
BRANCH  72  89
ATOM     89  C   UNL A   1      44.172  28.048  32.534  1.00  0.00     0.057 A 
ATOM     90  C   UNL A   1      43.959  26.665  32.425  1.00  0.00     0.134 A 
ATOM     91  C   UNL A   1      44.366  28.559  33.822  1.00  0.00     0.134 A 
ATOM     92  F   UNL A   1      43.866  26.069  31.229  1.00  0.00    -0.206 F 
ATOM     93  C   UNL A   1      43.889  25.839  33.552  1.00  0.00     0.040 A 
ATOM     94  C   UNL A   1      44.334  27.740  34.953  1.00  0.00     0.040 A 
ATOM     95  F   UNL A   1      44.631  29.862  33.999  1.00  0.00    -0.206 F 
ATOM     96  C   UNL A   1      44.083  26.377  34.820  1.00  0.00     0.006 A 
ENDBRANCH  72  89
ENDBRANCH  46  47
ENDBRANCH  39  41
ENDBRANCH  38  39
ENDBRANCH  37  38
ENDBRANCH  36  37
ENDBRANCH  35  36
ENDBRANCH  34  35
ENDBRANCH  33  34
ENDBRANCH  32  33
ENDBRANCH   1  32
TORSDOF 24
ENDMDL
MODEL 3
REMARK VINA RESULT:      -9.4      4.346      7.155
REMARK SMILES NS(=O)(=O)c1ccc(-n2nc(C(=O)OCCOCCOCCOCCOC(=O)c3ccc(-c4c5nc(c(-c6c(F)cccc6F)c6ccc([nH]6)c(-c6c(F)cccc6F)c6nc(c(-c7c(F)cccc7F)c7ccc4[nH]7)C=C6)C=C5)cc3)cc2-c2ccc(Cl)s2)cc1
REMARK SMILES IDX 19 1 18 2 17 3 16 4 15 5 14 6 12 7 13 8 11 9 9 10 10 11
REMARK SMILES IDX 84 12 83 13 8 14 5 15 6 16 92 17 7 18 91 19 2 20 3 21 4 22
REMARK SMILES IDX 1 23 85 26 86 27 90 28 87 29 88 30 89 31 20 32 21 33 22 34
REMARK SMILES IDX 23 35 24 36 25 37 26 38 27 39 28 40 29 41 30 42 82 43 31 44
REMARK SMILES IDX 81 45 32 46 33 47 34 48 75 49 35 50 80 51 74 52 76 53 36 54
REMARK SMILES IDX 79 55 73 56 72 57 37 59 63 60 46 61 62 62 47 63 50 64 61 65
REMARK SMILES IDX 77 66 48 67 49 68 60 70 78 71 51 72 38 73 39 74 44 75 40 76
REMARK SMILES IDX 41 77 43 78 45 79 42 80 64 81 65 82 70 83 66 84 67 85 69 86
REMARK SMILES IDX 71 87 68 88 52 89 53 90 58 91 54 92 55 93 57 94 59 95 56 96
REMARK H PARENT 1 24 1 25 76 58 50 69
REMARK Flexibility Score: inf
ROOT
ATOM      1  C   UNL A   1      33.466  25.548  23.092  1.00  0.00     0.188 C 
ENDROOT
BRANCH   1   2
ATOM      2  C   UNL A   1      32.281  26.312  23.721  1.00  0.00     0.188 C 
BRANCH   2   3
ATOM      3  O   UNL A   1      32.075  25.979  25.081  1.00  0.00    -0.376 OA
BRANCH   3   4
ATOM      4  C   UNL A   1      32.840  26.571  26.102  1.00  0.00     0.202 C 
BRANCH   4   5
ATOM      5  C   UNL A   1      32.239  27.670  26.990  1.00  0.00     0.261 C 
BRANCH   5   6
ATOM      6  O   UNL A   1      32.077  28.963  26.407  1.00  0.00    -0.458 OA
BRANCH   6   7
ATOM      7  C   UNL A   1      33.183  29.545  25.868  1.00  0.00     0.358 C 
ATOM      8  O   UNL A   1      33.465  29.520  24.676  1.00  0.00    -0.244 OA
BRANCH   7   9
ATOM      9  C   UNL A   1      33.918  30.298  26.893  1.00  0.00     0.171 A 
ATOM     10  N   UNL A   1      34.337  31.715  28.440  1.00  0.00    -0.231 N 
ATOM     11  N   UNL A   1      33.326  31.199  27.702  1.00  0.00    -0.160 NA
ATOM     12  C   UNL A   1      35.540  31.069  28.208  1.00  0.00     0.085 A 
ATOM     13  C   UNL A   1      35.278  30.120  27.248  1.00  0.00     0.068 A 
BRANCH  10  14
ATOM     14  C   UNL A   1      34.132  32.906  29.174  1.00  0.00     0.065 A 
ATOM     15  C   UNL A   1      33.660  35.191  30.668  1.00  0.00     0.082 A 
ATOM     16  C   UNL A   1      34.182  34.056  31.294  1.00  0.00     0.024 A 
ATOM     17  C   UNL A   1      33.383  35.194  29.295  1.00  0.00     0.024 A 
ATOM     18  C   UNL A   1      34.401  32.902  30.548  1.00  0.00     0.030 A 
ATOM     19  C   UNL A   1      33.652  34.053  28.532  1.00  0.00     0.030 A 
BRANCH  15  20
ATOM     20  S   UNL A   1      33.301  36.629  31.632  1.00  0.00     0.238 S 
ATOM     21  O   UNL A   1      34.397  36.883  32.528  1.00  0.00    -0.207 OA
ATOM     22  O   UNL A   1      31.922  36.550  32.070  1.00  0.00    -0.207 OA
BRANCH  20  23
ATOM     23  N   UNL A   1      33.354  37.879  30.506  1.00  0.00    -0.225 NA
ATOM     24  H   UNL A   1      34.302  37.968  30.140  1.00  0.00     0.137 HD
ATOM     25  H   UNL A   1      33.079  38.753  30.954  1.00  0.00     0.137 HD
ENDBRANCH  20  23
ENDBRANCH  15  20
ENDBRANCH  10  14
BRANCH  12  26
ATOM     26  C   UNL A   1      36.789  31.370  28.843  1.00  0.00     0.054 A 
ATOM     27  C   UNL A   1      37.407  32.605  28.865  1.00  0.00     0.024 A 
ATOM     28  S   UNL A   1      37.708  30.190  29.682  1.00  0.00    -0.122 S 
ATOM     29  C   UNL A   1      38.606  32.595  29.637  1.00  0.00     0.033 A 
ATOM     30  C   UNL A   1      38.863  31.342  30.130  1.00  0.00     0.094 A 
ATOM     31  Cl  UNL A   1      40.193  30.885  31.115  1.00  0.00    -0.072 Cl
ENDBRANCH  12  26
ENDBRANCH   7   9
ENDBRANCH   6   7
ENDBRANCH   5   6
ENDBRANCH   4   5
ENDBRANCH   3   4
ENDBRANCH   2   3
ENDBRANCH   1   2
BRANCH   1  32
ATOM     32  O   UNL A   1      33.426  24.128  23.081  1.00  0.00    -0.377 OA
BRANCH  32  33
ATOM     33  C   UNL A   1      34.611  23.370  23.327  1.00  0.00     0.188 C 
BRANCH  33  34
ATOM     34  C   UNL A   1      35.495  23.520  24.600  1.00  0.00     0.188 C 
BRANCH  34  35
ATOM     35  O   UNL A   1      35.896  22.316  25.226  1.00  0.00    -0.376 OA
BRANCH  35  36
ATOM     36  C   UNL A   1      36.805  21.399  24.657  1.00  0.00     0.202 C 
BRANCH  36  37
ATOM     37  C   UNL A   1      38.157  21.203  25.327  1.00  0.00     0.261 C 
BRANCH  37  38
ATOM     38  O   UNL A   1      38.517  22.263  26.185  1.00  0.00    -0.460 OA
BRANCH  38  39
ATOM     39  C   UNL A   1      39.773  22.181  26.657  1.00  0.00     0.338 C 
ATOM     40  O   UNL A   1      40.348  21.190  27.072  1.00  0.00    -0.246 OA
BRANCH  39  41
ATOM     41  C   UNL A   1      40.310  23.539  26.725  1.00  0.00     0.060 A 
ATOM     42  C   UNL A   1      41.598  23.690  26.219  1.00  0.00     0.016 A 
ATOM     43  C   UNL A   1      39.745  24.423  27.659  1.00  0.00     0.016 A 
ATOM     44  C   UNL A   1      42.438  24.525  26.904  1.00  0.00     0.010 A 
ATOM     45  C   UNL A   1      40.591  25.238  28.357  1.00  0.00     0.010 A 
ATOM     46  C   UNL A   1      41.942  25.185  28.036  1.00  0.00    -0.014 A 
BRANCH  46  47
ATOM     47  C   UNL A   1      42.892  25.902  28.843  1.00  0.00     0.031 A 
ATOM     48  C   UNL A   1      42.817  27.354  28.605  1.00  0.00     0.074 A 
ATOM     49  C   UNL A   1      43.687  25.288  29.736  1.00  0.00     0.049 A 
ATOM     50  N   UNL A   1      43.688  28.095  28.011  1.00  0.00    -0.248 NA
ATOM     51  C   UNL A   1      41.526  28.012  28.862  1.00  0.00     0.031 C 
ATOM     52  C   UNL A   1      43.630  23.907  30.223  1.00  0.00     0.029 A 
ATOM     53  N   UNL A   1      44.683  25.831  30.480  1.00  0.00    -0.354 N 
ATOM     54  C   UNL A   1      43.141  29.371  28.022  1.00  0.00     0.074 A 
ATOM     55  C   UNL A   1      41.749  29.222  28.350  1.00  0.00     0.031 C 
ATOM     56  C   UNL A   1      44.389  23.801  31.341  1.00  0.00     0.029 A 
ATOM     57  C   UNL A   1      45.078  25.061  31.564  1.00  0.00     0.049 A 
ATOM     58  H   UNL A   1      45.092  26.702  30.268  1.00  0.00     0.167 HD
ATOM     59  C   UNL A   1      43.947  30.462  28.060  1.00  0.00     0.037 A 
ATOM     60  C   UNL A   1      45.835  25.505  32.599  1.00  0.00     0.037 A 
ATOM     61  C   UNL A   1      45.275  30.145  27.593  1.00  0.00     0.049 A 
ATOM     62  C   UNL A   1      46.511  26.753  32.149  1.00  0.00     0.074 A 
ATOM     63  C   UNL A   1      45.789  29.635  26.415  1.00  0.00     0.029 A 
ATOM     64  N   UNL A   1      46.265  29.984  28.531  1.00  0.00    -0.354 N 
ATOM     65  N   UNL A   1      47.462  26.785  31.259  1.00  0.00    -0.248 NA
ATOM     66  C   UNL A   1      45.801  28.011  32.347  1.00  0.00     0.031 C 
ATOM     67  C   UNL A   1      46.852  28.771  26.815  1.00  0.00     0.029 A 
ATOM     68  C   UNL A   1      46.963  28.849  28.204  1.00  0.00     0.049 A 
ATOM     69  H   UNL A   1      46.441  30.574  29.299  1.00  0.00     0.167 HD
ATOM     70  C   UNL A   1      47.191  27.908  30.491  1.00  0.00     0.074 A 
ATOM     71  C   UNL A   1      46.202  28.665  31.254  1.00  0.00     0.031 C 
ATOM     72  C   UNL A   1      47.567  27.974  29.179  1.00  0.00     0.037 A 
BRANCH  59  73
ATOM     73  C   UNL A   1      43.647  31.664  28.919  1.00  0.00     0.057 A 
ATOM     74  C   UNL A   1      43.739  32.942  28.346  1.00  0.00     0.134 A 
ATOM     75  C   UNL A   1      43.571  31.647  30.330  1.00  0.00     0.134 A 
ATOM     76  F   UNL A   1      43.829  33.094  27.016  1.00  0.00    -0.206 F 
ATOM     77  C   UNL A   1      43.839  34.105  29.119  1.00  0.00     0.040 A 
ATOM     78  C   UNL A   1      43.614  32.804  31.108  1.00  0.00     0.040 A 
ATOM     79  F   UNL A   1      43.554  30.516  31.046  1.00  0.00    -0.206 F 
ATOM     80  C   UNL A   1      43.786  34.036  30.505  1.00  0.00     0.006 A 
ENDBRANCH  59  73
BRANCH  60  81
ATOM     81  C   UNL A   1      45.749  25.149  34.034  1.00  0.00     0.057 A 
ATOM     82  C   UNL A   1      44.584  25.419  34.767  1.00  0.00     0.134 A 
ATOM     83  C   UNL A   1      46.671  24.280  34.642  1.00  0.00     0.134 A 
ATOM     84  F   UNL A   1      43.628  26.210  34.259  1.00  0.00    -0.206 F 
ATOM     85  C   UNL A   1      44.329  24.824  36.011  1.00  0.00     0.040 A 
ATOM     86  C   UNL A   1      46.434  23.687  35.886  1.00  0.00     0.040 A 
ATOM     87  F   UNL A   1      47.791  23.900  34.010  1.00  0.00    -0.206 F 
ATOM     88  C   UNL A   1      45.250  23.943  36.566  1.00  0.00     0.006 A 
ENDBRANCH  60  81
BRANCH  72  89
ATOM     89  C   UNL A   1      48.499  26.913  28.663  1.00  0.00     0.057 A 
ATOM     90  C   UNL A   1      48.081  25.668  28.167  1.00  0.00     0.134 A 
ATOM     91  C   UNL A   1      49.859  27.218  28.541  1.00  0.00     0.134 A 
ATOM     92  F   UNL A   1      46.786  25.328  28.145  1.00  0.00    -0.206 F 
ATOM     93  C   UNL A   1      48.986  24.749  27.625  1.00  0.00     0.040 A 
ATOM     94  C   UNL A   1      50.767  26.325  27.969  1.00  0.00     0.040 A 
ATOM     95  F   UNL A   1      50.321  28.412  28.942  1.00  0.00    -0.206 F 
ATOM     96  C   UNL A   1      50.333  25.081  27.519  1.00  0.00     0.006 A 
ENDBRANCH  72  89
ENDBRANCH  46  47
ENDBRANCH  39  41
ENDBRANCH  38  39
ENDBRANCH  37  38
ENDBRANCH  36  37
ENDBRANCH  35  36
ENDBRANCH  34  35
ENDBRANCH  33  34
ENDBRANCH  32  33
ENDBRANCH   1  32
TORSDOF 24
ENDMDL
