MODEL 1
REMARK VINA RESULT:      -9.5      0.000      0.000
REMARK SMILES CCn1cc(C)c(C(=O)OCCOCCOCCOCCOC(=O)c2ccc(-c3c4nc(c(-c5c(F)cccc5F)c5ccc([nH]5)c(-c5c(F)cccc5F)c5nc(c(-c6c(F)cccc6F)c6ccc3[nH]6)C=C5)C=C4)cc2)c1CC(=O)NCc1cccc(C)c1
REMARK SMILES IDX 15 1 14 2 13 3 12 4 11 5 10 6 8 7 9 8 7 9 3 10 4 11 79 12
REMARK SMILES IDX 5 13 6 14 2 15 1 16 80 17 81 18 82 19 83 20 84 22 85 23
REMARK SMILES IDX 86 24 91 25 87 26 89 27 88 28 90 29 16 30 17 31 18 32 19 33
REMARK SMILES IDX 20 34 21 35 22 36 23 37 24 38 25 39 26 40 78 41 27 42 77 43
REMARK SMILES IDX 28 44 29 45 30 46 71 47 31 48 76 49 70 50 72 51 32 52 75 53
REMARK SMILES IDX 69 54 68 55 33 57 59 58 42 59 58 60 43 61 46 62 57 63 73 64
REMARK SMILES IDX 44 65 45 66 56 68 74 69 47 70 34 71 35 72 40 73 36 74 37 75
REMARK SMILES IDX 39 76 41 77 38 78 60 79 61 80 66 81 62 82 63 83 65 84 67 85
REMARK SMILES IDX 64 86 48 87 49 88 54 89 50 90 51 91 53 92 55 93 52 94
REMARK H PARENT 83 21 72 56 46 67
REMARK Flexibility Score: inf
ROOT
ATOM      1  C   UNL A   1      34.091  31.991  28.072  1.00  0.00     0.188 C 
ENDROOT
BRANCH   1   2
ATOM      2  C   UNL A   1      35.316  31.158  27.675  1.00  0.00     0.188 C 
BRANCH   2   3
ATOM      3  O   UNL A   1      34.996  29.792  27.494  1.00  0.00    -0.376 OA
BRANCH   3   4
ATOM      4  C   UNL A   1      33.659  29.373  27.662  1.00  0.00     0.202 C 
BRANCH   4   5
ATOM      5  C   UNL A   1      33.156  28.104  26.950  1.00  0.00     0.261 C 
BRANCH   5   6
ATOM      6  O   UNL A   1      33.987  27.525  25.936  1.00  0.00    -0.460 OA
BRANCH   6   7
ATOM      7  C   UNL A   1      33.400  26.762  24.988  1.00  0.00     0.340 C 
ATOM      8  O   UNL A   1      33.558  25.540  24.911  1.00  0.00    -0.246 OA
BRANCH   7   9
ATOM      9  C   UNL A   1      32.456  27.503  24.130  1.00  0.00     0.084 A 
ATOM     10  N   UNL A   1      30.616  28.479  23.291  1.00  0.00    -0.350 N 
ATOM     11  C   UNL A   1      31.707  29.017  22.639  1.00  0.00     0.090 A 
ATOM     12  C   UNL A   1      31.048  27.398  24.048  1.00  0.00     0.042 A 
ATOM     13  C   UNL A   1      32.852  28.408  23.087  1.00  0.00    -0.019 A 
ATOM     14  C   UNL A   1      34.216  28.604  22.522  1.00  0.00     0.047 C 
BRANCH  10  15
ATOM     15  C   UNL A   1      29.302  29.049  23.018  1.00  0.00     0.118 C 
ATOM     16  C   UNL A   1      29.124  30.186  22.030  1.00  0.00     0.027 C 
ENDBRANCH  10  15
BRANCH  12  17
ATOM     17  C   UNL A   1      30.140  26.378  24.697  1.00  0.00     0.154 C 
BRANCH  17  18
ATOM     18  C   UNL A   1      30.253  24.967  24.113  1.00  0.00     0.226 C 
ATOM     19  O   UNL A   1      30.262  24.811  22.885  1.00  0.00    -0.275 OA
ATOM     20  N   UNL A   1      30.401  23.846  24.875  1.00  0.00    -0.352 N 
ATOM     21  H   UNL A   1      30.225  23.005  24.393  1.00  0.00     0.163 HD
BRANCH  20  22
ATOM     22  C   UNL A   1      30.771  23.666  26.262  1.00  0.00     0.151 C 
BRANCH  22  23
ATOM     23  C   UNL A   1      31.974  22.777  26.469  1.00  0.00    -0.029 A 
ATOM     24  C   UNL A   1      32.835  22.998  27.548  1.00  0.00     0.005 A 
ATOM     25  C   UNL A   1      32.310  21.759  25.563  1.00  0.00     0.009 A 
ATOM     26  C   UNL A   1      33.979  22.227  27.749  1.00  0.00     0.001 A 
ATOM     27  C   UNL A   1      33.474  20.989  25.739  1.00  0.00    -0.051 A 
ATOM     28  C   UNL A   1      34.299  21.223  26.845  1.00  0.00     0.003 A 
ATOM     29  C   UNL A   1      33.864  19.926  24.754  1.00  0.00     0.044 C 
ENDBRANCH  22  23
ENDBRANCH  20  22
ENDBRANCH  17  18
ENDBRANCH  12  17
ENDBRANCH   7   9
ENDBRANCH   6   7
ENDBRANCH   5   6
ENDBRANCH   4   5
ENDBRANCH   3   4
ENDBRANCH   2   3
ENDBRANCH   1   2
BRANCH   1  30
ATOM     30  O   UNL A   1      34.253  33.305  28.584  1.00  0.00    -0.377 OA
BRANCH  30  31
ATOM     31  C   UNL A   1      33.188  34.204  28.354  1.00  0.00     0.188 C 
BRANCH  31  32
ATOM     32  C   UNL A   1      32.880  35.109  29.565  1.00  0.00     0.188 C 
BRANCH  32  33
ATOM     33  O   UNL A   1      33.854  35.484  30.541  1.00  0.00    -0.376 OA
BRANCH  33  34
ATOM     34  C   UNL A   1      33.625  35.566  31.939  1.00  0.00     0.202 C 
BRANCH  34  35
ATOM     35  C   UNL A   1      34.557  36.307  32.894  1.00  0.00     0.261 C 
BRANCH  35  36
ATOM     36  O   UNL A   1      35.171  35.489  33.861  1.00  0.00    -0.460 OA
BRANCH  36  37
ATOM     37  C   UNL A   1      35.137  34.187  33.563  1.00  0.00     0.338 C 
ATOM     38  O   UNL A   1      34.479  33.303  34.113  1.00  0.00    -0.246 OA
BRANCH  37  39
ATOM     39  C   UNL A   1      36.133  33.932  32.528  1.00  0.00     0.060 A 
ATOM     40  C   UNL A   1      35.856  32.861  31.679  1.00  0.00     0.016 A 
ATOM     41  C   UNL A   1      37.422  34.468  32.686  1.00  0.00     0.016 A 
ATOM     42  C   UNL A   1      36.917  32.111  31.255  1.00  0.00     0.010 A 
ATOM     43  C   UNL A   1      38.482  33.711  32.269  1.00  0.00     0.010 A 
ATOM     44  C   UNL A   1      38.196  32.485  31.677  1.00  0.00    -0.014 A 
BRANCH  44  45
ATOM     45  C   UNL A   1      39.249  31.516  31.517  1.00  0.00     0.031 A 
ATOM     46  C   UNL A   1      39.966  31.239  32.771  1.00  0.00     0.074 A 
ATOM     47  C   UNL A   1      39.468  30.915  30.335  1.00  0.00     0.049 A 
ATOM     48  N   UNL A   1      41.183  31.540  33.068  1.00  0.00    -0.248 NA
ATOM     49  C   UNL A   1      39.167  30.729  33.896  1.00  0.00     0.031 C 
ATOM     50  C   UNL A   1      38.637  30.941  29.126  1.00  0.00     0.029 A 
ATOM     51  N   UNL A   1      40.465  30.058  30.003  1.00  0.00    -0.354 N 
ATOM     52  C   UNL A   1      41.368  31.055  34.357  1.00  0.00     0.074 A 
ATOM     53  C   UNL A   1      40.062  30.762  34.881  1.00  0.00     0.031 C 
ATOM     54  C   UNL A   1      39.047  29.963  28.286  1.00  0.00     0.029 A 
ATOM     55  C   UNL A   1      40.238  29.342  28.839  1.00  0.00     0.049 A 
ATOM     56  H   UNL A   1      41.282  29.955  30.542  1.00  0.00     0.167 HD
ATOM     57  C   UNL A   1      42.597  30.656  34.776  1.00  0.00     0.037 A 
ATOM     58  C   UNL A   1      40.941  28.256  28.435  1.00  0.00     0.037 A 
ATOM     59  C   UNL A   1      43.643  31.241  33.975  1.00  0.00     0.049 A 
ATOM     60  C   UNL A   1      42.234  28.267  29.170  1.00  0.00     0.074 A 
ATOM     61  C   UNL A   1      44.044  32.533  33.695  1.00  0.00     0.029 A 
ATOM     62  N   UNL A   1      44.235  30.451  33.019  1.00  0.00    -0.354 N 
ATOM     63  N   UNL A   1      43.169  29.158  28.978  1.00  0.00    -0.248 NA
ATOM     64  C   UNL A   1      42.295  27.571  30.448  1.00  0.00     0.031 C 
ATOM     65  C   UNL A   1      44.470  32.505  32.333  1.00  0.00     0.029 A 
ATOM     66  C   UNL A   1      44.341  31.194  31.872  1.00  0.00     0.049 A 
ATOM     67  H   UNL A   1      44.530  29.519  33.137  1.00  0.00     0.167 HD
ATOM     68  C   UNL A   1      43.673  29.429  30.243  1.00  0.00     0.074 A 
ATOM     69  C   UNL A   1      43.156  28.362  31.096  1.00  0.00     0.031 C 
ATOM     70  C   UNL A   1      44.219  30.646  30.541  1.00  0.00     0.037 A 
BRANCH  57  71
ATOM     71  C   UNL A   1      42.807  29.425  35.620  1.00  0.00     0.057 A 
ATOM     72  C   UNL A   1      43.707  29.491  36.696  1.00  0.00     0.134 A 
ATOM     73  C   UNL A   1      42.410  28.122  35.249  1.00  0.00     0.134 A 
ATOM     74  F   UNL A   1      44.166  30.672  37.137  1.00  0.00    -0.206 F 
ATOM     75  C   UNL A   1      44.237  28.345  37.297  1.00  0.00     0.040 A 
ATOM     76  C   UNL A   1      42.891  26.974  35.879  1.00  0.00     0.040 A 
ATOM     77  F   UNL A   1      41.622  27.872  34.197  1.00  0.00    -0.206 F 
ATOM     78  C   UNL A   1      43.837  27.081  36.883  1.00  0.00     0.006 A 
ENDBRANCH  57  71
BRANCH  58  79
ATOM     79  C   UNL A   1      40.411  27.054  27.754  1.00  0.00     0.057 A 
ATOM     80  C   UNL A   1      40.909  26.640  26.513  1.00  0.00     0.134 A 
ATOM     81  C   UNL A   1      39.579  26.137  28.424  1.00  0.00     0.134 A 
ATOM     82  F   UNL A   1      41.752  27.420  25.824  1.00  0.00    -0.206 F 
ATOM     83  C   UNL A   1      40.600  25.384  25.970  1.00  0.00     0.040 A 
ATOM     84  C   UNL A   1      39.256  24.886  27.890  1.00  0.00     0.040 A 
ATOM     85  F   UNL A   1      39.118  26.389  29.658  1.00  0.00    -0.206 F 
ATOM     86  C   UNL A   1      39.776  24.500  26.662  1.00  0.00     0.006 A 
ENDBRANCH  58  79
BRANCH  70  87
ATOM     87  C   UNL A   1      44.467  31.594  29.401  1.00  0.00     0.057 A 
ATOM     88  C   UNL A   1      45.593  31.524  28.565  1.00  0.00     0.134 A 
ATOM     89  C   UNL A   1      43.461  32.493  29.033  1.00  0.00     0.134 A 
ATOM     90  F   UNL A   1      46.559  30.625  28.782  1.00  0.00    -0.206 F 
ATOM     91  C   UNL A   1      45.726  32.337  27.436  1.00  0.00     0.040 A 
ATOM     92  C   UNL A   1      43.567  33.289  27.890  1.00  0.00     0.040 A 
ATOM     93  F   UNL A   1      42.329  32.571  29.751  1.00  0.00    -0.206 F 
ATOM     94  C   UNL A   1      44.706  33.219  27.091  1.00  0.00     0.006 A 
ENDBRANCH  70  87
ENDBRANCH  44  45
ENDBRANCH  37  39
ENDBRANCH  36  37
ENDBRANCH  35  36
ENDBRANCH  34  35
ENDBRANCH  33  34
ENDBRANCH  32  33
ENDBRANCH  31  32
ENDBRANCH  30  31
ENDBRANCH   1  30
TORSDOF 25
ENDMDL
MODEL 2
REMARK VINA RESULT:      -9.3      2.075      5.768
REMARK SMILES CCn1cc(C)c(C(=O)OCCOCCOCCOCCOC(=O)c2ccc(-c3c4nc(c(-c5c(F)cccc5F)c5ccc([nH]5)c(-c5c(F)cccc5F)c5nc(c(-c6c(F)cccc6F)c6ccc3[nH]6)C=C5)C=C4)cc2)c1CC(=O)NCc1cccc(C)c1
REMARK SMILES IDX 15 1 14 2 13 3 12 4 11 5 10 6 8 7 9 8 7 9 3 10 4 11 79 12
REMARK SMILES IDX 5 13 6 14 2 15 1 16 80 17 81 18 82 19 83 20 84 22 85 23
REMARK SMILES IDX 86 24 91 25 87 26 89 27 88 28 90 29 16 30 17 31 18 32 19 33
REMARK SMILES IDX 20 34 21 35 22 36 23 37 24 38 25 39 26 40 78 41 27 42 77 43
REMARK SMILES IDX 28 44 29 45 30 46 71 47 31 48 76 49 70 50 72 51 32 52 75 53
REMARK SMILES IDX 69 54 68 55 33 57 59 58 42 59 58 60 43 61 46 62 57 63 73 64
REMARK SMILES IDX 44 65 45 66 56 68 74 69 47 70 34 71 35 72 40 73 36 74 37 75
REMARK SMILES IDX 39 76 41 77 38 78 60 79 61 80 66 81 62 82 63 83 65 84 67 85
REMARK SMILES IDX 64 86 48 87 49 88 54 89 50 90 51 91 53 92 55 93 52 94
REMARK H PARENT 83 21 72 56 46 67
REMARK Flexibility Score: inf
ROOT
ATOM      1  C   UNL A   1      34.359  32.789  28.927  1.00  0.00     0.188 C 
ENDROOT
BRANCH   1   2
ATOM      2  C   UNL A   1      35.710  32.438  28.292  1.00  0.00     0.188 C 
BRANCH   2   3
ATOM      3  O   UNL A   1      35.828  31.055  28.021  1.00  0.00    -0.376 OA
BRANCH   3   4
ATOM      4  C   UNL A   1      34.717  30.361  27.497  1.00  0.00     0.202 C 
BRANCH   4   5
ATOM      5  C   UNL A   1      34.843  28.870  27.134  1.00  0.00     0.261 C 
BRANCH   5   6
ATOM      6  O   UNL A   1      33.655  28.165  26.755  1.00  0.00    -0.460 OA
BRANCH   6   7
ATOM      7  C   UNL A   1      33.660  27.486  25.587  1.00  0.00     0.340 C 
ATOM      8  O   UNL A   1      34.309  26.450  25.411  1.00  0.00    -0.246 OA
BRANCH   7   9
ATOM      9  C   UNL A   1      32.726  28.027  24.582  1.00  0.00     0.084 A 
ATOM     10  N   UNL A   1      30.909  28.849  23.551  1.00  0.00    -0.350 N 
ATOM     11  C   UNL A   1      32.002  29.136  22.759  1.00  0.00     0.090 A 
ATOM     12  C   UNL A   1      31.312  27.982  24.557  1.00  0.00     0.042 A 
ATOM     13  C   UNL A   1      33.131  28.604  23.331  1.00  0.00    -0.019 A 
ATOM     14  C   UNL A   1      34.483  28.571  22.709  1.00  0.00     0.047 C 
BRANCH  10  15
ATOM     15  C   UNL A   1      29.615  29.399  23.161  1.00  0.00     0.118 C 
ATOM     16  C   UNL A   1      29.419  30.085  21.823  1.00  0.00     0.027 C 
ENDBRANCH  10  15
BRANCH  12  17
ATOM     17  C   UNL A   1      30.379  27.218  25.468  1.00  0.00     0.154 C 
BRANCH  17  18
ATOM     18  C   UNL A   1      29.705  26.009  24.815  1.00  0.00     0.226 C 
ATOM     19  O   UNL A   1      28.827  26.183  23.960  1.00  0.00    -0.275 OA
ATOM     20  N   UNL A   1      30.053  24.718  25.082  1.00  0.00    -0.352 N 
ATOM     21  H   UNL A   1      29.393  24.051  24.779  1.00  0.00     0.163 HD
BRANCH  20  22
ATOM     22  C   UNL A   1      31.215  24.147  25.727  1.00  0.00     0.151 C 
BRANCH  22  23
ATOM     23  C   UNL A   1      32.341  23.806  24.779  1.00  0.00    -0.029 A 
ATOM     24  C   UNL A   1      32.324  24.283  23.465  1.00  0.00     0.005 A 
ATOM     25  C   UNL A   1      33.392  22.954  25.150  1.00  0.00     0.009 A 
ATOM     26  C   UNL A   1      33.321  23.955  22.548  1.00  0.00     0.001 A 
ATOM     27  C   UNL A   1      34.393  22.594  24.229  1.00  0.00    -0.051 A 
ATOM     28  C   UNL A   1      34.355  23.112  22.929  1.00  0.00     0.003 A 
ATOM     29  C   UNL A   1      35.498  21.651  24.604  1.00  0.00     0.044 C 
ENDBRANCH  22  23
ENDBRANCH  20  22
ENDBRANCH  17  18
ENDBRANCH  12  17
ENDBRANCH   7   9
ENDBRANCH   6   7
ENDBRANCH   5   6
ENDBRANCH   4   5
ENDBRANCH   3   4
ENDBRANCH   2   3
ENDBRANCH   1   2
BRANCH   1  30
ATOM     30  O   UNL A   1      33.542  33.801  28.361  1.00  0.00    -0.377 OA
BRANCH  30  31
ATOM     31  C   UNL A   1      34.025  35.125  28.455  1.00  0.00     0.188 C 
BRANCH  31  32
ATOM     32  C   UNL A   1      32.983  36.119  29.009  1.00  0.00     0.188 C 
BRANCH  32  33
ATOM     33  O   UNL A   1      33.215  36.959  30.142  1.00  0.00    -0.376 OA
BRANCH  33  34
ATOM     34  C   UNL A   1      32.613  36.801  31.417  1.00  0.00     0.202 C 
BRANCH  34  35
ATOM     35  C   UNL A   1      32.846  35.581  32.304  1.00  0.00     0.261 C 
BRANCH  35  36
ATOM     36  O   UNL A   1      34.007  34.849  31.993  1.00  0.00    -0.460 OA
BRANCH  36  37
ATOM     37  C   UNL A   1      34.255  33.847  32.843  1.00  0.00     0.338 C 
ATOM     38  O   UNL A   1      33.469  32.988  33.247  1.00  0.00    -0.246 OA
BRANCH  37  39
ATOM     39  C   UNL A   1      35.616  34.002  33.344  1.00  0.00     0.060 A 
ATOM     40  C   UNL A   1      36.419  34.892  32.634  1.00  0.00     0.016 A 
ATOM     41  C   UNL A   1      36.139  33.010  34.192  1.00  0.00     0.016 A 
ATOM     42  C   UNL A   1      37.743  34.573  32.504  1.00  0.00     0.010 A 
ATOM     43  C   UNL A   1      37.460  32.686  34.054  1.00  0.00     0.010 A 
ATOM     44  C   UNL A   1      38.197  33.398  33.113  1.00  0.00    -0.014 A 
BRANCH  44  45
ATOM     45  C   UNL A   1      39.480  32.897  32.694  1.00  0.00     0.031 A 
ATOM     46  C   UNL A   1      39.380  31.666  31.897  1.00  0.00     0.074 A 
ATOM     47  C   UNL A   1      40.613  33.562  32.980  1.00  0.00     0.049 A 
ATOM     48  N   UNL A   1      39.759  30.478  32.226  1.00  0.00    -0.248 NA
ATOM     49  C   UNL A   1      38.594  31.738  30.656  1.00  0.00     0.031 C 
ATOM     50  C   UNL A   1      40.769  34.912  33.531  1.00  0.00     0.029 A 
ATOM     51  N   UNL A   1      41.892  33.180  32.738  1.00  0.00    -0.354 N 
ATOM     52  C   UNL A   1      39.449  29.686  31.128  1.00  0.00     0.074 A 
ATOM     53  C   UNL A   1      38.563  30.456  30.297  1.00  0.00     0.031 C 
ATOM     54  C   UNL A   1      42.051  35.313  33.365  1.00  0.00     0.029 A 
ATOM     55  C   UNL A   1      42.819  34.205  32.824  1.00  0.00     0.049 A 
ATOM     56  H   UNL A   1      42.140  32.252  32.521  1.00  0.00     0.167 HD
ATOM     57  C   UNL A   1      40.181  28.578  30.846  1.00  0.00     0.037 A 
ATOM     58  C   UNL A   1      44.099  34.146  32.382  1.00  0.00     0.037 A 
ATOM     59  C   UNL A   1      40.892  28.106  32.008  1.00  0.00     0.049 A 
ATOM     60  C   UNL A   1      44.453  32.707  32.244  1.00  0.00     0.074 A 
ATOM     61  C   UNL A   1      40.518  27.666  33.263  1.00  0.00     0.029 A 
ATOM     62  N   UNL A   1      42.233  28.390  32.097  1.00  0.00    -0.354 N 
ATOM     63  N   UNL A   1      44.584  31.894  33.257  1.00  0.00    -0.248 NA
ATOM     64  C   UNL A   1      44.201  32.066  30.961  1.00  0.00     0.031 C 
ATOM     65  C   UNL A   1      41.532  28.145  34.145  1.00  0.00     0.029 A 
ATOM     66  C   UNL A   1      42.484  28.815  33.376  1.00  0.00     0.049 A 
ATOM     67  H   UNL A   1      42.895  28.305  31.373  1.00  0.00     0.167 HD
ATOM     68  C   UNL A   1      44.027  30.695  32.829  1.00  0.00     0.074 A 
ATOM     69  C   UNL A   1      43.887  30.836  31.382  1.00  0.00     0.031 C 
ATOM     70  C   UNL A   1      43.466  29.820  33.715  1.00  0.00     0.037 A 
BRANCH  57  71
ATOM     71  C   UNL A   1      40.572  28.197  29.441  1.00  0.00     0.057 A 
ATOM     72  C   UNL A   1      41.245  29.141  28.649  1.00  0.00     0.134 A 
ATOM     73  C   UNL A   1      40.059  27.083  28.741  1.00  0.00     0.134 A 
ATOM     74  F   UNL A   1      41.769  30.248  29.196  1.00  0.00    -0.206 F 
ATOM     75  C   UNL A   1      41.325  29.027  27.258  1.00  0.00     0.040 A 
ATOM     76  C   UNL A   1      40.182  26.933  27.359  1.00  0.00     0.040 A 
ATOM     77  F   UNL A   1      39.324  26.130  29.326  1.00  0.00    -0.206 F 
ATOM     78  C   UNL A   1      40.783  27.926  26.607  1.00  0.00     0.006 A 
ENDBRANCH  57  71
BRANCH  58  79
ATOM     79  C   UNL A   1      44.871  35.231  31.738  1.00  0.00     0.057 A 
ATOM     80  C   UNL A   1      44.558  35.685  30.451  1.00  0.00     0.134 A 
ATOM     81  C   UNL A   1      45.776  36.022  32.469  1.00  0.00     0.134 A 
ATOM     82  F   UNL A   1      43.665  35.029  29.697  1.00  0.00    -0.206 F 
ATOM     83  C   UNL A   1      45.109  36.861  29.923  1.00  0.00     0.040 A 
ATOM     84  C   UNL A   1      46.341  37.193  31.951  1.00  0.00     0.040 A 
ATOM     85  F   UNL A   1      46.080  35.735  33.743  1.00  0.00    -0.206 F 
ATOM     86  C   UNL A   1      45.999  37.623  30.676  1.00  0.00     0.006 A 
ENDBRANCH  58  79
BRANCH  70  87
ATOM     87  C   UNL A   1      43.677  30.084  35.180  1.00  0.00     0.057 A 
ATOM     88  C   UNL A   1      44.822  29.680  35.884  1.00  0.00     0.134 A 
ATOM     89  C   UNL A   1      42.778  30.914  35.857  1.00  0.00     0.134 A 
ATOM     90  F   UNL A   1      45.785  28.967  35.287  1.00  0.00    -0.206 F 
ATOM     91  C   UNL A   1      45.044  30.056  37.212  1.00  0.00     0.040 A 
ATOM     92  C   UNL A   1      43.002  31.322  37.174  1.00  0.00     0.040 A 
ATOM     93  F   UNL A   1      41.690  31.387  35.228  1.00  0.00    -0.206 F 
ATOM     94  C   UNL A   1      44.135  30.887  37.859  1.00  0.00     0.006 A 
ENDBRANCH  70  87
ENDBRANCH  44  45
ENDBRANCH  37  39
ENDBRANCH  36  37
ENDBRANCH  35  36
ENDBRANCH  34  35
ENDBRANCH  33  34
ENDBRANCH  32  33
ENDBRANCH  31  32
ENDBRANCH  30  31
ENDBRANCH   1  30
TORSDOF 25
ENDMDL
MODEL 3
REMARK VINA RESULT:      -8.9      4.374      7.796
REMARK SMILES CCn1cc(C)c(C(=O)OCCOCCOCCOCCOC(=O)c2ccc(-c3c4nc(c(-c5c(F)cccc5F)c5ccc([nH]5)c(-c5c(F)cccc5F)c5nc(c(-c6c(F)cccc6F)c6ccc3[nH]6)C=C5)C=C4)cc2)c1CC(=O)NCc1cccc(C)c1
REMARK SMILES IDX 15 1 14 2 13 3 12 4 11 5 10 6 8 7 9 8 7 9 3 10 4 11 79 12
REMARK SMILES IDX 5 13 6 14 2 15 1 16 80 17 81 18 82 19 83 20 84 22 85 23
REMARK SMILES IDX 86 24 91 25 87 26 89 27 88 28 90 29 16 30 17 31 18 32 19 33
REMARK SMILES IDX 20 34 21 35 22 36 23 37 24 38 25 39 26 40 78 41 27 42 77 43
REMARK SMILES IDX 28 44 29 45 30 46 71 47 31 48 76 49 70 50 72 51 32 52 75 53
REMARK SMILES IDX 69 54 68 55 33 57 59 58 42 59 58 60 43 61 46 62 57 63 73 64
REMARK SMILES IDX 44 65 45 66 56 68 74 69 47 70 34 71 35 72 40 73 36 74 37 75
REMARK SMILES IDX 39 76 41 77 38 78 60 79 61 80 66 81 62 82 63 83 65 84 67 85
REMARK SMILES IDX 64 86 48 87 49 88 54 89 50 90 51 91 53 92 55 93 52 94
REMARK H PARENT 83 21 72 56 46 67
REMARK Flexibility Score: inf
ROOT
ATOM      1  C   UNL A   1      36.939  29.458  28.989  1.00  0.00     0.188 C 
ENDROOT
BRANCH   1   2
ATOM      2  C   UNL A   1      38.015  30.504  28.671  1.00  0.00     0.188 C 
BRANCH   2   3
ATOM      3  O   UNL A   1      39.307  29.933  28.602  1.00  0.00    -0.376 OA
BRANCH   3   4
ATOM      4  C   UNL A   1      39.502  28.764  27.837  1.00  0.00     0.202 C 
BRANCH   4   5
ATOM      5  C   UNL A   1      40.454  28.786  26.628  1.00  0.00     0.261 C 
BRANCH   5   6
ATOM      6  O   UNL A   1      41.759  28.216  26.786  1.00  0.00    -0.460 OA
BRANCH   6   7
ATOM      7  C   UNL A   1      42.524  28.054  25.684  1.00  0.00     0.340 C 
ATOM      8  O   UNL A   1      42.232  28.533  24.584  1.00  0.00    -0.246 OA
BRANCH   7   9
ATOM      9  C   UNL A   1      43.799  27.358  25.942  1.00  0.00     0.084 A 
ATOM     10  N   UNL A   1      45.472  25.862  25.958  1.00  0.00    -0.350 N 
ATOM     11  C   UNL A   1      45.989  27.068  26.386  1.00  0.00     0.090 A 
ATOM     12  C   UNL A   1      44.090  25.975  25.894  1.00  0.00     0.042 A 
ATOM     13  C   UNL A   1      44.983  28.001  26.440  1.00  0.00    -0.019 A 
ATOM     14  C   UNL A   1      45.107  29.377  26.994  1.00  0.00     0.047 C 
BRANCH  10  15
ATOM     15  C   UNL A   1      46.398  24.753  25.751  1.00  0.00     0.118 C 
ATOM     16  C   UNL A   1      46.370  23.525  26.641  1.00  0.00     0.027 C 
ENDBRANCH  10  15
BRANCH  12  17
ATOM     17  C   UNL A   1      43.133  24.816  25.730  1.00  0.00     0.154 C 
BRANCH  17  18
ATOM     18  C   UNL A   1      42.639  24.212  27.046  1.00  0.00     0.226 C 
ATOM     19  O   UNL A   1      42.654  24.895  28.079  1.00  0.00    -0.275 OA
ATOM     20  N   UNL A   1      42.122  22.955  27.151  1.00  0.00    -0.352 N 
ATOM     21  H   UNL A   1      42.067  22.616  28.074  1.00  0.00     0.163 HD
BRANCH  20  22
ATOM     22  C   UNL A   1      41.636  22.027  26.152  1.00  0.00     0.151 C 
BRANCH  22  23
ATOM     23  C   UNL A   1      42.590  20.897  25.846  1.00  0.00    -0.029 A 
ATOM     24  C   UNL A   1      42.213  19.572  26.086  1.00  0.00     0.005 A 
ATOM     25  C   UNL A   1      43.895  21.130  25.384  1.00  0.00     0.009 A 
ATOM     26  C   UNL A   1      43.079  18.505  25.857  1.00  0.00     0.001 A 
ATOM     27  C   UNL A   1      44.788  20.065  25.171  1.00  0.00    -0.051 A 
ATOM     28  C   UNL A   1      44.366  18.751  25.400  1.00  0.00     0.003 A 
ATOM     29  C   UNL A   1      46.198  20.307  24.718  1.00  0.00     0.044 C 
ENDBRANCH  22  23
ENDBRANCH  20  22
ENDBRANCH  17  18
ENDBRANCH  12  17
ENDBRANCH   7   9
ENDBRANCH   6   7
ENDBRANCH   5   6
ENDBRANCH   4   5
ENDBRANCH   3   4
ENDBRANCH   2   3
ENDBRANCH   1   2
BRANCH   1  30
ATOM     30  O   UNL A   1      35.810  29.311  28.142  1.00  0.00    -0.377 OA
BRANCH  30  31
ATOM     31  C   UNL A   1      35.526  30.391  27.278  1.00  0.00     0.188 C 
BRANCH  31  32
ATOM     32  C   UNL A   1      34.760  31.540  27.967  1.00  0.00     0.188 C 
BRANCH  32  33
ATOM     33  O   UNL A   1      35.233  32.887  28.019  1.00  0.00    -0.376 OA
BRANCH  33  34
ATOM     34  C   UNL A   1      34.433  34.046  27.840  1.00  0.00     0.202 C 
BRANCH  34  35
ATOM     35  C   UNL A   1      33.743  34.768  28.993  1.00  0.00     0.261 C 
BRANCH  35  36
ATOM     36  O   UNL A   1      33.710  34.042  30.198  1.00  0.00    -0.460 OA
BRANCH  36  37
ATOM     37  C   UNL A   1      34.184  34.721  31.248  1.00  0.00     0.338 C 
ATOM     38  O   UNL A   1      33.985  35.902  31.536  1.00  0.00    -0.246 OA
BRANCH  37  39
ATOM     39  C   UNL A   1      35.113  33.856  31.966  1.00  0.00     0.060 A 
ATOM     40  C   UNL A   1      35.900  34.487  32.928  1.00  0.00     0.016 A 
ATOM     41  C   UNL A   1      35.443  32.610  31.407  1.00  0.00     0.016 A 
ATOM     42  C   UNL A   1      37.183  34.039  33.077  1.00  0.00     0.010 A 
ATOM     43  C   UNL A   1      36.730  32.169  31.550  1.00  0.00     0.010 A 
ATOM     44  C   UNL A   1      37.602  32.970  32.280  1.00  0.00    -0.014 A 
BRANCH  44  45
ATOM     45  C   UNL A   1      39.019  32.733  32.193  1.00  0.00     0.031 A 
ATOM     46  C   UNL A   1      39.444  31.536  32.933  1.00  0.00     0.074 A 
ATOM     47  C   UNL A   1      39.813  33.522  31.448  1.00  0.00     0.049 A 
ATOM     48  N   UNL A   1      40.166  31.480  34.000  1.00  0.00    -0.248 NA
ATOM     49  C   UNL A   1      38.835  30.257  32.536  1.00  0.00     0.031 C 
ATOM     50  C   UNL A   1      39.428  34.559  30.484  1.00  0.00     0.029 A 
ATOM     51  N   UNL A   1      41.164  33.486  31.337  1.00  0.00    -0.354 N 
ATOM     52  C   UNL A   1      40.280  30.126  34.286  1.00  0.00     0.074 A 
ATOM     53  C   UNL A   1      39.290  29.450  33.493  1.00  0.00     0.031 C 
ATOM     54  C   UNL A   1      40.504  34.884  29.731  1.00  0.00     0.029 A 
ATOM     55  C   UNL A   1      41.665  34.181  30.249  1.00  0.00     0.049 A 
ATOM     56  H   UNL A   1      41.739  33.008  31.977  1.00  0.00     0.167 HD
ATOM     57  C   UNL A   1      41.377  29.644  34.926  1.00  0.00     0.037 A 
ATOM     58  C   UNL A   1      42.930  34.087  29.772  1.00  0.00     0.037 A 
ATOM     59  C   UNL A   1      42.062  30.684  35.651  1.00  0.00     0.049 A 
ATOM     60  C   UNL A   1      43.771  33.515  30.858  1.00  0.00     0.074 A 
ATOM     61  C   UNL A   1      41.715  31.545  36.675  1.00  0.00     0.029 A 
ATOM     62  N   UNL A   1      43.204  31.209  35.095  1.00  0.00    -0.354 N 
ATOM     63  N   UNL A   1      44.051  34.147  31.966  1.00  0.00    -0.248 NA
ATOM     64  C   UNL A   1      43.909  32.066  30.919  1.00  0.00     0.031 C 
ATOM     65  C   UNL A   1      42.390  32.767  36.381  1.00  0.00     0.029 A 
ATOM     66  C   UNL A   1      43.139  32.572  35.220  1.00  0.00     0.049 A 
ATOM     67  H   UNL A   1      43.935  30.697  34.680  1.00  0.00     0.167 HD
ATOM     68  C   UNL A   1      43.996  33.176  32.958  1.00  0.00     0.074 A 
ATOM     69  C   UNL A   1      43.989  31.903  32.243  1.00  0.00     0.031 C 
ATOM     70  C   UNL A   1      43.668  33.498  34.244  1.00  0.00     0.037 A 
BRANCH  57  71
ATOM     71  C   UNL A   1      42.039  28.347  34.540  1.00  0.00     0.057 A 
ATOM     72  C   UNL A   1      42.313  27.405  35.545  1.00  0.00     0.134 A 
ATOM     73  C   UNL A   1      42.683  28.112  33.305  1.00  0.00     0.134 A 
ATOM     74  F   UNL A   1      41.769  27.523  36.765  1.00  0.00    -0.206 F 
ATOM     75  C   UNL A   1      43.226  26.361  35.360  1.00  0.00     0.040 A 
ATOM     76  C   UNL A   1      43.553  27.042  33.095  1.00  0.00     0.040 A 
ATOM     77  F   UNL A   1      42.596  28.952  32.267  1.00  0.00    -0.206 F 
ATOM     78  C   UNL A   1      43.857  26.183  34.135  1.00  0.00     0.006 A 
ENDBRANCH  57  71
BRANCH  58  79
ATOM     79  C   UNL A   1      43.354  34.113  28.355  1.00  0.00     0.057 A 
ATOM     80  C   UNL A   1      43.790  35.295  27.745  1.00  0.00     0.134 A 
ATOM     81  C   UNL A   1      43.580  32.925  27.634  1.00  0.00     0.134 A 
ATOM     82  F   UNL A   1      43.667  36.471  28.376  1.00  0.00    -0.206 F 
ATOM     83  C   UNL A   1      44.420  35.296  26.492  1.00  0.00     0.040 A 
ATOM     84  C   UNL A   1      44.199  32.913  26.380  1.00  0.00     0.040 A 
ATOM     85  F   UNL A   1      43.286  31.726  28.158  1.00  0.00    -0.206 F 
ATOM     86  C   UNL A   1      44.632  34.102  25.808  1.00  0.00     0.006 A 
ENDBRANCH  58  79
BRANCH  70  87
ATOM     87  C   UNL A   1      43.598  34.958  34.600  1.00  0.00     0.057 A 
ATOM     88  C   UNL A   1      42.442  35.739  34.446  1.00  0.00     0.134 A 
ATOM     89  C   UNL A   1      44.675  35.545  35.272  1.00  0.00     0.134 A 
ATOM     90  F   UNL A   1      41.330  35.228  33.905  1.00  0.00    -0.206 F 
ATOM     91  C   UNL A   1      42.375  37.056  34.909  1.00  0.00     0.040 A 
ATOM     92  C   UNL A   1      44.609  36.850  35.766  1.00  0.00     0.040 A 
ATOM     93  F   UNL A   1      45.791  34.838  35.507  1.00  0.00    -0.206 F 
ATOM     94  C   UNL A   1      43.459  37.613  35.579  1.00  0.00     0.006 A 
ENDBRANCH  70  87
ENDBRANCH  44  45
ENDBRANCH  37  39
ENDBRANCH  36  37
ENDBRANCH  35  36
ENDBRANCH  34  35
ENDBRANCH  33  34
ENDBRANCH  32  33
ENDBRANCH  31  32
ENDBRANCH  30  31
ENDBRANCH   1  30
TORSDOF 25
ENDMDL
