MODEL 1
REMARK VINA RESULT:     -10.9      0.000      0.000
REMARK SMILES Cc1cc2c(c(C)c1Br)C=C(C(=O)OCCOCCOCCOCCOC(=O)c1ccc(-c3c4nc(c(-c5c(F)cccc5F)c5ccc([nH]5)c(-c5c(F)cccc5F)c5nc(c(-c6c(F)cccc6F)c6ccc3[nH]6)C=C5)C=C4)cc1)[C@@H](C(F)(F)F)O2
REMARK SMILES IDX 21 1 20 2 19 3 18 4 17 5 16 6 15 7 14 8 12 9 13 10 11 11
REMARK SMILES IDX 1 12 2 13 3 14 8 15 4 16 6 17 9 18 5 19 88 20 7 21 10 22
REMARK SMILES IDX 83 23 84 24 85 25 86 26 87 27 22 28 23 29 24 30 25 31 26 32
REMARK SMILES IDX 27 33 28 34 29 35 30 36 82 37 31 38 81 39 32 40 33 41 34 42
REMARK SMILES IDX 75 43 35 44 80 45 74 46 76 47 36 48 79 49 73 50 72 51 37 53
REMARK SMILES IDX 63 54 46 55 62 56 47 57 50 58 61 59 77 60 48 61 49 62 60 64
REMARK SMILES IDX 78 65 51 66 38 67 39 68 44 69 40 70 41 71 43 72 45 73 42 74
REMARK SMILES IDX 64 75 65 76 70 77 66 78 67 79 69 80 71 81 68 82 52 83 53 84
REMARK SMILES IDX 58 85 54 86 55 87 57 88 59 89 56 90
REMARK H PARENT 76 52 50 63
REMARK Flexibility Score: inf
ROOT
ATOM      1  C   UNL A   1      43.191  18.671  25.627  1.00  0.00     0.188 C 
ENDROOT
BRANCH   1   2
ATOM      2  O   UNL A   1      42.120  19.532  25.233  1.00  0.00    -0.377 OA
BRANCH   2   3
ATOM      3  C   UNL A   1      40.967  19.581  26.059  1.00  0.00     0.188 C 
BRANCH   3   4
ATOM      4  C   UNL A   1      40.694  20.983  26.642  1.00  0.00     0.188 C 
BRANCH   4   5
ATOM      5  O   UNL A   1      39.310  21.277  26.737  1.00  0.00    -0.376 OA
BRANCH   5   6
ATOM      6  C   UNL A   1      38.619  21.840  25.636  1.00  0.00     0.202 C 
BRANCH   6   7
ATOM      7  C   UNL A   1      37.385  21.169  25.003  1.00  0.00     0.261 C 
BRANCH   7   8
ATOM      8  O   UNL A   1      36.318  22.027  24.592  1.00  0.00    -0.460 OA
BRANCH   8   9
ATOM      9  C   UNL A   1      35.291  22.202  25.443  1.00  0.00     0.338 C 
ATOM     10  O   UNL A   1      35.233  21.838  26.604  1.00  0.00    -0.246 OA
BRANCH   9  11
ATOM     11  C   UNL A   1      34.301  23.077  24.774  1.00  0.00     0.087 C 
ATOM     12  C   UNL A   1      29.751  27.374  23.197  1.00  0.00     0.046 C 
ATOM     13  C   UNL A   1      31.013  26.700  23.666  1.00  0.00    -0.033 A 
ATOM     14  C   UNL A   1      31.311  25.434  23.148  1.00  0.00     0.051 A 
ATOM     15  C   UNL A   1      31.910  27.286  24.583  1.00  0.00     0.024 A 
ATOM     16  C   UNL A   1      32.394  24.702  23.624  1.00  0.00     0.128 A 
ATOM     17  C   UNL A   1      33.031  26.564  25.064  1.00  0.00    -0.026 A 
ATOM     18  Br  UNL A   1      31.562  29.072  25.181  1.00  0.00    -0.050 Br
ATOM     19  C   UNL A   1      33.217  25.228  24.624  1.00  0.00     0.021 A 
ATOM     20  O   UNL A   1      32.547  23.470  23.057  1.00  0.00    -0.475 OA
ATOM     21  C   UNL A   1      34.040  27.172  26.013  1.00  0.00     0.046 C 
ATOM     22  C   UNL A   1      34.197  24.331  25.234  1.00  0.00     0.027 C 
ATOM     23  C   UNL A   1      33.539  22.556  23.588  1.00  0.00     0.316 C 
BRANCH  23  24
ATOM     24  C   UNL A   1      32.837  21.223  23.878  1.00  0.00     0.430 C 
ATOM     25  F   UNL A   1      32.071  20.832  22.830  1.00  0.00    -0.167 F 
ATOM     26  F   UNL A   1      33.717  20.220  24.106  1.00  0.00    -0.167 F 
ATOM     27  F   UNL A   1      32.031  21.306  24.960  1.00  0.00    -0.167 F 
ENDBRANCH  23  24
ENDBRANCH   9  11
ENDBRANCH   8   9
ENDBRANCH   7   8
ENDBRANCH   6   7
ENDBRANCH   5   6
ENDBRANCH   4   5
ENDBRANCH   3   4
ENDBRANCH   2   3
ENDBRANCH   1   2
BRANCH   1  28
ATOM     28  C   UNL A   1      44.651  18.892  25.155  1.00  0.00     0.188 C 
BRANCH  28  29
ATOM     29  O   UNL A   1      44.901  20.180  24.608  1.00  0.00    -0.376 OA
BRANCH  29  30
ATOM     30  C   UNL A   1      45.937  20.960  25.181  1.00  0.00     0.202 C 
BRANCH  30  31
ATOM     31  C   UNL A   1      45.858  22.467  24.909  1.00  0.00     0.261 C 
BRANCH  31  32
ATOM     32  O   UNL A   1      44.952  23.202  25.746  1.00  0.00    -0.460 OA
BRANCH  32  33
ATOM     33  C   UNL A   1      43.789  23.613  25.197  1.00  0.00     0.338 C 
ATOM     34  O   UNL A   1      43.240  23.166  24.206  1.00  0.00    -0.246 OA
BRANCH  33  35
ATOM     35  C   UNL A   1      43.191  24.593  26.125  1.00  0.00     0.060 A 
ATOM     36  C   UNL A   1      43.751  25.874  26.223  1.00  0.00     0.016 A 
ATOM     37  C   UNL A   1      42.062  24.253  26.874  1.00  0.00     0.016 A 
ATOM     38  C   UNL A   1      43.194  26.812  27.093  1.00  0.00     0.010 A 
ATOM     39  C   UNL A   1      41.519  25.185  27.760  1.00  0.00     0.010 A 
ATOM     40  C   UNL A   1      42.099  26.459  27.893  1.00  0.00    -0.014 A 
BRANCH  40  41
ATOM     41  C   UNL A   1      41.682  27.345  29.005  1.00  0.00     0.031 A 
ATOM     42  C   UNL A   1      42.471  27.298  30.284  1.00  0.00     0.074 A 
ATOM     43  C   UNL A   1      40.646  28.194  28.878  1.00  0.00     0.049 A 
ATOM     44  N   UNL A   1      42.283  27.953  31.400  1.00  0.00    -0.248 NA
ATOM     45  C   UNL A   1      43.632  26.392  30.306  1.00  0.00     0.031 C 
ATOM     46  C   UNL A   1      39.837  28.365  27.674  1.00  0.00     0.029 A 
ATOM     47  N   UNL A   1      40.100  29.073  29.780  1.00  0.00    -0.354 N 
ATOM     48  C   UNL A   1      43.304  27.547  32.250  1.00  0.00     0.074 A 
ATOM     49  C   UNL A   1      44.084  26.559  31.539  1.00  0.00     0.031 C 
ATOM     50  C   UNL A   1      38.894  29.296  27.912  1.00  0.00     0.029 A 
ATOM     51  C   UNL A   1      39.015  29.760  29.293  1.00  0.00     0.049 A 
ATOM     52  H   UNL A   1      40.454  29.199  30.689  1.00  0.00     0.167 HD
ATOM     53  C   UNL A   1      43.577  27.974  33.504  1.00  0.00     0.037 A 
ATOM     54  C   UNL A   1      38.206  30.652  29.901  1.00  0.00     0.037 A 
ATOM     55  C   UNL A   1      42.796  28.950  34.213  1.00  0.00     0.049 A 
ATOM     56  C   UNL A   1      38.470  31.031  31.337  1.00  0.00     0.074 A 
ATOM     57  C   UNL A   1      42.989  29.440  35.492  1.00  0.00     0.029 A 
ATOM     58  N   UNL A   1      41.671  29.582  33.705  1.00  0.00    -0.354 N 
ATOM     59  N   UNL A   1      39.445  30.652  32.128  1.00  0.00    -0.248 NA
ATOM     60  C   UNL A   1      37.521  31.963  31.966  1.00  0.00     0.031 C 
ATOM     61  C   UNL A   1      41.953  30.332  35.777  1.00  0.00     0.029 A 
ATOM     62  C   UNL A   1      41.147  30.442  34.654  1.00  0.00     0.049 A 
ATOM     63  H   UNL A   1      41.302  29.441  32.803  1.00  0.00     0.167 HD
ATOM     64  C   UNL A   1      39.247  31.322  33.330  1.00  0.00     0.074 A 
ATOM     65  C   UNL A   1      38.064  32.139  33.163  1.00  0.00     0.031 C 
ATOM     66  C   UNL A   1      39.981  31.266  34.468  1.00  0.00     0.037 A 
BRANCH  53  67
ATOM     67  C   UNL A   1      44.770  27.387  34.198  1.00  0.00     0.057 A 
ATOM     68  C   UNL A   1      44.671  26.218  34.964  1.00  0.00     0.134 A 
ATOM     69  C   UNL A   1      46.041  27.951  34.036  1.00  0.00     0.134 A 
ATOM     70  F   UNL A   1      43.479  25.639  35.170  1.00  0.00    -0.206 F 
ATOM     71  C   UNL A   1      45.795  25.634  35.550  1.00  0.00     0.040 A 
ATOM     72  C   UNL A   1      47.176  27.361  34.595  1.00  0.00     0.040 A 
ATOM     73  F   UNL A   1      46.204  29.069  33.313  1.00  0.00    -0.206 F 
ATOM     74  C   UNL A   1      47.054  26.200  35.355  1.00  0.00     0.006 A 
ENDBRANCH  53  67
BRANCH  54  75
ATOM     75  C   UNL A   1      37.069  31.256  29.159  1.00  0.00     0.057 A 
ATOM     76  C   UNL A   1      35.911  30.519  28.885  1.00  0.00     0.134 A 
ATOM     77  C   UNL A   1      37.118  32.575  28.690  1.00  0.00     0.134 A 
ATOM     78  F   UNL A   1      35.814  29.243  29.284  1.00  0.00    -0.206 F 
ATOM     79  C   UNL A   1      34.848  31.065  28.162  1.00  0.00     0.040 A 
ATOM     80  C   UNL A   1      36.052  33.142  27.989  1.00  0.00     0.040 A 
ATOM     81  F   UNL A   1      38.199  33.335  28.915  1.00  0.00    -0.206 F 
ATOM     82  C   UNL A   1      34.915  32.384  27.718  1.00  0.00     0.006 A 
ENDBRANCH  54  75
BRANCH  66  83
ATOM     83  C   UNL A   1      39.562  32.132  35.622  1.00  0.00     0.057 A 
ATOM     84  C   UNL A   1      40.072  33.424  35.798  1.00  0.00     0.134 A 
ATOM     85  C   UNL A   1      38.564  31.704  36.507  1.00  0.00     0.134 A 
ATOM     86  F   UNL A   1      41.035  33.892  34.989  1.00  0.00    -0.206 F 
ATOM     87  C   UNL A   1      39.609  34.257  36.818  1.00  0.00     0.040 A 
ATOM     88  C   UNL A   1      38.072  32.537  37.513  1.00  0.00     0.040 A 
ATOM     89  F   UNL A   1      38.023  30.481  36.384  1.00  0.00    -0.206 F 
ATOM     90  C   UNL A   1      38.596  33.817  37.671  1.00  0.00     0.006 A 
ENDBRANCH  66  83
ENDBRANCH  40  41
ENDBRANCH  33  35
ENDBRANCH  32  33
ENDBRANCH  31  32
ENDBRANCH  30  31
ENDBRANCH  29  30
ENDBRANCH  28  29
ENDBRANCH   1  28
TORSDOF 21
ENDMDL
MODEL 2
REMARK VINA RESULT:     -10.8      0.803      5.899
REMARK SMILES Cc1cc2c(c(C)c1Br)C=C(C(=O)OCCOCCOCCOCCOC(=O)c1ccc(-c3c4nc(c(-c5c(F)cccc5F)c5ccc([nH]5)c(-c5c(F)cccc5F)c5nc(c(-c6c(F)cccc6F)c6ccc3[nH]6)C=C5)C=C4)cc1)[C@@H](C(F)(F)F)O2
REMARK SMILES IDX 21 1 20 2 19 3 18 4 17 5 16 6 15 7 14 8 12 9 13 10 11 11
REMARK SMILES IDX 1 12 2 13 3 14 8 15 4 16 6 17 9 18 5 19 88 20 7 21 10 22
REMARK SMILES IDX 83 23 84 24 85 25 86 26 87 27 22 28 23 29 24 30 25 31 26 32
REMARK SMILES IDX 27 33 28 34 29 35 30 36 82 37 31 38 81 39 32 40 33 41 34 42
REMARK SMILES IDX 75 43 35 44 80 45 74 46 76 47 36 48 79 49 73 50 72 51 37 53
REMARK SMILES IDX 63 54 46 55 62 56 47 57 50 58 61 59 77 60 48 61 49 62 60 64
REMARK SMILES IDX 78 65 51 66 38 67 39 68 44 69 40 70 41 71 43 72 45 73 42 74
REMARK SMILES IDX 64 75 65 76 70 77 66 78 67 79 69 80 71 81 68 82 52 83 53 84
REMARK SMILES IDX 58 85 54 86 55 87 57 88 59 89 56 90
REMARK H PARENT 76 52 50 63
REMARK Flexibility Score: inf
ROOT
ATOM      1  C   UNL A   1      43.162  18.809  25.761  1.00  0.00     0.188 C 
ENDROOT
BRANCH   1   2
ATOM      2  O   UNL A   1      42.048  19.570  25.286  1.00  0.00    -0.377 OA
BRANCH   2   3
ATOM      3  C   UNL A   1      40.960  19.783  26.173  1.00  0.00     0.188 C 
BRANCH   3   4
ATOM      4  C   UNL A   1      40.738  21.269  26.518  1.00  0.00     0.188 C 
BRANCH   4   5
ATOM      5  O   UNL A   1      39.376  21.576  26.767  1.00  0.00    -0.376 OA
BRANCH   5   6
ATOM      6  C   UNL A   1      38.654  22.411  25.877  1.00  0.00     0.202 C 
BRANCH   6   7
ATOM      7  C   UNL A   1      37.391  21.933  25.135  1.00  0.00     0.261 C 
BRANCH   7   8
ATOM      8  O   UNL A   1      36.456  22.936  24.733  1.00  0.00    -0.460 OA
BRANCH   8   9
ATOM      9  C   UNL A   1      35.359  23.111  25.492  1.00  0.00     0.338 C 
ATOM     10  O   UNL A   1      35.156  22.650  26.601  1.00  0.00    -0.246 OA
BRANCH   9  11
ATOM     11  C   UNL A   1      34.504  24.114  24.817  1.00  0.00     0.087 C 
ATOM     12  C   UNL A   1      30.332  28.771  23.216  1.00  0.00     0.046 C 
ATOM     13  C   UNL A   1      31.491  27.986  23.770  1.00  0.00    -0.033 A 
ATOM     14  C   UNL A   1      31.853  26.802  23.117  1.00  0.00     0.051 A 
ATOM     15  C   UNL A   1      32.235  28.393  24.899  1.00  0.00     0.024 A 
ATOM     16  C   UNL A   1      32.833  25.966  23.642  1.00  0.00     0.128 A 
ATOM     17  C   UNL A   1      33.252  27.564  25.435  1.00  0.00    -0.026 A 
ATOM     18  Br  UNL A   1      31.818  30.080  25.702  1.00  0.00    -0.050 Br
ATOM     19  C   UNL A   1      33.488  26.303  24.829  1.00  0.00     0.021 A 
ATOM     20  O   UNL A   1      33.060  24.827  22.924  1.00  0.00    -0.475 OA
ATOM     21  C   UNL A   1      34.099  27.983  26.615  1.00  0.00     0.046 C 
ATOM     22  C   UNL A   1      34.343  25.287  25.442  1.00  0.00     0.027 C 
ATOM     23  C   UNL A   1      33.940  23.806  23.458  1.00  0.00     0.316 C 
BRANCH  23  24
ATOM     24  C   UNL A   1      33.181  22.473  23.423  1.00  0.00     0.430 C 
ATOM     25  F   UNL A   1      32.691  22.218  22.185  1.00  0.00    -0.167 F 
ATOM     26  F   UNL A   1      33.974  21.425  23.747  1.00  0.00    -0.167 F 
ATOM     27  F   UNL A   1      32.136  22.467  24.281  1.00  0.00    -0.167 F 
ENDBRANCH  23  24
ENDBRANCH   9  11
ENDBRANCH   8   9
ENDBRANCH   7   8
ENDBRANCH   6   7
ENDBRANCH   5   6
ENDBRANCH   4   5
ENDBRANCH   3   4
ENDBRANCH   2   3
ENDBRANCH   1   2
BRANCH   1  28
ATOM     28  C   UNL A   1      44.620  19.120  25.339  1.00  0.00     0.188 C 
BRANCH  28  29
ATOM     29  O   UNL A   1      44.826  20.447  24.874  1.00  0.00    -0.376 OA
BRANCH  29  30
ATOM     30  C   UNL A   1      45.872  21.204  25.456  1.00  0.00     0.202 C 
BRANCH  30  31
ATOM     31  C   UNL A   1      45.806  22.718  25.218  1.00  0.00     0.261 C 
BRANCH  31  32
ATOM     32  O   UNL A   1      44.954  23.450  26.112  1.00  0.00    -0.460 OA
BRANCH  32  33
ATOM     33  C   UNL A   1      43.784  23.912  25.622  1.00  0.00     0.338 C 
ATOM     34  O   UNL A   1      43.189  23.520  24.634  1.00  0.00    -0.246 OA
BRANCH  33  35
ATOM     35  C   UNL A   1      43.243  24.866  26.611  1.00  0.00     0.060 A 
ATOM     36  C   UNL A   1      43.851  26.120  26.754  1.00  0.00     0.016 A 
ATOM     37  C   UNL A   1      42.121  24.530  27.371  1.00  0.00     0.016 A 
ATOM     38  C   UNL A   1      43.348  27.035  27.680  1.00  0.00     0.010 A 
ATOM     39  C   UNL A   1      41.633  25.437  28.314  1.00  0.00     0.010 A 
ATOM     40  C   UNL A   1      42.261  26.682  28.491  1.00  0.00    -0.014 A 
BRANCH  40  41
ATOM     41  C   UNL A   1      41.903  27.528  29.654  1.00  0.00     0.031 A 
ATOM     42  C   UNL A   1      40.742  28.474  29.512  1.00  0.00     0.074 A 
ATOM     43  C   UNL A   1      42.570  27.443  30.818  1.00  0.00     0.049 A 
ATOM     44  N   UNL A   1      40.261  29.332  30.374  1.00  0.00    -0.248 NA
ATOM     45  C   UNL A   1      40.027  28.446  28.226  1.00  0.00     0.031 C 
ATOM     46  C   UNL A   1      43.679  26.531  31.092  1.00  0.00     0.029 A 
ATOM     47  N   UNL A   1      42.407  28.138  31.990  1.00  0.00    -0.354 N 
ATOM     48  C   UNL A   1      39.183  29.935  29.739  1.00  0.00     0.074 A 
ATOM     49  C   UNL A   1      39.105  29.380  28.407  1.00  0.00     0.031 C 
ATOM     50  C   UNL A   1      44.098  26.724  32.357  1.00  0.00     0.029 A 
ATOM     51  C   UNL A   1      43.308  27.793  32.968  1.00  0.00     0.049 A 
ATOM     52  H   UNL A   1      41.709  28.820  32.118  1.00  0.00     0.167 HD
ATOM     53  C   UNL A   1      38.324  30.858  30.230  1.00  0.00     0.037 A 
ATOM     54  C   UNL A   1      43.482  28.294  34.208  1.00  0.00     0.037 A 
ATOM     55  C   UNL A   1      38.407  31.415  31.552  1.00  0.00     0.049 A 
ATOM     56  C   UNL A   1      42.575  29.398  34.693  1.00  0.00     0.074 A 
ATOM     57  C   UNL A   1      37.586  32.362  32.138  1.00  0.00     0.029 A 
ATOM     58  N   UNL A   1      39.368  31.079  32.493  1.00  0.00    -0.354 N 
ATOM     59  N   UNL A   1      41.552  29.953  34.091  1.00  0.00    -0.248 NA
ATOM     60  C   UNL A   1      42.849  29.945  36.031  1.00  0.00     0.031 C 
ATOM     61  C   UNL A   1      38.080  32.636  33.415  1.00  0.00     0.029 A 
ATOM     62  C   UNL A   1      39.174  31.817  33.647  1.00  0.00     0.049 A 
ATOM     63  H   UNL A   1      40.082  30.413  32.359  1.00  0.00     0.167 HD
ATOM     64  C   UNL A   1      41.040  30.887  34.985  1.00  0.00     0.074 A 
ATOM     65  C   UNL A   1      41.860  30.818  36.176  1.00  0.00     0.031 C 
ATOM     66  C   UNL A   1      39.985  31.723  34.833  1.00  0.00     0.037 A 
BRANCH  53  67
ATOM     67  C   UNL A   1      37.217  31.328  29.335  1.00  0.00     0.057 A 
ATOM     68  C   UNL A   1      36.071  30.552  29.117  1.00  0.00     0.134 A 
ATOM     69  C   UNL A   1      37.262  32.597  28.746  1.00  0.00     0.134 A 
ATOM     70  F   UNL A   1      35.974  29.320  29.639  1.00  0.00    -0.206 F 
ATOM     71  C   UNL A   1      35.011  31.021  28.340  1.00  0.00     0.040 A 
ATOM     72  C   UNL A   1      36.197  33.088  27.990  1.00  0.00     0.040 A 
ATOM     73  F   UNL A   1      38.330  33.390  28.918  1.00  0.00    -0.206 F 
ATOM     74  C   UNL A   1      35.067  32.299  27.784  1.00  0.00     0.006 A 
ENDBRANCH  53  67
BRANCH  54  75
ATOM     75  C   UNL A   1      44.553  27.758  35.087  1.00  0.00     0.057 A 
ATOM     76  C   UNL A   1      44.303  26.699  35.969  1.00  0.00     0.134 A 
ATOM     77  C   UNL A   1      45.845  28.299  35.083  1.00  0.00     0.134 A 
ATOM     78  F   UNL A   1      43.079  26.155  36.039  1.00  0.00    -0.206 F 
ATOM     79  C   UNL A   1      45.292  26.207  36.823  1.00  0.00     0.040 A 
ATOM     80  C   UNL A   1      46.851  27.799  35.913  1.00  0.00     0.040 A 
ATOM     81  F   UNL A   1      46.150  29.317  34.266  1.00  0.00    -0.206 F 
ATOM     82  C   UNL A   1      46.573  26.753  36.790  1.00  0.00     0.006 A 
ENDBRANCH  54  75
BRANCH  66  83
ATOM     83  C   UNL A   1      39.618  32.614  35.986  1.00  0.00     0.057 A 
ATOM     84  C   UNL A   1      40.178  33.887  36.143  1.00  0.00     0.134 A 
ATOM     85  C   UNL A   1      38.619  32.230  36.891  1.00  0.00     0.134 A 
ATOM     86  F   UNL A   1      41.145  34.313  35.315  1.00  0.00    -0.206 F 
ATOM     87  C   UNL A   1      39.763  34.745  37.164  1.00  0.00     0.040 A 
ATOM     88  C   UNL A   1      38.175  33.089  37.897  1.00  0.00     0.040 A 
ATOM     89  F   UNL A   1      38.031  31.028  36.787  1.00  0.00    -0.206 F 
ATOM     90  C   UNL A   1      38.749  34.350  38.036  1.00  0.00     0.006 A 
ENDBRANCH  66  83
ENDBRANCH  40  41
ENDBRANCH  33  35
ENDBRANCH  32  33
ENDBRANCH  31  32
ENDBRANCH  30  31
ENDBRANCH  29  30
ENDBRANCH  28  29
ENDBRANCH   1  28
TORSDOF 21
ENDMDL
MODEL 3
REMARK VINA RESULT:     -10.6      4.167      9.287
REMARK SMILES Cc1cc2c(c(C)c1Br)C=C(C(=O)OCCOCCOCCOCCOC(=O)c1ccc(-c3c4nc(c(-c5c(F)cccc5F)c5ccc([nH]5)c(-c5c(F)cccc5F)c5nc(c(-c6c(F)cccc6F)c6ccc3[nH]6)C=C5)C=C4)cc1)[C@@H](C(F)(F)F)O2
REMARK SMILES IDX 21 1 20 2 19 3 18 4 17 5 16 6 15 7 14 8 12 9 13 10 11 11
REMARK SMILES IDX 1 12 2 13 3 14 8 15 4 16 6 17 9 18 5 19 88 20 7 21 10 22
REMARK SMILES IDX 83 23 84 24 85 25 86 26 87 27 22 28 23 29 24 30 25 31 26 32
REMARK SMILES IDX 27 33 28 34 29 35 30 36 82 37 31 38 81 39 32 40 33 41 34 42
REMARK SMILES IDX 75 43 35 44 80 45 74 46 76 47 36 48 79 49 73 50 72 51 37 53
REMARK SMILES IDX 63 54 46 55 62 56 47 57 50 58 61 59 77 60 48 61 49 62 60 64
REMARK SMILES IDX 78 65 51 66 38 67 39 68 44 69 40 70 41 71 43 72 45 73 42 74
REMARK SMILES IDX 64 75 65 76 70 77 66 78 67 79 69 80 71 81 68 82 52 83 53 84
REMARK SMILES IDX 58 85 54 86 55 87 57 88 59 89 56 90
REMARK H PARENT 76 52 50 63
REMARK Flexibility Score: inf
ROOT
ATOM      1  C   UNL A   1      36.081  32.811  28.206  1.00  0.00     0.188 C 
ENDROOT
BRANCH   1   2
ATOM      2  O   UNL A   1      35.511  31.622  27.651  1.00  0.00    -0.377 OA
BRANCH   2   3
ATOM      3  C   UNL A   1      34.137  31.366  27.896  1.00  0.00     0.188 C 
BRANCH   3   4
ATOM      4  C   UNL A   1      33.625  30.082  27.212  1.00  0.00     0.188 C 
BRANCH   4   5
ATOM      5  O   UNL A   1      32.231  30.119  26.951  1.00  0.00    -0.376 OA
BRANCH   5   6
ATOM      6  C   UNL A   1      31.750  30.071  25.619  1.00  0.00     0.202 C 
BRANCH   6   7
ATOM      7  C   UNL A   1      31.483  28.744  24.883  1.00  0.00     0.261 C 
BRANCH   7   8
ATOM      8  O   UNL A   1      32.351  27.649  25.183  1.00  0.00    -0.460 OA
BRANCH   8   9
ATOM      9  C   UNL A   1      33.017  27.079  24.162  1.00  0.00     0.338 C 
ATOM     10  O   UNL A   1      33.617  27.652  23.271  1.00  0.00    -0.246 OA
BRANCH   9  11
ATOM     11  C   UNL A   1      33.046  25.619  24.408  1.00  0.00     0.087 C 
ATOM     12  C   UNL A   1      34.318  19.296  24.606  1.00  0.00     0.046 C 
ATOM     13  C   UNL A   1      34.374  20.794  24.744  1.00  0.00    -0.033 A 
ATOM     14  C   UNL A   1      33.163  21.495  24.756  1.00  0.00     0.051 A 
ATOM     15  C   UNL A   1      35.578  21.516  24.875  1.00  0.00     0.024 A 
ATOM     16  C   UNL A   1      33.141  22.886  24.758  1.00  0.00     0.128 A 
ATOM     17  C   UNL A   1      35.575  22.933  24.901  1.00  0.00    -0.026 A 
ATOM     18  Br  UNL A   1      37.219  20.536  24.992  1.00  0.00    -0.050 Br
ATOM     19  C   UNL A   1      34.336  23.611  24.764  1.00  0.00     0.021 A 
ATOM     20  O   UNL A   1      31.895  23.441  24.733  1.00  0.00    -0.475 OA
ATOM     21  C   UNL A   1      36.839  23.743  25.084  1.00  0.00     0.046 C 
ATOM     22  C   UNL A   1      34.252  25.054  24.544  1.00  0.00     0.027 C 
ATOM     23  C   UNL A   1      31.751  24.874  24.570  1.00  0.00     0.316 C 
BRANCH  23  24
ATOM     24  C   UNL A   1      30.782  25.115  23.405  1.00  0.00     0.430 C 
ATOM     25  F   UNL A   1      31.445  25.475  22.279  1.00  0.00    -0.167 F 
ATOM     26  F   UNL A   1      30.070  24.007  23.094  1.00  0.00    -0.167 F 
ATOM     27  F   UNL A   1      29.896  26.098  23.684  1.00  0.00    -0.167 F 
ENDBRANCH  23  24
ENDBRANCH   9  11
ENDBRANCH   8   9
ENDBRANCH   7   8
ENDBRANCH   6   7
ENDBRANCH   5   6
ENDBRANCH   4   5
ENDBRANCH   3   4
ENDBRANCH   2   3
ENDBRANCH   1   2
BRANCH   1  28
ATOM     28  C   UNL A   1      35.338  33.677  29.254  1.00  0.00     0.188 C 
BRANCH  28  29
ATOM     29  O   UNL A   1      34.988  34.977  28.798  1.00  0.00    -0.376 OA
BRANCH  29  30
ATOM     30  C   UNL A   1      33.618  35.259  28.574  1.00  0.00     0.202 C 
BRANCH  30  31
ATOM     31  C   UNL A   1      32.908  36.027  29.695  1.00  0.00     0.261 C 
BRANCH  31  32
ATOM     32  O   UNL A   1      32.474  35.236  30.812  1.00  0.00    -0.460 OA
BRANCH  32  33
ATOM     33  C   UNL A   1      32.730  35.710  32.050  1.00  0.00     0.338 C 
ATOM     34  O   UNL A   1      32.037  36.459  32.714  1.00  0.00    -0.246 OA
BRANCH  33  35
ATOM     35  C   UNL A   1      33.928  35.004  32.548  1.00  0.00     0.060 A 
ATOM     36  C   UNL A   1      35.178  35.631  32.460  1.00  0.00     0.016 A 
ATOM     37  C   UNL A   1      33.808  33.738  33.124  1.00  0.00     0.016 A 
ATOM     38  C   UNL A   1      36.318  34.979  32.931  1.00  0.00     0.010 A 
ATOM     39  C   UNL A   1      34.953  33.077  33.574  1.00  0.00     0.010 A 
ATOM     40  C   UNL A   1      36.215  33.683  33.454  1.00  0.00    -0.014 A 
BRANCH  40  41
ATOM     41  C   UNL A   1      37.441  32.886  33.695  1.00  0.00     0.031 A 
ATOM     42  C   UNL A   1      38.227  33.154  34.948  1.00  0.00     0.074 A 
ATOM     43  C   UNL A   1      37.835  31.927  32.839  1.00  0.00     0.049 A 
ATOM     44  N   UNL A   1      39.343  32.610  35.360  1.00  0.00    -0.248 NA
ATOM     45  C   UNL A   1      37.680  34.172  35.861  1.00  0.00     0.031 C 
ATOM     46  C   UNL A   1      37.131  31.541  31.618  1.00  0.00     0.029 A 
ATOM     47  N   UNL A   1      38.931  31.100  32.872  1.00  0.00    -0.354 N 
ATOM     48  C   UNL A   1      39.623  33.210  36.581  1.00  0.00     0.074 A 
ATOM     49  C   UNL A   1      38.588  34.190  36.825  1.00  0.00     0.031 C 
ATOM     50  C   UNL A   1      37.814  30.550  31.016  1.00  0.00     0.029 A 
ATOM     51  C   UNL A   1      39.018  30.255  31.793  1.00  0.00     0.049 A 
ATOM     52  H   UNL A   1      39.592  31.112  33.601  1.00  0.00     0.167 HD
ATOM     53  C   UNL A   1      40.644  32.955  37.432  1.00  0.00     0.037 A 
ATOM     54  C   UNL A   1      39.970  29.357  31.465  1.00  0.00     0.037 A 
ATOM     55  C   UNL A   1      41.677  31.987  37.186  1.00  0.00     0.049 A 
ATOM     56  C   UNL A   1      41.154  29.167  32.381  1.00  0.00     0.074 A 
ATOM     57  C   UNL A   1      42.758  31.662  37.985  1.00  0.00     0.029 A 
ATOM     58  N   UNL A   1      41.760  31.190  36.054  1.00  0.00    -0.354 N 
ATOM     59  N   UNL A   1      41.403  29.729  33.538  1.00  0.00    -0.248 NA
ATOM     60  C   UNL A   1      42.188  28.216  31.943  1.00  0.00     0.031 C 
ATOM     61  C   UNL A   1      43.523  30.705  37.315  1.00  0.00     0.029 A 
ATOM     62  C   UNL A   1      42.887  30.390  36.125  1.00  0.00     0.049 A 
ATOM     63  H   UNL A   1      41.112  31.192  35.312  1.00  0.00     0.167 HD
ATOM     64  C   UNL A   1      42.601  29.179  33.982  1.00  0.00     0.074 A 
ATOM     65  C   UNL A   1      43.024  28.231  32.974  1.00  0.00     0.031 C 
ATOM     66  C   UNL A   1      43.285  29.435  35.123  1.00  0.00     0.037 A 
BRANCH  53  67
ATOM     67  C   UNL A   1      40.698  33.734  38.712  1.00  0.00     0.057 A 
ATOM     68  C   UNL A   1      39.957  33.349  39.836  1.00  0.00     0.134 A 
ATOM     69  C   UNL A   1      41.555  34.834  38.845  1.00  0.00     0.134 A 
ATOM     70  F   UNL A   1      39.105  32.315  39.769  1.00  0.00    -0.206 F 
ATOM     71  C   UNL A   1      40.063  34.034  41.048  1.00  0.00     0.040 A 
ATOM     72  C   UNL A   1      41.690  35.509  40.058  1.00  0.00     0.040 A 
ATOM     73  F   UNL A   1      42.294  35.251  37.806  1.00  0.00    -0.206 F 
ATOM     74  C   UNL A   1      40.942  35.111  41.164  1.00  0.00     0.006 A 
ENDBRANCH  53  67
BRANCH  54  75
ATOM     75  C   UNL A   1      39.847  28.560  30.217  1.00  0.00     0.057 A 
ATOM     76  C   UNL A   1      39.192  27.323  30.210  1.00  0.00     0.134 A 
ATOM     77  C   UNL A   1      40.395  29.003  29.007  1.00  0.00     0.134 A 
ATOM     78  F   UNL A   1      38.668  26.831  31.342  1.00  0.00    -0.206 F 
ATOM     79  C   UNL A   1      39.097  26.550  29.051  1.00  0.00     0.040 A 
ATOM     80  C   UNL A   1      40.285  28.253  27.835  1.00  0.00     0.040 A 
ATOM     81  F   UNL A   1      41.040  30.178  28.945  1.00  0.00    -0.206 F 
ATOM     82  C   UNL A   1      39.639  27.019  27.856  1.00  0.00     0.006 A 
ENDBRANCH  54  75
BRANCH  66  83
ATOM     83  C   UNL A   1      44.548  28.662  35.378  1.00  0.00     0.057 A 
ATOM     84  C   UNL A   1      45.800  29.138  34.973  1.00  0.00     0.134 A 
ATOM     85  C   UNL A   1      44.517  27.476  36.126  1.00  0.00     0.134 A 
ATOM     86  F   UNL A   1      45.899  30.263  34.248  1.00  0.00    -0.206 F 
ATOM     87  C   UNL A   1      46.977  28.460  35.296  1.00  0.00     0.040 A 
ATOM     88  C   UNL A   1      45.688  26.805  36.479  1.00  0.00     0.040 A 
ATOM     89  F   UNL A   1      43.350  26.973  36.557  1.00  0.00    -0.206 F 
ATOM     90  C   UNL A   1      46.922  27.296  36.062  1.00  0.00     0.006 A 
ENDBRANCH  66  83
ENDBRANCH  40  41
ENDBRANCH  33  35
ENDBRANCH  32  33
ENDBRANCH  31  32
ENDBRANCH  30  31
ENDBRANCH  29  30
ENDBRANCH  28  29
ENDBRANCH   1  28
TORSDOF 21
ENDMDL
