MODEL 1
REMARK VINA RESULT:     -10.1      0.000      0.000
REMARK SMILES O=C(CCc1nc(-c2ccccc2)c(-c2ccccc2)o1)OCCOCCOCCOCCOC(=O)c1ccc(-c2c3nc(c(-c4c(F)cccc4F)c4ccc([nH]4)c(-c4c(F)cccc4F)c4nc(c(-c5c(F)cccc5F)c5ccc2[nH]5)C=C4)C=C3)cc1
REMARK SMILES IDX 27 1 26 2 25 3 24 4 23 5 22 6 2 7 1 8 3 9 4 10 5 11 6 12
REMARK SMILES IDX 21 13 7 14 14 15 8 16 9 17 13 18 10 19 12 20 11 21 15 22
REMARK SMILES IDX 16 23 20 24 17 25 19 26 18 27 28 28 29 29 30 30 31 31 32 32
REMARK SMILES IDX 33 33 34 34 35 35 36 36 37 37 38 38 90 39 39 40 89 41 40 42
REMARK SMILES IDX 41 43 42 44 83 45 43 46 88 47 82 48 84 49 44 50 87 51 81 52
REMARK SMILES IDX 80 53 45 55 71 56 54 57 70 58 55 59 58 60 69 61 85 62 56 63
REMARK SMILES IDX 57 64 68 66 86 67 59 68 46 69 47 70 52 71 48 72 49 73 51 74
REMARK SMILES IDX 53 75 50 76 72 77 73 78 78 79 74 80 75 81 77 82 79 83 76 84
REMARK SMILES IDX 60 85 61 86 66 87 62 88 63 89 65 90 67 91 64 92
REMARK H PARENT 84 54 58 65
REMARK Flexibility Score: inf
ROOT
ATOM      1  C   UNL A   1      33.719  27.640  22.140  1.00  0.00     0.188 C 
ENDROOT
BRANCH   1   2
ATOM      2  C   UNL A   1      32.935  26.544  21.407  1.00  0.00     0.188 C 
BRANCH   2   3
ATOM      3  O   UNL A   1      33.306  25.196  21.649  1.00  0.00    -0.376 OA
BRANCH   3   4
ATOM      4  C   UNL A   1      32.384  24.348  22.323  1.00  0.00     0.202 C 
BRANCH   4   5
ATOM      5  C   UNL A   1      31.102  24.952  22.892  1.00  0.00     0.261 C 
BRANCH   5   6
ATOM      6  O   UNL A   1      30.671  24.498  24.184  1.00  0.00    -0.463 OA
BRANCH   6   7
ATOM      7  C   UNL A   1      30.537  25.245  25.293  1.00  0.00     0.306 C 
ATOM      8  O   UNL A   1      30.518  26.470  25.200  1.00  0.00    -0.252 OA
BRANCH   7   9
ATOM      9  C   UNL A   1      30.556  24.583  26.642  1.00  0.00     0.132 C 
BRANCH   9  10
ATOM     10  C   UNL A   1      30.313  23.082  26.656  1.00  0.00     0.109 C 
BRANCH  10  11
ATOM     11  C   UNL A   1      31.366  22.217  26.055  1.00  0.00     0.196 A 
ATOM     12  N   UNL A   1      31.196  21.077  25.419  1.00  0.00    -0.213 NA
ATOM     13  O   UNL A   1      32.683  22.614  26.154  1.00  0.00    -0.440 OA
ATOM     14  C   UNL A   1      32.468  20.700  25.068  1.00  0.00     0.117 A 
ATOM     15  C   UNL A   1      33.377  21.680  25.420  1.00  0.00     0.162 A 
BRANCH  14  16
ATOM     16  C   UNL A   1      32.791  19.487  24.357  1.00  0.00     0.004 A 
ATOM     17  C   UNL A   1      32.258  19.264  23.080  1.00  0.00     0.010 A 
ATOM     18  C   UNL A   1      33.602  18.518  24.951  1.00  0.00     0.010 A 
ATOM     19  C   UNL A   1      32.527  18.074  22.407  1.00  0.00     0.001 A 
ATOM     20  C   UNL A   1      33.861  17.323  24.279  1.00  0.00     0.001 A 
ATOM     21  C   UNL A   1      33.325  17.102  23.009  1.00  0.00     0.000 A 
ENDBRANCH  14  16
BRANCH  15  22
ATOM     22  C   UNL A   1      34.766  21.955  25.060  1.00  0.00     0.020 A 
ATOM     23  C   UNL A   1      35.849  21.399  25.745  1.00  0.00     0.012 A 
ATOM     24  C   UNL A   1      35.031  22.783  23.951  1.00  0.00     0.012 A 
ATOM     25  C   UNL A   1      37.160  21.627  25.298  1.00  0.00     0.001 A 
ATOM     26  C   UNL A   1      36.335  23.012  23.508  1.00  0.00     0.001 A 
ATOM     27  C   UNL A   1      37.401  22.423  24.176  1.00  0.00     0.000 A 
ENDBRANCH  15  22
ENDBRANCH  10  11
ENDBRANCH   9  10
ENDBRANCH   7   9
ENDBRANCH   6   7
ENDBRANCH   5   6
ENDBRANCH   4   5
ENDBRANCH   3   4
ENDBRANCH   2   3
ENDBRANCH   1   2
BRANCH   1  28
ATOM     28  O   UNL A   1      33.482  27.652  23.544  1.00  0.00    -0.377 OA
BRANCH  28  29
ATOM     29  C   UNL A   1      33.175  28.939  24.080  1.00  0.00     0.188 C 
BRANCH  29  30
ATOM     30  C   UNL A   1      31.681  29.326  24.162  1.00  0.00     0.188 C 
BRANCH  30  31
ATOM     31  O   UNL A   1      31.409  30.097  25.326  1.00  0.00    -0.376 OA
BRANCH  31  32
ATOM     32  C   UNL A   1      32.009  29.668  26.535  1.00  0.00     0.202 C 
BRANCH  32  33
ATOM     33  C   UNL A   1      32.919  30.693  27.228  1.00  0.00     0.261 C 
BRANCH  33  34
ATOM     34  O   UNL A   1      33.996  30.153  28.015  1.00  0.00    -0.460 OA
BRANCH  34  35
ATOM     35  C   UNL A   1      34.875  31.010  28.580  1.00  0.00     0.338 C 
ATOM     36  O   UNL A   1      34.610  32.069  29.124  1.00  0.00    -0.246 OA
BRANCH  35  37
ATOM     37  C   UNL A   1      36.194  30.324  28.649  1.00  0.00     0.060 A 
ATOM     38  C   UNL A   1      36.571  29.700  29.847  1.00  0.00     0.016 A 
ATOM     39  C   UNL A   1      37.016  30.221  27.522  1.00  0.00     0.016 A 
ATOM     40  C   UNL A   1      37.779  28.997  29.929  1.00  0.00     0.010 A 
ATOM     41  C   UNL A   1      38.234  29.538  27.610  1.00  0.00     0.010 A 
ATOM     42  C   UNL A   1      38.636  28.950  28.823  1.00  0.00    -0.014 A 
BRANCH  42  43
ATOM     43  C   UNL A   1      40.046  28.511  28.984  1.00  0.00     0.031 A 
ATOM     44  C   UNL A   1      41.035  29.527  29.493  1.00  0.00     0.074 A 
ATOM     45  C   UNL A   1      40.458  27.270  28.670  1.00  0.00     0.049 A 
ATOM     46  N   UNL A   1      42.333  29.440  29.614  1.00  0.00    -0.248 NA
ATOM     47  C   UNL A   1      40.475  30.821  29.917  1.00  0.00     0.031 C 
ATOM     48  C   UNL A   1      39.602  26.181  28.205  1.00  0.00     0.029 A 
ATOM     49  N   UNL A   1      41.721  26.727  28.675  1.00  0.00    -0.354 N 
ATOM     50  C   UNL A   1      42.745  30.671  30.110  1.00  0.00     0.074 A 
ATOM     51  C   UNL A   1      41.565  31.491  30.254  1.00  0.00     0.031 C 
ATOM     52  C   UNL A   1      40.369  25.107  27.942  1.00  0.00     0.029 A 
ATOM     53  C   UNL A   1      41.773  25.445  28.182  1.00  0.00     0.049 A 
ATOM     54  H   UNL A   1      42.515  27.210  29.000  1.00  0.00     0.167 HD
ATOM     55  C   UNL A   1      43.997  31.084  30.415  1.00  0.00     0.037 A 
ATOM     56  C   UNL A   1      42.835  24.655  27.918  1.00  0.00     0.037 A 
ATOM     57  C   UNL A   1      45.173  30.271  30.271  1.00  0.00     0.049 A 
ATOM     58  C   UNL A   1      44.230  25.167  28.189  1.00  0.00     0.074 A 
ATOM     59  C   UNL A   1      46.481  30.587  30.591  1.00  0.00     0.029 A 
ATOM     60  N   UNL A   1      45.183  28.989  29.748  1.00  0.00    -0.354 N 
ATOM     61  N   UNL A   1      44.607  26.315  28.701  1.00  0.00    -0.248 NA
ATOM     62  C   UNL A   1      45.348  24.276  27.839  1.00  0.00     0.031 C 
ATOM     63  C   UNL A   1      47.292  29.515  30.207  1.00  0.00     0.029 A 
ATOM     64  C   UNL A   1      46.482  28.512  29.700  1.00  0.00     0.049 A 
ATOM     65  H   UNL A   1      44.386  28.490  29.455  1.00  0.00     0.167 HD
ATOM     66  C   UNL A   1      45.996  26.273  28.756  1.00  0.00     0.074 A 
ATOM     67  C   UNL A   1      46.396  24.983  28.238  1.00  0.00     0.031 C 
ATOM     68  C   UNL A   1      46.863  27.219  29.193  1.00  0.00     0.037 A 
BRANCH  55  69
ATOM     69  C   UNL A   1      44.161  32.492  30.902  1.00  0.00     0.057 A 
ATOM     70  C   UNL A   1      44.312  33.569  30.021  1.00  0.00     0.134 A 
ATOM     71  C   UNL A   1      44.136  32.774  32.274  1.00  0.00     0.134 A 
ATOM     72  F   UNL A   1      44.364  33.364  28.697  1.00  0.00    -0.206 F 
ATOM     73  C   UNL A   1      44.451  34.878  30.488  1.00  0.00     0.040 A 
ATOM     74  C   UNL A   1      44.249  34.080  32.752  1.00  0.00     0.040 A 
ATOM     75  F   UNL A   1      43.996  31.786  33.170  1.00  0.00    -0.206 F 
ATOM     76  C   UNL A   1      44.410  35.136  31.858  1.00  0.00     0.006 A 
ENDBRANCH  55  69
BRANCH  56  77
ATOM     77  C   UNL A   1      42.641  23.308  27.318  1.00  0.00     0.057 A 
ATOM     78  C   UNL A   1      42.345  22.192  28.109  1.00  0.00     0.134 A 
ATOM     79  C   UNL A   1      42.804  23.095  25.943  1.00  0.00     0.134 A 
ATOM     80  F   UNL A   1      42.211  22.323  29.437  1.00  0.00    -0.206 F 
ATOM     81  C   UNL A   1      42.237  20.911  27.561  1.00  0.00     0.040 A 
ATOM     82  C   UNL A   1      42.671  21.825  25.377  1.00  0.00     0.040 A 
ATOM     83  F   UNL A   1      43.097  24.118  25.128  1.00  0.00    -0.206 F 
ATOM     84  C   UNL A   1      42.396  20.727  26.189  1.00  0.00     0.006 A 
ENDBRANCH  56  77
BRANCH  68  85
ATOM     85  C   UNL A   1      48.327  26.891  29.167  1.00  0.00     0.057 A 
ATOM     86  C   UNL A   1      48.938  26.153  30.188  1.00  0.00     0.134 A 
ATOM     87  C   UNL A   1      49.119  27.253  28.068  1.00  0.00     0.134 A 
ATOM     88  F   UNL A   1      48.238  25.783  31.271  1.00  0.00    -0.206 F 
ATOM     89  C   UNL A   1      50.286  25.796  30.123  1.00  0.00     0.040 A 
ATOM     90  C   UNL A   1      50.461  26.881  27.980  1.00  0.00     0.040 A 
ATOM     91  F   UNL A   1      48.592  27.950  27.050  1.00  0.00    -0.206 F 
ATOM     92  C   UNL A   1      51.049  26.153  29.012  1.00  0.00     0.006 A 
ENDBRANCH  68  85
ENDBRANCH  42  43
ENDBRANCH  35  37
ENDBRANCH  34  35
ENDBRANCH  33  34
ENDBRANCH  32  33
ENDBRANCH  31  32
ENDBRANCH  30  31
ENDBRANCH  29  30
ENDBRANCH  28  29
ENDBRANCH   1  28
TORSDOF 24
ENDMDL
MODEL 2
REMARK VINA RESULT:     -10.1      3.366      8.800
REMARK SMILES O=C(CCc1nc(-c2ccccc2)c(-c2ccccc2)o1)OCCOCCOCCOCCOC(=O)c1ccc(-c2c3nc(c(-c4c(F)cccc4F)c4ccc([nH]4)c(-c4c(F)cccc4F)c4nc(c(-c5c(F)cccc5F)c5ccc2[nH]5)C=C4)C=C3)cc1
REMARK SMILES IDX 27 1 26 2 25 3 24 4 23 5 22 6 2 7 1 8 3 9 4 10 5 11 6 12
REMARK SMILES IDX 21 13 7 14 14 15 8 16 9 17 13 18 10 19 12 20 11 21 15 22
REMARK SMILES IDX 16 23 20 24 17 25 19 26 18 27 28 28 29 29 30 30 31 31 32 32
REMARK SMILES IDX 33 33 34 34 35 35 36 36 37 37 38 38 90 39 39 40 89 41 40 42
REMARK SMILES IDX 41 43 42 44 83 45 43 46 88 47 82 48 84 49 44 50 87 51 81 52
REMARK SMILES IDX 80 53 45 55 71 56 54 57 70 58 55 59 58 60 69 61 85 62 56 63
REMARK SMILES IDX 57 64 68 66 86 67 59 68 46 69 47 70 52 71 48 72 49 73 51 74
REMARK SMILES IDX 53 75 50 76 72 77 73 78 78 79 74 80 75 81 77 82 79 83 76 84
REMARK SMILES IDX 60 85 61 86 66 87 62 88 63 89 65 90 67 91 64 92
REMARK H PARENT 84 54 58 65
REMARK Flexibility Score: inf
ROOT
ATOM      1  C   UNL A   1      37.960  22.661  26.282  1.00  0.00     0.188 C 
ENDROOT
BRANCH   1   2
ATOM      2  C   UNL A   1      37.286  23.695  25.373  1.00  0.00     0.188 C 
BRANCH   2   3
ATOM      3  O   UNL A   1      35.956  24.080  25.686  1.00  0.00    -0.376 OA
BRANCH   3   4
ATOM      4  C   UNL A   1      34.990  23.061  25.918  1.00  0.00     0.202 C 
BRANCH   4   5
ATOM      5  C   UNL A   1      35.035  21.792  25.069  1.00  0.00     0.261 C 
BRANCH   5   6
ATOM      6  O   UNL A   1      34.042  21.644  24.043  1.00  0.00    -0.463 OA
BRANCH   6   7
ATOM      7  C   UNL A   1      33.768  22.518  23.060  1.00  0.00     0.306 C 
ATOM      8  O   UNL A   1      34.626  23.326  22.710  1.00  0.00    -0.252 OA
BRANCH   7   9
ATOM      9  C   UNL A   1      32.375  22.594  22.500  1.00  0.00     0.132 C 
BRANCH   9  10
ATOM     10  C   UNL A   1      31.283  23.008  23.473  1.00  0.00     0.109 C 
BRANCH  10  11
ATOM     11  C   UNL A   1      31.266  24.431  23.911  1.00  0.00     0.196 A 
ATOM     12  N   UNL A   1      32.096  25.019  24.748  1.00  0.00    -0.213 NA
ATOM     13  O   UNL A   1      30.288  25.265  23.410  1.00  0.00    -0.440 OA
ATOM     14  C   UNL A   1      31.650  26.316  24.800  1.00  0.00     0.117 A 
ATOM     15  C   UNL A   1      30.611  26.506  23.909  1.00  0.00     0.162 A 
BRANCH  14  16
ATOM     16  C   UNL A   1      32.245  27.349  25.612  1.00  0.00     0.004 A 
ATOM     17  C   UNL A   1      33.633  27.536  25.596  1.00  0.00     0.010 A 
ATOM     18  C   UNL A   1      31.446  28.139  26.442  1.00  0.00     0.010 A 
ATOM     19  C   UNL A   1      34.220  28.500  26.413  1.00  0.00     0.001 A 
ATOM     20  C   UNL A   1      32.037  29.097  27.267  1.00  0.00     0.001 A 
ATOM     21  C   UNL A   1      33.421  29.277  27.252  1.00  0.00     0.000 A 
ENDBRANCH  14  16
BRANCH  15  22
ATOM     22  C   UNL A   1      29.960  27.685  23.343  1.00  0.00     0.020 A 
ATOM     23  C   UNL A   1      30.663  28.689  22.674  1.00  0.00     0.012 A 
ATOM     24  C   UNL A   1      28.558  27.799  23.434  1.00  0.00     0.012 A 
ATOM     25  C   UNL A   1      29.974  29.753  22.071  1.00  0.00     0.001 A 
ATOM     26  C   UNL A   1      27.873  28.859  22.837  1.00  0.00     0.001 A 
ATOM     27  C   UNL A   1      28.582  29.832  22.143  1.00  0.00     0.000 A 
ENDBRANCH  15  22
ENDBRANCH  10  11
ENDBRANCH   9  10
ENDBRANCH   7   9
ENDBRANCH   6   7
ENDBRANCH   5   6
ENDBRANCH   4   5
ENDBRANCH   3   4
ENDBRANCH   2   3
ENDBRANCH   1   2
BRANCH   1  28
ATOM     28  O   UNL A   1      39.364  22.863  26.413  1.00  0.00    -0.377 OA
BRANCH  28  29
ATOM     29  C   UNL A   1      40.150  21.685  26.227  1.00  0.00     0.188 C 
BRANCH  29  30
ATOM     30  C   UNL A   1      40.919  21.154  27.459  1.00  0.00     0.188 C 
BRANCH  30  31
ATOM     31  O   UNL A   1      42.160  20.570  27.081  1.00  0.00    -0.376 OA
BRANCH  31  32
ATOM     32  C   UNL A   1      42.248  19.157  27.138  1.00  0.00     0.202 C 
BRANCH  32  33
ATOM     33  C   UNL A   1      42.944  18.484  25.945  1.00  0.00     0.261 C 
BRANCH  33  34
ATOM     34  O   UNL A   1      43.185  19.319  24.800  1.00  0.00    -0.460 OA
BRANCH  34  35
ATOM     35  C   UNL A   1      44.463  19.568  24.440  1.00  0.00     0.338 C 
ATOM     36  O   UNL A   1      45.189  18.840  23.784  1.00  0.00    -0.246 OA
BRANCH  35  37
ATOM     37  C   UNL A   1      44.755  20.992  24.763  1.00  0.00     0.060 A 
ATOM     38  C   UNL A   1      45.299  21.304  26.018  1.00  0.00     0.016 A 
ATOM     39  C   UNL A   1      44.577  22.001  23.812  1.00  0.00     0.016 A 
ATOM     40  C   UNL A   1      45.638  22.625  26.332  1.00  0.00     0.010 A 
ATOM     41  C   UNL A   1      44.895  23.325  24.135  1.00  0.00     0.010 A 
ATOM     42  C   UNL A   1      45.397  23.648  25.408  1.00  0.00    -0.014 A 
BRANCH  42  43
ATOM     43  C   UNL A   1      45.430  25.070  25.835  1.00  0.00     0.031 A 
ATOM     44  C   UNL A   1      46.765  25.768  25.824  1.00  0.00     0.074 A 
ATOM     45  C   UNL A   1      44.331  25.727  26.248  1.00  0.00     0.049 A 
ATOM     46  N   UNL A   1      47.089  26.958  26.255  1.00  0.00    -0.248 NA
ATOM     47  C   UNL A   1      47.889  25.007  25.252  1.00  0.00     0.031 C 
ATOM     48  C   UNL A   1      42.975  25.186  26.272  1.00  0.00     0.029 A 
ATOM     49  N   UNL A   1      44.196  26.999  26.753  1.00  0.00    -0.354 N 
ATOM     50  C   UNL A   1      48.453  27.082  26.021  1.00  0.00     0.074 A 
ATOM     51  C   UNL A   1      48.900  25.844  25.426  1.00  0.00     0.031 C 
ATOM     52  C   UNL A   1      42.147  26.110  26.794  1.00  0.00     0.029 A 
ATOM     53  C   UNL A   1      42.922  27.292  27.176  1.00  0.00     0.049 A 
ATOM     54  H   UNL A   1      44.941  27.640  26.807  1.00  0.00     0.167 HD
ATOM     55  C   UNL A   1      49.264  28.133  26.283  1.00  0.00     0.037 A 
ATOM     56  C   UNL A   1      42.448  28.372  27.832  1.00  0.00     0.037 A 
ATOM     57  C   UNL A   1      48.824  29.364  26.877  1.00  0.00     0.049 A 
ATOM     58  C   UNL A   1      43.389  29.499  28.188  1.00  0.00     0.074 A 
ATOM     59  C   UNL A   1      49.563  30.502  27.146  1.00  0.00     0.029 A 
ATOM     60  N   UNL A   1      47.531  29.611  27.310  1.00  0.00    -0.354 N 
ATOM     61  N   UNL A   1      44.668  29.627  27.923  1.00  0.00    -0.248 NA
ATOM     62  C   UNL A   1      42.822  30.630  28.942  1.00  0.00     0.031 C 
ATOM     63  C   UNL A   1      48.729  31.417  27.795  1.00  0.00     0.029 A 
ATOM     64  C   UNL A   1      47.459  30.870  27.880  1.00  0.00     0.049 A 
ATOM     65  H   UNL A   1      46.776  28.984  27.224  1.00  0.00     0.167 HD
ATOM     66  C   UNL A   1      45.048  30.855  28.453  1.00  0.00     0.074 A 
ATOM     67  C   UNL A   1      43.865  31.441  29.043  1.00  0.00     0.031 C 
ATOM     68  C   UNL A   1      46.269  31.444  28.453  1.00  0.00     0.037 A 
BRANCH  55  69
ATOM     69  C   UNL A   1      50.720  27.980  25.961  1.00  0.00     0.057 A 
ATOM     70  C   UNL A   1      51.216  28.156  24.663  1.00  0.00     0.134 A 
ATOM     71  C   UNL A   1      51.641  27.683  26.972  1.00  0.00     0.134 A 
ATOM     72  F   UNL A   1      50.382  28.422  23.646  1.00  0.00    -0.206 F 
ATOM     73  C   UNL A   1      52.576  28.023  24.379  1.00  0.00     0.040 A 
ATOM     74  C   UNL A   1      53.007  27.572  26.706  1.00  0.00     0.040 A 
ATOM     75  F   UNL A   1      51.230  27.501  28.236  1.00  0.00    -0.206 F 
ATOM     76  C   UNL A   1      53.477  27.740  25.405  1.00  0.00     0.006 A 
ENDBRANCH  55  69
BRANCH  56  77
ATOM     77  C   UNL A   1      41.021  28.436  28.246  1.00  0.00     0.057 A 
ATOM     78  C   UNL A   1      40.031  28.924  27.385  1.00  0.00     0.134 A 
ATOM     79  C   UNL A   1      40.622  28.062  29.536  1.00  0.00     0.134 A 
ATOM     80  F   UNL A   1      40.354  29.330  26.148  1.00  0.00    -0.206 F 
ATOM     81  C   UNL A   1      38.702  29.057  27.795  1.00  0.00     0.040 A 
ATOM     82  C   UNL A   1      39.292  28.164  29.951  1.00  0.00     0.040 A 
ATOM     83  F   UNL A   1      41.520  27.595  30.415  1.00  0.00    -0.206 F 
ATOM     84  C   UNL A   1      38.330  28.672  29.081  1.00  0.00     0.006 A 
ENDBRANCH  56  77
BRANCH  68  85
ATOM     85  C   UNL A   1      46.390  32.804  29.078  1.00  0.00     0.057 A 
ATOM     86  C   UNL A   1      46.655  32.967  30.443  1.00  0.00     0.134 A 
ATOM     87  C   UNL A   1      46.317  33.960  28.289  1.00  0.00     0.134 A 
ATOM     88  F   UNL A   1      46.729  31.902  31.255  1.00  0.00    -0.206 F 
ATOM     89  C   UNL A   1      46.832  34.234  31.004  1.00  0.00     0.040 A 
ATOM     90  C   UNL A   1      46.516  35.229  28.834  1.00  0.00     0.040 A 
ATOM     91  F   UNL A   1      46.077  33.871  26.973  1.00  0.00    -0.206 F 
ATOM     92  C   UNL A   1      46.772  35.369  30.196  1.00  0.00     0.006 A 
ENDBRANCH  68  85
ENDBRANCH  42  43
ENDBRANCH  35  37
ENDBRANCH  34  35
ENDBRANCH  33  34
ENDBRANCH  32  33
ENDBRANCH  31  32
ENDBRANCH  30  31
ENDBRANCH  29  30
ENDBRANCH  28  29
ENDBRANCH   1  28
TORSDOF 24
ENDMDL
MODEL 3
REMARK VINA RESULT:     -10.0      0.652      2.380
REMARK SMILES O=C(CCc1nc(-c2ccccc2)c(-c2ccccc2)o1)OCCOCCOCCOCCOC(=O)c1ccc(-c2c3nc(c(-c4c(F)cccc4F)c4ccc([nH]4)c(-c4c(F)cccc4F)c4nc(c(-c5c(F)cccc5F)c5ccc2[nH]5)C=C4)C=C3)cc1
REMARK SMILES IDX 27 1 26 2 25 3 24 4 23 5 22 6 2 7 1 8 3 9 4 10 5 11 6 12
REMARK SMILES IDX 21 13 7 14 14 15 8 16 9 17 13 18 10 19 12 20 11 21 15 22
REMARK SMILES IDX 16 23 20 24 17 25 19 26 18 27 28 28 29 29 30 30 31 31 32 32
REMARK SMILES IDX 33 33 34 34 35 35 36 36 37 37 38 38 90 39 39 40 89 41 40 42
REMARK SMILES IDX 41 43 42 44 83 45 43 46 88 47 82 48 84 49 44 50 87 51 81 52
REMARK SMILES IDX 80 53 45 55 71 56 54 57 70 58 55 59 58 60 69 61 85 62 56 63
REMARK SMILES IDX 57 64 68 66 86 67 59 68 46 69 47 70 52 71 48 72 49 73 51 74
REMARK SMILES IDX 53 75 50 76 72 77 73 78 78 79 74 80 75 81 77 82 79 83 76 84
REMARK SMILES IDX 60 85 61 86 66 87 62 88 63 89 65 90 67 91 64 92
REMARK H PARENT 84 54 58 65
REMARK Flexibility Score: inf
ROOT
ATOM      1  C   UNL A   1      33.787  27.438  22.340  1.00  0.00     0.188 C 
ENDROOT
BRANCH   1   2
ATOM      2  C   UNL A   1      33.100  26.120  21.962  1.00  0.00     0.188 C 
BRANCH   2   3
ATOM      3  O   UNL A   1      33.682  24.915  22.434  1.00  0.00    -0.376 OA
BRANCH   3   4
ATOM      4  C   UNL A   1      32.823  23.847  22.813  1.00  0.00     0.202 C 
BRANCH   4   5
ATOM      5  C   UNL A   1      31.311  24.048  22.731  1.00  0.00     0.261 C 
BRANCH   5   6
ATOM      6  O   UNL A   1      30.574  24.052  23.963  1.00  0.00    -0.463 OA
BRANCH   6   7
ATOM      7  C   UNL A   1      30.591  25.011  24.905  1.00  0.00     0.306 C 
ATOM      8  O   UNL A   1      30.800  26.177  24.579  1.00  0.00    -0.252 OA
BRANCH   7   9
ATOM      9  C   UNL A   1      30.498  24.629  26.356  1.00  0.00     0.132 C 
BRANCH   9  10
ATOM     10  C   UNL A   1      30.542  23.140  26.661  1.00  0.00     0.109 C 
BRANCH  10  11
ATOM     11  C   UNL A   1      31.720  22.378  26.163  1.00  0.00     0.196 A 
ATOM     12  N   UNL A   1      32.990  22.706  26.278  1.00  0.00    -0.213 NA
ATOM     13  O   UNL A   1      31.505  21.189  25.499  1.00  0.00    -0.440 OA
ATOM     14  C   UNL A   1      33.656  21.674  25.665  1.00  0.00     0.117 A 
ATOM     15  C   UNL A   1      32.768  20.690  25.275  1.00  0.00     0.162 A 
BRANCH  14  16
ATOM     16  C   UNL A   1      35.089  21.599  25.526  1.00  0.00     0.004 A 
ATOM     17  C   UNL A   1      35.876  22.729  25.782  1.00  0.00     0.010 A 
ATOM     18  C   UNL A   1      35.694  20.413  25.102  1.00  0.00     0.010 A 
ATOM     19  C   UNL A   1      37.257  22.677  25.605  1.00  0.00     0.001 A 
ATOM     20  C   UNL A   1      37.076  20.366  24.916  1.00  0.00     0.001 A 
ATOM     21  C   UNL A   1      37.855  21.497  25.167  1.00  0.00     0.000 A 
ENDBRANCH  14  16
BRANCH  15  22
ATOM     22  C   UNL A   1      32.912  19.298  24.856  1.00  0.00     0.020 A 
ATOM     23  C   UNL A   1      32.972  18.237  25.763  1.00  0.00     0.012 A 
ATOM     24  C   UNL A   1      32.952  19.002  23.479  1.00  0.00     0.012 A 
ATOM     25  C   UNL A   1      33.019  16.913  25.299  1.00  0.00     0.001 A 
ATOM     26  C   UNL A   1      33.002  17.685  23.017  1.00  0.00     0.001 A 
ATOM     27  C   UNL A   1      33.024  16.638  23.930  1.00  0.00     0.000 A 
ENDBRANCH  15  22
ENDBRANCH  10  11
ENDBRANCH   9  10
ENDBRANCH   7   9
ENDBRANCH   6   7
ENDBRANCH   5   6
ENDBRANCH   4   5
ENDBRANCH   3   4
ENDBRANCH   2   3
ENDBRANCH   1   2
BRANCH   1  28
ATOM     28  O   UNL A   1      33.679  27.746  23.727  1.00  0.00    -0.377 OA
BRANCH  28  29
ATOM     29  C   UNL A   1      33.238  29.076  24.003  1.00  0.00     0.188 C 
BRANCH  29  30
ATOM     30  C   UNL A   1      31.711  29.307  24.074  1.00  0.00     0.188 C 
BRANCH  30  31
ATOM     31  O   UNL A   1      31.338  29.924  25.301  1.00  0.00    -0.376 OA
BRANCH  31  32
ATOM     32  C   UNL A   1      32.054  29.534  26.459  1.00  0.00     0.202 C 
BRANCH  32  33
ATOM     33  C   UNL A   1      32.837  30.652  27.165  1.00  0.00     0.261 C 
BRANCH  33  34
ATOM     34  O   UNL A   1      33.882  30.226  28.057  1.00  0.00    -0.460 OA
BRANCH  34  35
ATOM     35  C   UNL A   1      34.799  31.135  28.457  1.00  0.00     0.338 C 
ATOM     36  O   UNL A   1      34.576  32.267  28.855  1.00  0.00    -0.246 OA
BRANCH  35  37
ATOM     37  C   UNL A   1      36.108  30.437  28.571  1.00  0.00     0.060 A 
ATOM     38  C   UNL A   1      36.416  29.763  29.763  1.00  0.00     0.016 A 
ATOM     39  C   UNL A   1      36.990  30.370  27.487  1.00  0.00     0.016 A 
ATOM     40  C   UNL A   1      37.614  29.049  29.882  1.00  0.00     0.010 A 
ATOM     41  C   UNL A   1      38.197  29.675  27.614  1.00  0.00     0.010 A 
ATOM     42  C   UNL A   1      38.529  29.037  28.822  1.00  0.00    -0.014 A 
BRANCH  42  43
ATOM     43  C   UNL A   1      39.926  28.581  29.042  1.00  0.00     0.031 A 
ATOM     44  C   UNL A   1      40.902  29.581  29.605  1.00  0.00     0.074 A 
ATOM     45  C   UNL A   1      40.338  27.339  28.735  1.00  0.00     0.049 A 
ATOM     46  N   UNL A   1      42.192  29.480  29.783  1.00  0.00    -0.248 NA
ATOM     47  C   UNL A   1      40.337  30.878  30.016  1.00  0.00     0.031 C 
ATOM     48  C   UNL A   1      39.493  26.264  28.222  1.00  0.00     0.029 A 
ATOM     49  N   UNL A   1      41.594  26.782  28.791  1.00  0.00    -0.354 N 
ATOM     50  C   UNL A   1      42.595  30.701  30.310  1.00  0.00     0.074 A 
ATOM     51  C   UNL A   1      41.418  31.533  30.409  1.00  0.00     0.031 C 
ATOM     52  C   UNL A   1      40.260  25.184  27.983  1.00  0.00     0.029 A 
ATOM     53  C   UNL A   1      41.655  25.504  28.289  1.00  0.00     0.049 A 
ATOM     54  H   UNL A   1      42.378  27.253  29.157  1.00  0.00     0.167 HD
ATOM     55  C   UNL A   1      43.836  31.097  30.675  1.00  0.00     0.037 A 
ATOM     56  C   UNL A   1      42.719  24.705  28.064  1.00  0.00     0.037 A 
ATOM     57  C   UNL A   1      45.008  30.273  30.575  1.00  0.00     0.049 A 
ATOM     58  C   UNL A   1      44.106  25.200  28.403  1.00  0.00     0.074 A 
ATOM     59  C   UNL A   1      46.305  30.572  30.956  1.00  0.00     0.029 A 
ATOM     60  N   UNL A   1      45.029  28.995  30.040  1.00  0.00    -0.354 N 
ATOM     61  N   UNL A   1      44.471  26.339  28.942  1.00  0.00    -0.248 NA
ATOM     62  C   UNL A   1      45.229  24.299  28.095  1.00  0.00     0.031 C 
ATOM     63  C   UNL A   1      47.120  29.495  30.599  1.00  0.00     0.029 A 
ATOM     64  C   UNL A   1      46.323  28.505  30.046  1.00  0.00     0.049 A 
ATOM     65  H   UNL A   1      44.240  28.508  29.707  1.00  0.00     0.167 HD
ATOM     66  C   UNL A   1      45.857  26.280  29.059  1.00  0.00     0.074 A 
ATOM     67  C   UNL A   1      46.266  24.991  28.547  1.00  0.00     0.031 C 
ATOM     68  C   UNL A   1      46.713  27.212  29.544  1.00  0.00     0.037 A 
BRANCH  55  69
ATOM     69  C   UNL A   1      43.993  32.499  31.182  1.00  0.00     0.057 A 
ATOM     70  C   UNL A   1      43.930  32.806  32.547  1.00  0.00     0.134 A 
ATOM     71  C   UNL A   1      44.242  33.550  30.291  1.00  0.00     0.134 A 
ATOM     72  F   UNL A   1      43.674  31.847  33.449  1.00  0.00    -0.206 F 
ATOM     73  C   UNL A   1      44.092  34.114  33.007  1.00  0.00     0.040 A 
ATOM     74  C   UNL A   1      44.430  34.858  30.741  1.00  0.00     0.040 A 
ATOM     75  F   UNL A   1      44.313  33.322  28.972  1.00  0.00    -0.206 F 
ATOM     76  C   UNL A   1      44.351  35.143  32.103  1.00  0.00     0.006 A 
ENDBRANCH  55  69
BRANCH  56  77
ATOM     77  C   UNL A   1      42.538  23.366  27.443  1.00  0.00     0.057 A 
ATOM     78  C   UNL A   1      42.572  23.195  26.054  1.00  0.00     0.134 A 
ATOM     79  C   UNL A   1      42.270  22.233  28.223  1.00  0.00     0.134 A 
ATOM     80  F   UNL A   1      42.790  24.246  25.250  1.00  0.00    -0.206 F 
ATOM     81  C   UNL A   1      42.327  21.953  25.462  1.00  0.00     0.040 A 
ATOM     82  C   UNL A   1      42.051  20.980  27.646  1.00  0.00     0.040 A 
ATOM     83  F   UNL A   1      42.214  22.328  29.559  1.00  0.00    -0.206 F 
ATOM     84  C   UNL A   1      42.070  20.841  26.260  1.00  0.00     0.006 A 
ENDBRANCH  56  77
BRANCH  68  85
ATOM     85  C   UNL A   1      48.173  26.869  29.580  1.00  0.00     0.057 A 
ATOM     86  C   UNL A   1      48.734  26.136  30.633  1.00  0.00     0.134 A 
ATOM     87  C   UNL A   1      49.012  27.209  28.509  1.00  0.00     0.134 A 
ATOM     88  F   UNL A   1      47.988  25.787  31.692  1.00  0.00    -0.206 F 
ATOM     89  C   UNL A   1      50.080  25.765  30.626  1.00  0.00     0.040 A 
ATOM     90  C   UNL A   1      50.352  26.822  28.480  1.00  0.00     0.040 A 
ATOM     91  F   UNL A   1      48.534  27.900  27.464  1.00  0.00    -0.206 F 
ATOM     92  C   UNL A   1      50.891  26.100  29.543  1.00  0.00     0.006 A 
ENDBRANCH  68  85
ENDBRANCH  42  43
ENDBRANCH  35  37
ENDBRANCH  34  35
ENDBRANCH  33  34
ENDBRANCH  32  33
ENDBRANCH  31  32
ENDBRANCH  30  31
ENDBRANCH  29  30
ENDBRANCH  28  29
ENDBRANCH   1  28
TORSDOF 24
ENDMDL
