MODEL 1
REMARK VINA RESULT:      -7.3      0.000      0.000
REMARK SMILES CCOc1ccc(-c2cc(Cl)cc3c2O[C@@H](C(F)(F)F)C(C(=O)OCCOCCOCCOCCOC(=O)c2ccc(-c4c5nc(c(-c6c(F)cccc6F)c6ccc([nH]6)c(-c6c(F)cccc6F)c6nc(c(-c7c(F)cccc7F)c7ccc4[nH]7)C=C6)C=C5)cc2)=C3)cc1
REMARK SMILES IDX 29 1 28 2 27 3 26 4 25 5 24 6 22 7 23 8 21 9 8 10 9 11 14 12
REMARK SMILES IDX 10 13 13 14 15 15 11 16 12 17 93 18 16 19 7 20 4 21 5 22
REMARK SMILES IDX 95 23 6 24 94 25 3 26 2 27 1 28 17 29 18 30 19 31 20 32
REMARK SMILES IDX 30 33 31 34 32 35 33 36 34 37 35 38 36 39 37 40 38 41 39 42
REMARK SMILES IDX 40 43 92 44 41 45 91 46 42 47 43 48 44 49 85 50 45 51 90 52
REMARK SMILES IDX 84 53 86 54 46 55 89 56 83 57 82 58 47 60 73 61 56 62 72 63
REMARK SMILES IDX 57 64 60 65 71 66 87 67 58 68 59 69 70 71 88 72 61 73 48 74
REMARK SMILES IDX 49 75 54 76 50 77 51 78 53 79 55 80 52 81 74 82 75 83 80 84
REMARK SMILES IDX 76 85 77 86 79 87 81 88 78 89 62 90 63 91 68 92 64 93 65 94
REMARK SMILES IDX 67 95 69 96 66 97
REMARK H PARENT 86 59 60 70
REMARK Flexibility Score: inf
ROOT
ATOM      1  C   UNL A   1      37.195  33.046  33.914  1.00  0.00     0.188 C 
ENDROOT
BRANCH   1   2
ATOM      2  C   UNL A   1      37.716  31.603  33.927  1.00  0.00     0.188 C 
BRANCH   2   3
ATOM      3  O   UNL A   1      38.684  31.346  34.942  1.00  0.00    -0.376 OA
BRANCH   3   4
ATOM      4  C   UNL A   1      38.206  30.949  36.226  1.00  0.00     0.202 C 
BRANCH   4   5
ATOM      5  C   UNL A   1      38.153  32.021  37.321  1.00  0.00     0.261 C 
BRANCH   5   6
ATOM      6  O   UNL A   1      39.480  32.522  37.597  1.00  0.00    -0.460 OA
BRANCH   6   7
ATOM      7  C   UNL A   1      39.757  32.767  38.889  1.00  0.00     0.338 C 
ATOM      8  O   UNL A   1      39.192  32.235  39.836  1.00  0.00    -0.246 OA
BRANCH   7   9
ATOM      9  C   UNL A   1      40.958  33.619  39.061  1.00  0.00     0.087 C 
ATOM     10  C   UNL A   1      43.870  33.283  36.120  1.00  0.00     0.026 A 
ATOM     11  C   UNL A   1      43.761  31.986  35.569  1.00  0.00     0.033 A 
ATOM     12  C   UNL A   1      43.016  33.560  37.207  1.00  0.00     0.135 A 
ATOM     13  C   UNL A   1      43.144  30.958  36.284  1.00  0.00     0.042 A 
ATOM     14  C   UNL A   1      42.615  32.499  38.031  1.00  0.00     0.019 A 
ATOM     15  O   UNL A   1      42.372  34.789  37.315  1.00  0.00    -0.475 OA
ATOM     16  Cl  UNL A   1      43.060  29.383  35.608  1.00  0.00    -0.084 Cl
ATOM     17  C   UNL A   1      42.672  31.190  37.568  1.00  0.00     0.032 A 
ATOM     18  C   UNL A   1      42.011  32.828  39.339  1.00  0.00     0.027 C 
ATOM     19  C   UNL A   1      41.312  34.920  38.360  1.00  0.00     0.316 C 
BRANCH  10  20
ATOM     20  C   UNL A   1      45.236  33.898  35.970  1.00  0.00    -0.014 A 
ATOM     21  C   UNL A   1      47.583  35.069  34.849  1.00  0.00     0.119 A 
ATOM     22  C   UNL A   1      46.594  35.870  35.412  1.00  0.00     0.047 A 
ATOM     23  C   UNL A   1      47.456  33.687  34.920  1.00  0.00     0.047 A 
ATOM     24  C   UNL A   1      45.437  35.293  35.968  1.00  0.00     0.013 A 
ATOM     25  C   UNL A   1      46.299  33.112  35.474  1.00  0.00     0.013 A 
BRANCH  21  26
ATOM     26  O   UNL A   1      48.700  35.677  34.346  1.00  0.00    -0.494 OA
BRANCH  26  27
ATOM     27  C   UNL A   1      48.675  35.918  32.931  1.00  0.00     0.226 C 
ATOM     28  C   UNL A   1      47.271  35.772  32.365  1.00  0.00     0.049 C 
ENDBRANCH  26  27
ENDBRANCH  21  26
ENDBRANCH  10  20
BRANCH  19  29
ATOM     29  C   UNL A   1      40.157  35.898  38.023  1.00  0.00     0.430 C 
ATOM     30  F   UNL A   1      39.682  36.450  39.172  1.00  0.00    -0.167 F 
ATOM     31  F   UNL A   1      40.589  36.928  37.255  1.00  0.00    -0.167 F 
ATOM     32  F   UNL A   1      39.095  35.366  37.401  1.00  0.00    -0.167 F 
ENDBRANCH  19  29
ENDBRANCH   7   9
ENDBRANCH   6   7
ENDBRANCH   5   6
ENDBRANCH   4   5
ENDBRANCH   3   4
ENDBRANCH   2   3
ENDBRANCH   1   2
BRANCH   1  33
ATOM     33  O   UNL A   1      36.001  33.202  34.657  1.00  0.00    -0.377 OA
BRANCH  33  34
ATOM     34  C   UNL A   1      34.883  33.769  33.983  1.00  0.00     0.188 C 
BRANCH  34  35
ATOM     35  C   UNL A   1      34.742  35.298  33.798  1.00  0.00     0.188 C 
BRANCH  35  36
ATOM     36  O   UNL A   1      34.691  35.726  32.439  1.00  0.00    -0.376 OA
BRANCH  36  37
ATOM     37  C   UNL A   1      33.668  36.647  32.088  1.00  0.00     0.202 C 
BRANCH  37  38
ATOM     38  C   UNL A   1      32.915  36.276  30.805  1.00  0.00     0.261 C 
BRANCH  38  39
ATOM     39  O   UNL A   1      32.826  34.867  30.547  1.00  0.00    -0.460 OA
BRANCH  39  40
ATOM     40  C   UNL A   1      33.107  34.452  29.293  1.00  0.00     0.338 C 
ATOM     41  O   UNL A   1      32.490  34.707  28.272  1.00  0.00    -0.246 OA
BRANCH  40  42
ATOM     42  C   UNL A   1      34.423  33.784  29.324  1.00  0.00     0.060 A 
ATOM     43  C   UNL A   1      34.721  32.936  30.399  1.00  0.00     0.016 A 
ATOM     44  C   UNL A   1      35.342  33.977  28.292  1.00  0.00     0.016 A 
ATOM     45  C   UNL A   1      35.966  32.311  30.464  1.00  0.00     0.010 A 
ATOM     46  C   UNL A   1      36.594  33.367  28.367  1.00  0.00     0.010 A 
ATOM     47  C   UNL A   1      36.923  32.563  29.472  1.00  0.00    -0.014 A 
BRANCH  47  48
ATOM     48  C   UNL A   1      38.334  32.177  29.696  1.00  0.00     0.031 A 
ATOM     49  C   UNL A   1      38.769  30.811  29.242  1.00  0.00     0.074 A 
ATOM     50  C   UNL A   1      39.206  33.006  30.292  1.00  0.00     0.049 A 
ATOM     51  N   UNL A   1      39.927  30.220  29.375  1.00  0.00    -0.248 NA
ATOM     52  C   UNL A   1      37.754  30.002  28.546  1.00  0.00     0.031 C 
ATOM     53  C   UNL A   1      38.910  34.361  30.752  1.00  0.00     0.029 A 
ATOM     54  N   UNL A   1      40.524  32.815  30.625  1.00  0.00    -0.354 N 
ATOM     55  C   UNL A   1      39.780  28.972  28.784  1.00  0.00     0.074 A 
ATOM     56  C   UNL A   1      38.415  28.878  28.316  1.00  0.00     0.031 C 
ATOM     57  C   UNL A   1      40.013  34.875  31.326  1.00  0.00     0.029 A 
ATOM     58  C   UNL A   1      41.081  33.875  31.296  1.00  0.00     0.049 A 
ATOM     59  H   UNL A   1      41.022  31.995  30.404  1.00  0.00     0.167 HD
ATOM     60  C   UNL A   1      40.702  27.994  28.638  1.00  0.00     0.037 A 
ATOM     61  C   UNL A   1      42.306  34.008  31.840  1.00  0.00     0.037 A 
ATOM     62  C   UNL A   1      42.056  28.082  29.111  1.00  0.00     0.049 A 
ATOM     63  C   UNL A   1      43.296  32.878  31.723  1.00  0.00     0.074 A 
ATOM     64  C   UNL A   1      43.072  27.150  28.997  1.00  0.00     0.029 A 
ATOM     65  N   UNL A   1      42.578  29.166  29.800  1.00  0.00    -0.354 N 
ATOM     66  N   UNL A   1      43.160  31.714  31.132  1.00  0.00    -0.248 NA
ATOM     67  C   UNL A   1      44.612  33.080  32.348  1.00  0.00     0.031 C 
ATOM     68  C   UNL A   1      44.198  27.653  29.658  1.00  0.00     0.029 A 
ATOM     69  C   UNL A   1      43.896  28.917  30.140  1.00  0.00     0.049 A 
ATOM     70  H   UNL A   1      42.085  29.991  30.016  1.00  0.00     0.167 HD
ATOM     71  C   UNL A   1      44.377  31.061  31.288  1.00  0.00     0.074 A 
ATOM     72  C   UNL A   1      45.243  31.961  32.022  1.00  0.00     0.031 C 
ATOM     73  C   UNL A   1      44.746  29.829  30.862  1.00  0.00     0.037 A 
BRANCH  60  74
ATOM     74  C   UNL A   1      40.261  26.732  27.959  1.00  0.00     0.057 A 
ATOM     75  C   UNL A   1      39.441  25.795  28.599  1.00  0.00     0.134 A 
ATOM     76  C   UNL A   1      40.650  26.459  26.642  1.00  0.00     0.134 A 
ATOM     77  F   UNL A   1      39.050  25.989  29.869  1.00  0.00    -0.206 F 
ATOM     78  C   UNL A   1      39.038  24.622  27.960  1.00  0.00     0.040 A 
ATOM     79  C   UNL A   1      40.235  25.301  25.984  1.00  0.00     0.040 A 
ATOM     80  F   UNL A   1      41.438  27.314  25.972  1.00  0.00    -0.206 F 
ATOM     81  C   UNL A   1      39.429  24.376  26.646  1.00  0.00     0.006 A 
ENDBRANCH  60  74
BRANCH  61  82
ATOM     82  C   UNL A   1      42.668  35.252  32.565  1.00  0.00     0.057 A 
ATOM     83  C   UNL A   1      42.175  35.514  33.849  1.00  0.00     0.134 A 
ATOM     84  C   UNL A   1      43.493  36.221  31.981  1.00  0.00     0.134 A 
ATOM     85  F   UNL A   1      41.359  34.637  34.451  1.00  0.00    -0.206 F 
ATOM     86  C   UNL A   1      42.476  36.702  34.519  1.00  0.00     0.040 A 
ATOM     87  C   UNL A   1      43.820  37.402  32.648  1.00  0.00     0.040 A 
ATOM     88  F   UNL A   1      43.993  36.031  30.751  1.00  0.00    -0.206 F 
ATOM     89  C   UNL A   1      43.305  37.648  33.919  1.00  0.00     0.006 A 
ENDBRANCH  61  82
BRANCH  73  90
ATOM     90  C   UNL A   1      46.154  29.391  31.141  1.00  0.00     0.057 A 
ATOM     91  C   UNL A   1      47.202  29.655  30.251  1.00  0.00     0.134 A 
ATOM     92  C   UNL A   1      46.474  28.748  32.344  1.00  0.00     0.134 A 
ATOM     93  F   UNL A   1      46.962  30.259  29.077  1.00  0.00    -0.206 F 
ATOM     94  C   UNL A   1      48.514  29.278  30.539  1.00  0.00     0.040 A 
ATOM     95  C   UNL A   1      47.786  28.389  32.655  1.00  0.00     0.040 A 
ATOM     96  F   UNL A   1      45.518  28.477  33.246  1.00  0.00    -0.206 F 
ATOM     97  C   UNL A   1      48.810  28.651  31.747  1.00  0.00     0.006 A 
ENDBRANCH  73  90
ENDBRANCH  47  48
ENDBRANCH  40  42
ENDBRANCH  39  40
ENDBRANCH  38  39
ENDBRANCH  37  38
ENDBRANCH  36  37
ENDBRANCH  35  36
ENDBRANCH  34  35
ENDBRANCH  33  34
ENDBRANCH   1  33
TORSDOF 24
ENDMDL
MODEL 2
REMARK VINA RESULT:      -7.3      5.349     10.924
REMARK SMILES CCOc1ccc(-c2cc(Cl)cc3c2O[C@@H](C(F)(F)F)C(C(=O)OCCOCCOCCOCCOC(=O)c2ccc(-c4c5nc(c(-c6c(F)cccc6F)c6ccc([nH]6)c(-c6c(F)cccc6F)c6nc(c(-c7c(F)cccc7F)c7ccc4[nH]7)C=C6)C=C5)cc2)=C3)cc1
REMARK SMILES IDX 29 1 28 2 27 3 26 4 25 5 24 6 22 7 23 8 21 9 8 10 9 11 14 12
REMARK SMILES IDX 10 13 13 14 15 15 11 16 12 17 93 18 16 19 7 20 4 21 5 22
REMARK SMILES IDX 95 23 6 24 94 25 3 26 2 27 1 28 17 29 18 30 19 31 20 32
REMARK SMILES IDX 30 33 31 34 32 35 33 36 34 37 35 38 36 39 37 40 38 41 39 42
REMARK SMILES IDX 40 43 92 44 41 45 91 46 42 47 43 48 44 49 85 50 45 51 90 52
REMARK SMILES IDX 84 53 86 54 46 55 89 56 83 57 82 58 47 60 73 61 56 62 72 63
REMARK SMILES IDX 57 64 60 65 71 66 87 67 58 68 59 69 70 71 88 72 61 73 48 74
REMARK SMILES IDX 49 75 54 76 50 77 51 78 53 79 55 80 52 81 74 82 75 83 80 84
REMARK SMILES IDX 76 85 77 86 79 87 81 88 78 89 62 90 63 91 68 92 64 93 65 94
REMARK SMILES IDX 67 95 69 96 66 97
REMARK H PARENT 86 59 60 70
REMARK Flexibility Score: inf
ROOT
ATOM      1  C   UNL A   1      47.236  27.451  28.722  1.00  0.00     0.188 C 
ENDROOT
BRANCH   1   2
ATOM      2  C   UNL A   1      47.986  28.565  27.980  1.00  0.00     0.188 C 
BRANCH   2   3
ATOM      3  O   UNL A   1      47.349  29.839  28.054  1.00  0.00    -0.376 OA
BRANCH   3   4
ATOM      4  C   UNL A   1      47.026  30.489  26.826  1.00  0.00     0.202 C 
BRANCH   4   5
ATOM      5  C   UNL A   1      45.542  30.722  26.521  1.00  0.00     0.261 C 
BRANCH   5   6
ATOM      6  O   UNL A   1      45.368  31.962  25.799  1.00  0.00    -0.460 OA
BRANCH   6   7
ATOM      7  C   UNL A   1      45.056  33.035  26.545  1.00  0.00     0.338 C 
ATOM      8  O   UNL A   1      44.949  33.030  27.764  1.00  0.00    -0.246 OA
BRANCH   7   9
ATOM      9  C   UNL A   1      45.036  34.290  25.754  1.00  0.00     0.087 C 
ATOM     10  C   UNL A   1      43.278  37.574  27.591  1.00  0.00     0.026 A 
ATOM     11  C   UNL A   1      42.329  37.078  28.514  1.00  0.00     0.033 A 
ATOM     12  C   UNL A   1      43.923  36.603  26.796  1.00  0.00     0.135 A 
ATOM     13  C   UNL A   1      41.805  35.793  28.376  1.00  0.00     0.042 A 
ATOM     14  C   UNL A   1      43.237  35.416  26.502  1.00  0.00     0.019 A 
ATOM     15  O   UNL A   1      45.285  36.689  26.527  1.00  0.00    -0.475 OA
ATOM     16  Cl  UNL A   1      40.625  35.231  29.488  1.00  0.00    -0.084 Cl
ATOM     17  C   UNL A   1      42.176  35.002  27.298  1.00  0.00     0.032 A 
ATOM     18  C   UNL A   1      43.763  34.564  25.414  1.00  0.00     0.027 C 
ATOM     19  C   UNL A   1      45.934  35.509  25.879  1.00  0.00     0.316 C 
BRANCH  10  20
ATOM     20  C   UNL A   1      42.993  38.971  27.111  1.00  0.00    -0.014 A 
ATOM     21  C   UNL A   1      42.760  41.285  25.458  1.00  0.00     0.119 A 
ATOM     22  C   UNL A   1      41.659  40.462  25.680  1.00  0.00     0.047 A 
ATOM     23  C   UNL A   1      43.950  41.017  26.123  1.00  0.00     0.047 A 
ATOM     24  C   UNL A   1      41.772  39.322  26.498  1.00  0.00     0.013 A 
ATOM     25  C   UNL A   1      44.063  39.877  26.937  1.00  0.00     0.013 A 
BRANCH  21  26
ATOM     26  O   UNL A   1      42.590  42.395  24.678  1.00  0.00    -0.494 OA
BRANCH  26  27
ATOM     27  C   UNL A   1      42.103  42.136  23.352  1.00  0.00     0.226 C 
ATOM     28  C   UNL A   1      41.532  43.393  22.712  1.00  0.00     0.049 C 
ENDBRANCH  26  27
ENDBRANCH  21  26
ENDBRANCH  10  20
BRANCH  19  29
ATOM     29  C   UNL A   1      47.423  35.277  26.248  1.00  0.00     0.430 C 
ATOM     30  F   UNL A   1      48.161  36.346  25.841  1.00  0.00    -0.167 F 
ATOM     31  F   UNL A   1      47.591  35.186  27.589  1.00  0.00    -0.167 F 
ATOM     32  F   UNL A   1      48.004  34.198  25.706  1.00  0.00    -0.167 F 
ENDBRANCH  19  29
ENDBRANCH   7   9
ENDBRANCH   6   7
ENDBRANCH   5   6
ENDBRANCH   4   5
ENDBRANCH   3   4
ENDBRANCH   2   3
ENDBRANCH   1   2
BRANCH   1  33
ATOM     33  O   UNL A   1      46.511  26.605  27.849  1.00  0.00    -0.377 OA
BRANCH  33  34
ATOM     34  C   UNL A   1      46.314  25.257  28.260  1.00  0.00     0.188 C 
BRANCH  34  35
ATOM     35  C   UNL A   1      46.671  24.071  27.334  1.00  0.00     0.188 C 
BRANCH  35  36
ATOM     36  O   UNL A   1      45.648  23.085  27.218  1.00  0.00    -0.376 OA
BRANCH  36  37
ATOM     37  C   UNL A   1      45.647  22.287  26.042  1.00  0.00     0.202 C 
BRANCH  37  38
ATOM     38  C   UNL A   1      44.252  21.814  25.617  1.00  0.00     0.261 C 
BRANCH  38  39
ATOM     39  O   UNL A   1      43.282  22.861  25.465  1.00  0.00    -0.460 OA
BRANCH  39  40
ATOM     40  C   UNL A   1      43.749  24.094  25.174  1.00  0.00     0.338 C 
ATOM     41  O   UNL A   1      44.481  24.411  24.251  1.00  0.00    -0.246 OA
BRANCH  40  42
ATOM     42  C   UNL A   1      43.062  25.055  26.058  1.00  0.00     0.060 A 
ATOM     43  C   UNL A   1      43.535  26.373  26.116  1.00  0.00     0.016 A 
ATOM     44  C   UNL A   1      41.950  24.663  26.806  1.00  0.00     0.016 A 
ATOM     45  C   UNL A   1      42.917  27.294  26.962  1.00  0.00     0.010 A 
ATOM     46  C   UNL A   1      41.345  25.580  27.665  1.00  0.00     0.010 A 
ATOM     47  C   UNL A   1      41.851  26.887  27.773  1.00  0.00    -0.014 A 
BRANCH  47  48
ATOM     48  C   UNL A   1      41.409  27.747  28.894  1.00  0.00     0.031 A 
ATOM     49  C   UNL A   1      42.151  27.637  30.198  1.00  0.00     0.074 A 
ATOM     50  C   UNL A   1      40.377  28.596  28.767  1.00  0.00     0.049 A 
ATOM     51  N   UNL A   1      41.923  28.236  31.337  1.00  0.00    -0.248 NA
ATOM     52  C   UNL A   1      43.305  26.722  30.216  1.00  0.00     0.031 C 
ATOM     53  C   UNL A   1      39.598  28.810  27.550  1.00  0.00     0.029 A 
ATOM     54  N   UNL A   1      39.798  29.430  29.691  1.00  0.00    -0.354 N 
ATOM     55  C   UNL A   1      42.900  27.769  32.206  1.00  0.00     0.074 A 
ATOM     56  C   UNL A   1      43.706  26.818  31.474  1.00  0.00     0.031 C 
ATOM     57  C   UNL A   1      38.629  29.706  27.807  1.00  0.00     0.029 A 
ATOM     58  C   UNL A   1      38.704  30.106  29.212  1.00  0.00     0.049 A 
ATOM     59  H   UNL A   1      40.136  29.533  30.610  1.00  0.00     0.167 HD
ATOM     60  C   UNL A   1      43.112  28.108  33.498  1.00  0.00     0.037 A 
ATOM     61  C   UNL A   1      37.852  30.934  29.846  1.00  0.00     0.037 A 
ATOM     62  C   UNL A   1      42.306  29.046  34.230  1.00  0.00     0.049 A 
ATOM     63  C   UNL A   1      38.068  31.247  31.304  1.00  0.00     0.074 A 
ATOM     64  C   UNL A   1      42.449  29.469  35.539  1.00  0.00     0.029 A 
ATOM     65  N   UNL A   1      41.196  29.698  33.714  1.00  0.00    -0.354 N 
ATOM     66  N   UNL A   1      39.015  30.828  32.110  1.00  0.00    -0.248 NA
ATOM     67  C   UNL A   1      37.097  32.148  31.942  1.00  0.00     0.031 C 
ATOM     68  C   UNL A   1      41.397  30.344  35.830  1.00  0.00     0.029 A 
ATOM     69  C   UNL A   1      40.629  30.503  34.687  1.00  0.00     0.049 A 
ATOM     70  H   UNL A   1      40.861  29.603  32.793  1.00  0.00     0.167 HD
ATOM     71  C   UNL A   1      38.771  31.435  33.336  1.00  0.00     0.074 A 
ATOM     72  C   UNL A   1      37.592  32.259  33.167  1.00  0.00     0.031 C 
ATOM     73  C   UNL A   1      39.461  31.324  34.498  1.00  0.00     0.037 A 
BRANCH  60  74
ATOM     74  C   UNL A   1      44.249  27.435  34.207  1.00  0.00     0.057 A 
ATOM     75  C   UNL A   1      45.544  27.967  34.199  1.00  0.00     0.134 A 
ATOM     76  C   UNL A   1      44.040  26.247  34.919  1.00  0.00     0.134 A 
ATOM     77  F   UNL A   1      45.812  29.092  33.518  1.00  0.00    -0.206 F 
ATOM     78  C   UNL A   1      46.597  27.333  34.860  1.00  0.00     0.040 A 
ATOM     79  C   UNL A   1      45.080  25.616  35.602  1.00  0.00     0.040 A 
ATOM     80  F   UNL A   1      42.824  25.684  34.964  1.00  0.00    -0.206 F 
ATOM     81  C   UNL A   1      46.364  26.157  35.570  1.00  0.00     0.006 A 
ENDBRANCH  60  74
BRANCH  61  82
ATOM     82  C   UNL A   1      36.699  31.519  29.116  1.00  0.00     0.057 A 
ATOM     83  C   UNL A   1      35.581  30.745  28.783  1.00  0.00     0.134 A 
ATOM     84  C   UNL A   1      36.699  32.859  28.709  1.00  0.00     0.134 A 
ATOM     85  F   UNL A   1      35.533  29.448  29.122  1.00  0.00    -0.206 F 
ATOM     86  C   UNL A   1      34.513  31.277  28.058  1.00  0.00     0.040 A 
ATOM     87  C   UNL A   1      35.628  33.410  28.004  1.00  0.00     0.040 A 
ATOM     88  F   UNL A   1      37.742  33.652  28.994  1.00  0.00    -0.206 F 
ATOM     89  C   UNL A   1      34.533  32.615  27.671  1.00  0.00     0.006 A 
ENDBRANCH  61  82
BRANCH  73  90
ATOM     90  C   UNL A   1      38.987  32.136  35.666  1.00  0.00     0.057 A 
ATOM     91  C   UNL A   1      38.190  31.585  36.677  1.00  0.00     0.134 A 
ATOM     92  C   UNL A   1      39.380  33.473  35.810  1.00  0.00     0.134 A 
ATOM     93  F   UNL A   1      37.770  30.313  36.595  1.00  0.00    -0.206 F 
ATOM     94  C   UNL A   1      37.786  32.340  37.780  1.00  0.00     0.040 A 
ATOM     95  C   UNL A   1      39.005  34.230  36.920  1.00  0.00     0.040 A 
ATOM     96  F   UNL A   1      40.154  34.058  34.883  1.00  0.00    -0.206 F 
ATOM     97  C   UNL A   1      38.201  33.664  37.907  1.00  0.00     0.006 A 
ENDBRANCH  73  90
ENDBRANCH  47  48
ENDBRANCH  40  42
ENDBRANCH  39  40
ENDBRANCH  38  39
ENDBRANCH  37  38
ENDBRANCH  36  37
ENDBRANCH  35  36
ENDBRANCH  34  35
ENDBRANCH  33  34
ENDBRANCH   1  33
TORSDOF 24
ENDMDL
MODEL 3
REMARK VINA RESULT:      -7.0      4.531     11.333
REMARK SMILES CCOc1ccc(-c2cc(Cl)cc3c2O[C@@H](C(F)(F)F)C(C(=O)OCCOCCOCCOCCOC(=O)c2ccc(-c4c5nc(c(-c6c(F)cccc6F)c6ccc([nH]6)c(-c6c(F)cccc6F)c6nc(c(-c7c(F)cccc7F)c7ccc4[nH]7)C=C6)C=C5)cc2)=C3)cc1
REMARK SMILES IDX 29 1 28 2 27 3 26 4 25 5 24 6 22 7 23 8 21 9 8 10 9 11 14 12
REMARK SMILES IDX 10 13 13 14 15 15 11 16 12 17 93 18 16 19 7 20 4 21 5 22
REMARK SMILES IDX 95 23 6 24 94 25 3 26 2 27 1 28 17 29 18 30 19 31 20 32
REMARK SMILES IDX 30 33 31 34 32 35 33 36 34 37 35 38 36 39 37 40 38 41 39 42
REMARK SMILES IDX 40 43 92 44 41 45 91 46 42 47 43 48 44 49 85 50 45 51 90 52
REMARK SMILES IDX 84 53 86 54 46 55 89 56 83 57 82 58 47 60 73 61 56 62 72 63
REMARK SMILES IDX 57 64 60 65 71 66 87 67 58 68 59 69 70 71 88 72 61 73 48 74
REMARK SMILES IDX 49 75 54 76 50 77 51 78 53 79 55 80 52 81 74 82 75 83 80 84
REMARK SMILES IDX 76 85 77 86 79 87 81 88 78 89 62 90 63 91 68 92 64 93 65 94
REMARK SMILES IDX 67 95 69 96 66 97
REMARK H PARENT 86 59 60 70
REMARK Flexibility Score: inf
ROOT
ATOM      1  C   UNL A   1      44.741  25.429  38.158  1.00  0.00     0.188 C 
ENDROOT
BRANCH   1   2
ATOM      2  C   UNL A   1      43.294  25.912  38.001  1.00  0.00     0.188 C 
BRANCH   2   3
ATOM      3  O   UNL A   1      42.877  26.062  36.646  1.00  0.00    -0.376 OA
BRANCH   3   4
ATOM      4  C   UNL A   1      41.719  26.855  36.393  1.00  0.00     0.202 C 
BRANCH   4   5
ATOM      5  C   UNL A   1      41.888  28.087  35.497  1.00  0.00     0.261 C 
BRANCH   5   6
ATOM      6  O   UNL A   1      41.117  27.935  34.284  1.00  0.00    -0.460 OA
BRANCH   6   7
ATOM      7  C   UNL A   1      40.787  29.074  33.654  1.00  0.00     0.338 C 
ATOM      8  O   UNL A   1      41.590  29.886  33.212  1.00  0.00    -0.246 OA
BRANCH   7   9
ATOM      9  C   UNL A   1      39.333  29.169  33.375  1.00  0.00     0.087 C 
ATOM     10  C   UNL A   1      37.857  32.982  32.652  1.00  0.00     0.026 A 
ATOM     11  C   UNL A   1      38.703  33.892  33.326  1.00  0.00     0.033 A 
ATOM     12  C   UNL A   1      38.145  31.616  32.853  1.00  0.00     0.135 A 
ATOM     13  C   UNL A   1      39.497  33.470  34.392  1.00  0.00     0.042 A 
ATOM     14  C   UNL A   1      38.743  31.228  34.060  1.00  0.00     0.019 A 
ATOM     15  O   UNL A   1      38.089  30.711  31.798  1.00  0.00    -0.475 OA
ATOM     16  Cl  UNL A   1      40.485  34.605  35.218  1.00  0.00    -0.084 Cl
ATOM     17  C   UNL A   1      39.431  32.156  34.833  1.00  0.00     0.032 A 
ATOM     18  C   UNL A   1      38.736  29.791  34.407  1.00  0.00     0.027 C 
ATOM     19  C   UNL A   1      38.629  29.339  32.038  1.00  0.00     0.316 C 
BRANCH  10  20
ATOM     20  C   UNL A   1      36.465  33.502  32.413  1.00  0.00    -0.014 A 
ATOM     21  C   UNL A   1      34.263  35.030  31.436  1.00  0.00     0.119 A 
ATOM     22  C   UNL A   1      34.579  33.801  30.863  1.00  0.00     0.047 A 
ATOM     23  C   UNL A   1      34.976  35.462  32.547  1.00  0.00     0.047 A 
ATOM     24  C   UNL A   1      35.664  33.045  31.346  1.00  0.00     0.013 A 
ATOM     25  C   UNL A   1      36.060  34.707  33.028  1.00  0.00     0.013 A 
BRANCH  21  26
ATOM     26  O   UNL A   1      33.183  35.712  30.948  1.00  0.00    -0.494 OA
BRANCH  26  27
ATOM     27  C   UNL A   1      32.518  36.557  31.899  1.00  0.00     0.226 C 
ATOM     28  C   UNL A   1      31.446  35.797  32.666  1.00  0.00     0.049 C 
ENDBRANCH  26  27
ENDBRANCH  21  26
ENDBRANCH  10  20
BRANCH  19  29
ATOM     29  C   UNL A   1      39.243  28.634  30.801  1.00  0.00     0.430 C 
ATOM     30  F   UNL A   1      38.522  27.516  30.514  1.00  0.00    -0.167 F 
ATOM     31  F   UNL A   1      39.179  29.422  29.701  1.00  0.00    -0.167 F 
ATOM     32  F   UNL A   1      40.516  28.232  30.922  1.00  0.00    -0.167 F 
ENDBRANCH  19  29
ENDBRANCH   7   9
ENDBRANCH   6   7
ENDBRANCH   5   6
ENDBRANCH   4   5
ENDBRANCH   3   4
ENDBRANCH   2   3
ENDBRANCH   1   2
BRANCH   1  33
ATOM     33  O   UNL A   1      44.827  24.046  38.447  1.00  0.00    -0.377 OA
BRANCH  33  34
ATOM     34  C   UNL A   1      45.422  23.674  39.686  1.00  0.00     0.188 C 
BRANCH  34  35
ATOM     35  C   UNL A   1      46.304  22.410  39.810  1.00  0.00     0.188 C 
BRANCH  35  36
ATOM     36  O   UNL A   1      45.760  21.248  39.190  1.00  0.00    -0.376 OA
BRANCH  36  37
ATOM     37  C   UNL A   1      46.640  20.152  38.981  1.00  0.00     0.202 C 
BRANCH  37  38
ATOM     38  C   UNL A   1      46.717  19.690  37.521  1.00  0.00     0.261 C 
BRANCH  38  39
ATOM     39  O   UNL A   1      45.909  20.447  36.608  1.00  0.00    -0.460 OA
BRANCH  39  40
ATOM     40  C   UNL A   1      46.390  20.621  35.359  1.00  0.00     0.338 C 
ATOM     41  O   UNL A   1      46.838  19.768  34.612  1.00  0.00    -0.246 OA
BRANCH  40  42
ATOM     42  C   UNL A   1      46.104  22.012  34.957  1.00  0.00     0.060 A 
ATOM     43  C   UNL A   1      44.783  22.474  35.024  1.00  0.00     0.016 A 
ATOM     44  C   UNL A   1      47.134  22.856  34.538  1.00  0.00     0.016 A 
ATOM     45  C   UNL A   1      44.483  23.777  34.628  1.00  0.00     0.010 A 
ATOM     46  C   UNL A   1      46.830  24.152  34.123  1.00  0.00     0.010 A 
ATOM     47  C   UNL A   1      45.500  24.603  34.131  1.00  0.00    -0.014 A 
BRANCH  47  48
ATOM     48  C   UNL A   1      45.149  25.848  33.412  1.00  0.00     0.031 A 
ATOM     49  C   UNL A   1      45.315  27.152  34.142  1.00  0.00     0.074 A 
ATOM     50  C   UNL A   1      44.690  25.828  32.150  1.00  0.00     0.049 A 
ATOM     51  N   UNL A   1      45.024  28.366  33.754  1.00  0.00    -0.248 NA
ATOM     52  C   UNL A   1      45.881  27.071  35.499  1.00  0.00     0.031 C 
ATOM     53  C   UNL A   1      44.511  24.632  31.330  1.00  0.00     0.029 A 
ATOM     54  N   UNL A   1      44.274  26.857  31.343  1.00  0.00    -0.354 N 
ATOM     55  C   UNL A   1      45.369  29.191  34.816  1.00  0.00     0.074 A 
ATOM     56  C   UNL A   1      45.864  28.341  35.876  1.00  0.00     0.031 C 
ATOM     57  C   UNL A   1      44.004  24.995  30.138  1.00  0.00     0.029 A 
ATOM     58  C   UNL A   1      43.798  26.443  30.124  1.00  0.00     0.049 A 
ATOM     59  H   UNL A   1      44.314  27.803  31.612  1.00  0.00     0.167 HD
ATOM     60  C   UNL A   1      45.287  30.538  34.900  1.00  0.00     0.037 A 
ATOM     61  C   UNL A   1      43.241  27.153  29.124  1.00  0.00     0.037 A 
ATOM     62  C   UNL A   1      44.786  31.384  33.851  1.00  0.00     0.049 A 
ATOM     63  C   UNL A   1      43.099  28.647  29.265  1.00  0.00     0.074 A 
ATOM     64  C   UNL A   1      44.678  32.762  33.832  1.00  0.00     0.029 A 
ATOM     65  N   UNL A   1      44.299  30.924  32.637  1.00  0.00    -0.354 N 
ATOM     66  N   UNL A   1      43.460  29.424  30.260  1.00  0.00    -0.248 NA
ATOM     67  C   UNL A   1      42.473  29.364  28.145  1.00  0.00     0.031 C 
ATOM     68  C   UNL A   1      44.082  33.135  32.623  1.00  0.00     0.029 A 
ATOM     69  C   UNL A   1      43.865  31.992  31.870  1.00  0.00     0.049 A 
ATOM     70  H   UNL A   1      44.265  29.980  32.361  1.00  0.00     0.167 HD
ATOM     71  C   UNL A   1      43.133  30.718  29.873  1.00  0.00     0.074 A 
ATOM     72  C   UNL A   1      42.552  30.624  28.549  1.00  0.00     0.031 C 
ATOM     73  C   UNL A   1      43.299  31.880  30.551  1.00  0.00     0.037 A 
BRANCH  60  74
ATOM     74  C   UNL A   1      45.728  31.174  36.184  1.00  0.00     0.057 A 
ATOM     75  C   UNL A   1      47.047  31.601  36.383  1.00  0.00     0.134 A 
ATOM     76  C   UNL A   1      44.816  31.377  37.227  1.00  0.00     0.134 A 
ATOM     77  F   UNL A   1      47.972  31.417  35.429  1.00  0.00    -0.206 F 
ATOM     78  C   UNL A   1      47.449  32.190  37.583  1.00  0.00     0.040 A 
ATOM     79  C   UNL A   1      45.201  31.986  38.422  1.00  0.00     0.040 A 
ATOM     80  F   UNL A   1      43.539  30.989  37.101  1.00  0.00    -0.206 F 
ATOM     81  C   UNL A   1      46.522  32.390  38.603  1.00  0.00     0.006 A 
ENDBRANCH  60  74
BRANCH  61  82
ATOM     82  C   UNL A   1      42.756  26.465  27.901  1.00  0.00     0.057 A 
ATOM     83  C   UNL A   1      41.457  25.950  27.826  1.00  0.00     0.134 A 
ATOM     84  C   UNL A   1      43.588  26.282  26.790  1.00  0.00     0.134 A 
ATOM     85  F   UNL A   1      40.621  26.070  28.867  1.00  0.00    -0.206 F 
ATOM     86  C   UNL A   1      41.008  25.263  26.696  1.00  0.00     0.040 A 
ATOM     87  C   UNL A   1      43.145  25.618  25.646  1.00  0.00     0.040 A 
ATOM     88  F   UNL A   1      44.845  26.750  26.802  1.00  0.00    -0.206 F 
ATOM     89  C   UNL A   1      41.852  25.100  25.599  1.00  0.00     0.006 A 
ENDBRANCH  61  82
BRANCH  73  90
ATOM     90  C   UNL A   1      42.884  33.148  29.864  1.00  0.00     0.057 A 
ATOM     91  C   UNL A   1      43.697  33.773  28.909  1.00  0.00     0.134 A 
ATOM     92  C   UNL A   1      41.631  33.719  30.119  1.00  0.00     0.134 A 
ATOM     93  F   UNL A   1      44.913  33.282  28.625  1.00  0.00    -0.206 F 
ATOM     94  C   UNL A   1      43.285  34.930  28.248  1.00  0.00     0.040 A 
ATOM     95  C   UNL A   1      41.197  34.862  29.446  1.00  0.00     0.040 A 
ATOM     96  F   UNL A   1      40.800  33.163  31.014  1.00  0.00    -0.206 F 
ATOM     97  C   UNL A   1      42.028  35.473  28.510  1.00  0.00     0.006 A 
ENDBRANCH  73  90
ENDBRANCH  47  48
ENDBRANCH  40  42
ENDBRANCH  39  40
ENDBRANCH  38  39
ENDBRANCH  37  38
ENDBRANCH  36  37
ENDBRANCH  35  36
ENDBRANCH  34  35
ENDBRANCH  33  34
ENDBRANCH   1  33
TORSDOF 24
ENDMDL
