MODEL 1
REMARK VINA RESULT:      -9.8      0.000      0.000
REMARK SMILES O=C(OCCOCCOCCOCCOC(=O)[C@H]1CSC2(CCCCC2)[NH2+]1)c1ccc(-c2c3nc(c(-c4c(F)cccc4F)c4ccc([nH]4)c(-c4c(F)cccc4F)c4nc(c(-c5c(F)cccc5F)c5ccc2[nH]5)C=C4)C=C3)cc1
REMARK SMILES IDX 8 1 7 2 6 3 5 4 4 5 3 6 2 7 1 8 28 9 29 10 81 11 30 12 80 13
REMARK SMILES IDX 31 14 32 15 33 16 74 17 34 18 79 19 73 20 75 21 35 22 78 23
REMARK SMILES IDX 72 24 71 25 36 27 62 28 45 29 61 30 46 31 49 32 60 33 76 34
REMARK SMILES IDX 47 35 48 36 59 38 77 39 50 40 37 41 38 42 43 43 39 44 40 45
REMARK SMILES IDX 42 46 44 47 41 48 63 49 64 50 69 51 65 52 66 53 68 54 70 55
REMARK SMILES IDX 67 56 51 57 52 58 57 59 53 60 54 61 56 62 58 63 55 64 9 65
REMARK SMILES IDX 10 66 11 67 12 68 13 69 14 70 15 71 16 72 17 73 18 74 19 75
REMARK SMILES IDX 27 76 20 77 21 78 22 81 26 82 23 83 25 84 24 85
REMARK H PARENT 75 26 49 37 27 79 27 80
REMARK Flexibility Score: inf
ROOT
ATOM      1  C   UNL A   1      33.128  28.877  25.372  1.00  0.00     0.188 C 
ENDROOT
BRANCH   1   2
ATOM      2  C   UNL A   1      32.172  28.612  26.539  1.00  0.00     0.188 C 
BRANCH   2   3
ATOM      3  O   UNL A   1      31.896  29.802  27.271  1.00  0.00    -0.376 OA
BRANCH   3   4
ATOM      4  C   UNL A   1      32.378  31.045  26.770  1.00  0.00     0.202 C 
BRANCH   4   5
ATOM      5  C   UNL A   1      31.505  32.260  27.047  1.00  0.00     0.261 C 
BRANCH   5   6
ATOM      6  O   UNL A   1      32.211  33.502  27.157  1.00  0.00    -0.460 OA
BRANCH   6   7
ATOM      7  C   UNL A   1      32.961  34.002  28.164  1.00  0.00     0.338 C 
ATOM      8  O   UNL A   1      32.576  35.034  28.715  1.00  0.00    -0.246 OA
BRANCH   7   9
ATOM      9  C   UNL A   1      34.218  33.388  28.677  1.00  0.00     0.060 A 
ATOM     10  C   UNL A   1      34.306  32.405  29.661  1.00  0.00     0.016 A 
ATOM     11  C   UNL A   1      35.401  33.758  28.018  1.00  0.00     0.016 A 
ATOM     12  C   UNL A   1      35.510  31.845  30.039  1.00  0.00     0.010 A 
ATOM     13  C   UNL A   1      36.624  33.189  28.372  1.00  0.00     0.010 A 
ATOM     14  C   UNL A   1      36.673  32.251  29.409  1.00  0.00    -0.014 A 
BRANCH  14  15
ATOM     15  C   UNL A   1      37.937  31.844  30.024  1.00  0.00     0.031 A 
ATOM     16  C   UNL A   1      38.646  30.689  29.398  1.00  0.00     0.074 A 
ATOM     17  C   UNL A   1      38.480  32.583  31.002  1.00  0.00     0.049 A 
ATOM     18  N   UNL A   1      39.683  30.027  29.817  1.00  0.00    -0.248 NA
ATOM     19  C   UNL A   1      38.104  30.219  28.108  1.00  0.00     0.031 C 
ATOM     20  C   UNL A   1      37.922  33.834  31.525  1.00  0.00     0.029 A 
ATOM     21  N   UNL A   1      39.624  32.395  31.723  1.00  0.00    -0.354 N 
ATOM     22  C   UNL A   1      39.879  29.022  28.880  1.00  0.00     0.074 A 
ATOM     23  C   UNL A   1      38.865  29.167  27.864  1.00  0.00     0.031 C 
ATOM     24  C   UNL A   1      38.721  34.292  32.502  1.00  0.00     0.029 A 
ATOM     25  C   UNL A   1      39.784  33.319  32.725  1.00  0.00     0.049 A 
ATOM     26  H   UNL A   1      40.267  31.673  31.543  1.00  0.00     0.167 HD
ATOM     27  C   UNL A   1      40.820  28.053  28.901  1.00  0.00     0.037 A 
ATOM     28  C   UNL A   1      40.653  33.316  33.751  1.00  0.00     0.037 A 
ATOM     29  C   UNL A   1      41.801  27.967  29.947  1.00  0.00     0.049 A 
ATOM     30  C   UNL A   1      41.624  32.171  33.825  1.00  0.00     0.074 A 
ATOM     31  C   UNL A   1      42.782  27.017  30.143  1.00  0.00     0.029 A 
ATOM     32  N   UNL A   1      41.909  28.887  30.986  1.00  0.00    -0.354 N 
ATOM     33  N   UNL A   1      41.766  31.159  32.999  1.00  0.00    -0.248 NA
ATOM     34  C   UNL A   1      42.540  32.148  34.969  1.00  0.00     0.031 C 
ATOM     35  C   UNL A   1      43.443  27.330  31.336  1.00  0.00     0.029 A 
ATOM     36  C   UNL A   1      42.922  28.514  31.846  1.00  0.00     0.049 A 
ATOM     37  H   UNL A   1      41.345  29.687  31.093  1.00  0.00     0.167 HD
ATOM     38  C   UNL A   1      42.799  30.387  33.509  1.00  0.00     0.074 A 
ATOM     39  C   UNL A   1      43.250  31.057  34.715  1.00  0.00     0.031 C 
ATOM     40  C   UNL A   1      43.331  29.234  33.030  1.00  0.00     0.037 A 
BRANCH  27  41
ATOM     41  C   UNL A   1      40.719  26.991  27.847  1.00  0.00     0.057 A 
ATOM     42  C   UNL A   1      39.957  25.826  28.014  1.00  0.00     0.134 A 
ATOM     43  C   UNL A   1      41.486  27.094  26.679  1.00  0.00     0.134 A 
ATOM     44  F   UNL A   1      39.229  25.643  29.127  1.00  0.00    -0.206 F 
ATOM     45  C   UNL A   1      40.002  24.784  27.084  1.00  0.00     0.040 A 
ATOM     46  C   UNL A   1      41.514  26.073  25.727  1.00  0.00     0.040 A 
ATOM     47  F   UNL A   1      42.249  28.175  26.458  1.00  0.00    -0.206 F 
ATOM     48  C   UNL A   1      40.783  24.907  25.936  1.00  0.00     0.006 A 
ENDBRANCH  27  41
BRANCH  28  49
ATOM     49  C   UNL A   1      40.566  34.367  34.796  1.00  0.00     0.057 A 
ATOM     50  C   UNL A   1      41.289  35.558  34.703  1.00  0.00     0.134 A 
ATOM     51  C   UNL A   1      39.711  34.221  35.900  1.00  0.00     0.134 A 
ATOM     52  F   UNL A   1      42.133  35.756  33.678  1.00  0.00    -0.206 F 
ATOM     53  C   UNL A   1      41.172  36.565  35.665  1.00  0.00     0.040 A 
ATOM     54  C   UNL A   1      39.563  35.228  36.855  1.00  0.00     0.040 A 
ATOM     55  F   UNL A   1      38.980  33.107  36.049  1.00  0.00    -0.206 F 
ATOM     56  C   UNL A   1      40.299  36.404  36.740  1.00  0.00     0.006 A 
ENDBRANCH  28  49
BRANCH  40  57
ATOM     57  C   UNL A   1      44.487  28.658  33.786  1.00  0.00     0.057 A 
ATOM     58  C   UNL A   1      44.308  27.708  34.797  1.00  0.00     0.134 A 
ATOM     59  C   UNL A   1      45.798  28.988  33.419  1.00  0.00     0.134 A 
ATOM     60  F   UNL A   1      43.075  27.363  35.197  1.00  0.00    -0.206 F 
ATOM     61  C   UNL A   1      45.400  27.104  35.420  1.00  0.00     0.040 A 
ATOM     62  C   UNL A   1      46.895  28.370  34.014  1.00  0.00     0.040 A 
ATOM     63  F   UNL A   1      46.028  29.885  32.448  1.00  0.00    -0.206 F 
ATOM     64  C   UNL A   1      46.696  27.425  35.019  1.00  0.00     0.006 A 
ENDBRANCH  40  57
ENDBRANCH  14  15
ENDBRANCH   7   9
ENDBRANCH   6   7
ENDBRANCH   5   6
ENDBRANCH   4   5
ENDBRANCH   3   4
ENDBRANCH   2   3
ENDBRANCH   1   2
BRANCH   1  65
ATOM     65  O   UNL A   1      32.557  28.777  24.068  1.00  0.00    -0.377 OA
BRANCH  65  66
ATOM     66  C   UNL A   1      31.195  29.171  23.951  1.00  0.00     0.188 C 
BRANCH  66  67
ATOM     67  C   UNL A   1      30.151  28.138  23.454  1.00  0.00     0.188 C 
BRANCH  67  68
ATOM     68  O   UNL A   1      30.639  26.810  23.408  1.00  0.00    -0.376 OA
BRANCH  68  69
ATOM     69  C   UNL A   1      29.998  25.811  24.188  1.00  0.00     0.202 C 
BRANCH  69  70
ATOM     70  C   UNL A   1      30.717  25.071  25.339  1.00  0.00     0.261 C 
BRANCH  70  71
ATOM     71  O   UNL A   1      30.913  23.662  25.182  1.00  0.00    -0.459 OA
BRANCH  71  72
ATOM     72  C   UNL A   1      31.611  23.020  26.156  1.00  0.00     0.365 C 
ATOM     73  O   UNL A   1      31.668  23.420  27.317  1.00  0.00    -0.245 OA
BRANCH  72  74
ATOM     74  C   UNL A   1      32.187  21.689  25.624  1.00  0.00     0.304 C 
ATOM     75  C   UNL A   1      32.344  21.701  24.122  1.00  0.00     0.153 C 
ATOM     76  N   UNL A   1      33.512  21.333  26.215  1.00  0.00    -0.320 N 
ATOM     77  S   UNL A   1      33.916  22.550  23.882  1.00  0.00    -0.089 SA
ATOM     78  C   UNL A   1      34.601  21.999  25.495  1.00  0.00     0.143 C 
ATOM     79  H   UNL A   1      33.643  20.323  26.160  1.00  0.00     0.348 HD
ATOM     80  H   UNL A   1      33.528  21.641  27.187  1.00  0.00     0.348 HD
ATOM     81  C   UNL A   1      35.199  23.122  26.368  1.00  0.00     0.081 C 
ATOM     82  C   UNL A   1      35.717  20.964  25.245  1.00  0.00     0.081 C 
ATOM     83  C   UNL A   1      36.389  23.810  25.711  1.00  0.00     0.007 C 
ATOM     84  C   UNL A   1      36.934  21.590  24.556  1.00  0.00     0.007 C 
ATOM     85  C   UNL A   1      37.469  22.813  25.301  1.00  0.00     0.001 C 
ENDBRANCH  72  74
ENDBRANCH  71  72
ENDBRANCH  70  71
ENDBRANCH  69  70
ENDBRANCH  68  69
ENDBRANCH  67  68
ENDBRANCH  66  67
ENDBRANCH  65  66
ENDBRANCH   1  65
TORSDOF 20
ENDMDL
MODEL 2
REMARK VINA RESULT:      -9.8      3.220      8.394
REMARK SMILES O=C(OCCOCCOCCOCCOC(=O)[C@H]1CSC2(CCCCC2)[NH2+]1)c1ccc(-c2c3nc(c(-c4c(F)cccc4F)c4ccc([nH]4)c(-c4c(F)cccc4F)c4nc(c(-c5c(F)cccc5F)c5ccc2[nH]5)C=C4)C=C3)cc1
REMARK SMILES IDX 8 1 7 2 6 3 5 4 4 5 3 6 2 7 1 8 28 9 29 10 81 11 30 12 80 13
REMARK SMILES IDX 31 14 32 15 33 16 74 17 34 18 79 19 73 20 75 21 35 22 78 23
REMARK SMILES IDX 72 24 71 25 36 27 62 28 45 29 61 30 46 31 49 32 60 33 76 34
REMARK SMILES IDX 47 35 48 36 59 38 77 39 50 40 37 41 38 42 43 43 39 44 40 45
REMARK SMILES IDX 42 46 44 47 41 48 63 49 64 50 69 51 65 52 66 53 68 54 70 55
REMARK SMILES IDX 67 56 51 57 52 58 57 59 53 60 54 61 56 62 58 63 55 64 9 65
REMARK SMILES IDX 10 66 11 67 12 68 13 69 14 70 15 71 16 72 17 73 18 74 19 75
REMARK SMILES IDX 27 76 20 77 21 78 22 81 26 82 23 83 25 84 24 85
REMARK H PARENT 75 26 49 37 27 79 27 80
REMARK Flexibility Score: inf
ROOT
ATOM      1  C   UNL A   1      38.312  20.297  25.348  1.00  0.00     0.188 C 
ENDROOT
BRANCH   1   2
ATOM      2  C   UNL A   1      39.584  19.515  25.688  1.00  0.00     0.188 C 
BRANCH   2   3
ATOM      3  O   UNL A   1      40.602  20.367  26.202  1.00  0.00    -0.376 OA
BRANCH   3   4
ATOM      4  C   UNL A   1      41.945  19.893  26.233  1.00  0.00     0.202 C 
BRANCH   4   5
ATOM      5  C   UNL A   1      43.013  20.887  25.800  1.00  0.00     0.261 C 
BRANCH   5   6
ATOM      6  O   UNL A   1      42.515  22.136  25.306  1.00  0.00    -0.460 OA
BRANCH   6   7
ATOM      7  C   UNL A   1      43.061  23.372  25.330  1.00  0.00     0.338 C 
ATOM      8  O   UNL A   1      43.963  23.622  24.530  1.00  0.00    -0.246 OA
BRANCH   7   9
ATOM      9  C   UNL A   1      42.643  24.471  26.245  1.00  0.00     0.060 A 
ATOM     10  C   UNL A   1      43.115  25.782  26.219  1.00  0.00     0.016 A 
ATOM     11  C   UNL A   1      41.594  24.175  27.130  1.00  0.00     0.016 A 
ATOM     12  C   UNL A   1      42.632  26.759  27.067  1.00  0.00     0.010 A 
ATOM     13  C   UNL A   1      41.078  25.152  27.980  1.00  0.00     0.010 A 
ATOM     14  C   UNL A   1      41.626  26.439  27.963  1.00  0.00    -0.014 A 
BRANCH  14  15
ATOM     15  C   UNL A   1      41.343  27.414  29.017  1.00  0.00     0.031 A 
ATOM     16  C   UNL A   1      42.251  27.403  30.202  1.00  0.00     0.074 A 
ATOM     17  C   UNL A   1      40.406  28.355  28.830  1.00  0.00     0.049 A 
ATOM     18  N   UNL A   1      42.145  28.036  31.332  1.00  0.00    -0.248 NA
ATOM     19  C   UNL A   1      43.453  26.555  30.088  1.00  0.00     0.031 C 
ATOM     20  C   UNL A   1      39.616  28.531  27.608  1.00  0.00     0.029 A 
ATOM     21  N   UNL A   1      39.967  29.343  29.662  1.00  0.00    -0.354 N 
ATOM     22  C   UNL A   1      43.229  27.614  32.090  1.00  0.00     0.074 A 
ATOM     23  C   UNL A   1      43.987  26.684  31.289  1.00  0.00     0.031 C 
ATOM     24  C   UNL A   1      38.771  29.560  27.780  1.00  0.00     0.029 A 
ATOM     25  C   UNL A   1      38.903  30.043  29.150  1.00  0.00     0.049 A 
ATOM     26  H   UNL A   1      40.370  29.535  30.539  1.00  0.00     0.167 HD
ATOM     27  C   UNL A   1      43.532  27.971  33.357  1.00  0.00     0.037 A 
ATOM     28  C   UNL A   1      38.087  30.917  29.764  1.00  0.00     0.037 A 
ATOM     29  C   UNL A   1      42.731  28.905  34.098  1.00  0.00     0.049 A 
ATOM     30  C   UNL A   1      38.367  31.221  31.208  1.00  0.00     0.074 A 
ATOM     31  C   UNL A   1      42.869  29.324  35.405  1.00  0.00     0.029 A 
ATOM     32  N   UNL A   1      41.621  29.561  33.572  1.00  0.00    -0.354 N 
ATOM     33  N   UNL A   1      39.334  30.762  31.972  1.00  0.00    -0.248 NA
ATOM     34  C   UNL A   1      37.449  32.140  31.887  1.00  0.00     0.031 C 
ATOM     35  C   UNL A   1      41.805  30.189  35.687  1.00  0.00     0.029 A 
ATOM     36  C   UNL A   1      41.045  30.363  34.537  1.00  0.00     0.049 A 
ATOM     37  H   UNL A   1      41.295  29.467  32.649  1.00  0.00     0.167 HD
ATOM     38  C   UNL A   1      39.155  31.349  33.215  1.00  0.00     0.074 A 
ATOM     39  C   UNL A   1      37.988  32.204  33.097  1.00  0.00     0.031 C 
ATOM     40  C   UNL A   1      39.884  31.203  34.351  1.00  0.00     0.037 A 
BRANCH  27  41
ATOM     41  C   UNL A   1      44.676  27.250  34.005  1.00  0.00     0.057 A 
ATOM     42  C   UNL A   1      44.519  26.034  34.686  1.00  0.00     0.134 A 
ATOM     43  C   UNL A   1      45.946  27.842  34.035  1.00  0.00     0.134 A 
ATOM     44  F   UNL A   1      43.322  25.430  34.733  1.00  0.00    -0.206 F 
ATOM     45  C   UNL A   1      45.569  25.461  35.410  1.00  0.00     0.040 A 
ATOM     46  C   UNL A   1      47.009  27.264  34.729  1.00  0.00     0.040 A 
ATOM     47  F   UNL A   1      46.166  29.012  33.415  1.00  0.00    -0.206 F 
ATOM     48  C   UNL A   1      46.818  26.078  35.433  1.00  0.00     0.006 A 
ENDBRANCH  27  41
BRANCH  28  49
ATOM     49  C   UNL A   1      36.914  31.468  29.038  1.00  0.00     0.057 A 
ATOM     50  C   UNL A   1      35.755  30.715  28.836  1.00  0.00     0.134 A 
ATOM     51  C   UNL A   1      36.910  32.790  28.567  1.00  0.00     0.134 A 
ATOM     52  F   UNL A   1      35.697  29.441  29.252  1.00  0.00    -0.206 F 
ATOM     53  C   UNL A   1      34.636  31.251  28.191  1.00  0.00     0.040 A 
ATOM     54  C   UNL A   1      35.792  33.347  27.945  1.00  0.00     0.040 A 
ATOM     55  F   UNL A   1      37.987  33.572  28.734  1.00  0.00    -0.206 F 
ATOM     56  C   UNL A   1      34.651  32.574  27.752  1.00  0.00     0.006 A 
ENDBRANCH  28  49
BRANCH  40  57
ATOM     57  C   UNL A   1      39.465  32.020  35.533  1.00  0.00     0.057 A 
ATOM     58  C   UNL A   1      39.915  33.330  35.722  1.00  0.00     0.134 A 
ATOM     59  C   UNL A   1      38.517  31.515  36.432  1.00  0.00     0.134 A 
ATOM     60  F   UNL A   1      40.832  33.861  34.899  1.00  0.00    -0.206 F 
ATOM     61  C   UNL A   1      39.436  34.114  36.771  1.00  0.00     0.040 A 
ATOM     62  C   UNL A   1      38.009  32.298  37.466  1.00  0.00     0.040 A 
ATOM     63  F   UNL A   1      38.041  30.268  36.292  1.00  0.00    -0.206 F 
ATOM     64  C   UNL A   1      38.470  33.601  37.637  1.00  0.00     0.006 A 
ENDBRANCH  40  57
ENDBRANCH  14  15
ENDBRANCH   7   9
ENDBRANCH   6   7
ENDBRANCH   5   6
ENDBRANCH   4   5
ENDBRANCH   3   4
ENDBRANCH   2   3
ENDBRANCH   1   2
BRANCH   1  65
ATOM     65  O   UNL A   1      38.395  21.714  25.505  1.00  0.00    -0.377 OA
BRANCH  65  66
ATOM     66  C   UNL A   1      37.164  22.423  25.422  1.00  0.00     0.188 C 
BRANCH  66  67
ATOM     67  C   UNL A   1      35.837  21.663  25.679  1.00  0.00     0.188 C 
BRANCH  67  68
ATOM     68  O   UNL A   1      34.913  21.750  24.610  1.00  0.00    -0.376 OA
BRANCH  68  69
ATOM     69  C   UNL A   1      33.550  22.028  24.894  1.00  0.00     0.202 C 
BRANCH  69  70
ATOM     70  C   UNL A   1      33.001  23.469  24.990  1.00  0.00     0.261 C 
BRANCH  70  71
ATOM     71  O   UNL A   1      33.299  24.351  23.902  1.00  0.00    -0.459 OA
BRANCH  71  72
ATOM     72  C   UNL A   1      32.247  24.853  23.204  1.00  0.00     0.365 C 
ATOM     73  O   UNL A   1      31.171  24.268  23.096  1.00  0.00    -0.245 OA
BRANCH  72  74
ATOM     74  C   UNL A   1      32.560  26.281  22.703  1.00  0.00     0.304 C 
ATOM     75  C   UNL A   1      31.308  27.028  22.308  1.00  0.00     0.153 C 
ATOM     76  N   UNL A   1      33.290  27.116  23.703  1.00  0.00    -0.320 N 
ATOM     77  S   UNL A   1      30.687  27.648  23.883  1.00  0.00    -0.089 SA
ATOM     78  C   UNL A   1      32.356  27.738  24.646  1.00  0.00     0.143 C 
ATOM     79  H   UNL A   1      33.807  27.847  23.215  1.00  0.00     0.348 HD
ATOM     80  H   UNL A   1      33.928  26.517  24.225  1.00  0.00     0.348 HD
ATOM     81  C   UNL A   1      32.478  27.065  26.029  1.00  0.00     0.081 C 
ATOM     82  C   UNL A   1      32.756  29.218  24.816  1.00  0.00     0.081 C 
ATOM     83  C   UNL A   1      31.587  27.712  27.082  1.00  0.00     0.007 C 
ATOM     84  C   UNL A   1      31.873  29.936  25.843  1.00  0.00     0.007 C 
ATOM     85  C   UNL A   1      31.833  29.215  27.190  1.00  0.00     0.001 C 
ENDBRANCH  72  74
ENDBRANCH  71  72
ENDBRANCH  70  71
ENDBRANCH  69  70
ENDBRANCH  68  69
ENDBRANCH  67  68
ENDBRANCH  66  67
ENDBRANCH  65  66
ENDBRANCH   1  65
TORSDOF 20
ENDMDL
MODEL 3
REMARK VINA RESULT:      -9.4      3.629      7.563
REMARK SMILES O=C(OCCOCCOCCOCCOC(=O)[C@H]1CSC2(CCCCC2)[NH2+]1)c1ccc(-c2c3nc(c(-c4c(F)cccc4F)c4ccc([nH]4)c(-c4c(F)cccc4F)c4nc(c(-c5c(F)cccc5F)c5ccc2[nH]5)C=C4)C=C3)cc1
REMARK SMILES IDX 8 1 7 2 6 3 5 4 4 5 3 6 2 7 1 8 28 9 29 10 81 11 30 12 80 13
REMARK SMILES IDX 31 14 32 15 33 16 74 17 34 18 79 19 73 20 75 21 35 22 78 23
REMARK SMILES IDX 72 24 71 25 36 27 62 28 45 29 61 30 46 31 49 32 60 33 76 34
REMARK SMILES IDX 47 35 48 36 59 38 77 39 50 40 37 41 38 42 43 43 39 44 40 45
REMARK SMILES IDX 42 46 44 47 41 48 63 49 64 50 69 51 65 52 66 53 68 54 70 55
REMARK SMILES IDX 67 56 51 57 52 58 57 59 53 60 54 61 56 62 58 63 55 64 9 65
REMARK SMILES IDX 10 66 11 67 12 68 13 69 14 70 15 71 16 72 17 73 18 74 19 75
REMARK SMILES IDX 27 76 20 77 21 78 22 81 26 82 23 83 25 84 24 85
REMARK H PARENT 75 26 49 37 27 79 27 80
REMARK Flexibility Score: inf
ROOT
ATOM      1  C   UNL A   1      33.301  31.404  27.411  1.00  0.00     0.188 C 
ENDROOT
BRANCH   1   2
ATOM      2  C   UNL A   1      33.100  32.895  27.699  1.00  0.00     0.188 C 
BRANCH   2   3
ATOM      3  O   UNL A   1      34.285  33.492  28.217  1.00  0.00    -0.376 OA
BRANCH   3   4
ATOM      4  C   UNL A   1      34.164  34.581  29.127  1.00  0.00     0.202 C 
BRANCH   4   5
ATOM      5  C   UNL A   1      34.265  34.230  30.605  1.00  0.00     0.261 C 
BRANCH   5   6
ATOM      6  O   UNL A   1      34.490  32.843  30.885  1.00  0.00    -0.460 OA
BRANCH   6   7
ATOM      7  C   UNL A   1      35.393  32.244  31.693  1.00  0.00     0.338 C 
ATOM      8  O   UNL A   1      35.199  32.288  32.908  1.00  0.00    -0.246 OA
BRANCH   7   9
ATOM      9  C   UNL A   1      36.605  31.515  31.225  1.00  0.00     0.060 A 
ATOM     10  C   UNL A   1      37.489  30.797  32.028  1.00  0.00     0.016 A 
ATOM     11  C   UNL A   1      36.794  31.457  29.835  1.00  0.00     0.016 A 
ATOM     12  C   UNL A   1      38.560  30.098  31.506  1.00  0.00     0.010 A 
ATOM     13  C   UNL A   1      37.858  30.739  29.288  1.00  0.00     0.010 A 
ATOM     14  C   UNL A   1      38.756  30.085  30.136  1.00  0.00    -0.014 A 
BRANCH  14  15
ATOM     15  C   UNL A   1      40.041  29.574  29.656  1.00  0.00     0.031 A 
ATOM     16  C   UNL A   1      41.189  30.527  29.669  1.00  0.00     0.074 A 
ATOM     17  C   UNL A   1      40.183  28.271  29.370  1.00  0.00     0.049 A 
ATOM     18  N   UNL A   1      42.380  30.397  29.165  1.00  0.00    -0.248 NA
ATOM     19  C   UNL A   1      40.956  31.812  30.356  1.00  0.00     0.031 C 
ATOM     20  C   UNL A   1      39.140  27.253  29.523  1.00  0.00     0.029 A 
ATOM     21  N   UNL A   1      41.263  27.581  28.901  1.00  0.00    -0.354 N 
ATOM     22  C   UNL A   1      43.017  31.605  29.414  1.00  0.00     0.074 A 
ATOM     23  C   UNL A   1      42.089  32.451  30.124  1.00  0.00     0.031 C 
ATOM     24  C   UNL A   1      39.630  26.066  29.133  1.00  0.00     0.029 A 
ATOM     25  C   UNL A   1      40.981  26.267  28.623  1.00  0.00     0.049 A 
ATOM     26  H   UNL A   1      42.153  27.983  28.776  1.00  0.00     0.167 HD
ATOM     27  C   UNL A   1      44.267  31.963  29.047  1.00  0.00     0.037 A 
ATOM     28  C   UNL A   1      41.718  25.364  27.954  1.00  0.00     0.037 A 
ATOM     29  C   UNL A   1      45.139  31.069  28.339  1.00  0.00     0.049 A 
ATOM     30  C   UNL A   1      43.063  25.810  27.454  1.00  0.00     0.074 A 
ATOM     31  C   UNL A   1      46.407  31.300  27.847  1.00  0.00     0.029 A 
ATOM     32  N   UNL A   1      44.808  29.756  28.019  1.00  0.00    -0.354 N 
ATOM     33  N   UNL A   1      43.648  26.979  27.599  1.00  0.00    -0.248 NA
ATOM     34  C   UNL A   1      43.845  24.836  26.687  1.00  0.00     0.031 C 
ATOM     35  C   UNL A   1      46.818  30.142  27.176  1.00  0.00     0.029 A 
ATOM     36  C   UNL A   1      45.836  29.167  27.309  1.00  0.00     0.049 A 
ATOM     37  H   UNL A   1      43.964  29.311  28.262  1.00  0.00     0.167 HD
ATOM     38  C   UNL A   1      44.875  26.878  26.960  1.00  0.00     0.074 A 
ATOM     39  C   UNL A   1      44.949  25.527  26.432  1.00  0.00     0.031 C 
ATOM     40  C   UNL A   1      45.853  27.808  26.820  1.00  0.00     0.037 A 
BRANCH  27  41
ATOM     41  C   UNL A   1      44.662  33.387  29.303  1.00  0.00     0.057 A 
ATOM     42  C   UNL A   1      44.474  34.408  28.360  1.00  0.00     0.134 A 
ATOM     43  C   UNL A   1      45.340  33.721  30.483  1.00  0.00     0.134 A 
ATOM     44  F   UNL A   1      43.868  34.152  27.191  1.00  0.00    -0.206 F 
ATOM     45  C   UNL A   1      44.989  35.692  28.561  1.00  0.00     0.040 A 
ATOM     46  C   UNL A   1      45.831  35.008  30.709  1.00  0.00     0.040 A 
ATOM     47  F   UNL A   1      45.566  32.792  31.425  1.00  0.00    -0.206 F 
ATOM     48  C   UNL A   1      45.670  35.994  29.739  1.00  0.00     0.006 A 
ENDBRANCH  27  41
BRANCH  28  49
ATOM     49  C   UNL A   1      41.156  24.021  27.664  1.00  0.00     0.057 A 
ATOM     50  C   UNL A   1      40.203  23.824  26.662  1.00  0.00     0.134 A 
ATOM     51  C   UNL A   1      41.600  22.885  28.358  1.00  0.00     0.134 A 
ATOM     52  F   UNL A   1      39.728  24.869  25.967  1.00  0.00    -0.206 F 
ATOM     53  C   UNL A   1      39.707  22.552  26.361  1.00  0.00     0.040 A 
ATOM     54  C   UNL A   1      41.134  21.605  28.051  1.00  0.00     0.040 A 
ATOM     55  F   UNL A   1      42.519  22.999  29.327  1.00  0.00    -0.206 F 
ATOM     56  C   UNL A   1      40.181  21.437  27.051  1.00  0.00     0.006 A 
ENDBRANCH  28  49
BRANCH  40  57
ATOM     57  C   UNL A   1      47.099  27.378  26.112  1.00  0.00     0.057 A 
ATOM     58  C   UNL A   1      48.163  26.775  26.790  1.00  0.00     0.134 A 
ATOM     59  C   UNL A   1      47.181  27.478  24.717  1.00  0.00     0.134 A 
ATOM     60  F   UNL A   1      48.143  26.663  28.127  1.00  0.00    -0.206 F 
ATOM     61  C   UNL A   1      49.273  26.286  26.102  1.00  0.00     0.040 A 
ATOM     62  C   UNL A   1      48.271  26.967  24.017  1.00  0.00     0.040 A 
ATOM     63  F   UNL A   1      46.185  28.037  24.014  1.00  0.00    -0.206 F 
ATOM     64  C   UNL A   1      49.321  26.369  24.711  1.00  0.00     0.006 A 
ENDBRANCH  40  57
ENDBRANCH  14  15
ENDBRANCH   7   9
ENDBRANCH   6   7
ENDBRANCH   5   6
ENDBRANCH   4   5
ENDBRANCH   3   4
ENDBRANCH   2   3
ENDBRANCH   1   2
BRANCH   1  65
ATOM     65  O   UNL A   1      32.183  30.728  26.834  1.00  0.00    -0.377 OA
BRANCH  65  66
ATOM     66  C   UNL A   1      32.381  29.356  26.514  1.00  0.00     0.188 C 
BRANCH  66  67
ATOM     67  C   UNL A   1      32.026  28.855  25.090  1.00  0.00     0.188 C 
BRANCH  67  68
ATOM     68  O   UNL A   1      31.038  27.842  25.071  1.00  0.00    -0.376 OA
BRANCH  68  69
ATOM     69  C   UNL A   1      31.442  26.481  25.115  1.00  0.00     0.202 C 
BRANCH  69  70
ATOM     70  C   UNL A   1      30.501  25.353  25.594  1.00  0.00     0.261 C 
BRANCH  70  71
ATOM     71  O   UNL A   1      30.832  24.018  25.197  1.00  0.00    -0.459 OA
BRANCH  71  72
ATOM     72  C   UNL A   1      31.125  23.131  26.184  1.00  0.00     0.365 C 
ATOM     73  O   UNL A   1      30.803  23.302  27.358  1.00  0.00    -0.245 OA
BRANCH  72  74
ATOM     74  C   UNL A   1      31.778  21.860  25.596  1.00  0.00     0.304 C 
ATOM     75  C   UNL A   1      31.784  21.875  24.086  1.00  0.00     0.153 C 
ATOM     76  N   UNL A   1      33.185  21.648  26.053  1.00  0.00    -0.320 N 
ATOM     77  S   UNL A   1      33.229  22.878  23.692  1.00  0.00    -0.089 SA
ATOM     78  C   UNL A   1      34.123  22.416  25.229  1.00  0.00     0.143 C 
ATOM     79  H   UNL A   1      33.413  20.657  25.984  1.00  0.00     0.348 HD
ATOM     80  H   UNL A   1      33.266  21.965  27.019  1.00  0.00     0.348 HD
ATOM     81  C   UNL A   1      34.685  23.602  26.038  1.00  0.00     0.081 C 
ATOM     82  C   UNL A   1      35.310  21.498  24.868  1.00  0.00     0.081 C 
ATOM     83  C   UNL A   1      35.728  24.402  25.267  1.00  0.00     0.007 C 
ATOM     84  C   UNL A   1      36.382  22.239  24.061  1.00  0.00     0.007 C 
ATOM     85  C   UNL A   1      36.859  23.517  24.751  1.00  0.00     0.001 C 
ENDBRANCH  72  74
ENDBRANCH  71  72
ENDBRANCH  70  71
ENDBRANCH  69  70
ENDBRANCH  68  69
ENDBRANCH  67  68
ENDBRANCH  66  67
ENDBRANCH  65  66
ENDBRANCH   1  65
TORSDOF 20
ENDMDL
