MODEL 1
REMARK VINA RESULT:      -8.6      0.000      0.000
REMARK SMILES CC[C@@H](NC(=O)[C@H](C)C[NH2+]C)C(=O)OCCOCCOCCOCCOC(=O)c1ccc(-c2c3nc(c(-c4c(F)cccc4F)c4ccc([nH]4)c(-c4c(F)cccc4F)c4nc(c(-c5c(F)cccc5F)c5ccc2[nH]5)C=C4)C=C3)cc1
REMARK SMILES IDX 19 1 18 2 17 3 16 4 15 5 14 6 12 7 13 8 3 9 2 10 1 11 4 12
REMARK SMILES IDX 5 13 6 15 7 16 8 17 9 18 10 19 11 20 20 23 21 24 22 25 23 26
REMARK SMILES IDX 24 27 25 28 26 29 27 30 28 31 29 32 30 33 82 34 31 35 81 36
REMARK SMILES IDX 32 37 33 38 34 39 75 40 35 41 80 42 74 43 76 44 36 45 79 46
REMARK SMILES IDX 73 47 72 48 37 50 63 51 46 52 62 53 47 54 50 55 61 56 77 57
REMARK SMILES IDX 48 58 49 59 60 61 78 62 51 63 38 64 39 65 44 66 40 67 41 68
REMARK SMILES IDX 43 69 45 70 42 71 64 72 65 73 70 74 66 75 67 76 69 77 71 78
REMARK SMILES IDX 68 79 52 80 53 81 58 82 54 83 55 84 57 85 59 86 56 87
REMARK H PARENT 4 14 10 21 10 22 76 49 50 60
REMARK Flexibility Score: inf
ROOT
ATOM      1  C   UNL A   1      31.774  29.666  26.747  1.00  0.00     0.188 C 
ENDROOT
BRANCH   1   2
ATOM      2  C   UNL A   1      32.008  29.692  25.228  1.00  0.00     0.188 C 
BRANCH   2   3
ATOM      3  O   UNL A   1      31.083  28.917  24.476  1.00  0.00    -0.376 OA
BRANCH   3   4
ATOM      4  C   UNL A   1      31.276  28.950  23.070  1.00  0.00     0.202 C 
BRANCH   4   5
ATOM      5  C   UNL A   1      32.542  28.255  22.579  1.00  0.00     0.261 C 
BRANCH   5   6
ATOM      6  O   UNL A   1      32.898  26.964  23.127  1.00  0.00    -0.462 OA
BRANCH   6   7
ATOM      7  C   UNL A   1      33.222  25.911  22.347  1.00  0.00     0.328 C 
ATOM      8  O   UNL A   1      33.283  25.946  21.124  1.00  0.00    -0.250 OA
BRANCH   7   9
ATOM      9  C   UNL A   1      33.363  24.611  23.169  1.00  0.00     0.192 C 
BRANCH   9  10
ATOM     10  C   UNL A   1      32.064  23.870  23.548  1.00  0.00     0.033 C 
ATOM     11  C   UNL A   1      31.814  23.872  25.061  1.00  0.00     0.007 C 
ENDBRANCH   9  10
BRANCH   9  12
ATOM     12  N   UNL A   1      34.429  23.674  22.771  1.00  0.00    -0.342 N 
ATOM     13  C   UNL A   1      35.466  23.083  23.423  1.00  0.00     0.229 C 
ATOM     14  H   UNL A   1      34.379  23.419  21.822  1.00  0.00     0.164 HD
ATOM     15  O   UNL A   1      36.445  22.787  22.730  1.00  0.00    -0.275 OA
BRANCH  13  16
ATOM     16  C   UNL A   1      35.447  22.699  24.899  1.00  0.00     0.130 C 
ATOM     17  C   UNL A   1      36.198  23.727  25.751  1.00  0.00     0.024 C 
BRANCH  16  18
ATOM     18  C   UNL A   1      35.727  21.195  25.076  1.00  0.00     0.273 C 
BRANCH  18  19
ATOM     19  N   UNL A   1      34.596  20.406  25.587  1.00  0.00    -0.348 N 
ATOM     20  C   UNL A   1      34.204  19.375  24.628  1.00  0.00     0.330 C 
ATOM     21  H   UNL A   1      33.804  21.026  25.754  1.00  0.00     0.346 HD
ATOM     22  H   UNL A   1      34.882  19.952  26.455  1.00  0.00     0.346 HD
ENDBRANCH  18  19
ENDBRANCH  16  18
ENDBRANCH  13  16
ENDBRANCH   9  12
ENDBRANCH   7   9
ENDBRANCH   6   7
ENDBRANCH   5   6
ENDBRANCH   4   5
ENDBRANCH   3   4
ENDBRANCH   2   3
ENDBRANCH   1   2
BRANCH   1  23
ATOM     23  O   UNL A   1      32.907  30.005  27.531  1.00  0.00    -0.377 OA
BRANCH  23  24
ATOM     24  C   UNL A   1      33.767  31.049  27.084  1.00  0.00     0.188 C 
BRANCH  24  25
ATOM     25  C   UNL A   1      34.654  31.795  28.096  1.00  0.00     0.188 C 
BRANCH  25  26
ATOM     26  O   UNL A   1      33.931  32.344  29.188  1.00  0.00    -0.376 OA
BRANCH  26  27
ATOM     27  C   UNL A   1      34.502  33.410  29.930  1.00  0.00     0.202 C 
BRANCH  27  28
ATOM     28  C   UNL A   1      34.390  33.356  31.461  1.00  0.00     0.261 C 
BRANCH  28  29
ATOM     29  O   UNL A   1      35.378  32.581  32.158  1.00  0.00    -0.460 OA
BRANCH  29  30
ATOM     30  C   UNL A   1      36.627  33.087  32.279  1.00  0.00     0.338 C 
ATOM     31  O   UNL A   1      36.979  34.032  32.938  1.00  0.00    -0.246 OA
BRANCH  30  32
ATOM     32  C   UNL A   1      37.547  32.141  31.605  1.00  0.00     0.060 A 
ATOM     33  C   UNL A   1      38.459  31.416  32.384  1.00  0.00     0.016 A 
ATOM     34  C   UNL A   1      37.515  31.981  30.217  1.00  0.00     0.016 A 
ATOM     35  C   UNL A   1      39.384  30.572  31.769  1.00  0.00     0.010 A 
ATOM     36  C   UNL A   1      38.456  31.153  29.600  1.00  0.00     0.010 A 
ATOM     37  C   UNL A   1      39.422  30.484  30.371  1.00  0.00    -0.014 A 
BRANCH  37  38
ATOM     38  C   UNL A   1      40.622  29.919  29.709  1.00  0.00     0.031 A 
ATOM     39  C   UNL A   1      41.786  30.841  29.469  1.00  0.00     0.074 A 
ATOM     40  C   UNL A   1      40.691  28.627  29.347  1.00  0.00     0.049 A 
ATOM     41  N   UNL A   1      42.925  30.609  28.872  1.00  0.00    -0.248 NA
ATOM     42  C   UNL A   1      41.641  32.219  29.972  1.00  0.00     0.031 C 
ATOM     43  C   UNL A   1      39.650  27.626  29.568  1.00  0.00     0.029 A 
ATOM     44  N   UNL A   1      41.690  27.941  28.704  1.00  0.00    -0.354 N 
ATOM     45  C   UNL A   1      43.627  31.807  28.923  1.00  0.00     0.074 A 
ATOM     46  C   UNL A   1      42.778  32.773  29.581  1.00  0.00     0.031 C 
ATOM     47  C   UNL A   1      40.062  26.452  29.055  1.00  0.00     0.029 A 
ATOM     48  C   UNL A   1      41.379  26.628  28.446  1.00  0.00     0.049 A 
ATOM     49  H   UNL A   1      42.549  28.350  28.452  1.00  0.00     0.167 HD
ATOM     50  C   UNL A   1      44.872  32.079  28.466  1.00  0.00     0.037 A 
ATOM     51  C   UNL A   1      42.074  25.690  27.773  1.00  0.00     0.037 A 
ATOM     52  C   UNL A   1      45.713  31.118  27.805  1.00  0.00     0.049 A 
ATOM     53  C   UNL A   1      43.425  26.040  27.199  1.00  0.00     0.074 A 
ATOM     54  C   UNL A   1      46.996  31.287  27.319  1.00  0.00     0.029 A 
ATOM     55  N   UNL A   1      45.348  29.810  27.530  1.00  0.00    -0.354 N 
ATOM     56  N   UNL A   1      44.092  27.167  27.276  1.00  0.00    -0.248 NA
ATOM     57  C   UNL A   1      44.118  24.986  26.444  1.00  0.00     0.031 C 
ATOM     58  C   UNL A   1      47.387  30.096  26.699  1.00  0.00     0.029 A 
ATOM     59  C   UNL A   1      46.370  29.167  26.853  1.00  0.00     0.049 A 
ATOM     60  H   UNL A   1      44.488  29.398  27.779  1.00  0.00     0.167 HD
ATOM     61  C   UNL A   1      45.296  26.945  26.613  1.00  0.00     0.074 A 
ATOM     62  C   UNL A   1      45.268  25.574  26.149  1.00  0.00     0.031 C 
ATOM     63  C   UNL A   1      46.330  27.797  26.409  1.00  0.00     0.037 A 
BRANCH  50  64
ATOM     64  C   UNL A   1      45.379  33.479  28.637  1.00  0.00     0.057 A 
ATOM     65  C   UNL A   1      46.122  33.868  29.759  1.00  0.00     0.134 A 
ATOM     66  C   UNL A   1      45.136  34.447  27.655  1.00  0.00     0.134 A 
ATOM     67  F   UNL A   1      46.373  32.995  30.746  1.00  0.00    -0.206 F 
ATOM     68  C   UNL A   1      46.587  35.176  29.908  1.00  0.00     0.040 A 
ATOM     69  C   UNL A   1      45.619  35.752  27.780  1.00  0.00     0.040 A 
ATOM     70  F   UNL A   1      44.430  34.142  26.556  1.00  0.00    -0.206 F 
ATOM     71  C   UNL A   1      46.342  36.120  28.912  1.00  0.00     0.006 A 
ENDBRANCH  50  64
BRANCH  51  72
ATOM     72  C   UNL A   1      41.509  24.328  27.585  1.00  0.00     0.057 A 
ATOM     73  C   UNL A   1      40.495  24.085  26.653  1.00  0.00     0.134 A 
ATOM     74  C   UNL A   1      41.943  23.246  28.361  1.00  0.00     0.134 A 
ATOM     75  F   UNL A   1      40.018  25.086  25.898  1.00  0.00    -0.206 F 
ATOM     76  C   UNL A   1      39.917  22.821  26.511  1.00  0.00     0.040 A 
ATOM     77  C   UNL A   1      41.393  21.971  28.213  1.00  0.00     0.040 A 
ATOM     78  F   UNL A   1      42.910  23.413  29.276  1.00  0.00    -0.206 F 
ATOM     79  C   UNL A   1      40.370  21.760  27.290  1.00  0.00     0.006 A 
ENDBRANCH  51  72
BRANCH  63  80
ATOM     80  C   UNL A   1      47.537  27.263  25.694  1.00  0.00     0.057 A 
ATOM     81  C   UNL A   1      47.697  27.390  24.309  1.00  0.00     0.134 A 
ATOM     82  C   UNL A   1      48.580  26.659  26.413  1.00  0.00     0.134 A 
ATOM     83  F   UNL A   1      46.734  27.948  23.562  1.00  0.00    -0.206 F 
ATOM     84  C   UNL A   1      48.839  26.914  23.660  1.00  0.00     0.040 A 
ATOM     85  C   UNL A   1      49.737  26.207  25.779  1.00  0.00     0.040 A 
ATOM     86  F   UNL A   1      48.496  26.519  27.744  1.00  0.00    -0.206 F 
ATOM     87  C   UNL A   1      49.866  26.327  24.398  1.00  0.00     0.006 A 
ENDBRANCH  63  80
ENDBRANCH  37  38
ENDBRANCH  30  32
ENDBRANCH  29  30
ENDBRANCH  28  29
ENDBRANCH  27  28
ENDBRANCH  26  27
ENDBRANCH  25  26
ENDBRANCH  24  25
ENDBRANCH  23  24
ENDBRANCH   1  23
TORSDOF 25
ENDMDL
MODEL 2
REMARK VINA RESULT:      -7.2      5.128      9.778
REMARK SMILES CC[C@@H](NC(=O)[C@H](C)C[NH2+]C)C(=O)OCCOCCOCCOCCOC(=O)c1ccc(-c2c3nc(c(-c4c(F)cccc4F)c4ccc([nH]4)c(-c4c(F)cccc4F)c4nc(c(-c5c(F)cccc5F)c5ccc2[nH]5)C=C4)C=C3)cc1
REMARK SMILES IDX 19 1 18 2 17 3 16 4 15 5 14 6 12 7 13 8 3 9 2 10 1 11 4 12
REMARK SMILES IDX 5 13 6 15 7 16 8 17 9 18 10 19 11 20 20 23 21 24 22 25 23 26
REMARK SMILES IDX 24 27 25 28 26 29 27 30 28 31 29 32 30 33 82 34 31 35 81 36
REMARK SMILES IDX 32 37 33 38 34 39 75 40 35 41 80 42 74 43 76 44 36 45 79 46
REMARK SMILES IDX 73 47 72 48 37 50 63 51 46 52 62 53 47 54 50 55 61 56 77 57
REMARK SMILES IDX 48 58 49 59 60 61 78 62 51 63 38 64 39 65 44 66 40 67 41 68
REMARK SMILES IDX 43 69 45 70 42 71 64 72 65 73 70 74 66 75 67 76 69 77 71 78
REMARK SMILES IDX 68 79 52 80 53 81 58 82 54 83 55 84 57 85 59 86 56 87
REMARK H PARENT 4 14 10 21 10 22 76 49 50 60
REMARK Flexibility Score: inf
ROOT
ATOM      1  C   UNL A   1      38.402  32.158  36.957  1.00  0.00     0.188 C 
ENDROOT
BRANCH   1   2
ATOM      2  C   UNL A   1      38.780  30.983  36.041  1.00  0.00     0.188 C 
BRANCH   2   3
ATOM      3  O   UNL A   1      39.189  31.364  34.733  1.00  0.00    -0.376 OA
BRANCH   3   4
ATOM      4  C   UNL A   1      38.250  31.085  33.705  1.00  0.00     0.202 C 
BRANCH   4   5
ATOM      5  C   UNL A   1      38.303  29.663  33.158  1.00  0.00     0.261 C 
BRANCH   5   6
ATOM      6  O   UNL A   1      39.377  29.288  32.264  1.00  0.00    -0.462 OA
BRANCH   6   7
ATOM      7  C   UNL A   1      39.708  30.023  31.181  1.00  0.00     0.328 C 
ATOM      8  O   UNL A   1      40.610  30.851  31.153  1.00  0.00    -0.250 OA
BRANCH   7   9
ATOM      9  C   UNL A   1      38.715  29.805  30.017  1.00  0.00     0.192 C 
BRANCH   9  10
ATOM     10  C   UNL A   1      38.598  28.377  29.446  1.00  0.00     0.033 C 
ATOM     11  C   UNL A   1      39.901  27.583  29.596  1.00  0.00     0.007 C 
ENDBRANCH   9  10
BRANCH   9  12
ATOM     12  N   UNL A   1      37.398  30.460  30.124  1.00  0.00    -0.342 N 
ATOM     13  C   UNL A   1      36.988  31.737  30.343  1.00  0.00     0.229 C 
ATOM     14  H   UNL A   1      36.649  29.831  30.010  1.00  0.00     0.164 HD
ATOM     15  O   UNL A   1      35.883  31.867  30.880  1.00  0.00    -0.275 OA
BRANCH  13  16
ATOM     16  C   UNL A   1      37.755  32.977  29.893  1.00  0.00     0.130 C 
ATOM     17  C   UNL A   1      38.154  33.847  31.088  1.00  0.00     0.024 C 
BRANCH  16  18
ATOM     18  C   UNL A   1      37.089  33.613  28.659  1.00  0.00     0.273 C 
BRANCH  18  19
ATOM     19  N   UNL A   1      35.893  32.915  28.167  1.00  0.00    -0.348 N 
ATOM     20  C   UNL A   1      34.756  33.829  28.077  1.00  0.00     0.330 C 
ATOM     21  H   UNL A   1      35.662  32.155  28.806  1.00  0.00     0.346 HD
ATOM     22  H   UNL A   1      36.090  32.548  27.235  1.00  0.00     0.346 HD
ENDBRANCH  18  19
ENDBRANCH  16  18
ENDBRANCH  13  16
ENDBRANCH   9  12
ENDBRANCH   7   9
ENDBRANCH   6   7
ENDBRANCH   5   6
ENDBRANCH   4   5
ENDBRANCH   3   4
ENDBRANCH   2   3
ENDBRANCH   1   2
BRANCH   1  23
ATOM     23  O   UNL A   1      37.118  32.060  37.554  1.00  0.00    -0.377 OA
BRANCH  23  24
ATOM     24  C   UNL A   1      37.023  31.684  38.925  1.00  0.00     0.188 C 
BRANCH  24  25
ATOM     25  C   UNL A   1      37.723  32.533  40.001  1.00  0.00     0.188 C 
BRANCH  25  26
ATOM     26  O   UNL A   1      38.716  31.823  40.727  1.00  0.00    -0.376 OA
BRANCH  26  27
ATOM     27  C   UNL A   1      39.754  32.547  41.369  1.00  0.00     0.202 C 
BRANCH  27  28
ATOM     28  C   UNL A   1      40.881  33.112  40.491  1.00  0.00     0.261 C 
BRANCH  28  29
ATOM     29  O   UNL A   1      40.634  34.372  39.847  1.00  0.00    -0.460 OA
BRANCH  29  30
ATOM     30  C   UNL A   1      41.695  35.115  39.456  1.00  0.00     0.338 C 
ATOM     31  O   UNL A   1      42.405  35.805  40.142  1.00  0.00    -0.246 OA
BRANCH  30  32
ATOM     32  C   UNL A   1      41.966  34.773  38.039  1.00  0.00     0.060 A 
ATOM     33  C   UNL A   1      40.887  34.681  37.149  1.00  0.00     0.016 A 
ATOM     34  C   UNL A   1      43.271  34.536  37.600  1.00  0.00     0.016 A 
ATOM     35  C   UNL A   1      41.107  34.293  35.827  1.00  0.00     0.010 A 
ATOM     36  C   UNL A   1      43.487  34.126  36.283  1.00  0.00     0.010 A 
ATOM     37  C   UNL A   1      42.400  33.957  35.407  1.00  0.00    -0.014 A 
BRANCH  37  38
ATOM     38  C   UNL A   1      42.582  33.182  34.157  1.00  0.00     0.031 A 
ATOM     39  C   UNL A   1      42.647  31.683  34.267  1.00  0.00     0.074 A 
ATOM     40  C   UNL A   1      42.670  33.781  32.956  1.00  0.00     0.049 A 
ATOM     41  N   UNL A   1      42.846  30.786  33.338  1.00  0.00    -0.248 NA
ATOM     42  C   UNL A   1      42.464  31.121  35.617  1.00  0.00     0.031 C 
ATOM     43  C   UNL A   1      42.575  35.219  32.715  1.00  0.00     0.029 A 
ATOM     44  N   UNL A   1      42.869  33.240  31.711  1.00  0.00    -0.354 N 
ATOM     45  C   UNL A   1      42.816  29.558  33.990  1.00  0.00     0.074 A 
ATOM     46  C   UNL A   1      42.611  29.825  35.395  1.00  0.00     0.031 C 
ATOM     47  C   UNL A   1      42.729  35.448  31.398  1.00  0.00     0.029 A 
ATOM     48  C   UNL A   1      42.963  34.178  30.712  1.00  0.00     0.049 A 
ATOM     49  H   UNL A   1      42.938  32.272  31.549  1.00  0.00     0.167 HD
ATOM     50  C   UNL A   1      42.944  28.318  33.464  1.00  0.00     0.037 A 
ATOM     51  C   UNL A   1      43.230  34.022  29.401  1.00  0.00     0.037 A 
ATOM     52  C   UNL A   1      43.154  28.056  32.066  1.00  0.00     0.049 A 
ATOM     53  C   UNL A   1      43.452  32.635  28.851  1.00  0.00     0.074 A 
ATOM     54  C   UNL A   1      43.281  26.835  31.428  1.00  0.00     0.029 A 
ATOM     55  N   UNL A   1      43.280  29.033  31.092  1.00  0.00    -0.354 N 
ATOM     56  N   UNL A   1      43.395  31.479  29.469  1.00  0.00    -0.248 NA
ATOM     57  C   UNL A   1      43.777  32.532  27.421  1.00  0.00     0.031 C 
ATOM     58  C   UNL A   1      43.539  27.076  30.075  1.00  0.00     0.029 A 
ATOM     59  C   UNL A   1      43.513  28.445  29.861  1.00  0.00     0.049 A 
ATOM     60  H   UNL A   1      43.214  30.003  31.251  1.00  0.00     0.167 HD
ATOM     61  C   UNL A   1      43.639  30.513  28.497  1.00  0.00     0.074 A 
ATOM     62  C   UNL A   1      43.837  31.219  27.249  1.00  0.00     0.031 C 
ATOM     63  C   UNL A   1      43.694  29.165  28.625  1.00  0.00     0.037 A 
BRANCH  50  64
ATOM     64  C   UNL A   1      42.893  27.158  34.412  1.00  0.00     0.057 A 
ATOM     65  C   UNL A   1      41.690  26.522  34.744  1.00  0.00     0.134 A 
ATOM     66  C   UNL A   1      44.069  26.658  34.986  1.00  0.00     0.134 A 
ATOM     67  F   UNL A   1      40.526  26.965  34.245  1.00  0.00    -0.206 F 
ATOM     68  C   UNL A   1      41.655  25.444  35.631  1.00  0.00     0.040 A 
ATOM     69  C   UNL A   1      44.050  25.563  35.853  1.00  0.00     0.040 A 
ATOM     70  F   UNL A   1      45.254  27.221  34.712  1.00  0.00    -0.206 F 
ATOM     71  C   UNL A   1      42.839  24.957  36.182  1.00  0.00     0.006 A 
ENDBRANCH  50  64
BRANCH  51  72
ATOM     72  C   UNL A   1      43.320  35.206  28.507  1.00  0.00     0.057 A 
ATOM     73  C   UNL A   1      44.555  35.780  28.184  1.00  0.00     0.134 A 
ATOM     74  C   UNL A   1      42.172  35.815  27.986  1.00  0.00     0.134 A 
ATOM     75  F   UNL A   1      45.690  35.260  28.674  1.00  0.00    -0.206 F 
ATOM     76  C   UNL A   1      44.645  36.928  27.394  1.00  0.00     0.040 A 
ATOM     77  C   UNL A   1      42.247  36.947  27.173  1.00  0.00     0.040 A 
ATOM     78  F   UNL A   1      40.957  35.316  28.260  1.00  0.00    -0.206 F 
ATOM     79  C   UNL A   1      43.488  37.512  26.883  1.00  0.00     0.006 A 
ENDBRANCH  51  72
BRANCH  63  80
ATOM     80  C   UNL A   1      43.929  28.359  27.381  1.00  0.00     0.057 A 
ATOM     81  C   UNL A   1      42.890  28.021  26.505  1.00  0.00     0.134 A 
ATOM     82  C   UNL A   1      45.227  27.959  27.028  1.00  0.00     0.134 A 
ATOM     83  F   UNL A   1      41.625  28.364  26.788  1.00  0.00    -0.206 F 
ATOM     84  C   UNL A   1      43.127  27.295  25.336  1.00  0.00     0.040 A 
ATOM     85  C   UNL A   1      45.480  27.260  25.848  1.00  0.00     0.040 A 
ATOM     86  F   UNL A   1      46.270  28.261  27.815  1.00  0.00    -0.206 F 
ATOM     87  C   UNL A   1      44.428  26.920  25.002  1.00  0.00     0.006 A 
ENDBRANCH  63  80
ENDBRANCH  37  38
ENDBRANCH  30  32
ENDBRANCH  29  30
ENDBRANCH  28  29
ENDBRANCH  27  28
ENDBRANCH  26  27
ENDBRANCH  25  26
ENDBRANCH  24  25
ENDBRANCH  23  24
ENDBRANCH   1  23
TORSDOF 25
ENDMDL
MODEL 3
REMARK VINA RESULT:      -7.1      3.745      4.460
REMARK SMILES CC[C@@H](NC(=O)[C@H](C)C[NH2+]C)C(=O)OCCOCCOCCOCCOC(=O)c1ccc(-c2c3nc(c(-c4c(F)cccc4F)c4ccc([nH]4)c(-c4c(F)cccc4F)c4nc(c(-c5c(F)cccc5F)c5ccc2[nH]5)C=C4)C=C3)cc1
REMARK SMILES IDX 19 1 18 2 17 3 16 4 15 5 14 6 12 7 13 8 3 9 2 10 1 11 4 12
REMARK SMILES IDX 5 13 6 15 7 16 8 17 9 18 10 19 11 20 20 23 21 24 22 25 23 26
REMARK SMILES IDX 24 27 25 28 26 29 27 30 28 31 29 32 30 33 82 34 31 35 81 36
REMARK SMILES IDX 32 37 33 38 34 39 75 40 35 41 80 42 74 43 76 44 36 45 79 46
REMARK SMILES IDX 73 47 72 48 37 50 63 51 46 52 62 53 47 54 50 55 61 56 77 57
REMARK SMILES IDX 48 58 49 59 60 61 78 62 51 63 38 64 39 65 44 66 40 67 41 68
REMARK SMILES IDX 43 69 45 70 42 71 64 72 65 73 70 74 66 75 67 76 69 77 71 78
REMARK SMILES IDX 68 79 52 80 53 81 58 82 54 83 55 84 57 85 59 86 56 87
REMARK H PARENT 4 14 10 21 10 22 76 49 50 60
REMARK Flexibility Score: inf
ROOT
ATOM      1  C   UNL A   1      32.395  29.757  26.817  1.00  0.00     0.188 C 
ENDROOT
BRANCH   1   2
ATOM      2  C   UNL A   1      32.598  29.454  25.324  1.00  0.00     0.188 C 
BRANCH   2   3
ATOM      3  O   UNL A   1      31.415  29.069  24.635  1.00  0.00    -0.376 OA
BRANCH   3   4
ATOM      4  C   UNL A   1      31.587  28.799  23.252  1.00  0.00     0.202 C 
BRANCH   4   5
ATOM      5  C   UNL A   1      32.880  28.073  22.897  1.00  0.00     0.261 C 
BRANCH   5   6
ATOM      6  O   UNL A   1      33.081  26.717  23.360  1.00  0.00    -0.462 OA
BRANCH   6   7
ATOM      7  C   UNL A   1      33.419  25.710  22.528  1.00  0.00     0.328 C 
ATOM      8  O   UNL A   1      33.434  25.794  21.305  1.00  0.00    -0.250 OA
BRANCH   7   9
ATOM      9  C   UNL A   1      33.644  24.386  23.292  1.00  0.00     0.192 C 
BRANCH   9  10
ATOM     10  C   UNL A   1      32.393  23.562  23.660  1.00  0.00     0.033 C 
ATOM     11  C   UNL A   1      32.282  22.274  22.834  1.00  0.00     0.007 C 
ENDBRANCH   9  10
BRANCH   9  12
ATOM     12  N   UNL A   1      34.750  23.524  22.837  1.00  0.00    -0.342 N 
ATOM     13  C   UNL A   1      35.884  23.050  23.417  1.00  0.00     0.229 C 
ATOM     14  H   UNL A   1      34.643  23.226  21.905  1.00  0.00     0.164 HD
ATOM     15  O   UNL A   1      36.824  22.806  22.653  1.00  0.00    -0.275 OA
BRANCH  13  16
ATOM     16  C   UNL A   1      36.021  22.728  24.903  1.00  0.00     0.130 C 
ATOM     17  C   UNL A   1      35.882  23.990  25.760  1.00  0.00     0.024 C 
BRANCH  16  18
ATOM     18  C   UNL A   1      37.186  21.752  25.145  1.00  0.00     0.273 C 
BRANCH  18  19
ATOM     19  N   UNL A   1      38.505  22.382  25.301  1.00  0.00    -0.348 N 
ATOM     20  C   UNL A   1      39.399  21.534  26.087  1.00  0.00     0.330 C 
ATOM     21  H   UNL A   1      38.394  23.280  25.773  1.00  0.00     0.346 HD
ATOM     22  H   UNL A   1      38.914  22.516  24.375  1.00  0.00     0.346 HD
ENDBRANCH  18  19
ENDBRANCH  16  18
ENDBRANCH  13  16
ENDBRANCH   9  12
ENDBRANCH   7   9
ENDBRANCH   6   7
ENDBRANCH   5   6
ENDBRANCH   4   5
ENDBRANCH   3   4
ENDBRANCH   2   3
ENDBRANCH   1   2
BRANCH   1  23
ATOM     23  O   UNL A   1      33.589  29.814  27.582  1.00  0.00    -0.377 OA
BRANCH  23  24
ATOM     24  C   UNL A   1      34.586  30.770  27.234  1.00  0.00     0.188 C 
BRANCH  24  25
ATOM     25  C   UNL A   1      35.363  31.502  28.341  1.00  0.00     0.188 C 
BRANCH  25  26
ATOM     26  O   UNL A   1      34.581  31.784  29.492  1.00  0.00    -0.376 OA
BRANCH  26  27
ATOM     27  C   UNL A   1      34.788  33.004  30.188  1.00  0.00     0.202 C 
BRANCH  27  28
ATOM     28  C   UNL A   1      34.657  32.984  31.719  1.00  0.00     0.261 C 
BRANCH  28  29
ATOM     29  O   UNL A   1      35.853  32.726  32.471  1.00  0.00    -0.460 OA
BRANCH  29  30
ATOM     30  C   UNL A   1      36.964  33.442  32.182  1.00  0.00     0.338 C 
ATOM     31  O   UNL A   1      37.133  34.628  32.317  1.00  0.00    -0.246 OA
BRANCH  30  32
ATOM     32  C   UNL A   1      38.033  32.472  31.848  1.00  0.00     0.060 A 
ATOM     33  C   UNL A   1      38.072  31.250  32.534  1.00  0.00     0.016 A 
ATOM     34  C   UNL A   1      38.992  32.772  30.877  1.00  0.00     0.016 A 
ATOM     35  C   UNL A   1      39.108  30.348  32.291  1.00  0.00     0.010 A 
ATOM     36  C   UNL A   1      40.041  31.879  30.650  1.00  0.00     0.010 A 
ATOM     37  C   UNL A   1      40.127  30.687  31.391  1.00  0.00    -0.014 A 
BRANCH  37  38
ATOM     38  C   UNL A   1      41.405  29.936  31.421  1.00  0.00     0.031 A 
ATOM     39  C   UNL A   1      42.399  30.292  32.493  1.00  0.00     0.074 A 
ATOM     40  C   UNL A   1      41.674  28.956  30.540  1.00  0.00     0.049 A 
ATOM     41  N   UNL A   1      43.600  29.821  32.706  1.00  0.00    -0.248 NA
ATOM     42  C   UNL A   1      41.978  31.325  33.454  1.00  0.00     0.031 C 
ATOM     43  C   UNL A   1      40.774  28.489  29.488  1.00  0.00     0.029 A 
ATOM     44  N   UNL A   1      42.798  28.184  30.394  1.00  0.00    -0.354 N 
ATOM     45  C   UNL A   1      44.077  30.503  33.820  1.00  0.00     0.074 A 
ATOM     46  C   UNL A   1      43.052  31.439  34.219  1.00  0.00     0.031 C 
ATOM     47  C   UNL A   1      41.390  27.514  28.794  1.00  0.00     0.029 A 
ATOM     48  C   UNL A   1      42.734  27.313  29.333  1.00  0.00     0.049 A 
ATOM     49  H   UNL A   1      43.578  28.247  30.992  1.00  0.00     0.167 HD
ATOM     50  C   UNL A   1      45.262  30.358  34.456  1.00  0.00     0.037 A 
ATOM     51  C   UNL A   1      43.666  26.471  28.847  1.00  0.00     0.037 A 
ATOM     52  C   UNL A   1      46.283  29.430  34.052  1.00  0.00     0.049 A 
ATOM     53  C   UNL A   1      45.012  26.387  29.523  1.00  0.00     0.074 A 
ATOM     54  C   UNL A   1      47.514  29.194  34.639  1.00  0.00     0.029 A 
ATOM     55  N   UNL A   1      46.195  28.593  32.952  1.00  0.00    -0.354 N 
ATOM     56  N   UNL A   1      45.444  27.014  30.591  1.00  0.00    -0.248 NA
ATOM     57  C   UNL A   1      46.000  25.478  28.925  1.00  0.00     0.031 C 
ATOM     58  C   UNL A   1      48.193  28.252  33.860  1.00  0.00     0.029 A 
ATOM     59  C   UNL A   1      47.361  27.858  32.824  1.00  0.00     0.049 A 
ATOM     60  H   UNL A   1      45.417  28.529  32.350  1.00  0.00     0.167 HD
ATOM     61  C   UNL A   1      46.737  26.549  30.812  1.00  0.00     0.074 A 
ATOM     62  C   UNL A   1      47.014  25.581  29.771  1.00  0.00     0.031 C 
ATOM     63  C   UNL A   1      47.614  26.889  31.788  1.00  0.00     0.037 A 
BRANCH  50  64
ATOM     64  C   UNL A   1      45.527  31.249  35.633  1.00  0.00     0.057 A 
ATOM     65  C   UNL A   1      46.144  32.499  35.494  1.00  0.00     0.134 A 
ATOM     66  C   UNL A   1      45.143  30.856  36.921  1.00  0.00     0.134 A 
ATOM     67  F   UNL A   1      46.555  32.926  34.291  1.00  0.00    -0.206 F 
ATOM     68  C   UNL A   1      46.387  33.319  36.598  1.00  0.00     0.040 A 
ATOM     69  C   UNL A   1      45.357  31.679  38.029  1.00  0.00     0.040 A 
ATOM     70  F   UNL A   1      44.550  29.671  37.124  1.00  0.00    -0.206 F 
ATOM     71  C   UNL A   1      45.986  32.912  37.870  1.00  0.00     0.006 A 
ENDBRANCH  50  64
BRANCH  51  72
ATOM     72  C   UNL A   1      43.377  25.642  27.647  1.00  0.00     0.057 A 
ATOM     73  C   UNL A   1      43.635  26.119  26.357  1.00  0.00     0.134 A 
ATOM     74  C   UNL A   1      42.799  24.372  27.760  1.00  0.00     0.134 A 
ATOM     75  F   UNL A   1      44.162  27.339  26.181  1.00  0.00    -0.206 F 
ATOM     76  C   UNL A   1      43.311  25.372  25.222  1.00  0.00     0.040 A 
ATOM     77  C   UNL A   1      42.495  23.602  26.636  1.00  0.00     0.040 A 
ATOM     78  F   UNL A   1      42.524  23.859  28.969  1.00  0.00    -0.206 F 
ATOM     79  C   UNL A   1      42.743  24.108  25.361  1.00  0.00     0.006 A 
ENDBRANCH  51  72
BRANCH  63  80
ATOM     80  C   UNL A   1      48.937  26.180  31.809  1.00  0.00     0.057 A 
ATOM     81  C   UNL A   1      50.025  26.612  31.040  1.00  0.00     0.134 A 
ATOM     82  C   UNL A   1      49.139  25.077  32.652  1.00  0.00     0.134 A 
ATOM     83  F   UNL A   1      49.896  27.653  30.206  1.00  0.00    -0.206 F 
ATOM     84  C   UNL A   1      51.259  25.960  31.090  1.00  0.00     0.040 A 
ATOM     85  C   UNL A   1      50.376  24.436  32.733  1.00  0.00     0.040 A 
ATOM     86  F   UNL A   1      48.144  24.620  33.425  1.00  0.00    -0.206 F 
ATOM     87  C   UNL A   1      51.438  24.873  31.946  1.00  0.00     0.006 A 
ENDBRANCH  63  80
ENDBRANCH  37  38
ENDBRANCH  30  32
ENDBRANCH  29  30
ENDBRANCH  28  29
ENDBRANCH  27  28
ENDBRANCH  26  27
ENDBRANCH  25  26
ENDBRANCH  24  25
ENDBRANCH  23  24
ENDBRANCH   1  23
TORSDOF 25
ENDMDL
