MODEL 1
REMARK VINA RESULT:     -10.2      0.000      0.000
REMARK SMILES O=C(OCCOCCOCCOCCOC(=O)c1ccc(-c2c3nc(c(-c4c(F)cccc4F)c4ccc([nH]4)c(-c4c(F)cccc4F)c4nc(c(-c5c(F)cccc5F)c5ccc2[nH]5)C=C4)C=C3)cc1)c1ccc(N[C@H]2OC[C@@H](O)[C@@H](O)[C@H]2O)cc1
REMARK SMILES IDX 8 1 7 2 6 3 5 4 4 5 3 6 2 7 1 8 72 9 73 10 87 11 74 12 86 13
REMARK SMILES IDX 75 14 76 15 77 17 78 18 84 19 79 20 82 21 80 22 85 23 83 25
REMARK SMILES IDX 81 27 9 29 10 30 11 31 12 32 13 33 14 34 15 35 16 36 17 37
REMARK SMILES IDX 18 38 19 39 71 40 20 41 70 42 21 43 22 44 23 45 64 46 24 47
REMARK SMILES IDX 69 48 63 49 65 50 25 51 68 52 62 53 61 54 26 56 52 57 35 58
REMARK SMILES IDX 51 59 36 60 39 61 50 62 66 63 37 64 38 65 49 67 67 68 40 69
REMARK SMILES IDX 27 70 28 71 33 72 29 73 30 74 32 75 34 76 31 77 53 78 54 79
REMARK SMILES IDX 59 80 55 81 56 82 58 83 60 84 57 85 41 86 42 87 47 88 43 89
REMARK SMILES IDX 44 90 46 91 48 92 45 93
REMARK H PARENT 76 16 85 24 83 26 81 28 65 55 39 66
REMARK Flexibility Score: inf
ROOT
ATOM      1  C   UNL A   1      41.135  21.184  26.887  1.00  0.00     0.188 C 
ENDROOT
BRANCH   1   2
ATOM      2  C   UNL A   1      39.915  21.886  26.292  1.00  0.00     0.188 C 
BRANCH   2   3
ATOM      3  O   UNL A   1      39.537  22.989  27.122  1.00  0.00    -0.376 OA
BRANCH   3   4
ATOM      4  C   UNL A   1      38.804  24.027  26.478  1.00  0.00     0.202 C 
BRANCH   4   5
ATOM      5  C   UNL A   1      37.615  23.547  25.650  1.00  0.00     0.261 C 
BRANCH   5   6
ATOM      6  O   UNL A   1      36.362  24.005  26.173  1.00  0.00    -0.460 OA
BRANCH   6   7
ATOM      7  C   UNL A   1      35.212  24.158  25.474  1.00  0.00     0.338 C 
ATOM      8  O   UNL A   1      34.943  25.259  24.997  1.00  0.00    -0.246 OA
BRANCH   7   9
ATOM      9  C   UNL A   1      34.291  23.027  25.170  1.00  0.00     0.060 A 
ATOM     10  C   UNL A   1      33.799  22.699  23.906  1.00  0.00     0.018 A 
ATOM     11  C   UNL A   1      34.040  22.136  26.217  1.00  0.00     0.018 A 
ATOM     12  C   UNL A   1      33.030  21.545  23.701  1.00  0.00     0.026 A 
ATOM     13  C   UNL A   1      33.292  20.972  26.001  1.00  0.00     0.026 A 
ATOM     14  C   UNL A   1      32.754  20.667  24.745  1.00  0.00     0.036 A 
BRANCH  14  15
ATOM     15  N   UNL A   1      32.053  19.488  24.590  1.00  0.00    -0.358 N 
ATOM     16  H   UNL A   1      31.084  19.509  24.761  1.00  0.00     0.163 HD
BRANCH  15  17
ATOM     17  C   UNL A   1      32.638  18.215  24.193  1.00  0.00     0.244 C 
ATOM     18  O   UNL A   1      34.064  18.319  24.209  1.00  0.00    -0.353 OA
ATOM     19  C   UNL A   1      32.213  17.167  25.248  1.00  0.00     0.195 C 
ATOM     20  C   UNL A   1      34.715  17.098  23.826  1.00  0.00     0.197 C 
ATOM     21  C   UNL A   1      32.863  15.820  24.925  1.00  0.00     0.178 C 
ATOM     22  C   UNL A   1      34.386  15.959  24.795  1.00  0.00     0.171 C 
BRANCH  19  23
ATOM     23  O   UNL A   1      32.651  17.605  26.562  1.00  0.00    -0.386 OA
ATOM     24  H   UNL A   1      32.279  17.016  27.239  1.00  0.00     0.211 HD
ENDBRANCH  19  23
BRANCH  21  25
ATOM     25  O   UNL A   1      32.530  14.873  25.942  1.00  0.00    -0.387 OA
ATOM     26  H   UNL A   1      33.344  14.520  26.335  1.00  0.00     0.211 HD
ENDBRANCH  21  25
BRANCH  22  27
ATOM     27  O   UNL A   1      34.979  16.230  26.074  1.00  0.00    -0.388 OA
ATOM     28  H   UNL A   1      35.850  16.638  25.947  1.00  0.00     0.211 HD
ENDBRANCH  22  27
ENDBRANCH  15  17
ENDBRANCH  14  15
ENDBRANCH   7   9
ENDBRANCH   6   7
ENDBRANCH   5   6
ENDBRANCH   4   5
ENDBRANCH   3   4
ENDBRANCH   2   3
ENDBRANCH   1   2
BRANCH   1  29
ATOM     29  O   UNL A   1      42.236  21.033  25.991  1.00  0.00    -0.377 OA
BRANCH  29  30
ATOM     30  C   UNL A   1      42.700  19.706  25.773  1.00  0.00     0.188 C 
BRANCH  30  31
ATOM     31  C   UNL A   1      44.076  19.500  25.103  1.00  0.00     0.188 C 
BRANCH  31  32
ATOM     32  O   UNL A   1      44.637  20.656  24.495  1.00  0.00    -0.376 OA
BRANCH  32  33
ATOM     33  C   UNL A   1      45.778  21.199  25.156  1.00  0.00     0.202 C 
BRANCH  33  34
ATOM     34  C   UNL A   1      45.448  22.164  26.303  1.00  0.00     0.261 C 
BRANCH  34  35
ATOM     35  O   UNL A   1      45.625  23.556  25.987  1.00  0.00    -0.460 OA
BRANCH  35  36
ATOM     36  C   UNL A   1      44.649  24.177  25.289  1.00  0.00     0.338 C 
ATOM     37  O   UNL A   1      44.292  23.936  24.148  1.00  0.00    -0.246 OA
BRANCH  36  38
ATOM     38  C   UNL A   1      43.903  25.037  26.239  1.00  0.00     0.060 A 
ATOM     39  C   UNL A   1      44.262  26.389  26.334  1.00  0.00     0.016 A 
ATOM     40  C   UNL A   1      42.783  24.558  26.930  1.00  0.00     0.016 A 
ATOM     41  C   UNL A   1      43.515  27.258  27.135  1.00  0.00     0.010 A 
ATOM     42  C   UNL A   1      42.047  25.423  27.744  1.00  0.00     0.010 A 
ATOM     43  C   UNL A   1      42.428  26.771  27.875  1.00  0.00    -0.014 A 
BRANCH  43  44
ATOM     44  C   UNL A   1      41.876  27.589  28.982  1.00  0.00     0.031 A 
ATOM     45  C   UNL A   1      42.571  27.500  30.313  1.00  0.00     0.074 A 
ATOM     46  C   UNL A   1      40.820  28.408  28.826  1.00  0.00     0.049 A 
ATOM     47  N   UNL A   1      42.306  28.114  31.437  1.00  0.00    -0.248 NA
ATOM     48  C   UNL A   1      43.728  26.590  30.381  1.00  0.00     0.031 C 
ATOM     49  C   UNL A   1      40.067  28.607  27.591  1.00  0.00     0.029 A 
ATOM     50  N   UNL A   1      40.194  29.226  29.736  1.00  0.00    -0.354 N 
ATOM     51  C   UNL A   1      43.270  27.677  32.336  1.00  0.00     0.074 A 
ATOM     52  C   UNL A   1      44.097  26.713  31.646  1.00  0.00     0.031 C 
ATOM     53  C   UNL A   1      39.074  29.486  27.822  1.00  0.00     0.029 A 
ATOM     54  C   UNL A   1      39.109  29.898  29.226  1.00  0.00     0.049 A 
ATOM     55  H   UNL A   1      40.496  29.324  30.669  1.00  0.00     0.167 HD
ATOM     56  C   UNL A   1      43.466  28.055  33.620  1.00  0.00     0.037 A 
ATOM     57  C   UNL A   1      38.242  30.735  29.831  1.00  0.00     0.037 A 
ATOM     58  C   UNL A   1      42.634  28.989  34.325  1.00  0.00     0.049 A 
ATOM     59  C   UNL A   1      38.428  31.073  31.291  1.00  0.00     0.074 A 
ATOM     60  C   UNL A   1      42.743  29.423  35.633  1.00  0.00     0.029 A 
ATOM     61  N   UNL A   1      41.528  29.621  33.781  1.00  0.00    -0.354 N 
ATOM     62  N   UNL A   1      39.368  30.686  32.120  1.00  0.00    -0.248 NA
ATOM     63  C   UNL A   1      37.433  31.972  31.896  1.00  0.00     0.031 C 
ATOM     64  C   UNL A   1      41.677  30.291  35.893  1.00  0.00     0.029 A 
ATOM     65  C   UNL A   1      40.934  30.432  34.732  1.00  0.00     0.049 A 
ATOM     66  H   UNL A   1      41.211  29.511  32.855  1.00  0.00     0.167 HD
ATOM     67  C   UNL A   1      39.096  31.319  33.329  1.00  0.00     0.074 A 
ATOM     68  C   UNL A   1      37.912  32.125  33.123  1.00  0.00     0.031 C 
ATOM     69  C   UNL A   1      39.765  31.242  34.506  1.00  0.00     0.037 A 
BRANCH  56  70
ATOM     70  C   UNL A   1      44.625  27.435  34.340  1.00  0.00     0.057 A 
ATOM     71  C   UNL A   1      45.874  28.068  34.400  1.00  0.00     0.134 A 
ATOM     72  C   UNL A   1      44.494  26.197  34.979  1.00  0.00     0.134 A 
ATOM     73  F   UNL A   1      46.071  29.244  33.785  1.00  0.00    -0.206 F 
ATOM     74  C   UNL A   1      46.958  27.480  35.053  1.00  0.00     0.040 A 
ATOM     75  C   UNL A   1      45.563  25.611  35.656  1.00  0.00     0.040 A 
ATOM     76  F   UNL A   1      43.325  25.539  34.953  1.00  0.00    -0.206 F 
ATOM     77  C   UNL A   1      46.801  26.250  35.689  1.00  0.00     0.006 A 
ENDBRANCH  56  70
BRANCH  57  78
ATOM     78  C   UNL A   1      37.101  31.317  29.076  1.00  0.00     0.057 A 
ATOM     79  C   UNL A   1      37.125  32.643  28.626  1.00  0.00     0.134 A 
ATOM     80  C   UNL A   1      35.931  30.583  28.846  1.00  0.00     0.134 A 
ATOM     81  F   UNL A   1      38.206  33.409  28.842  1.00  0.00    -0.206 F 
ATOM     82  C   UNL A   1      36.022  33.226  28.000  1.00  0.00     0.040 A 
ATOM     83  C   UNL A   1      34.829  31.145  28.198  1.00  0.00     0.040 A 
ATOM     84  F   UNL A   1      35.838  29.310  29.257  1.00  0.00    -0.206 F 
ATOM     85  C   UNL A   1      34.869  32.474  27.783  1.00  0.00     0.006 A 
ENDBRANCH  57  78
BRANCH  69  86
ATOM     86  C   UNL A   1      39.268  32.082  35.646  1.00  0.00     0.057 A 
ATOM     87  C   UNL A   1      38.411  31.568  36.629  1.00  0.00     0.134 A 
ATOM     88  C   UNL A   1      39.690  33.411  35.788  1.00  0.00     0.134 A 
ATOM     89  F   UNL A   1      37.963  30.307  36.548  1.00  0.00    -0.206 F 
ATOM     90  C   UNL A   1      37.975  32.353  37.697  1.00  0.00     0.040 A 
ATOM     91  C   UNL A   1      39.281  34.197  36.866  1.00  0.00     0.040 A 
ATOM     92  F   UNL A   1      40.520  33.961  34.888  1.00  0.00    -0.206 F 
ATOM     93  C   UNL A   1      38.416  33.669  37.822  1.00  0.00     0.006 A 
ENDBRANCH  69  86
ENDBRANCH  43  44
ENDBRANCH  36  38
ENDBRANCH  35  36
ENDBRANCH  34  35
ENDBRANCH  33  34
ENDBRANCH  32  33
ENDBRANCH  31  32
ENDBRANCH  30  31
ENDBRANCH  29  30
ENDBRANCH   1  29
TORSDOF 25
ENDMDL
MODEL 2
REMARK VINA RESULT:     -10.2      3.655      5.505
REMARK SMILES O=C(OCCOCCOCCOCCOC(=O)c1ccc(-c2c3nc(c(-c4c(F)cccc4F)c4ccc([nH]4)c(-c4c(F)cccc4F)c4nc(c(-c5c(F)cccc5F)c5ccc2[nH]5)C=C4)C=C3)cc1)c1ccc(N[C@H]2OC[C@@H](O)[C@@H](O)[C@H]2O)cc1
REMARK SMILES IDX 8 1 7 2 6 3 5 4 4 5 3 6 2 7 1 8 72 9 73 10 87 11 74 12 86 13
REMARK SMILES IDX 75 14 76 15 77 17 78 18 84 19 79 20 82 21 80 22 85 23 83 25
REMARK SMILES IDX 81 27 9 29 10 30 11 31 12 32 13 33 14 34 15 35 16 36 17 37
REMARK SMILES IDX 18 38 19 39 71 40 20 41 70 42 21 43 22 44 23 45 64 46 24 47
REMARK SMILES IDX 69 48 63 49 65 50 25 51 68 52 62 53 61 54 26 56 52 57 35 58
REMARK SMILES IDX 51 59 36 60 39 61 50 62 66 63 37 64 38 65 49 67 67 68 40 69
REMARK SMILES IDX 27 70 28 71 33 72 29 73 30 74 32 75 34 76 31 77 53 78 54 79
REMARK SMILES IDX 59 80 55 81 56 82 58 83 60 84 57 85 41 86 42 87 47 88 43 89
REMARK SMILES IDX 44 90 46 91 48 92 45 93
REMARK H PARENT 76 16 85 24 83 26 81 28 65 55 39 66
REMARK Flexibility Score: inf
ROOT
ATOM      1  C   UNL A   1      34.367  24.535  23.378  1.00  0.00     0.188 C 
ENDROOT
BRANCH   1   2
ATOM      2  C   UNL A   1      33.478  25.779  23.379  1.00  0.00     0.188 C 
BRANCH   2   3
ATOM      3  O   UNL A   1      33.094  26.100  24.720  1.00  0.00    -0.376 OA
BRANCH   3   4
ATOM      4  C   UNL A   1      32.199  27.199  24.863  1.00  0.00     0.202 C 
BRANCH   4   5
ATOM      5  C   UNL A   1      30.763  26.811  25.204  1.00  0.00     0.261 C 
BRANCH   5   6
ATOM      6  O   UNL A   1      30.675  26.054  26.417  1.00  0.00    -0.460 OA
BRANCH   6   7
ATOM      7  C   UNL A   1      30.311  24.753  26.523  1.00  0.00     0.338 C 
ATOM      8  O   UNL A   1      29.166  24.478  26.878  1.00  0.00    -0.246 OA
BRANCH   7   9
ATOM      9  C   UNL A   1      31.207  23.626  26.138  1.00  0.00     0.060 A 
ATOM     10  C   UNL A   1      31.248  23.016  24.883  1.00  0.00     0.018 A 
ATOM     11  C   UNL A   1      32.190  23.273  27.066  1.00  0.00     0.018 A 
ATOM     12  C   UNL A   1      32.208  22.040  24.580  1.00  0.00     0.026 A 
ATOM     13  C   UNL A   1      33.160  22.315  26.749  1.00  0.00     0.026 A 
ATOM     14  C   UNL A   1      33.173  21.664  25.509  1.00  0.00     0.036 A 
BRANCH  14  15
ATOM     15  N   UNL A   1      34.177  20.753  25.247  1.00  0.00    -0.358 N 
ATOM     16  H   UNL A   1      35.091  20.992  25.521  1.00  0.00     0.163 HD
BRANCH  15  17
ATOM     17  C   UNL A   1      33.985  19.464  24.597  1.00  0.00     0.244 C 
ATOM     18  O   UNL A   1      35.131  18.639  24.825  1.00  0.00    -0.353 OA
ATOM     19  C   UNL A   1      32.762  18.793  25.264  1.00  0.00     0.195 C 
ATOM     20  C   UNL A   1      35.017  17.346  24.211  1.00  0.00     0.197 C 
ATOM     21  C   UNL A   1      32.555  17.397  24.674  1.00  0.00     0.178 C 
ATOM     22  C   UNL A   1      33.836  16.557  24.784  1.00  0.00     0.171 C 
BRANCH  19  23
ATOM     23  O   UNL A   1      32.997  18.677  26.693  1.00  0.00    -0.386 OA
ATOM     24  H   UNL A   1      33.813  19.149  26.925  1.00  0.00     0.211 HD
ENDBRANCH  19  23
BRANCH  21  25
ATOM     25  O   UNL A   1      31.472  16.749  25.343  1.00  0.00    -0.387 OA
ATOM     26  H   UNL A   1      31.080  16.084  24.757  1.00  0.00     0.211 HD
ENDBRANCH  21  25
BRANCH  22  27
ATOM     27  O   UNL A   1      34.102  16.220  26.154  1.00  0.00    -0.388 OA
ATOM     28  H   UNL A   1      33.443  16.645  26.725  1.00  0.00     0.211 HD
ENDBRANCH  22  27
ENDBRANCH  15  17
ENDBRANCH  14  15
ENDBRANCH   7   9
ENDBRANCH   6   7
ENDBRANCH   5   6
ENDBRANCH   4   5
ENDBRANCH   3   4
ENDBRANCH   2   3
ENDBRANCH   1   2
BRANCH   1  29
ATOM     29  O   UNL A   1      35.106  24.325  24.581  1.00  0.00    -0.377 OA
BRANCH  29  30
ATOM     30  C   UNL A   1      36.370  23.687  24.446  1.00  0.00     0.188 C 
BRANCH  30  31
ATOM     31  C   UNL A   1      37.017  23.047  25.694  1.00  0.00     0.188 C 
BRANCH  31  32
ATOM     32  O   UNL A   1      36.948  21.629  25.756  1.00  0.00    -0.376 OA
BRANCH  32  33
ATOM     33  C   UNL A   1      37.983  20.937  25.060  1.00  0.00     0.202 C 
BRANCH  33  34
ATOM     34  C   UNL A   1      39.306  20.831  25.831  1.00  0.00     0.261 C 
BRANCH  34  35
ATOM     35  O   UNL A   1      39.943  19.544  25.757  1.00  0.00    -0.460 OA
BRANCH  35  36
ATOM     36  C   UNL A   1      41.255  19.466  26.069  1.00  0.00     0.338 C 
ATOM     37  O   UNL A   1      42.019  18.551  25.816  1.00  0.00    -0.246 OA
BRANCH  36  38
ATOM     38  C   UNL A   1      41.675  20.805  26.548  1.00  0.00     0.060 A 
ATOM     39  C   UNL A   1      41.583  21.079  27.920  1.00  0.00     0.016 A 
ATOM     40  C   UNL A   1      42.276  21.731  25.687  1.00  0.00     0.016 A 
ATOM     41  C   UNL A   1      42.070  22.287  28.428  1.00  0.00     0.010 A 
ATOM     42  C   UNL A   1      42.748  22.946  26.193  1.00  0.00     0.010 A 
ATOM     43  C   UNL A   1      42.619  23.242  27.561  1.00  0.00    -0.014 A 
BRANCH  43  44
ATOM     44  C   UNL A   1      42.795  24.638  28.033  1.00  0.00     0.031 A 
ATOM     45  C   UNL A   1      44.196  25.082  28.353  1.00  0.00     0.074 A 
ATOM     46  C   UNL A   1      41.770  25.501  28.151  1.00  0.00     0.049 A 
ATOM     47  N   UNL A   1      44.630  26.244  28.769  1.00  0.00    -0.248 NA
ATOM     48  C   UNL A   1      45.254  24.071  28.177  1.00  0.00     0.031 C 
ATOM     49  C   UNL A   1      40.370  25.212  27.855  1.00  0.00     0.029 A 
ATOM     50  N   UNL A   1      41.762  26.812  28.564  1.00  0.00    -0.354 N 
ATOM     51  C   UNL A   1      46.007  26.106  28.888  1.00  0.00     0.074 A 
ATOM     52  C   UNL A   1      46.333  24.740  28.547  1.00  0.00     0.031 C 
ATOM     53  C   UNL A   1      39.635  26.312  28.106  1.00  0.00     0.029 A 
ATOM     54  C   UNL A   1      40.510  27.377  28.596  1.00  0.00     0.049 A 
ATOM     55  H   UNL A   1      42.579  27.303  28.814  1.00  0.00     0.167 HD
ATOM     56  C   UNL A   1      46.926  27.037  29.232  1.00  0.00     0.037 A 
ATOM     57  C   UNL A   1      40.121  28.608  28.988  1.00  0.00     0.037 A 
ATOM     58  C   UNL A   1      46.611  28.388  29.601  1.00  0.00     0.049 A 
ATOM     59  C   UNL A   1      41.157  29.603  29.455  1.00  0.00     0.074 A 
ATOM     60  C   UNL A   1      47.472  29.401  29.981  1.00  0.00     0.029 A 
ATOM     61  N   UNL A   1      45.328  28.909  29.650  1.00  0.00    -0.354 N 
ATOM     62  N   UNL A   1      42.460  29.475  29.524  1.00  0.00    -0.248 NA
ATOM     63  C   UNL A   1      40.664  30.917  29.895  1.00  0.00     0.031 C 
ATOM     64  C   UNL A   1      46.705  30.527  30.299  1.00  0.00     0.029 A 
ATOM     65  C   UNL A   1      45.372  30.228  30.069  1.00  0.00     0.049 A 
ATOM     66  H   UNL A   1      44.507  28.416  29.420  1.00  0.00     0.167 HD
ATOM     67  C   UNL A   1      42.942  30.699  29.978  1.00  0.00     0.074 A 
ATOM     68  C   UNL A   1      41.793  31.560  30.157  1.00  0.00     0.031 C 
ATOM     69  C   UNL A   1      44.220  31.077  30.226  1.00  0.00     0.037 A 
BRANCH  56  70
ATOM     70  C   UNL A   1      48.361  26.604  29.236  1.00  0.00     0.057 A 
ATOM     71  C   UNL A   1      49.169  26.732  28.098  1.00  0.00     0.134 A 
ATOM     72  C   UNL A   1      48.941  26.054  30.385  1.00  0.00     0.134 A 
ATOM     73  F   UNL A   1      48.664  27.228  26.958  1.00  0.00    -0.206 F 
ATOM     74  C   UNL A   1      50.498  26.310  28.097  1.00  0.00     0.040 A 
ATOM     75  C   UNL A   1      50.276  25.651  30.404  1.00  0.00     0.040 A 
ATOM     76  F   UNL A   1      48.219  25.900  31.505  1.00  0.00    -0.206 F 
ATOM     77  C   UNL A   1      51.057  25.773  29.255  1.00  0.00     0.006 A 
ENDBRANCH  56  70
BRANCH  57  78
ATOM     78  C   UNL A   1      38.684  28.987  28.976  1.00  0.00     0.057 A 
ATOM     79  C   UNL A   1      38.088  29.548  27.840  1.00  0.00     0.134 A 
ATOM     80  C   UNL A   1      37.888  28.861  30.122  1.00  0.00     0.134 A 
ATOM     81  F   UNL A   1      38.804  29.723  26.719  1.00  0.00    -0.206 F 
ATOM     82  C   UNL A   1      36.764  29.993  27.849  1.00  0.00     0.040 A 
ATOM     83  C   UNL A   1      36.556  29.278  30.138  1.00  0.00     0.040 A 
ATOM     84  F   UNL A   1      38.398  28.338  31.246  1.00  0.00    -0.206 F 
ATOM     85  C   UNL A   1      35.994  29.857  29.002  1.00  0.00     0.006 A 
ENDBRANCH  57  78
BRANCH  69  86
ATOM     86  C   UNL A   1      44.453  32.493  30.669  1.00  0.00     0.057 A 
ATOM     87  C   UNL A   1      44.625  33.539  29.753  1.00  0.00     0.134 A 
ATOM     88  C   UNL A   1      44.459  32.820  32.032  1.00  0.00     0.134 A 
ATOM     89  F   UNL A   1      44.639  33.292  28.435  1.00  0.00    -0.206 F 
ATOM     90  C   UNL A   1      44.817  34.854  30.177  1.00  0.00     0.040 A 
ATOM     91  C   UNL A   1      44.623  34.136  32.467  1.00  0.00     0.040 A 
ATOM     92  F   UNL A   1      44.287  31.868  32.962  1.00  0.00    -0.206 F 
ATOM     93  C   UNL A   1      44.809  35.157  31.538  1.00  0.00     0.006 A 
ENDBRANCH  69  86
ENDBRANCH  43  44
ENDBRANCH  36  38
ENDBRANCH  35  36
ENDBRANCH  34  35
ENDBRANCH  33  34
ENDBRANCH  32  33
ENDBRANCH  31  32
ENDBRANCH  30  31
ENDBRANCH  29  30
ENDBRANCH   1  29
TORSDOF 25
ENDMDL
MODEL 3
REMARK VINA RESULT:     -10.1      2.042      7.239
REMARK SMILES O=C(OCCOCCOCCOCCOC(=O)c1ccc(-c2c3nc(c(-c4c(F)cccc4F)c4ccc([nH]4)c(-c4c(F)cccc4F)c4nc(c(-c5c(F)cccc5F)c5ccc2[nH]5)C=C4)C=C3)cc1)c1ccc(N[C@H]2OC[C@@H](O)[C@@H](O)[C@H]2O)cc1
REMARK SMILES IDX 8 1 7 2 6 3 5 4 4 5 3 6 2 7 1 8 72 9 73 10 87 11 74 12 86 13
REMARK SMILES IDX 75 14 76 15 77 17 78 18 84 19 79 20 82 21 80 22 85 23 83 25
REMARK SMILES IDX 81 27 9 29 10 30 11 31 12 32 13 33 14 34 15 35 16 36 17 37
REMARK SMILES IDX 18 38 19 39 71 40 20 41 70 42 21 43 22 44 23 45 64 46 24 47
REMARK SMILES IDX 69 48 63 49 65 50 25 51 68 52 62 53 61 54 26 56 52 57 35 58
REMARK SMILES IDX 51 59 36 60 39 61 50 62 66 63 37 64 38 65 49 67 67 68 40 69
REMARK SMILES IDX 27 70 28 71 33 72 29 73 30 74 32 75 34 76 31 77 53 78 54 79
REMARK SMILES IDX 59 80 55 81 56 82 58 83 60 84 57 85 41 86 42 87 47 88 43 89
REMARK SMILES IDX 44 90 46 91 48 92 45 93
REMARK H PARENT 76 16 85 24 83 26 81 28 65 55 39 66
REMARK Flexibility Score: inf
ROOT
ATOM      1  C   UNL A   1      41.197  19.988  26.120  1.00  0.00     0.188 C 
ENDROOT
BRANCH   1   2
ATOM      2  C   UNL A   1      40.398  20.998  26.944  1.00  0.00     0.188 C 
BRANCH   2   3
ATOM      3  O   UNL A   1      40.051  22.123  26.131  1.00  0.00    -0.376 OA
BRANCH   3   4
ATOM      4  C   UNL A   1      38.667  22.459  26.095  1.00  0.00     0.202 C 
BRANCH   4   5
ATOM      5  C   UNL A   1      37.786  21.449  25.365  1.00  0.00     0.261 C 
BRANCH   5   6
ATOM      6  O   UNL A   1      36.415  21.521  25.775  1.00  0.00    -0.460 OA
BRANCH   6   7
ATOM      7  C   UNL A   1      35.333  21.264  25.001  1.00  0.00     0.338 C 
ATOM      8  O   UNL A   1      34.973  20.099  24.843  1.00  0.00    -0.246 OA
BRANCH   7   9
ATOM      9  C   UNL A   1      34.492  22.338  24.401  1.00  0.00     0.060 A 
ATOM     10  C   UNL A   1      34.941  23.325  23.523  1.00  0.00     0.018 A 
ATOM     11  C   UNL A   1      33.115  22.234  24.615  1.00  0.00     0.018 A 
ATOM     12  C   UNL A   1      34.048  24.222  22.919  1.00  0.00     0.026 A 
ATOM     13  C   UNL A   1      32.226  23.117  23.990  1.00  0.00     0.026 A 
ATOM     14  C   UNL A   1      32.679  24.142  23.149  1.00  0.00     0.036 A 
BRANCH  14  15
ATOM     15  N   UNL A   1      31.749  24.959  22.538  1.00  0.00    -0.358 N 
ATOM     16  H   UNL A   1      31.433  24.699  21.643  1.00  0.00     0.163 HD
BRANCH  15  17
ATOM     17  C   UNL A   1      31.199  26.176  23.116  1.00  0.00     0.244 C 
ATOM     18  O   UNL A   1      31.989  26.571  24.241  1.00  0.00    -0.353 OA
ATOM     19  C   UNL A   1      31.300  27.281  22.039  1.00  0.00     0.195 C 
ATOM     20  C   UNL A   1      31.507  27.768  24.869  1.00  0.00     0.197 C 
ATOM     21  C   UNL A   1      30.805  28.609  22.616  1.00  0.00     0.178 C 
ATOM     22  C   UNL A   1      31.554  28.961  23.910  1.00  0.00     0.171 C 
BRANCH  19  23
ATOM     23  O   UNL A   1      32.685  27.426  21.628  1.00  0.00    -0.386 OA
ATOM     24  H   UNL A   1      32.724  27.913  20.789  1.00  0.00     0.211 HD
ENDBRANCH  19  23
BRANCH  21  25
ATOM     25  O   UNL A   1      30.969  29.644  21.644  1.00  0.00    -0.387 OA
ATOM     26  H   UNL A   1      31.557  29.335  20.938  1.00  0.00     0.211 HD
ENDBRANCH  21  25
BRANCH  22  27
ATOM     27  O   UNL A   1      32.920  29.297  23.626  1.00  0.00    -0.388 OA
ATOM     28  H   UNL A   1      33.130  29.054  22.711  1.00  0.00     0.211 HD
ENDBRANCH  22  27
ENDBRANCH  15  17
ENDBRANCH  14  15
ENDBRANCH   7   9
ENDBRANCH   6   7
ENDBRANCH   5   6
ENDBRANCH   4   5
ENDBRANCH   3   4
ENDBRANCH   2   3
ENDBRANCH   1   2
BRANCH   1  29
ATOM     29  O   UNL A   1      42.615  20.125  26.216  1.00  0.00    -0.377 OA
BRANCH  29  30
ATOM     30  C   UNL A   1      43.394  19.121  25.576  1.00  0.00     0.188 C 
BRANCH  30  31
ATOM     31  C   UNL A   1      44.649  19.547  24.782  1.00  0.00     0.188 C 
BRANCH  31  32
ATOM     32  O   UNL A   1      44.737  20.933  24.480  1.00  0.00    -0.376 OA
BRANCH  32  33
ATOM     33  C   UNL A   1      45.788  21.635  25.141  1.00  0.00     0.202 C 
BRANCH  33  34
ATOM     34  C   UNL A   1      45.317  22.598  26.240  1.00  0.00     0.261 C 
BRANCH  34  35
ATOM     35  O   UNL A   1      44.993  23.922  25.781  1.00  0.00    -0.460 OA
BRANCH  35  36
ATOM     36  C   UNL A   1      43.705  24.190  25.473  1.00  0.00     0.338 C 
ATOM     37  O   UNL A   1      43.031  23.664  24.605  1.00  0.00    -0.246 OA
BRANCH  36  38
ATOM     38  C   UNL A   1      43.166  25.058  26.548  1.00  0.00     0.060 A 
ATOM     39  C   UNL A   1      43.613  26.385  26.617  1.00  0.00     0.016 A 
ATOM     40  C   UNL A   1      42.138  24.619  27.392  1.00  0.00     0.016 A 
ATOM     41  C   UNL A   1      43.049  27.267  27.544  1.00  0.00     0.010 A 
ATOM     42  C   UNL A   1      41.587  25.496  28.330  1.00  0.00     0.010 A 
ATOM     43  C   UNL A   1      42.062  26.816  28.431  1.00  0.00    -0.014 A 
BRANCH  43  44
ATOM     44  C   UNL A   1      41.734  27.627  29.629  1.00  0.00     0.031 A 
ATOM     45  C   UNL A   1      40.567  28.571  29.520  1.00  0.00     0.074 A 
ATOM     46  C   UNL A   1      42.413  27.525  30.787  1.00  0.00     0.049 A 
ATOM     47  N   UNL A   1      40.061  29.381  30.414  1.00  0.00    -0.248 NA
ATOM     48  C   UNL A   1      39.876  28.600  28.219  1.00  0.00     0.031 C 
ATOM     49  C   UNL A   1      43.546  26.640  31.037  1.00  0.00     0.029 A 
ATOM     50  N   UNL A   1      42.237  28.193  31.975  1.00  0.00    -0.354 N 
ATOM     51  C   UNL A   1      38.987  30.000  29.788  1.00  0.00     0.074 A 
ATOM     52  C   UNL A   1      38.940  29.511  28.428  1.00  0.00     0.031 C 
ATOM     53  C   UNL A   1      43.972  26.826  32.302  1.00  0.00     0.029 A 
ATOM     54  C   UNL A   1      43.153  27.855  32.943  1.00  0.00     0.049 A 
ATOM     55  H   UNL A   1      41.521  28.852  32.122  1.00  0.00     0.167 HD
ATOM     56  C   UNL A   1      38.102  30.886  30.300  1.00  0.00     0.037 A 
ATOM     57  C   UNL A   1      43.314  28.334  34.193  1.00  0.00     0.037 A 
ATOM     58  C   UNL A   1      38.156  31.402  31.639  1.00  0.00     0.049 A 
ATOM     59  C   UNL A   1      42.368  29.390  34.714  1.00  0.00     0.074 A 
ATOM     60  C   UNL A   1      37.314  32.315  32.246  1.00  0.00     0.029 A 
ATOM     61  N   UNL A   1      39.118  31.057  32.575  1.00  0.00    -0.354 N 
ATOM     62  N   UNL A   1      41.331  29.938  34.127  1.00  0.00    -0.248 NA
ATOM     63  C   UNL A   1      42.614  29.888  36.076  1.00  0.00     0.031 C 
ATOM     64  C   UNL A   1      37.790  32.553  33.539  1.00  0.00     0.029 A 
ATOM     65  C   UNL A   1      38.899  31.752  33.752  1.00  0.00     0.049 A 
ATOM     66  H   UNL A   1      39.847  30.413  32.426  1.00  0.00     0.167 HD
ATOM     67  C   UNL A   1      40.784  30.816  35.059  1.00  0.00     0.074 A 
ATOM     68  C   UNL A   1      41.596  30.718  36.252  1.00  0.00     0.031 C 
ATOM     69  C   UNL A   1      39.707  31.631  34.938  1.00  0.00     0.037 A 
BRANCH  56  70
ATOM     70  C   UNL A   1      37.010  31.359  29.389  1.00  0.00     0.057 A 
ATOM     71  C   UNL A   1      37.060  32.618  28.776  1.00  0.00     0.134 A 
ATOM     72  C   UNL A   1      35.900  30.550  29.121  1.00  0.00     0.134 A 
ATOM     73  F   UNL A   1      38.086  33.450  29.014  1.00  0.00    -0.206 F 
ATOM     74  C   UNL A   1      36.032  33.065  27.944  1.00  0.00     0.040 A 
ATOM     75  C   UNL A   1      34.879  30.976  28.272  1.00  0.00     0.040 A 
ATOM     76  F   UNL A   1      35.791  29.336  29.681  1.00  0.00    -0.206 F 
ATOM     77  C   UNL A   1      34.941  32.239  27.686  1.00  0.00     0.006 A 
ENDBRANCH  56  70
BRANCH  57  78
ATOM     78  C   UNL A   1      44.419  27.840  35.056  1.00  0.00     0.057 A 
ATOM     79  C   UNL A   1      44.253  26.724  35.886  1.00  0.00     0.134 A 
ATOM     80  C   UNL A   1      45.646  28.513  35.124  1.00  0.00     0.134 A 
ATOM     81  F   UNL A   1      43.091  26.054  35.890  1.00  0.00    -0.206 F 
ATOM     82  C   UNL A   1      45.253  26.311  36.769  1.00  0.00     0.040 A 
ATOM     83  C   UNL A   1      46.664  28.095  35.982  1.00  0.00     0.040 A 
ATOM     84  F   UNL A   1      45.868  29.592  34.360  1.00  0.00    -0.206 F 
ATOM     85  C   UNL A   1      46.465  26.997  36.816  1.00  0.00     0.006 A 
ENDBRANCH  57  78
BRANCH  69  86
ATOM     86  C   UNL A   1      39.312  32.443  36.136  1.00  0.00     0.057 A 
ATOM     87  C   UNL A   1      39.846  33.715  36.380  1.00  0.00     0.134 A 
ATOM     88  C   UNL A   1      38.347  31.965  37.033  1.00  0.00     0.134 A 
ATOM     89  F   UNL A   1      40.780  34.227  35.565  1.00  0.00    -0.206 F 
ATOM     90  C   UNL A   1      39.453  34.471  37.486  1.00  0.00     0.040 A 
ATOM     91  C   UNL A   1      37.926  32.723  38.126  1.00  0.00     0.040 A 
ATOM     92  F   UNL A   1      37.786  30.760  36.851  1.00  0.00    -0.206 F 
ATOM     93  C   UNL A   1      38.484  33.978  38.358  1.00  0.00     0.006 A 
ENDBRANCH  69  86
ENDBRANCH  43  44
ENDBRANCH  36  38
ENDBRANCH  35  36
ENDBRANCH  34  35
ENDBRANCH  33  34
ENDBRANCH  32  33
ENDBRANCH  31  32
ENDBRANCH  30  31
ENDBRANCH  29  30
ENDBRANCH   1  29
TORSDOF 25
ENDMDL
