MODEL 1
REMARK VINA RESULT:     -10.4      0.000      0.000
REMARK SMILES Cc1cnn(C2(C(=O)OCCOCCOCCOCCOC(=O)c3ccc(-c4c5nc(c(-c6c(F)cccc6F)c6ccc([nH]6)c(-c6c(F)cccc6F)c6nc(c(-c7c(F)cccc7F)c7ccc4[nH]7)C=C6)C=C5)cc3)CCN(C(=O)c3cc4ccccc4[nH]3)CC2)c1
REMARK SMILES IDX 16 1 15 2 14 3 13 4 12 5 11 6 10 7 9 8 7 9 8 10 6 11 78 12
REMARK SMILES IDX 93 13 79 14 92 15 80 16 81 17 82 18 5 19 1 20 2 21 3 22
REMARK SMILES IDX 94 23 4 24 83 25 84 26 91 27 85 28 90 29 86 31 89 32 87 33
REMARK SMILES IDX 88 34 17 35 18 36 19 37 20 38 21 39 22 40 23 41 24 42 25 43
REMARK SMILES IDX 77 44 26 45 76 46 27 47 28 48 29 49 70 50 30 51 75 52 69 53
REMARK SMILES IDX 71 54 31 55 74 56 68 57 67 58 32 60 58 61 41 62 57 63 42 64
REMARK SMILES IDX 45 65 56 66 72 67 43 68 44 69 55 71 73 72 46 73 33 74 34 75
REMARK SMILES IDX 39 76 35 77 36 78 38 79 40 80 37 81 59 82 60 83 65 84 61 85
REMARK SMILES IDX 62 86 64 87 66 88 63 89 47 90 48 91 53 92 49 93 50 94 52 95
REMARK SMILES IDX 54 96 51 97
REMARK H PARENT 91 30 71 59 45 70
REMARK Flexibility Score: inf
ROOT
ATOM      1  C   UNL A   1      33.618  21.412  25.863  1.00  0.00     0.188 C 
ENDROOT
BRANCH   1   2
ATOM      2  O   UNL A   1      32.632  22.439  25.834  1.00  0.00    -0.377 OA
BRANCH   2   3
ATOM      3  C   UNL A   1      31.921  22.674  27.038  1.00  0.00     0.188 C 
BRANCH   3   4
ATOM      4  C   UNL A   1      30.403  22.857  26.881  1.00  0.00     0.188 C 
BRANCH   4   5
ATOM      5  O   UNL A   1      29.860  24.170  26.850  1.00  0.00    -0.376 OA
BRANCH   5   6
ATOM      6  C   UNL A   1      30.182  25.032  25.765  1.00  0.00     0.202 C 
BRANCH   6   7
ATOM      7  C   UNL A   1      31.303  26.075  25.891  1.00  0.00     0.261 C 
BRANCH   7   8
ATOM      8  O   UNL A   1      30.852  27.437  26.031  1.00  0.00    -0.461 OA
BRANCH   8   9
ATOM      9  C   UNL A   1      31.445  28.188  26.999  1.00  0.00     0.334 C 
ATOM     10  O   UNL A   1      31.439  27.867  28.187  1.00  0.00    -0.249 OA
BRANCH   9  11
ATOM     11  C   UNL A   1      32.033  29.533  26.481  1.00  0.00     0.163 C 
ATOM     12  C   UNL A   1      31.098  30.745  26.728  1.00  0.00     0.064 C 
ATOM     13  C   UNL A   1      33.267  29.695  27.396  1.00  0.00     0.064 C 
ATOM     14  C   UNL A   1      31.780  32.093  26.609  1.00  0.00     0.123 C 
ATOM     15  C   UNL A   1      33.937  31.051  27.338  1.00  0.00     0.123 C 
ATOM     16  N   UNL A   1      32.991  32.166  27.406  1.00  0.00    -0.337 N 
ATOM     17  C   UNL A   1      33.270  33.368  28.057  1.00  0.00     0.270 C 
ATOM     18  O   UNL A   1      32.440  34.261  28.193  1.00  0.00    -0.267 OA
BRANCH  11  19
ATOM     19  N   UNL A   1      32.447  29.389  25.065  1.00  0.00    -0.255 N 
ATOM     20  C   UNL A   1      34.136  27.690  22.309  1.00  0.00     0.048 C 
ATOM     21  C   UNL A   1      33.319  28.513  23.228  1.00  0.00    -0.013 A 
ATOM     22  C   UNL A   1      32.109  29.182  22.976  1.00  0.00     0.138 A 
ATOM     23  C   UNL A   1      33.570  28.784  24.555  1.00  0.00     0.113 A 
ATOM     24  N   UNL A   1      31.628  29.781  24.065  1.00  0.00    -0.180 NA
ENDBRANCH  11  19
BRANCH  17  25
ATOM     25  C   UNL A   1      34.592  33.477  28.610  1.00  0.00     0.105 A 
ATOM     26  C   UNL A   1      35.811  33.590  27.968  1.00  0.00     0.042 A 
ATOM     27  N   UNL A   1      34.839  33.421  29.957  1.00  0.00    -0.351 N 
ATOM     28  C   UNL A   1      36.827  33.498  28.954  1.00  0.00     0.000 A 
ATOM     29  C   UNL A   1      36.191  33.356  30.188  1.00  0.00     0.046 A 
ATOM     30  H   UNL A   1      34.147  33.429  30.657  1.00  0.00     0.167 HD
ATOM     31  C   UNL A   1      38.232  33.500  28.910  1.00  0.00     0.010 A 
ATOM     32  C   UNL A   1      36.890  33.184  31.384  1.00  0.00     0.026 A 
ATOM     33  C   UNL A   1      38.949  33.349  30.101  1.00  0.00     0.001 A 
ATOM     34  C   UNL A   1      38.286  33.186  31.316  1.00  0.00     0.002 A 
ENDBRANCH  17  25
ENDBRANCH   9  11
ENDBRANCH   8   9
ENDBRANCH   7   8
ENDBRANCH   6   7
ENDBRANCH   5   6
ENDBRANCH   4   5
ENDBRANCH   3   4
ENDBRANCH   2   3
ENDBRANCH   1   2
BRANCH   1  35
ATOM     35  C   UNL A   1      35.117  21.792  25.958  1.00  0.00     0.188 C 
BRANCH  35  36
ATOM     36  O   UNL A   1      35.767  22.056  24.717  1.00  0.00    -0.376 OA
BRANCH  36  37
ATOM     37  C   UNL A   1      37.129  21.713  24.502  1.00  0.00     0.202 C 
BRANCH  37  38
ATOM     38  C   UNL A   1      37.892  21.056  25.656  1.00  0.00     0.261 C 
BRANCH  38  39
ATOM     39  O   UNL A   1      39.222  21.522  25.802  1.00  0.00    -0.460 OA
BRANCH  39  40
ATOM     40  C   UNL A   1      40.167  20.565  25.848  1.00  0.00     0.338 C 
ATOM     41  O   UNL A   1      40.040  19.381  25.606  1.00  0.00    -0.246 OA
BRANCH  40  42
ATOM     42  C   UNL A   1      41.410  21.168  26.339  1.00  0.00     0.060 A 
ATOM     43  C   UNL A   1      41.693  20.899  27.676  1.00  0.00     0.016 A 
ATOM     44  C   UNL A   1      41.933  22.275  25.651  1.00  0.00     0.016 A 
ATOM     45  C   UNL A   1      42.164  21.941  28.424  1.00  0.00     0.010 A 
ATOM     46  C   UNL A   1      42.400  23.317  26.400  1.00  0.00     0.010 A 
ATOM     47  C   UNL A   1      42.367  23.166  27.781  1.00  0.00    -0.014 A 
BRANCH  47  48
ATOM     48  C   UNL A   1      42.484  24.326  28.621  1.00  0.00     0.031 A 
ATOM     49  C   UNL A   1      41.433  25.318  28.372  1.00  0.00     0.074 A 
ATOM     50  C   UNL A   1      43.447  24.426  29.551  1.00  0.00     0.049 A 
ATOM     51  N   UNL A   1      41.556  26.472  27.811  1.00  0.00    -0.248 NA
ATOM     52  C   UNL A   1      40.047  24.887  28.605  1.00  0.00     0.031 C 
ATOM     53  C   UNL A   1      44.357  23.394  30.058  1.00  0.00     0.029 A 
ATOM     54  N   UNL A   1      43.748  25.503  30.315  1.00  0.00    -0.354 N 
ATOM     55  C   UNL A   1      40.275  27.006  27.809  1.00  0.00     0.074 A 
ATOM     56  C   UNL A   1      39.374  25.926  28.115  1.00  0.00     0.031 C 
ATOM     57  C   UNL A   1      44.939  23.841  31.196  1.00  0.00     0.029 A 
ATOM     58  C   UNL A   1      44.542  25.222  31.412  1.00  0.00     0.049 A 
ATOM     59  H   UNL A   1      43.427  26.410  30.108  1.00  0.00     0.167 HD
ATOM     60  C   UNL A   1      40.077  28.347  27.826  1.00  0.00     0.037 A 
ATOM     61  C   UNL A   1      44.744  26.058  32.458  1.00  0.00     0.037 A 
ATOM     62  C   UNL A   1      41.249  29.065  27.393  1.00  0.00     0.049 A 
ATOM     63  C   UNL A   1      44.388  27.432  32.002  1.00  0.00     0.074 A 
ATOM     64  C   UNL A   1      41.995  29.083  26.230  1.00  0.00     0.029 A 
ATOM     65  N   UNL A   1      42.042  29.647  28.352  1.00  0.00    -0.354 N 
ATOM     66  N   UNL A   1      45.074  28.100  31.114  1.00  0.00    -0.248 NA
ATOM     67  C   UNL A   1      43.008  27.870  32.175  1.00  0.00     0.031 C 
ATOM     68  C   UNL A   1      43.347  29.231  26.656  1.00  0.00     0.029 A 
ATOM     69  C   UNL A   1      43.344  29.333  28.048  1.00  0.00     0.049 A 
ATOM     70  H   UNL A   1      41.736  30.187  29.115  1.00  0.00     0.167 HD
ATOM     71  C   UNL A   1      44.124  28.757  30.341  1.00  0.00     0.074 A 
ATOM     72  C   UNL A   1      42.876  28.640  31.091  1.00  0.00     0.031 C 
ATOM     73  C   UNL A   1      44.368  29.081  29.036  1.00  0.00     0.037 A 
BRANCH  60  74
ATOM     74  C   UNL A   1      38.955  28.989  28.590  1.00  0.00     0.057 A 
ATOM     75  C   UNL A   1      38.838  28.748  29.967  1.00  0.00     0.134 A 
ATOM     76  C   UNL A   1      37.839  29.610  27.988  1.00  0.00     0.134 A 
ATOM     77  F   UNL A   1      39.823  28.137  30.643  1.00  0.00    -0.206 F 
ATOM     78  C   UNL A   1      37.673  29.051  30.680  1.00  0.00     0.040 A 
ATOM     79  C   UNL A   1      36.696  29.970  28.701  1.00  0.00     0.040 A 
ATOM     80  F   UNL A   1      37.746  29.805  26.667  1.00  0.00    -0.206 F 
ATOM     81  C   UNL A   1      36.597  29.663  30.046  1.00  0.00     0.006 A 
ENDBRANCH  60  74
BRANCH  61  82
ATOM     82  C   UNL A   1      44.866  25.684  33.884  1.00  0.00     0.057 A 
ATOM     83  C   UNL A   1      43.745  25.336  34.646  1.00  0.00     0.134 A 
ATOM     84  C   UNL A   1      46.118  25.419  34.474  1.00  0.00     0.134 A 
ATOM     85  F   UNL A   1      42.510  25.501  34.150  1.00  0.00    -0.206 F 
ATOM     86  C   UNL A   1      43.859  24.757  35.918  1.00  0.00     0.040 A 
ATOM     87  C   UNL A   1      46.247  24.851  35.744  1.00  0.00     0.040 A 
ATOM     88  F   UNL A   1      47.260  25.623  33.803  1.00  0.00    -0.206 F 
ATOM     89  C   UNL A   1      45.113  24.508  36.469  1.00  0.00     0.006 A 
ENDBRANCH  61  82
BRANCH  73  90
ATOM     90  C   UNL A   1      45.768  28.894  28.519  1.00  0.00     0.057 A 
ATOM     91  C   UNL A   1      46.236  27.687  27.976  1.00  0.00     0.134 A 
ATOM     92  C   UNL A   1      46.607  30.006  28.400  1.00  0.00     0.134 A 
ATOM     93  F   UNL A   1      45.461  26.597  27.948  1.00  0.00    -0.206 F 
ATOM     94  C   UNL A   1      47.497  27.583  27.381  1.00  0.00     0.040 A 
ATOM     95  C   UNL A   1      47.857  29.923  27.780  1.00  0.00     0.040 A 
ATOM     96  F   UNL A   1      46.201  31.209  28.837  1.00  0.00    -0.206 F 
ATOM     97  C   UNL A   1      48.310  28.707  27.274  1.00  0.00     0.006 A 
ENDBRANCH  73  90
ENDBRANCH  47  48
ENDBRANCH  40  42
ENDBRANCH  39  40
ENDBRANCH  38  39
ENDBRANCH  37  38
ENDBRANCH  36  37
ENDBRANCH  35  36
ENDBRANCH   1  35
TORSDOF 22
ENDMDL
MODEL 2
REMARK VINA RESULT:     -10.4      3.103      5.336
REMARK SMILES Cc1cnn(C2(C(=O)OCCOCCOCCOCCOC(=O)c3ccc(-c4c5nc(c(-c6c(F)cccc6F)c6ccc([nH]6)c(-c6c(F)cccc6F)c6nc(c(-c7c(F)cccc7F)c7ccc4[nH]7)C=C6)C=C5)cc3)CCN(C(=O)c3cc4ccccc4[nH]3)CC2)c1
REMARK SMILES IDX 16 1 15 2 14 3 13 4 12 5 11 6 10 7 9 8 7 9 8 10 6 11 78 12
REMARK SMILES IDX 93 13 79 14 92 15 80 16 81 17 82 18 5 19 1 20 2 21 3 22
REMARK SMILES IDX 94 23 4 24 83 25 84 26 91 27 85 28 90 29 86 31 89 32 87 33
REMARK SMILES IDX 88 34 17 35 18 36 19 37 20 38 21 39 22 40 23 41 24 42 25 43
REMARK SMILES IDX 77 44 26 45 76 46 27 47 28 48 29 49 70 50 30 51 75 52 69 53
REMARK SMILES IDX 71 54 31 55 74 56 68 57 67 58 32 60 58 61 41 62 57 63 42 64
REMARK SMILES IDX 45 65 56 66 72 67 43 68 44 69 55 71 73 72 46 73 33 74 34 75
REMARK SMILES IDX 39 76 35 77 36 78 38 79 40 80 37 81 59 82 60 83 65 84 61 85
REMARK SMILES IDX 62 86 64 87 66 88 63 89 47 90 48 91 53 92 49 93 50 94 52 95
REMARK SMILES IDX 54 96 51 97
REMARK H PARENT 91 30 71 59 45 70
REMARK Flexibility Score: inf
ROOT
ATOM      1  C   UNL A   1      34.699  22.560  26.785  1.00  0.00     0.188 C 
ENDROOT
BRANCH   1   2
ATOM      2  O   UNL A   1      33.833  23.581  26.297  1.00  0.00    -0.377 OA
BRANCH   2   3
ATOM      3  C   UNL A   1      32.485  23.212  26.060  1.00  0.00     0.188 C 
BRANCH   3   4
ATOM      4  C   UNL A   1      32.281  21.812  25.459  1.00  0.00     0.188 C 
BRANCH   4   5
ATOM      5  O   UNL A   1      32.796  21.528  24.166  1.00  0.00    -0.376 OA
BRANCH   5   6
ATOM      6  C   UNL A   1      32.159  22.087  23.024  1.00  0.00     0.202 C 
BRANCH   6   7
ATOM      7  C   UNL A   1      32.445  23.532  22.588  1.00  0.00     0.261 C 
BRANCH   7   8
ATOM      8  O   UNL A   1      31.327  24.434  22.702  1.00  0.00    -0.461 OA
BRANCH   8   9
ATOM      9  C   UNL A   1      31.535  25.727  22.333  1.00  0.00     0.334 C 
ATOM     10  O   UNL A   1      32.095  26.037  21.281  1.00  0.00    -0.249 OA
BRANCH   9  11
ATOM     11  C   UNL A   1      31.099  26.767  23.406  1.00  0.00     0.163 C 
ATOM     12  C   UNL A   1      30.696  26.120  24.756  1.00  0.00     0.064 C 
ATOM     13  C   UNL A   1      32.416  27.542  23.630  1.00  0.00     0.064 C 
ATOM     14  C   UNL A   1      30.652  27.086  25.923  1.00  0.00     0.123 C 
ATOM     15  C   UNL A   1      32.420  28.475  24.821  1.00  0.00     0.123 C 
ATOM     16  N   UNL A   1      31.871  27.866  26.033  1.00  0.00    -0.337 N 
ATOM     17  C   UNL A   1      32.356  28.136  27.314  1.00  0.00     0.270 C 
ATOM     18  O   UNL A   1      31.957  27.552  28.315  1.00  0.00    -0.267 OA
BRANCH  11  19
ATOM     19  N   UNL A   1      30.055  27.660  22.848  1.00  0.00    -0.255 N 
ATOM     20  C   UNL A   1      26.933  29.546  23.020  1.00  0.00     0.048 C 
ATOM     21  C   UNL A   1      28.252  28.940  22.733  1.00  0.00    -0.013 A 
ATOM     22  C   UNL A   1      29.327  29.468  22.000  1.00  0.00     0.138 A 
ATOM     23  C   UNL A   1      28.717  27.712  23.152  1.00  0.00     0.113 A 
ATOM     24  N   UNL A   1      30.385  28.657  21.999  1.00  0.00    -0.180 NA
ENDBRANCH  11  19
BRANCH  17  25
ATOM     25  C   UNL A   1      33.402  29.120  27.380  1.00  0.00     0.105 A 
ATOM     26  C   UNL A   1      34.773  28.952  27.367  1.00  0.00     0.042 A 
ATOM     27  N   UNL A   1      33.151  30.458  27.534  1.00  0.00    -0.351 N 
ATOM     28  C   UNL A   1      35.364  30.217  27.621  1.00  0.00     0.000 A 
ATOM     29  C   UNL A   1      34.324  31.137  27.759  1.00  0.00     0.046 A 
ATOM     30  H   UNL A   1      32.260  30.874  27.487  1.00  0.00     0.167 HD
ATOM     31  C   UNL A   1      36.689  30.663  27.772  1.00  0.00     0.010 A 
ATOM     32  C   UNL A   1      34.538  32.481  28.069  1.00  0.00     0.026 A 
ATOM     33  C   UNL A   1      36.923  32.010  28.063  1.00  0.00     0.001 A 
ATOM     34  C   UNL A   1      35.862  32.901  28.216  1.00  0.00     0.002 A 
ENDBRANCH  17  25
ENDBRANCH   9  11
ENDBRANCH   8   9
ENDBRANCH   7   8
ENDBRANCH   6   7
ENDBRANCH   5   6
ENDBRANCH   4   5
ENDBRANCH   3   4
ENDBRANCH   2   3
ENDBRANCH   1   2
BRANCH   1  35
ATOM     35  C   UNL A   1      35.852  22.043  25.889  1.00  0.00     0.188 C 
BRANCH  35  36
ATOM     36  O   UNL A   1      36.767  23.033  25.427  1.00  0.00    -0.376 OA
BRANCH  36  37
ATOM     37  C   UNL A   1      37.563  23.790  26.328  1.00  0.00     0.202 C 
BRANCH  37  38
ATOM     38  C   UNL A   1      39.085  23.639  26.238  1.00  0.00     0.261 C 
BRANCH  38  39
ATOM     39  O   UNL A   1      39.778  24.142  27.366  1.00  0.00    -0.460 OA
BRANCH  39  40
ATOM     40  C   UNL A   1      40.447  25.293  27.167  1.00  0.00     0.338 C 
ATOM     41  O   UNL A   1      41.554  25.438  26.687  1.00  0.00    -0.246 OA
BRANCH  40  42
ATOM     42  C   UNL A   1      39.646  26.392  27.717  1.00  0.00     0.060 A 
ATOM     43  C   UNL A   1      40.026  27.658  27.278  1.00  0.00     0.016 A 
ATOM     44  C   UNL A   1      38.941  26.172  28.911  1.00  0.00     0.016 A 
ATOM     45  C   UNL A   1      40.055  28.648  28.219  1.00  0.00     0.010 A 
ATOM     46  C   UNL A   1      38.975  27.161  29.852  1.00  0.00     0.010 A 
ATOM     47  C   UNL A   1      39.660  28.323  29.521  1.00  0.00    -0.014 A 
BRANCH  47  48
ATOM     48  C   UNL A   1      40.051  29.233  30.561  1.00  0.00     0.031 A 
ATOM     49  C   UNL A   1      38.977  30.154  30.948  1.00  0.00     0.074 A 
ATOM     50  C   UNL A   1      41.271  29.179  31.120  1.00  0.00     0.049 A 
ATOM     51  N   UNL A   1      38.902  31.420  30.715  1.00  0.00    -0.248 NA
ATOM     52  C   UNL A   1      37.750  29.551  31.489  1.00  0.00     0.031 C 
ATOM     53  C   UNL A   1      42.299  28.140  31.003  1.00  0.00     0.029 A 
ATOM     54  N   UNL A   1      41.810  30.046  32.010  1.00  0.00    -0.354 N 
ATOM     55  C   UNL A   1      37.695  31.814  31.274  1.00  0.00     0.074 A 
ATOM     56  C   UNL A   1      36.950  30.613  31.546  1.00  0.00     0.031 C 
ATOM     57  C   UNL A   1      43.229  28.331  31.968  1.00  0.00     0.029 A 
ATOM     58  C   UNL A   1      42.927  29.567  32.671  1.00  0.00     0.049 A 
ATOM     59  H   UNL A   1      41.437  30.942  32.175  1.00  0.00     0.167 HD
ATOM     60  C   UNL A   1      37.513  33.082  31.720  1.00  0.00     0.037 A 
ATOM     61  C   UNL A   1      43.468  30.121  33.782  1.00  0.00     0.037 A 
ATOM     62  C   UNL A   1      38.471  33.993  31.146  1.00  0.00     0.049 A 
ATOM     63  C   UNL A   1      42.979  31.526  33.860  1.00  0.00     0.074 A 
ATOM     64  C   UNL A   1      38.782  34.379  29.857  1.00  0.00     0.029 A 
ATOM     65  N   UNL A   1      39.540  34.378  31.918  1.00  0.00    -0.354 N 
ATOM     66  N   UNL A   1      43.325  32.461  33.018  1.00  0.00    -0.248 NA
ATOM     67  C   UNL A   1      41.736  31.775  34.582  1.00  0.00     0.031 C 
ATOM     68  C   UNL A   1      40.199  34.537  29.846  1.00  0.00     0.029 A 
ATOM     69  C   UNL A   1      40.664  34.276  31.136  1.00  0.00     0.049 A 
ATOM     70  H   UNL A   1      39.508  34.673  32.856  1.00  0.00     0.167 HD
ATOM     71  C   UNL A   1      42.170  33.204  32.804  1.00  0.00     0.074 A 
ATOM     72  C   UNL A   1      41.247  32.782  33.854  1.00  0.00     0.031 C 
ATOM     73  C   UNL A   1      41.961  33.875  31.632  1.00  0.00     0.037 A 
BRANCH  60  74
ATOM     74  C   UNL A   1      36.713  33.398  32.951  1.00  0.00     0.057 A 
ATOM     75  C   UNL A   1      35.638  34.294  32.859  1.00  0.00     0.134 A 
ATOM     76  C   UNL A   1      37.118  33.073  34.265  1.00  0.00     0.134 A 
ATOM     77  F   UNL A   1      35.184  34.699  31.663  1.00  0.00    -0.206 F 
ATOM     78  C   UNL A   1      35.046  34.866  33.989  1.00  0.00     0.040 A 
ATOM     79  C   UNL A   1      36.496  33.592  35.400  1.00  0.00     0.040 A 
ATOM     80  F   UNL A   1      38.197  32.324  34.524  1.00  0.00    -0.206 F 
ATOM     81  C   UNL A   1      35.476  34.517  35.265  1.00  0.00     0.006 A 
ENDBRANCH  60  74
BRANCH  61  82
ATOM     82  C   UNL A   1      44.063  29.404  34.932  1.00  0.00     0.057 A 
ATOM     83  C   UNL A   1      43.265  28.730  35.864  1.00  0.00     0.134 A 
ATOM     84  C   UNL A   1      45.447  29.155  35.011  1.00  0.00     0.134 A 
ATOM     85  F   UNL A   1      41.931  28.862  35.836  1.00  0.00    -0.206 F 
ATOM     86  C   UNL A   1      43.809  27.858  36.817  1.00  0.00     0.040 A 
ATOM     87  C   UNL A   1      46.004  28.296  35.961  1.00  0.00     0.040 A 
ATOM     88  F   UNL A   1      46.299  29.671  34.114  1.00  0.00    -0.206 F 
ATOM     89  C   UNL A   1      45.183  27.634  36.864  1.00  0.00     0.006 A 
ENDBRANCH  61  82
BRANCH  73  90
ATOM     90  C   UNL A   1      43.106  33.958  30.659  1.00  0.00     0.057 A 
ATOM     91  C   UNL A   1      43.348  32.995  29.667  1.00  0.00     0.134 A 
ATOM     92  C   UNL A   1      43.874  35.125  30.606  1.00  0.00     0.134 A 
ATOM     93  F   UNL A   1      42.592  31.895  29.574  1.00  0.00    -0.206 F 
ATOM     94  C   UNL A   1      44.337  33.167  28.694  1.00  0.00     0.040 A 
ATOM     95  C   UNL A   1      44.844  35.324  29.620  1.00  0.00     0.040 A 
ATOM     96  F   UNL A   1      43.655  36.119  31.482  1.00  0.00    -0.206 F 
ATOM     97  C   UNL A   1      45.084  34.340  28.664  1.00  0.00     0.006 A 
ENDBRANCH  73  90
ENDBRANCH  47  48
ENDBRANCH  40  42
ENDBRANCH  39  40
ENDBRANCH  38  39
ENDBRANCH  37  38
ENDBRANCH  36  37
ENDBRANCH  35  36
ENDBRANCH   1  35
TORSDOF 22
ENDMDL
MODEL 3
REMARK VINA RESULT:      -9.9      3.265      7.348
REMARK SMILES Cc1cnn(C2(C(=O)OCCOCCOCCOCCOC(=O)c3ccc(-c4c5nc(c(-c6c(F)cccc6F)c6ccc([nH]6)c(-c6c(F)cccc6F)c6nc(c(-c7c(F)cccc7F)c7ccc4[nH]7)C=C6)C=C5)cc3)CCN(C(=O)c3cc4ccccc4[nH]3)CC2)c1
REMARK SMILES IDX 16 1 15 2 14 3 13 4 12 5 11 6 10 7 9 8 7 9 8 10 6 11 78 12
REMARK SMILES IDX 93 13 79 14 92 15 80 16 81 17 82 18 5 19 1 20 2 21 3 22
REMARK SMILES IDX 94 23 4 24 83 25 84 26 91 27 85 28 90 29 86 31 89 32 87 33
REMARK SMILES IDX 88 34 17 35 18 36 19 37 20 38 21 39 22 40 23 41 24 42 25 43
REMARK SMILES IDX 77 44 26 45 76 46 27 47 28 48 29 49 70 50 30 51 75 52 69 53
REMARK SMILES IDX 71 54 31 55 74 56 68 57 67 58 32 60 58 61 41 62 57 63 42 64
REMARK SMILES IDX 45 65 56 66 72 67 43 68 44 69 55 71 73 72 46 73 33 74 34 75
REMARK SMILES IDX 39 76 35 77 36 78 38 79 40 80 37 81 59 82 60 83 65 84 61 85
REMARK SMILES IDX 62 86 64 87 66 88 63 89 47 90 48 91 53 92 49 93 50 94 52 95
REMARK SMILES IDX 54 96 51 97
REMARK H PARENT 91 30 71 59 45 70
REMARK Flexibility Score: inf
ROOT
ATOM      1  C   UNL A   1      42.952  22.411  26.561  1.00  0.00     0.188 C 
ENDROOT
BRANCH   1   2
ATOM      2  O   UNL A   1      42.641  21.230  27.295  1.00  0.00    -0.377 OA
BRANCH   2   3
ATOM      3  C   UNL A   1      41.273  20.864  27.362  1.00  0.00     0.188 C 
BRANCH   3   4
ATOM      4  C   UNL A   1      40.318  21.731  26.527  1.00  0.00     0.188 C 
BRANCH   4   5
ATOM      5  O   UNL A   1      39.227  21.116  25.856  1.00  0.00    -0.376 OA
BRANCH   5   6
ATOM      6  C   UNL A   1      38.167  21.927  25.361  1.00  0.00     0.202 C 
BRANCH   6   7
ATOM      7  C   UNL A   1      36.730  21.391  25.288  1.00  0.00     0.261 C 
BRANCH   7   8
ATOM      8  O   UNL A   1      35.701  22.399  25.344  1.00  0.00    -0.461 OA
BRANCH   8   9
ATOM      9  C   UNL A   1      34.725  22.235  26.278  1.00  0.00     0.334 C 
ATOM     10  O   UNL A   1      34.965  21.932  27.446  1.00  0.00    -0.249 OA
BRANCH   9  11
ATOM     11  C   UNL A   1      33.282  22.361  25.708  1.00  0.00     0.163 C 
ATOM     12  C   UNL A   1      32.186  22.324  26.805  1.00  0.00     0.064 C 
ATOM     13  C   UNL A   1      33.312  23.790  25.121  1.00  0.00     0.064 C 
ATOM     14  C   UNL A   1      30.832  22.833  26.353  1.00  0.00     0.123 C 
ATOM     15  C   UNL A   1      31.966  24.346  24.711  1.00  0.00     0.123 C 
ATOM     16  N   UNL A   1      30.922  24.134  25.715  1.00  0.00    -0.337 N 
ATOM     17  C   UNL A   1      29.903  25.054  25.966  1.00  0.00     0.270 C 
ATOM     18  O   UNL A   1      29.089  24.916  26.873  1.00  0.00    -0.267 OA
BRANCH  11  19
ATOM     19  N   UNL A   1      33.073  21.360  24.636  1.00  0.00    -0.255 N 
ATOM     20  C   UNL A   1      32.218  18.036  23.387  1.00  0.00     0.048 C 
ATOM     21  C   UNL A   1      32.523  19.463  23.635  1.00  0.00    -0.013 A 
ATOM     22  C   UNL A   1      32.157  20.589  22.879  1.00  0.00     0.138 A 
ATOM     23  C   UNL A   1      33.228  19.996  24.691  1.00  0.00     0.113 A 
ATOM     24  N   UNL A   1      32.564  21.728  23.440  1.00  0.00    -0.180 NA
ENDBRANCH  11  19
BRANCH  17  25
ATOM     25  C   UNL A   1      29.898  26.214  25.118  1.00  0.00     0.105 A 
ATOM     26  C   UNL A   1      28.923  26.669  24.252  1.00  0.00     0.042 A 
ATOM     27  N   UNL A   1      30.973  27.057  25.010  1.00  0.00    -0.351 N 
ATOM     28  C   UNL A   1      29.467  27.761  23.527  1.00  0.00     0.000 A 
ATOM     29  C   UNL A   1      30.766  27.959  23.995  1.00  0.00     0.046 A 
ATOM     30  H   UNL A   1      31.776  27.023  25.578  1.00  0.00     0.167 HD
ATOM     31  C   UNL A   1      28.983  28.586  22.496  1.00  0.00     0.010 A 
ATOM     32  C   UNL A   1      31.622  28.927  23.466  1.00  0.00     0.026 A 
ATOM     33  C   UNL A   1      29.820  29.573  21.967  1.00  0.00     0.001 A 
ATOM     34  C   UNL A   1      31.121  29.733  22.440  1.00  0.00     0.002 A 
ENDBRANCH  17  25
ENDBRANCH   9  11
ENDBRANCH   8   9
ENDBRANCH   7   8
ENDBRANCH   6   7
ENDBRANCH   5   6
ENDBRANCH   4   5
ENDBRANCH   3   4
ENDBRANCH   2   3
ENDBRANCH   1   2
BRANCH   1  35
ATOM     35  C   UNL A   1      44.187  22.427  25.625  1.00  0.00     0.188 C 
BRANCH  35  36
ATOM     36  O   UNL A   1      45.014  23.585  25.713  1.00  0.00    -0.376 OA
BRANCH  36  37
ATOM     37  C   UNL A   1      44.730  24.636  26.626  1.00  0.00     0.202 C 
BRANCH  37  38
ATOM     38  C   UNL A   1      44.220  25.962  26.054  1.00  0.00     0.261 C 
BRANCH  38  39
ATOM     39  O   UNL A   1      43.007  26.408  26.633  1.00  0.00    -0.460 OA
BRANCH  39  40
ATOM     40  C   UNL A   1      41.890  26.088  25.953  1.00  0.00     0.338 C 
ATOM     41  O   UNL A   1      41.790  25.353  24.990  1.00  0.00    -0.246 OA
BRANCH  40  42
ATOM     42  C   UNL A   1      40.774  26.856  26.512  1.00  0.00     0.060 A 
ATOM     43  C   UNL A   1      40.850  28.229  26.289  1.00  0.00     0.016 A 
ATOM     44  C   UNL A   1      40.029  26.288  27.557  1.00  0.00     0.016 A 
ATOM     45  C   UNL A   1      40.516  29.038  27.338  1.00  0.00     0.010 A 
ATOM     46  C   UNL A   1      39.700  27.098  28.607  1.00  0.00     0.010 A 
ATOM     47  C   UNL A   1      40.084  28.430  28.520  1.00  0.00    -0.014 A 
BRANCH  47  48
ATOM     48  C   UNL A   1      40.108  29.236  29.709  1.00  0.00     0.031 A 
ATOM     49  C   UNL A   1      38.931  30.103  29.833  1.00  0.00     0.074 A 
ATOM     50  C   UNL A   1      41.104  29.141  30.603  1.00  0.00     0.049 A 
ATOM     51  N   UNL A   1      38.879  31.385  29.705  1.00  0.00    -0.248 NA
ATOM     52  C   UNL A   1      37.624  29.436  29.920  1.00  0.00     0.031 C 
ATOM     53  C   UNL A   1      42.161  28.130  30.709  1.00  0.00     0.029 A 
ATOM     54  N   UNL A   1      41.315  29.922  31.690  1.00  0.00    -0.354 N 
ATOM     55  C   UNL A   1      37.545  31.709  29.905  1.00  0.00     0.074 A 
ATOM     56  C   UNL A   1      36.801  30.479  29.829  1.00  0.00     0.031 C 
ATOM     57  C   UNL A   1      42.750  28.235  31.924  1.00  0.00     0.029 A 
ATOM     58  C   UNL A   1      42.201  29.392  32.611  1.00  0.00     0.049 A 
ATOM     59  H   UNL A   1      40.875  30.794  31.814  1.00  0.00     0.167 HD
ATOM     60  C   UNL A   1      37.186  32.924  30.389  1.00  0.00     0.037 A 
ATOM     61  C   UNL A   1      42.360  29.839  33.879  1.00  0.00     0.037 A 
ATOM     62  C   UNL A   1      38.234  33.898  30.217  1.00  0.00     0.049 A 
ATOM     63  C   UNL A   1      41.814  31.225  33.933  1.00  0.00     0.074 A 
ATOM     64  C   UNL A   1      38.903  34.413  29.123  1.00  0.00     0.029 A 
ATOM     65  N   UNL A   1      39.006  34.217  31.308  1.00  0.00    -0.354 N 
ATOM     66  N   UNL A   1      42.360  32.242  33.323  1.00  0.00    -0.248 NA
ATOM     67  C   UNL A   1      40.403  31.387  34.264  1.00  0.00     0.031 C 
ATOM     68  C   UNL A   1      40.250  34.587  29.556  1.00  0.00     0.029 A 
ATOM     69  C   UNL A   1      40.316  34.205  30.897  1.00  0.00     0.049 A 
ATOM     70  H   UNL A   1      38.681  34.417  32.215  1.00  0.00     0.167 HD
ATOM     71  C   UNL A   1      41.294  32.990  32.838  1.00  0.00     0.074 A 
ATOM     72  C   UNL A   1      40.115  32.456  33.516  1.00  0.00     0.031 C 
ATOM     73  C   UNL A   1      41.419  33.771  31.724  1.00  0.00     0.037 A 
BRANCH  60  74
ATOM     74  C   UNL A   1      36.041  33.109  31.343  1.00  0.00     0.057 A 
ATOM     75  C   UNL A   1      34.999  33.982  31.002  1.00  0.00     0.134 A 
ATOM     76  C   UNL A   1      36.053  32.677  32.688  1.00  0.00     0.134 A 
ATOM     77  F   UNL A   1      34.901  34.482  29.761  1.00  0.00    -0.206 F 
ATOM     78  C   UNL A   1      34.069  34.436  31.943  1.00  0.00     0.040 A 
ATOM     79  C   UNL A   1      35.096  33.076  33.620  1.00  0.00     0.040 A 
ATOM     80  F   UNL A   1      37.042  31.934  33.199  1.00  0.00    -0.206 F 
ATOM     81  C   UNL A   1      34.117  33.984  33.258  1.00  0.00     0.006 A 
ENDBRANCH  60  74
BRANCH  61  82
ATOM     82  C   UNL A   1      42.611  29.020  35.086  1.00  0.00     0.057 A 
ATOM     83  C   UNL A   1      41.906  27.834  35.321  1.00  0.00     0.134 A 
ATOM     84  C   UNL A   1      43.724  29.251  35.917  1.00  0.00     0.134 A 
ATOM     85  F   UNL A   1      40.863  27.500  34.548  1.00  0.00    -0.206 F 
ATOM     86  C   UNL A   1      42.285  26.928  36.322  1.00  0.00     0.040 A 
ATOM     87  C   UNL A   1      44.108  28.362  36.925  1.00  0.00     0.040 A 
ATOM     88  F   UNL A   1      44.529  30.305  35.726  1.00  0.00    -0.206 F 
ATOM     89  C   UNL A   1      43.393  27.188  37.125  1.00  0.00     0.006 A 
ENDBRANCH  61  82
BRANCH  73  90
ATOM     90  C   UNL A   1      42.799  33.962  31.155  1.00  0.00     0.057 A 
ATOM     91  C   UNL A   1      43.367  33.105  30.199  1.00  0.00     0.134 A 
ATOM     92  C   UNL A   1      43.500  35.136  31.445  1.00  0.00     0.134 A 
ATOM     93  F   UNL A   1      42.718  32.012  29.781  1.00  0.00    -0.206 F 
ATOM     94  C   UNL A   1      44.594  33.383  29.592  1.00  0.00     0.040 A 
ATOM     95  C   UNL A   1      44.713  35.443  30.821  1.00  0.00     0.040 A 
ATOM     96  F   UNL A   1      42.989  36.036  32.300  1.00  0.00    -0.206 F 
ATOM     97  C   UNL A   1      45.269  34.561  29.896  1.00  0.00     0.006 A 
ENDBRANCH  73  90
ENDBRANCH  47  48
ENDBRANCH  40  42
ENDBRANCH  39  40
ENDBRANCH  38  39
ENDBRANCH  37  38
ENDBRANCH  36  37
ENDBRANCH  35  36
ENDBRANCH   1  35
TORSDOF 22
ENDMDL
