MODEL 1
REMARK VINA RESULT:      -9.7      0.000      0.000
REMARK SMILES C[C@H](NC(=O)c1cc(S(=O)(=O)N(C)C)cs1)C(=O)OCCOCCOCCOCCOC(=O)c1ccc(-c2c3nc(c(-c4c(F)cccc4F)c4ccc([nH]4)c(-c4c(F)cccc4F)c4nc(c(-c5c(F)cccc5F)c5ccc2[nH]5)C=C4)C=C3)cc1
REMARK SMILES IDX 24 1 23 2 22 3 21 4 20 5 19 6 17 7 18 8 2 9 1 10 3 11 4 12
REMARK SMILES IDX 5 14 6 15 7 16 16 17 8 18 15 19 9 20 10 21 11 22 12 23 13 24
REMARK SMILES IDX 14 25 25 26 26 27 27 28 28 29 29 30 30 31 31 32 32 33 33 34
REMARK SMILES IDX 34 35 35 36 87 37 36 38 86 39 37 40 38 41 39 42 80 43 40 44
REMARK SMILES IDX 85 45 79 46 81 47 41 48 84 49 78 50 77 51 42 53 68 54 51 55
REMARK SMILES IDX 67 56 52 57 55 58 66 59 82 60 53 61 54 62 65 64 83 65 56 66
REMARK SMILES IDX 43 67 44 68 49 69 45 70 46 71 48 72 50 73 47 74 69 75 70 76
REMARK SMILES IDX 75 77 71 78 72 79 74 80 76 81 73 82 57 83 58 84 63 85 59 86
REMARK SMILES IDX 60 87 62 88 64 89 61 90
REMARK H PARENT 3 13 81 52 55 63
REMARK Flexibility Score: inf
ROOT
ATOM      1  C   UNL A   1      33.623  23.992  22.620  1.00  0.00     0.188 C 
ENDROOT
BRANCH   1   2
ATOM      2  C   UNL A   1      33.099  25.234  21.870  1.00  0.00     0.188 C 
BRANCH   2   3
ATOM      3  O   UNL A   1      33.818  26.457  21.898  1.00  0.00    -0.376 OA
BRANCH   3   4
ATOM      4  C   UNL A   1      33.599  27.354  22.973  1.00  0.00     0.202 C 
BRANCH   4   5
ATOM      5  C   UNL A   1      32.243  28.070  23.123  1.00  0.00     0.261 C 
BRANCH   5   6
ATOM      6  O   UNL A   1      31.121  27.264  23.538  1.00  0.00    -0.462 OA
BRANCH   6   7
ATOM      7  C   UNL A   1      31.096  26.883  24.845  1.00  0.00     0.328 C 
ATOM      8  O   UNL A   1      31.286  27.645  25.787  1.00  0.00    -0.250 OA
BRANCH   7   9
ATOM      9  C   UNL A   1      30.925  25.358  25.045  1.00  0.00     0.189 C 
ATOM     10  C   UNL A   1      30.190  24.844  23.807  1.00  0.00     0.043 C 
BRANCH   9  11
ATOM     11  N   UNL A   1      30.194  24.867  26.222  1.00  0.00    -0.338 N 
ATOM     12  C   UNL A   1      30.197  23.608  26.786  1.00  0.00     0.262 C 
ATOM     13  H   UNL A   1      29.622  25.529  26.671  1.00  0.00     0.164 HD
ATOM     14  O   UNL A   1      29.269  23.321  27.541  1.00  0.00    -0.268 OA
BRANCH  12  15
ATOM     15  C   UNL A   1      31.318  22.718  26.543  1.00  0.00     0.093 A 
ATOM     16  C   UNL A   1      31.500  21.842  25.494  1.00  0.00     0.047 A 
ATOM     17  S   UNL A   1      32.708  22.767  27.540  1.00  0.00    -0.137 S 
ATOM     18  C   UNL A   1      32.757  21.183  25.517  1.00  0.00     0.094 A 
ATOM     19  C   UNL A   1      33.517  21.577  26.596  1.00  0.00     0.087 A 
BRANCH  18  20
ATOM     20  S   UNL A   1      33.240  19.997  24.344  1.00  0.00     0.243 S 
ATOM     21  O   UNL A   1      32.878  20.566  23.078  1.00  0.00    -0.207 OA
ATOM     22  O   UNL A   1      34.623  19.740  24.718  1.00  0.00    -0.207 OA
BRANCH  20  23
ATOM     23  N   UNL A   1      32.334  18.567  24.593  1.00  0.00    -0.204 NA
ATOM     24  C   UNL A   1      32.296  17.643  23.436  1.00  0.00     0.124 C 
ATOM     25  C   UNL A   1      32.672  17.847  25.842  1.00  0.00     0.124 C 
ENDBRANCH  20  23
ENDBRANCH  18  20
ENDBRANCH  12  15
ENDBRANCH   9  11
ENDBRANCH   7   9
ENDBRANCH   6   7
ENDBRANCH   5   6
ENDBRANCH   4   5
ENDBRANCH   3   4
ENDBRANCH   2   3
ENDBRANCH   1   2
BRANCH   1  26
ATOM     26  O   UNL A   1      34.980  24.092  22.996  1.00  0.00    -0.377 OA
BRANCH  26  27
ATOM     27  C   UNL A   1      35.492  22.991  23.727  1.00  0.00     0.188 C 
BRANCH  27  28
ATOM     28  C   UNL A   1      36.958  23.078  24.185  1.00  0.00     0.188 C 
BRANCH  28  29
ATOM     29  O   UNL A   1      37.247  22.261  25.325  1.00  0.00    -0.376 OA
BRANCH  29  30
ATOM     30  C   UNL A   1      38.015  21.082  25.095  1.00  0.00     0.202 C 
BRANCH  30  31
ATOM     31  C   UNL A   1      39.386  21.055  25.791  1.00  0.00     0.261 C 
BRANCH  31  32
ATOM     32  O   UNL A   1      39.913  19.747  26.065  1.00  0.00    -0.460 OA
BRANCH  32  33
ATOM     33  C   UNL A   1      41.256  19.612  26.121  1.00  0.00     0.338 C 
ATOM     34  O   UNL A   1      41.922  18.691  25.687  1.00  0.00    -0.246 OA
BRANCH  33  35
ATOM     35  C   UNL A   1      41.822  20.890  26.599  1.00  0.00     0.060 A 
ATOM     36  C   UNL A   1      41.802  21.146  27.975  1.00  0.00     0.016 A 
ATOM     37  C   UNL A   1      42.380  21.817  25.712  1.00  0.00     0.016 A 
ATOM     38  C   UNL A   1      42.300  22.351  28.465  1.00  0.00     0.010 A 
ATOM     39  C   UNL A   1      42.859  23.036  26.203  1.00  0.00     0.010 A 
ATOM     40  C   UNL A   1      42.785  23.320  27.577  1.00  0.00    -0.014 A 
BRANCH  40  41
ATOM     41  C   UNL A   1      43.012  24.696  28.079  1.00  0.00     0.031 A 
ATOM     42  C   UNL A   1      44.430  25.143  28.308  1.00  0.00     0.074 A 
ATOM     43  C   UNL A   1      41.991  25.551  28.258  1.00  0.00     0.049 A 
ATOM     44  N   UNL A   1      44.883  26.311  28.684  1.00  0.00    -0.248 NA
ATOM     45  C   UNL A   1      45.479  24.136  28.074  1.00  0.00     0.031 C 
ATOM     46  C   UNL A   1      40.579  25.243  28.045  1.00  0.00     0.029 A 
ATOM     47  N   UNL A   1      41.994  26.865  28.657  1.00  0.00    -0.354 N 
ATOM     48  C   UNL A   1      46.267  26.185  28.712  1.00  0.00     0.074 A 
ATOM     49  C   UNL A   1      46.578  24.817  28.362  1.00  0.00     0.031 C 
ATOM     50  C   UNL A   1      39.848  26.337  28.324  1.00  0.00     0.029 A 
ATOM     51  C   UNL A   1      40.739  27.415  28.748  1.00  0.00     0.049 A 
ATOM     52  H   UNL A   1      42.818  27.364  28.859  1.00  0.00     0.167 HD
ATOM     53  C   UNL A   1      47.196  27.129  28.987  1.00  0.00     0.037 A 
ATOM     54  C   UNL A   1      40.360  28.648  29.140  1.00  0.00     0.037 A 
ATOM     55  C   UNL A   1      46.887  28.484  29.356  1.00  0.00     0.049 A 
ATOM     56  C   UNL A   1      41.413  29.661  29.507  1.00  0.00     0.074 A 
ATOM     57  C   UNL A   1      47.758  29.514  29.668  1.00  0.00     0.029 A 
ATOM     58  N   UNL A   1      45.604  28.995  29.470  1.00  0.00    -0.354 N 
ATOM     59  N   UNL A   1      42.720  29.539  29.502  1.00  0.00    -0.248 NA
ATOM     60  C   UNL A   1      40.938  30.988  29.924  1.00  0.00     0.031 C 
ATOM     61  C   UNL A   1      46.998  30.637  30.011  1.00  0.00     0.029 A 
ATOM     62  C   UNL A   1      45.657  30.321  29.865  1.00  0.00     0.049 A 
ATOM     63  H   UNL A   1      44.777  28.490  29.298  1.00  0.00     0.167 HD
ATOM     64  C   UNL A   1      43.220  30.777  29.893  1.00  0.00     0.074 A 
ATOM     65  C   UNL A   1      42.078  31.641  30.101  1.00  0.00     0.031 C 
ATOM     66  C   UNL A   1      44.507  31.165  30.068  1.00  0.00     0.037 A 
BRANCH  53  67
ATOM     67  C   UNL A   1      48.636  26.719  28.908  1.00  0.00     0.057 A 
ATOM     68  C   UNL A   1      49.392  26.914  27.744  1.00  0.00     0.134 A 
ATOM     69  C   UNL A   1      49.284  26.154  30.012  1.00  0.00     0.134 A 
ATOM     70  F   UNL A   1      48.825  27.432  26.643  1.00  0.00    -0.206 F 
ATOM     71  C   UNL A   1      50.737  26.547  27.677  1.00  0.00     0.040 A 
ATOM     72  C   UNL A   1      50.635  25.805  29.965  1.00  0.00     0.040 A 
ATOM     73  F   UNL A   1      48.617  25.939  31.156  1.00  0.00    -0.206 F 
ATOM     74  C   UNL A   1      51.364  25.998  28.793  1.00  0.00     0.006 A 
ENDBRANCH  53  67
BRANCH  54  75
ATOM     75  C   UNL A   1      38.919  28.998  29.222  1.00  0.00     0.057 A 
ATOM     76  C   UNL A   1      38.230  29.528  28.125  1.00  0.00     0.134 A 
ATOM     77  C   UNL A   1      38.209  28.855  30.421  1.00  0.00     0.134 A 
ATOM     78  F   UNL A   1      38.861  29.712  26.956  1.00  0.00    -0.206 F 
ATOM     79  C   UNL A   1      36.896  29.929  28.223  1.00  0.00     0.040 A 
ATOM     80  C   UNL A   1      36.868  29.227  30.525  1.00  0.00     0.040 A 
ATOM     81  F   UNL A   1      38.810  28.355  31.510  1.00  0.00    -0.206 F 
ATOM     82  C   UNL A   1      36.210  29.775  29.426  1.00  0.00     0.006 A 
ENDBRANCH  54  75
BRANCH  66  83
ATOM     83  C   UNL A   1      44.742  32.588  30.482  1.00  0.00     0.057 A 
ATOM     84  C   UNL A   1      44.876  33.619  29.542  1.00  0.00     0.134 A 
ATOM     85  C   UNL A   1      44.818  32.936  31.837  1.00  0.00     0.134 A 
ATOM     86  F   UNL A   1      44.822  33.352  28.228  1.00  0.00    -0.206 F 
ATOM     87  C   UNL A   1      45.113  34.937  29.934  1.00  0.00     0.040 A 
ATOM     88  C   UNL A   1      45.026  34.255  32.242  1.00  0.00     0.040 A 
ATOM     89  F   UNL A   1      44.686  32.000  32.789  1.00  0.00    -0.206 F 
ATOM     90  C   UNL A   1      45.185  35.259  31.289  1.00  0.00     0.006 A 
ENDBRANCH  66  83
ENDBRANCH  40  41
ENDBRANCH  33  35
ENDBRANCH  32  33
ENDBRANCH  31  32
ENDBRANCH  30  31
ENDBRANCH  29  30
ENDBRANCH  28  29
ENDBRANCH  27  28
ENDBRANCH  26  27
ENDBRANCH   1  26
TORSDOF 24
ENDMDL
MODEL 2
REMARK VINA RESULT:      -9.5      3.223      7.940
REMARK SMILES C[C@H](NC(=O)c1cc(S(=O)(=O)N(C)C)cs1)C(=O)OCCOCCOCCOCCOC(=O)c1ccc(-c2c3nc(c(-c4c(F)cccc4F)c4ccc([nH]4)c(-c4c(F)cccc4F)c4nc(c(-c5c(F)cccc5F)c5ccc2[nH]5)C=C4)C=C3)cc1
REMARK SMILES IDX 24 1 23 2 22 3 21 4 20 5 19 6 17 7 18 8 2 9 1 10 3 11 4 12
REMARK SMILES IDX 5 14 6 15 7 16 16 17 8 18 15 19 9 20 10 21 11 22 12 23 13 24
REMARK SMILES IDX 14 25 25 26 26 27 27 28 28 29 29 30 30 31 31 32 32 33 33 34
REMARK SMILES IDX 34 35 35 36 87 37 36 38 86 39 37 40 38 41 39 42 80 43 40 44
REMARK SMILES IDX 85 45 79 46 81 47 41 48 84 49 78 50 77 51 42 53 68 54 51 55
REMARK SMILES IDX 67 56 52 57 55 58 66 59 82 60 53 61 54 62 65 64 83 65 56 66
REMARK SMILES IDX 43 67 44 68 49 69 45 70 46 71 48 72 50 73 47 74 69 75 70 76
REMARK SMILES IDX 75 77 71 78 72 79 74 80 76 81 73 82 57 83 58 84 63 85 59 86
REMARK SMILES IDX 60 87 62 88 64 89 61 90
REMARK H PARENT 3 13 81 52 55 63
REMARK Flexibility Score: inf
ROOT
ATOM      1  C   UNL A   1      35.010  31.485  28.087  1.00  0.00     0.188 C 
ENDROOT
BRANCH   1   2
ATOM      2  C   UNL A   1      34.032  30.614  27.274  1.00  0.00     0.188 C 
BRANCH   2   3
ATOM      3  O   UNL A   1      32.661  30.967  27.168  1.00  0.00    -0.376 OA
BRANCH   3   4
ATOM      4  C   UNL A   1      31.894  30.418  26.111  1.00  0.00     0.202 C 
BRANCH   4   5
ATOM      5  C   UNL A   1      31.786  28.890  25.941  1.00  0.00     0.261 C 
BRANCH   5   6
ATOM      6  O   UNL A   1      30.834  28.407  24.972  1.00  0.00    -0.462 OA
BRANCH   6   7
ATOM      7  C   UNL A   1      31.201  27.313  24.250  1.00  0.00     0.328 C 
ATOM      8  O   UNL A   1      32.158  27.284  23.484  1.00  0.00    -0.250 OA
BRANCH   7   9
ATOM      9  C   UNL A   1      30.224  26.121  24.385  1.00  0.00     0.189 C 
ATOM     10  C   UNL A   1      28.876  26.610  23.853  1.00  0.00     0.043 C 
BRANCH   9  11
ATOM     11  N   UNL A   1      29.983  25.537  25.713  1.00  0.00    -0.338 N 
ATOM     12  C   UNL A   1      30.326  24.290  26.191  1.00  0.00     0.262 C 
ATOM     13  H   UNL A   1      29.510  26.119  26.351  1.00  0.00     0.164 HD
ATOM     14  O   UNL A   1      29.738  23.883  27.192  1.00  0.00    -0.268 OA
BRANCH  12  15
ATOM     15  C   UNL A   1      31.409  23.555  25.562  1.00  0.00     0.093 A 
ATOM     16  C   UNL A   1      32.548  23.046  26.147  1.00  0.00     0.047 A 
ATOM     17  S   UNL A   1      31.310  23.086  23.918  1.00  0.00    -0.137 S 
ATOM     18  C   UNL A   1      33.360  22.301  25.253  1.00  0.00     0.094 A 
ATOM     19  C   UNL A   1      32.816  22.257  23.989  1.00  0.00     0.087 A 
BRANCH  18  20
ATOM     20  S   UNL A   1      34.873  21.580  25.707  1.00  0.00     0.243 S 
ATOM     21  O   UNL A   1      34.834  21.517  27.140  1.00  0.00    -0.207 OA
ATOM     22  O   UNL A   1      34.908  20.386  24.874  1.00  0.00    -0.207 OA
BRANCH  20  23
ATOM     23  N   UNL A   1      36.150  22.614  25.229  1.00  0.00    -0.204 NA
ATOM     24  C   UNL A   1      36.977  22.108  24.110  1.00  0.00     0.124 C 
ATOM     25  C   UNL A   1      35.735  24.017  24.998  1.00  0.00     0.124 C 
ENDBRANCH  20  23
ENDBRANCH  18  20
ENDBRANCH  12  15
ENDBRANCH   9  11
ENDBRANCH   7   9
ENDBRANCH   6   7
ENDBRANCH   5   6
ENDBRANCH   4   5
ENDBRANCH   3   4
ENDBRANCH   2   3
ENDBRANCH   1   2
BRANCH   1  26
ATOM     26  O   UNL A   1      34.467  31.960  29.301  1.00  0.00    -0.377 OA
BRANCH  26  27
ATOM     27  C   UNL A   1      34.268  33.362  29.371  1.00  0.00     0.188 C 
BRANCH  27  28
ATOM     28  C   UNL A   1      35.455  34.212  29.858  1.00  0.00     0.188 C 
BRANCH  28  29
ATOM     29  O   UNL A   1      35.261  34.763  31.165  1.00  0.00    -0.376 OA
BRANCH  29  30
ATOM     30  C   UNL A   1      34.141  34.284  31.907  1.00  0.00     0.202 C 
BRANCH  30  31
ATOM     31  C   UNL A   1      34.493  33.403  33.117  1.00  0.00     0.261 C 
BRANCH  31  32
ATOM     32  O   UNL A   1      35.299  32.249  32.826  1.00  0.00    -0.460 OA
BRANCH  32  33
ATOM     33  C   UNL A   1      36.499  32.152  33.438  1.00  0.00     0.338 C 
ATOM     34  O   UNL A   1      36.759  32.422  34.595  1.00  0.00    -0.246 OA
BRANCH  33  35
ATOM     35  C   UNL A   1      37.417  31.437  32.527  1.00  0.00     0.060 A 
ATOM     36  C   UNL A   1      38.455  30.689  33.093  1.00  0.00     0.016 A 
ATOM     37  C   UNL A   1      37.251  31.485  31.139  1.00  0.00     0.016 A 
ATOM     38  C   UNL A   1      39.360  30.022  32.270  1.00  0.00     0.010 A 
ATOM     39  C   UNL A   1      38.173  30.834  30.314  1.00  0.00     0.010 A 
ATOM     40  C   UNL A   1      39.252  30.132  30.878  1.00  0.00    -0.014 A 
BRANCH  40  41
ATOM     41  C   UNL A   1      40.387  29.686  30.038  1.00  0.00     0.031 A 
ATOM     42  C   UNL A   1      41.498  30.664  29.768  1.00  0.00     0.074 A 
ATOM     43  C   UNL A   1      40.467  28.423  29.585  1.00  0.00     0.049 A 
ATOM     44  N   UNL A   1      42.619  30.491  29.116  1.00  0.00    -0.248 NA
ATOM     45  C   UNL A   1      41.323  32.020  30.316  1.00  0.00     0.031 C 
ATOM     46  C   UNL A   1      39.468  27.379  29.802  1.00  0.00     0.029 A 
ATOM     47  N   UNL A   1      41.448  27.806  28.849  1.00  0.00    -0.354 N 
ATOM     48  C   UNL A   1      43.289  31.706  29.192  1.00  0.00     0.074 A 
ATOM     49  C   UNL A   1      42.431  32.621  29.912  1.00  0.00     0.031 C 
ATOM     50  C   UNL A   1      39.884  26.248  29.203  1.00  0.00     0.029 A 
ATOM     51  C   UNL A   1      41.168  26.494  28.550  1.00  0.00     0.049 A 
ATOM     52  H   UNL A   1      42.272  28.259  28.561  1.00  0.00     0.167 HD
ATOM     53  C   UNL A   1      44.516  32.026  28.720  1.00  0.00     0.037 A 
ATOM     54  C   UNL A   1      41.870  25.602  27.824  1.00  0.00     0.037 A 
ATOM     55  C   UNL A   1      45.360  31.122  27.986  1.00  0.00     0.049 A 
ATOM     56  C   UNL A   1      43.205  26.005  27.251  1.00  0.00     0.074 A 
ATOM     57  C   UNL A   1      46.616  31.354  27.453  1.00  0.00     0.029 A 
ATOM     58  N   UNL A   1      45.028  29.813  27.675  1.00  0.00    -0.354 N 
ATOM     59  N   UNL A   1      43.841  27.148  27.354  1.00  0.00    -0.248 NA
ATOM     60  C   UNL A   1      43.923  24.989  26.470  1.00  0.00     0.031 C 
ATOM     61  C   UNL A   1      47.027  30.197  26.784  1.00  0.00     0.029 A 
ATOM     62  C   UNL A   1      46.048  29.229  26.943  1.00  0.00     0.049 A 
ATOM     63  H   UNL A   1      44.191  29.365  27.935  1.00  0.00     0.167 HD
ATOM     64  C   UNL A   1      45.041  26.979  26.671  1.00  0.00     0.074 A 
ATOM     65  C   UNL A   1      45.054  25.617  26.182  1.00  0.00     0.031 C 
ATOM     66  C   UNL A   1      46.041  27.871  26.463  1.00  0.00     0.037 A 
BRANCH  53  67
ATOM     67  C   UNL A   1      45.010  33.417  28.978  1.00  0.00     0.057 A 
ATOM     68  C   UNL A   1      45.794  33.722  30.100  1.00  0.00     0.134 A 
ATOM     69  C   UNL A   1      44.729  34.457  28.086  1.00  0.00     0.134 A 
ATOM     70  F   UNL A   1      46.082  32.775  31.006  1.00  0.00    -0.206 F 
ATOM     71  C   UNL A   1      46.267  35.015  30.330  1.00  0.00     0.040 A 
ATOM     72  C   UNL A   1      45.215  35.749  28.292  1.00  0.00     0.040 A 
ATOM     73  F   UNL A   1      43.981  34.233  26.994  1.00  0.00    -0.206 F 
ATOM     74  C   UNL A   1      45.985  36.031  29.420  1.00  0.00     0.006 A 
ENDBRANCH  53  67
BRANCH  54  75
ATOM     75  C   UNL A   1      41.326  24.242  27.579  1.00  0.00     0.057 A 
ATOM     76  C   UNL A   1      40.284  24.022  26.671  1.00  0.00     0.134 A 
ATOM     77  C   UNL A   1      41.807  23.134  28.288  1.00  0.00     0.134 A 
ATOM     78  F   UNL A   1      39.763  25.047  25.980  1.00  0.00    -0.206 F 
ATOM     79  C   UNL A   1      39.720  22.757  26.497  1.00  0.00     0.040 A 
ATOM     80  C   UNL A   1      41.271  21.859  28.103  1.00  0.00     0.040 A 
ATOM     81  F   UNL A   1      42.804  23.276  29.174  1.00  0.00    -0.206 F 
ATOM     82  C   UNL A   1      40.217  21.669  27.212  1.00  0.00     0.006 A 
ENDBRANCH  54  75
BRANCH  66  83
ATOM     83  C   UNL A   1      47.237  27.388  25.694  1.00  0.00     0.057 A 
ATOM     84  C   UNL A   1      48.293  26.710  26.318  1.00  0.00     0.134 A 
ATOM     85  C   UNL A   1      47.327  27.591  24.311  1.00  0.00     0.134 A 
ATOM     86  F   UNL A   1      48.272  26.493  27.642  1.00  0.00    -0.206 F 
ATOM     87  C   UNL A   1      49.410  26.282  25.600  1.00  0.00     0.040 A 
ATOM     88  C   UNL A   1      48.426  27.142  23.578  1.00  0.00     0.040 A 
ATOM     89  F   UNL A   1      46.346  28.222  23.649  1.00  0.00    -0.206 F 
ATOM     90  C   UNL A   1      49.477  26.494  24.224  1.00  0.00     0.006 A 
ENDBRANCH  66  83
ENDBRANCH  40  41
ENDBRANCH  33  35
ENDBRANCH  32  33
ENDBRANCH  31  32
ENDBRANCH  30  31
ENDBRANCH  29  30
ENDBRANCH  28  29
ENDBRANCH  27  28
ENDBRANCH  26  27
ENDBRANCH   1  26
TORSDOF 24
ENDMDL
MODEL 3
REMARK VINA RESULT:      -9.2      2.604      7.317
REMARK SMILES C[C@H](NC(=O)c1cc(S(=O)(=O)N(C)C)cs1)C(=O)OCCOCCOCCOCCOC(=O)c1ccc(-c2c3nc(c(-c4c(F)cccc4F)c4ccc([nH]4)c(-c4c(F)cccc4F)c4nc(c(-c5c(F)cccc5F)c5ccc2[nH]5)C=C4)C=C3)cc1
REMARK SMILES IDX 24 1 23 2 22 3 21 4 20 5 19 6 17 7 18 8 2 9 1 10 3 11 4 12
REMARK SMILES IDX 5 14 6 15 7 16 16 17 8 18 15 19 9 20 10 21 11 22 12 23 13 24
REMARK SMILES IDX 14 25 25 26 26 27 27 28 28 29 29 30 30 31 31 32 32 33 33 34
REMARK SMILES IDX 34 35 35 36 87 37 36 38 86 39 37 40 38 41 39 42 80 43 40 44
REMARK SMILES IDX 85 45 79 46 81 47 41 48 84 49 78 50 77 51 42 53 68 54 51 55
REMARK SMILES IDX 67 56 52 57 55 58 66 59 82 60 53 61 54 62 65 64 83 65 56 66
REMARK SMILES IDX 43 67 44 68 49 69 45 70 46 71 48 72 50 73 47 74 69 75 70 76
REMARK SMILES IDX 75 77 71 78 72 79 74 80 76 81 73 82 57 83 58 84 63 85 59 86
REMARK SMILES IDX 60 87 62 88 64 89 61 90
REMARK H PARENT 3 13 81 52 55 63
REMARK Flexibility Score: inf
ROOT
ATOM      1  C   UNL A   1      32.209  21.980  22.914  1.00  0.00     0.188 C 
ENDROOT
BRANCH   1   2
ATOM      2  C   UNL A   1      33.413  22.817  22.436  1.00  0.00     0.188 C 
BRANCH   2   3
ATOM      3  O   UNL A   1      33.285  23.719  21.348  1.00  0.00    -0.376 OA
BRANCH   3   4
ATOM      4  C   UNL A   1      32.433  24.842  21.488  1.00  0.00     0.202 C 
BRANCH   4   5
ATOM      5  C   UNL A   1      32.326  25.572  22.841  1.00  0.00     0.261 C 
BRANCH   5   6
ATOM      6  O   UNL A   1      31.181  25.261  23.661  1.00  0.00    -0.462 OA
BRANCH   6   7
ATOM      7  C   UNL A   1      31.437  24.826  24.925  1.00  0.00     0.328 C 
ATOM      8  O   UNL A   1      30.659  24.153  25.592  1.00  0.00    -0.250 OA
BRANCH   7   9
ATOM      9  C   UNL A   1      32.767  25.361  25.510  1.00  0.00     0.189 C 
ATOM     10  C   UNL A   1      33.453  24.168  26.175  1.00  0.00     0.043 C 
BRANCH   9  11
ATOM     11  N   UNL A   1      32.730  26.450  26.496  1.00  0.00    -0.338 N 
ATOM     12  C   UNL A   1      32.682  27.813  26.288  1.00  0.00     0.262 C 
ATOM     13  H   UNL A   1      32.742  26.167  27.439  1.00  0.00     0.164 HD
ATOM     14  O   UNL A   1      33.002  28.542  27.226  1.00  0.00    -0.268 OA
BRANCH  12  15
ATOM     15  C   UNL A   1      32.181  28.327  25.026  1.00  0.00     0.093 A 
ATOM     16  C   UNL A   1      30.873  28.561  24.660  1.00  0.00     0.047 A 
ATOM     17  S   UNL A   1      33.257  28.871  23.812  1.00  0.00    -0.137 S 
ATOM     18  C   UNL A   1      30.741  29.152  23.377  1.00  0.00     0.094 A 
ATOM     19  C   UNL A   1      31.967  29.361  22.785  1.00  0.00     0.087 A 
BRANCH  18  20
ATOM     20  S   UNL A   1      29.211  29.519  22.643  1.00  0.00     0.243 S 
ATOM     21  O   UNL A   1      29.506  29.703  21.251  1.00  0.00    -0.207 OA
ATOM     22  O   UNL A   1      28.369  28.434  23.125  1.00  0.00    -0.207 OA
BRANCH  20  23
ATOM     23  N   UNL A   1      28.622  30.991  23.287  1.00  0.00    -0.204 NA
ATOM     24  C   UNL A   1      29.526  31.654  24.255  1.00  0.00     0.124 C 
ATOM     25  C   UNL A   1      28.137  31.947  22.265  1.00  0.00     0.124 C 
ENDBRANCH  20  23
ENDBRANCH  18  20
ENDBRANCH  12  15
ENDBRANCH   9  11
ENDBRANCH   7   9
ENDBRANCH   6   7
ENDBRANCH   5   6
ENDBRANCH   4   5
ENDBRANCH   3   4
ENDBRANCH   2   3
ENDBRANCH   1   2
BRANCH   1  26
ATOM     26  O   UNL A   1      32.158  20.689  22.343  1.00  0.00    -0.377 OA
BRANCH  26  27
ATOM     27  C   UNL A   1      32.422  19.619  23.234  1.00  0.00     0.188 C 
BRANCH  27  28
ATOM     28  C   UNL A   1      32.811  19.991  24.676  1.00  0.00     0.188 C 
BRANCH  28  29
ATOM     29  O   UNL A   1      34.186  19.728  24.979  1.00  0.00    -0.376 OA
BRANCH  29  30
ATOM     30  C   UNL A   1      35.101  20.808  24.805  1.00  0.00     0.202 C 
BRANCH  30  31
ATOM     31  C   UNL A   1      36.579  20.447  25.030  1.00  0.00     0.261 C 
BRANCH  31  32
ATOM     32  O   UNL A   1      37.351  21.426  25.745  1.00  0.00    -0.460 OA
BRANCH  32  33
ATOM     33  C   UNL A   1      38.649  21.144  25.989  1.00  0.00     0.338 C 
ATOM     34  O   UNL A   1      39.254  20.135  25.679  1.00  0.00    -0.246 OA
BRANCH  33  35
ATOM     35  C   UNL A   1      39.293  22.371  26.501  1.00  0.00     0.060 A 
ATOM     36  C   UNL A   1      38.748  23.605  26.127  1.00  0.00     0.016 A 
ATOM     37  C   UNL A   1      40.403  22.312  27.350  1.00  0.00     0.016 A 
ATOM     38  C   UNL A   1      39.341  24.787  26.564  1.00  0.00     0.010 A 
ATOM     39  C   UNL A   1      41.011  23.500  27.769  1.00  0.00     0.010 A 
ATOM     40  C   UNL A   1      40.502  24.740  27.346  1.00  0.00    -0.014 A 
BRANCH  40  41
ATOM     41  C   UNL A   1      41.286  25.983  27.533  1.00  0.00     0.031 A 
ATOM     42  C   UNL A   1      40.648  27.118  28.287  1.00  0.00     0.074 A 
ATOM     43  C   UNL A   1      42.558  26.078  27.109  1.00  0.00     0.049 A 
ATOM     44  N   UNL A   1      41.150  28.276  28.629  1.00  0.00    -0.248 NA
ATOM     45  C   UNL A   1      39.255  26.914  28.720  1.00  0.00     0.031 C 
ATOM     46  C   UNL A   1      43.292  25.039  26.391  1.00  0.00     0.029 A 
ATOM     47  N   UNL A   1      43.459  27.106  27.232  1.00  0.00    -0.354 N 
ATOM     48  C   UNL A   1      40.145  28.929  29.332  1.00  0.00     0.074 A 
ATOM     49  C   UNL A   1      38.989  28.060  29.328  1.00  0.00     0.031 C 
ATOM     50  C   UNL A   1      44.533  25.486  26.128  1.00  0.00     0.029 A 
ATOM     51  C   UNL A   1      44.674  26.845  26.646  1.00  0.00     0.049 A 
ATOM     52  H   UNL A   1      43.254  27.950  27.694  1.00  0.00     0.167 HD
ATOM     53  C   UNL A   1      40.185  30.136  29.941  1.00  0.00     0.037 A 
ATOM     54  C   UNL A   1      45.768  27.625  26.537  1.00  0.00     0.037 A 
ATOM     55  C   UNL A   1      41.328  31.010  29.928  1.00  0.00     0.049 A 
ATOM     56  C   UNL A   1      45.764  28.994  27.166  1.00  0.00     0.074 A 
ATOM     57  C   UNL A   1      41.465  32.261  30.505  1.00  0.00     0.029 A 
ATOM     58  N   UNL A   1      42.528  30.725  29.296  1.00  0.00    -0.354 N 
ATOM     59  N   UNL A   1      44.817  29.588  27.853  1.00  0.00    -0.248 NA
ATOM     60  C   UNL A   1      46.986  29.795  27.015  1.00  0.00     0.031 C 
ATOM     61  C   UNL A   1      42.736  32.750  30.186  1.00  0.00     0.029 A 
ATOM     62  C   UNL A   1      43.407  31.784  29.454  1.00  0.00     0.049 A 
ATOM     63  H   UNL A   1      42.727  29.895  28.807  1.00  0.00     0.167 HD
ATOM     64  C   UNL A   1      45.338  30.821  28.232  1.00  0.00     0.074 A 
ATOM     65  C   UNL A   1      46.691  30.877  27.722  1.00  0.00     0.031 C 
ATOM     66  C   UNL A   1      44.750  31.820  28.936  1.00  0.00     0.037 A 
BRANCH  53  67
ATOM     67  C   UNL A   1      38.951  30.583  30.666  1.00  0.00     0.057 A 
ATOM     68  C   UNL A   1      38.721  30.240  32.005  1.00  0.00     0.134 A 
ATOM     69  C   UNL A   1      37.997  31.387  30.032  1.00  0.00     0.134 A 
ATOM     70  F   UNL A   1      39.587  29.454  32.665  1.00  0.00    -0.206 F 
ATOM     71  C   UNL A   1      37.580  30.670  32.683  1.00  0.00     0.040 A 
ATOM     72  C   UNL A   1      36.863  31.843  30.705  1.00  0.00     0.040 A 
ATOM     73  F   UNL A   1      38.156  31.748  28.749  1.00  0.00    -0.206 F 
ATOM     74  C   UNL A   1      36.650  31.482  32.035  1.00  0.00     0.006 A 
ENDBRANCH  53  67
BRANCH  54  75
ATOM     75  C   UNL A   1      46.959  27.144  25.790  1.00  0.00     0.057 A 
ATOM     76  C   UNL A   1      47.964  26.399  26.417  1.00  0.00     0.134 A 
ATOM     77  C   UNL A   1      47.141  27.464  24.439  1.00  0.00     0.134 A 
ATOM     78  F   UNL A   1      47.860  26.081  27.716  1.00  0.00    -0.206 F 
ATOM     79  C   UNL A   1      49.120  26.012  25.735  1.00  0.00     0.040 A 
ATOM     80  C   UNL A   1      48.279  27.061  23.739  1.00  0.00     0.040 A 
ATOM     81  F   UNL A   1      46.216  28.177  23.780  1.00  0.00    -0.206 F 
ATOM     82  C   UNL A   1      49.278  26.341  24.391  1.00  0.00     0.006 A 
ENDBRANCH  54  75
BRANCH  66  83
ATOM     83  C   UNL A   1      45.579  33.042  29.210  1.00  0.00     0.057 A 
ATOM     84  C   UNL A   1      45.573  34.148  28.349  1.00  0.00     0.134 A 
ATOM     85  C   UNL A   1      46.380  33.120  30.357  1.00  0.00     0.134 A 
ATOM     86  F   UNL A   1      44.835  34.133  27.229  1.00  0.00    -0.206 F 
ATOM     87  C   UNL A   1      46.361  35.271  28.601  1.00  0.00     0.040 A 
ATOM     88  C   UNL A   1      47.150  34.250  30.634  1.00  0.00     0.040 A 
ATOM     89  F   UNL A   1      46.422  32.102  31.229  1.00  0.00    -0.206 F 
ATOM     90  C   UNL A   1      47.150  35.326  29.749  1.00  0.00     0.006 A 
ENDBRANCH  66  83
ENDBRANCH  40  41
ENDBRANCH  33  35
ENDBRANCH  32  33
ENDBRANCH  31  32
ENDBRANCH  30  31
ENDBRANCH  29  30
ENDBRANCH  28  29
ENDBRANCH  27  28
ENDBRANCH  26  27
ENDBRANCH   1  26
TORSDOF 24
ENDMDL
