MODEL 1
REMARK VINA RESULT:      -9.6      0.000      0.000
REMARK SMILES Cc1n[nH]c(C(F)(F)Cl)c1C(=O)OCCOCCOCCOCCOC(=O)c1ccc(-c2c3nc(c(-c4c(F)cccc4F)c4ccc([nH]4)c(-c4c(F)cccc4F)c4nc(c(-c5c(F)cccc5F)c5ccc2[nH]5)C=C4)C=C3)cc1
REMARK SMILES IDX 20 1 19 2 18 3 17 4 16 5 15 6 14 7 13 8 11 9 12 10 10 11
REMARK SMILES IDX 1 12 2 13 3 14 4 15 5 16 6 18 7 19 8 20 9 21 21 22 22 23
REMARK SMILES IDX 23 24 24 25 25 26 26 27 27 28 28 29 29 30 81 31 30 32 80 33
REMARK SMILES IDX 31 34 32 35 33 36 74 37 34 38 79 39 73 40 75 41 35 42 78 43
REMARK SMILES IDX 72 44 71 45 36 47 62 48 45 49 61 50 46 51 49 52 60 53 76 54
REMARK SMILES IDX 47 55 48 56 59 58 77 59 50 60 37 61 38 62 43 63 39 64 40 65
REMARK SMILES IDX 42 66 44 67 41 68 63 69 64 70 69 71 65 72 66 73 68 74 70 75
REMARK SMILES IDX 67 76 51 77 52 78 57 79 53 80 54 81 56 82 58 83 55 84
REMARK H PARENT 4 17 75 46 49 57
REMARK Flexibility Score: inf
ROOT
ATOM      1  C   UNL A   1      33.214  34.427  29.019  1.00  0.00     0.188 C 
ENDROOT
BRANCH   1   2
ATOM      2  O   UNL A   1      34.126  33.392  28.669  1.00  0.00    -0.377 OA
BRANCH   2   3
ATOM      3  C   UNL A   1      33.711  32.417  27.730  1.00  0.00     0.188 C 
BRANCH   3   4
ATOM      4  C   UNL A   1      34.616  31.178  27.672  1.00  0.00     0.188 C 
BRANCH   4   5
ATOM      5  O   UNL A   1      33.939  29.993  27.246  1.00  0.00    -0.376 OA
BRANCH   5   6
ATOM      6  C   UNL A   1      32.585  30.172  26.836  1.00  0.00     0.202 C 
BRANCH   6   7
ATOM      7  C   UNL A   1      32.074  29.054  25.922  1.00  0.00     0.261 C 
BRANCH   7   8
ATOM      8  O   UNL A   1      31.462  29.553  24.723  1.00  0.00    -0.460 OA
BRANCH   8   9
ATOM      9  C   UNL A   1      31.364  28.707  23.669  1.00  0.00     0.342 C 
ATOM     10  O   UNL A   1      32.271  28.462  22.887  1.00  0.00    -0.246 OA
BRANCH   9  11
ATOM     11  C   UNL A   1      30.070  28.048  23.647  1.00  0.00     0.111 A 
ATOM     12  C   UNL A   1      30.721  25.585  24.328  1.00  0.00     0.070 C 
ATOM     13  C   UNL A   1      29.792  26.674  23.922  1.00  0.00     0.074 A 
ATOM     14  N   UNL A   1      28.491  26.397  23.785  1.00  0.00    -0.180 NA
ATOM     15  N   UNL A   1      27.948  27.552  23.396  1.00  0.00    -0.274 N 
ATOM     16  C   UNL A   1      28.843  28.577  23.259  1.00  0.00     0.135 A 
ATOM     17  H   UNL A   1      26.985  27.657  23.222  1.00  0.00     0.190 HD
BRANCH  16  18
ATOM     18  C   UNL A   1      28.308  29.851  22.723  1.00  0.00     0.365 C 
ATOM     19  F   UNL A   1      28.713  29.968  21.422  1.00  0.00    -0.181 F 
ATOM     20  F   UNL A   1      26.950  29.783  22.659  1.00  0.00    -0.181 F 
ATOM     21  Cl  UNL A   1      28.771  31.329  23.552  1.00  0.00    -0.040 Cl
ENDBRANCH  16  18
ENDBRANCH   9  11
ENDBRANCH   8   9
ENDBRANCH   7   8
ENDBRANCH   6   7
ENDBRANCH   5   6
ENDBRANCH   4   5
ENDBRANCH   3   4
ENDBRANCH   2   3
ENDBRANCH   1   2
BRANCH   1  22
ATOM     22  C   UNL A   1      33.697  35.823  29.464  1.00  0.00     0.188 C 
BRANCH  22  23
ATOM     23  O   UNL A   1      33.592  36.059  30.867  1.00  0.00    -0.376 OA
BRANCH  23  24
ATOM     24  C   UNL A   1      33.839  34.942  31.716  1.00  0.00     0.202 C 
BRANCH  24  25
ATOM     25  C   UNL A   1      35.216  35.007  32.384  1.00  0.00     0.261 C 
BRANCH  25  26
ATOM     26  O   UNL A   1      36.150  34.037  31.887  1.00  0.00    -0.460 OA
BRANCH  26  27
ATOM     27  C   UNL A   1      36.187  32.853  32.534  1.00  0.00     0.338 C 
ATOM     28  O   UNL A   1      35.447  32.471  33.422  1.00  0.00    -0.246 OA
BRANCH  27  29
ATOM     29  C   UNL A   1      37.183  32.000  31.863  1.00  0.00     0.060 A 
ATOM     30  C   UNL A   1      38.171  31.387  32.641  1.00  0.00     0.016 A 
ATOM     31  C   UNL A   1      37.143  31.815  30.477  1.00  0.00     0.016 A 
ATOM     32  C   UNL A   1      39.158  30.621  32.024  1.00  0.00     0.010 A 
ATOM     33  C   UNL A   1      38.140  31.063  29.860  1.00  0.00     0.010 A 
ATOM     34  C   UNL A   1      39.170  30.496  30.627  1.00  0.00    -0.014 A 
BRANCH  34  35
ATOM     35  C   UNL A   1      40.369  29.959  29.948  1.00  0.00     0.031 A 
ATOM     36  C   UNL A   1      41.518  30.895  29.701  1.00  0.00     0.074 A 
ATOM     37  C   UNL A   1      40.432  28.678  29.547  1.00  0.00     0.049 A 
ATOM     38  N   UNL A   1      42.657  30.672  29.098  1.00  0.00    -0.248 NA
ATOM     39  C   UNL A   1      41.359  32.271  30.201  1.00  0.00     0.031 C 
ATOM     40  C   UNL A   1      39.389  27.675  29.746  1.00  0.00     0.029 A 
ATOM     41  N   UNL A   1      41.422  28.012  28.873  1.00  0.00    -0.354 N 
ATOM     42  C   UNL A   1      43.349  31.874  29.152  1.00  0.00     0.074 A 
ATOM     43  C   UNL A   1      42.497  32.831  29.821  1.00  0.00     0.031 C 
ATOM     44  C   UNL A   1      39.791  26.518  29.189  1.00  0.00     0.029 A 
ATOM     45  C   UNL A   1      41.107  26.708  28.582  1.00  0.00     0.049 A 
ATOM     46  H   UNL A   1      42.278  28.429  28.622  1.00  0.00     0.167 HD
ATOM     47  C   UNL A   1      44.590  32.155  28.691  1.00  0.00     0.037 A 
ATOM     48  C   UNL A   1      41.800  25.786  27.889  1.00  0.00     0.037 A 
ATOM     49  C   UNL A   1      45.431  31.212  28.009  1.00  0.00     0.049 A 
ATOM     50  C   UNL A   1      43.149  26.143  27.323  1.00  0.00     0.074 A 
ATOM     51  C   UNL A   1      46.709  31.395  27.514  1.00  0.00     0.029 A 
ATOM     52  N   UNL A   1      45.067  29.907  27.713  1.00  0.00    -0.354 N 
ATOM     53  N   UNL A   1      43.815  27.269  27.416  1.00  0.00    -0.248 NA
ATOM     54  C   UNL A   1      43.844  25.098  26.556  1.00  0.00     0.031 C 
ATOM     55  C   UNL A   1      47.107  30.209  26.888  1.00  0.00     0.029 A 
ATOM     56  C   UNL A   1      46.088  29.279  27.024  1.00  0.00     0.049 A 
ATOM     57  H   UNL A   1      44.210  29.490  27.959  1.00  0.00     0.167 HD
ATOM     58  C   UNL A   1      45.012  27.061  26.744  1.00  0.00     0.074 A 
ATOM     59  C   UNL A   1      44.987  25.699  26.253  1.00  0.00     0.031 C 
ATOM     60  C   UNL A   1      46.044  27.920  26.551  1.00  0.00     0.037 A 
BRANCH  47  61
ATOM     61  C   UNL A   1      45.093  33.549  28.899  1.00  0.00     0.057 A 
ATOM     62  C   UNL A   1      44.861  34.560  27.958  1.00  0.00     0.134 A 
ATOM     63  C   UNL A   1      45.809  33.886  30.052  1.00  0.00     0.134 A 
ATOM     64  F   UNL A   1      44.197  34.292  26.822  1.00  0.00    -0.206 F 
ATOM     65  C   UNL A   1      45.343  35.855  28.148  1.00  0.00     0.040 A 
ATOM     66  C   UNL A   1      46.281  35.183  30.262  1.00  0.00     0.040 A 
ATOM     67  F   UNL A   1      46.068  32.961  30.988  1.00  0.00    -0.206 F 
ATOM     68  C   UNL A   1      46.051  36.170  29.307  1.00  0.00     0.006 A 
ENDBRANCH  47  61
BRANCH  48  69
ATOM     69  C   UNL A   1      41.234  24.432  27.678  1.00  0.00     0.057 A 
ATOM     70  C   UNL A   1      41.719  23.328  28.388  1.00  0.00     0.134 A 
ATOM     71  C   UNL A   1      40.218  24.204  26.743  1.00  0.00     0.134 A 
ATOM     72  F   UNL A   1      42.710  23.481  29.279  1.00  0.00    -0.206 F 
ATOM     73  C   UNL A   1      41.225  22.042  28.165  1.00  0.00     0.040 A 
ATOM     74  C   UNL A   1      39.701  22.927  26.523  1.00  0.00     0.040 A 
ATOM     75  F   UNL A   1      39.715  25.223  26.030  1.00  0.00    -0.206 F 
ATOM     76  C   UNL A   1      40.210  21.839  27.232  1.00  0.00     0.006 A 
ENDBRANCH  48  69
BRANCH  60  77
ATOM     77  C   UNL A   1      47.237  27.404  25.807  1.00  0.00     0.057 A 
ATOM     78  C   UNL A   1      48.270  26.718  26.457  1.00  0.00     0.134 A 
ATOM     79  C   UNL A   1      47.329  27.551  24.417  1.00  0.00     0.134 A 
ATOM     80  F   UNL A   1      48.244  26.556  27.789  1.00  0.00    -0.206 F 
ATOM     81  C   UNL A   1      49.360  26.207  25.752  1.00  0.00     0.040 A 
ATOM     82  C   UNL A   1      48.403  27.027  23.699  1.00  0.00     0.040 A 
ATOM     83  F   UNL A   1      46.367  28.192  23.735  1.00  0.00    -0.206 F 
ATOM     84  C   UNL A   1      49.425  26.355  24.368  1.00  0.00     0.006 A 
ENDBRANCH  60  77
ENDBRANCH  34  35
ENDBRANCH  27  29
ENDBRANCH  26  27
ENDBRANCH  25  26
ENDBRANCH  24  25
ENDBRANCH  23  24
ENDBRANCH  22  23
ENDBRANCH   1  22
TORSDOF 21
ENDMDL
MODEL 2
REMARK VINA RESULT:      -9.4      4.626      6.998
REMARK SMILES Cc1n[nH]c(C(F)(F)Cl)c1C(=O)OCCOCCOCCOCCOC(=O)c1ccc(-c2c3nc(c(-c4c(F)cccc4F)c4ccc([nH]4)c(-c4c(F)cccc4F)c4nc(c(-c5c(F)cccc5F)c5ccc2[nH]5)C=C4)C=C3)cc1
REMARK SMILES IDX 20 1 19 2 18 3 17 4 16 5 15 6 14 7 13 8 11 9 12 10 10 11
REMARK SMILES IDX 1 12 2 13 3 14 4 15 5 16 6 18 7 19 8 20 9 21 21 22 22 23
REMARK SMILES IDX 23 24 24 25 25 26 26 27 27 28 28 29 29 30 81 31 30 32 80 33
REMARK SMILES IDX 31 34 32 35 33 36 74 37 34 38 79 39 73 40 75 41 35 42 78 43
REMARK SMILES IDX 72 44 71 45 36 47 62 48 45 49 61 50 46 51 49 52 60 53 76 54
REMARK SMILES IDX 47 55 48 56 59 58 77 59 50 60 37 61 38 62 43 63 39 64 40 65
REMARK SMILES IDX 42 66 44 67 41 68 63 69 64 70 69 71 65 72 66 73 68 74 70 75
REMARK SMILES IDX 67 76 51 77 52 78 57 79 53 80 54 81 56 82 58 83 55 84
REMARK H PARENT 4 17 75 46 49 57
REMARK Flexibility Score: inf
ROOT
ATOM      1  C   UNL A   1      34.352  33.007  29.130  1.00  0.00     0.188 C 
ENDROOT
BRANCH   1   2
ATOM      2  O   UNL A   1      34.438  31.667  28.657  1.00  0.00    -0.377 OA
BRANCH   2   3
ATOM      3  C   UNL A   1      34.011  31.390  27.336  1.00  0.00     0.188 C 
BRANCH   3   4
ATOM      4  C   UNL A   1      32.787  30.466  27.254  1.00  0.00     0.188 C 
BRANCH   4   5
ATOM      5  O   UNL A   1      33.087  29.159  26.759  1.00  0.00    -0.376 OA
BRANCH   5   6
ATOM      6  C   UNL A   1      32.292  28.102  27.292  1.00  0.00     0.202 C 
BRANCH   6   7
ATOM      7  C   UNL A   1      31.855  27.080  26.238  1.00  0.00     0.261 C 
BRANCH   7   8
ATOM      8  O   UNL A   1      30.639  27.452  25.573  1.00  0.00    -0.460 OA
BRANCH   8   9
ATOM      9  C   UNL A   1      30.453  27.009  24.306  1.00  0.00     0.342 C 
ATOM     10  O   UNL A   1      30.093  25.879  24.010  1.00  0.00    -0.246 OA
BRANCH   9  11
ATOM     11  C   UNL A   1      30.638  28.082  23.345  1.00  0.00     0.111 A 
ATOM     12  C   UNL A   1      28.143  28.749  22.812  1.00  0.00     0.070 C 
ATOM     13  C   UNL A   1      29.623  28.834  22.680  1.00  0.00     0.074 A 
ATOM     14  N   UNL A   1      30.146  29.731  21.838  1.00  0.00    -0.180 NA
ATOM     15  N   UNL A   1      31.463  29.541  21.930  1.00  0.00    -0.274 N 
ATOM     16  C   UNL A   1      31.828  28.542  22.790  1.00  0.00     0.135 A 
ATOM     17  H   UNL A   1      32.116  30.073  21.420  1.00  0.00     0.190 HD
BRANCH  16  18
ATOM     18  C   UNL A   1      33.273  28.216  22.845  1.00  0.00     0.365 C 
ATOM     19  F   UNL A   1      33.802  28.423  21.601  1.00  0.00    -0.181 F 
ATOM     20  F   UNL A   1      33.912  29.111  23.648  1.00  0.00    -0.181 F 
ATOM     21  Cl  UNL A   1      33.711  26.588  23.337  1.00  0.00    -0.040 Cl
ENDBRANCH  16  18
ENDBRANCH   9  11
ENDBRANCH   8   9
ENDBRANCH   7   8
ENDBRANCH   6   7
ENDBRANCH   5   6
ENDBRANCH   4   5
ENDBRANCH   3   4
ENDBRANCH   2   3
ENDBRANCH   1   2
BRANCH   1  22
ATOM     22  C   UNL A   1      33.639  34.112  28.325  1.00  0.00     0.188 C 
BRANCH  22  23
ATOM     23  O   UNL A   1      34.026  35.439  28.683  1.00  0.00    -0.376 OA
BRANCH  23  24
ATOM     24  C   UNL A   1      32.969  36.369  28.895  1.00  0.00     0.202 C 
BRANCH  24  25
ATOM     25  C   UNL A   1      32.977  36.951  30.312  1.00  0.00     0.261 C 
BRANCH  25  26
ATOM     26  O   UNL A   1      32.387  36.091  31.298  1.00  0.00    -0.460 OA
BRANCH  26  27
ATOM     27  C   UNL A   1      32.948  36.112  32.526  1.00  0.00     0.338 C 
ATOM     28  O   UNL A   1      32.538  36.685  33.518  1.00  0.00    -0.246 OA
BRANCH  27  29
ATOM     29  C   UNL A   1      34.076  35.165  32.525  1.00  0.00     0.060 A 
ATOM     30  C   UNL A   1      33.895  33.909  33.114  1.00  0.00     0.016 A 
ATOM     31  C   UNL A   1      35.301  35.518  31.952  1.00  0.00     0.016 A 
ATOM     32  C   UNL A   1      34.962  33.014  33.176  1.00  0.00     0.010 A 
ATOM     33  C   UNL A   1      36.373  34.630  32.029  1.00  0.00     0.010 A 
ATOM     34  C   UNL A   1      36.215  33.393  32.674  1.00  0.00    -0.014 A 
BRANCH  34  35
ATOM     35  C   UNL A   1      37.413  32.594  33.011  1.00  0.00     0.031 A 
ATOM     36  C   UNL A   1      38.132  32.906  34.293  1.00  0.00     0.074 A 
ATOM     37  C   UNL A   1      37.860  31.624  32.195  1.00  0.00     0.049 A 
ATOM     38  N   UNL A   1      39.219  32.372  34.788  1.00  0.00    -0.248 NA
ATOM     39  C   UNL A   1      37.547  33.968  35.128  1.00  0.00     0.031 C 
ATOM     40  C   UNL A   1      37.238  31.221  30.937  1.00  0.00     0.029 A 
ATOM     41  N   UNL A   1      38.960  30.813  32.306  1.00  0.00    -0.354 N 
ATOM     42  C   UNL A   1      39.441  33.026  35.991  1.00  0.00     0.074 A 
ATOM     43  C   UNL A   1      38.398  34.015  36.142  1.00  0.00     0.031 C 
ATOM     44  C   UNL A   1      37.977  30.243  30.382  1.00  0.00     0.029 A 
ATOM     45  C   UNL A   1      39.130  29.970  31.238  1.00  0.00     0.049 A 
ATOM     46  H   UNL A   1      39.569  30.834  33.080  1.00  0.00     0.167 HD
ATOM     47  C   UNL A   1      40.426  32.819  36.896  1.00  0.00     0.037 A 
ATOM     48  C   UNL A   1      40.118  29.092  30.979  1.00  0.00     0.037 A 
ATOM     49  C   UNL A   1      41.475  31.851  36.739  1.00  0.00     0.049 A 
ATOM     50  C   UNL A   1      41.242  28.928  31.968  1.00  0.00     0.074 A 
ATOM     51  C   UNL A   1      42.513  31.555  37.605  1.00  0.00     0.029 A 
ATOM     52  N   UNL A   1      41.627  31.031  35.633  1.00  0.00    -0.354 N 
ATOM     53  N   UNL A   1      41.422  29.521  33.123  1.00  0.00    -0.248 NA
ATOM     54  C   UNL A   1      42.301  27.970  31.614  1.00  0.00     0.031 C 
ATOM     55  C   UNL A   1      43.313  30.577  37.005  1.00  0.00     0.029 A 
ATOM     56  C   UNL A   1      42.753  30.242  35.782  1.00  0.00     0.049 A 
ATOM     57  H   UNL A   1      41.022  31.012  34.856  1.00  0.00     0.167 HD
ATOM     58  C   UNL A   1      42.596  28.993  33.644  1.00  0.00     0.074 A 
ATOM     59  C   UNL A   1      43.084  28.025  32.683  1.00  0.00     0.031 C 
ATOM     60  C   UNL A   1      43.215  29.280  34.816  1.00  0.00     0.037 A 
BRANCH  47  61
ATOM     61  C   UNL A   1      40.413  33.675  38.123  1.00  0.00     0.057 A 
ATOM     62  C   UNL A   1      39.616  33.359  39.229  1.00  0.00     0.134 A 
ATOM     63  C   UNL A   1      41.209  34.824  38.202  1.00  0.00     0.134 A 
ATOM     64  F   UNL A   1      38.816  32.281  39.204  1.00  0.00    -0.206 F 
ATOM     65  C   UNL A   1      39.595  34.166  40.366  1.00  0.00     0.040 A 
ATOM     66  C   UNL A   1      41.210  35.630  39.341  1.00  0.00     0.040 A 
ATOM     67  F   UNL A   1      41.990  35.183  37.173  1.00  0.00    -0.206 F 
ATOM     68  C   UNL A   1      40.399  35.303  40.426  1.00  0.00     0.006 A 
ENDBRANCH  47  61
BRANCH  48  69
ATOM     69  C   UNL A   1      40.100  28.299  29.726  1.00  0.00     0.057 A 
ATOM     70  C   UNL A   1      39.395  27.094  29.644  1.00  0.00     0.134 A 
ATOM     71  C   UNL A   1      40.812  28.710  28.594  1.00  0.00     0.134 A 
ATOM     72  F   UNL A   1      38.715  26.636  30.706  1.00  0.00    -0.206 F 
ATOM     73  C   UNL A   1      39.408  26.317  28.485  1.00  0.00     0.040 A 
ATOM     74  C   UNL A   1      40.819  27.954  27.421  1.00  0.00     0.040 A 
ATOM     75  F   UNL A   1      41.510  29.856  28.613  1.00  0.00    -0.206 F 
ATOM     76  C   UNL A   1      40.120  26.749  27.367  1.00  0.00     0.006 A 
ENDBRANCH  48  69
BRANCH  60  77
ATOM     77  C   UNL A   1      44.466  28.521  35.136  1.00  0.00     0.057 A 
ATOM     78  C   UNL A   1      45.731  29.005  34.784  1.00  0.00     0.134 A 
ATOM     79  C   UNL A   1      44.406  27.316  35.849  1.00  0.00     0.134 A 
ATOM     80  F   UNL A   1      45.853  30.147  34.090  1.00  0.00    -0.206 F 
ATOM     81  C   UNL A   1      46.895  28.311  35.120  1.00  0.00     0.040 A 
ATOM     82  C   UNL A   1      45.563  26.624  36.208  1.00  0.00     0.040 A 
ATOM     83  F   UNL A   1      43.223  26.804  36.223  1.00  0.00    -0.206 F 
ATOM     84  C   UNL A   1      46.812  27.120  35.840  1.00  0.00     0.006 A 
ENDBRANCH  60  77
ENDBRANCH  34  35
ENDBRANCH  27  29
ENDBRANCH  26  27
ENDBRANCH  25  26
ENDBRANCH  24  25
ENDBRANCH  23  24
ENDBRANCH  22  23
ENDBRANCH   1  22
TORSDOF 21
ENDMDL
MODEL 3
REMARK VINA RESULT:      -9.4      4.565      6.985
REMARK SMILES Cc1n[nH]c(C(F)(F)Cl)c1C(=O)OCCOCCOCCOCCOC(=O)c1ccc(-c2c3nc(c(-c4c(F)cccc4F)c4ccc([nH]4)c(-c4c(F)cccc4F)c4nc(c(-c5c(F)cccc5F)c5ccc2[nH]5)C=C4)C=C3)cc1
REMARK SMILES IDX 20 1 19 2 18 3 17 4 16 5 15 6 14 7 13 8 11 9 12 10 10 11
REMARK SMILES IDX 1 12 2 13 3 14 4 15 5 16 6 18 7 19 8 20 9 21 21 22 22 23
REMARK SMILES IDX 23 24 24 25 25 26 26 27 27 28 28 29 29 30 81 31 30 32 80 33
REMARK SMILES IDX 31 34 32 35 33 36 74 37 34 38 79 39 73 40 75 41 35 42 78 43
REMARK SMILES IDX 72 44 71 45 36 47 62 48 45 49 61 50 46 51 49 52 60 53 76 54
REMARK SMILES IDX 47 55 48 56 59 58 77 59 50 60 37 61 38 62 43 63 39 64 40 65
REMARK SMILES IDX 42 66 44 67 41 68 63 69 64 70 69 71 65 72 66 73 68 74 70 75
REMARK SMILES IDX 67 76 51 77 52 78 57 79 53 80 54 81 56 82 58 83 55 84
REMARK H PARENT 4 17 75 46 49 57
REMARK Flexibility Score: inf
ROOT
ATOM      1  C   UNL A   1      34.495  32.825  29.358  1.00  0.00     0.188 C 
ENDROOT
BRANCH   1   2
ATOM      2  O   UNL A   1      34.632  31.486  28.895  1.00  0.00    -0.377 OA
BRANCH   2   3
ATOM      3  C   UNL A   1      34.524  31.240  27.505  1.00  0.00     0.188 C 
BRANCH   3   4
ATOM      4  C   UNL A   1      33.653  30.025  27.151  1.00  0.00     0.188 C 
BRANCH   4   5
ATOM      5  O   UNL A   1      34.314  29.070  26.317  1.00  0.00    -0.376 OA
BRANCH   5   6
ATOM      6  C   UNL A   1      33.460  28.142  25.651  1.00  0.00     0.202 C 
BRANCH   6   7
ATOM      7  C   UNL A   1      33.826  27.928  24.179  1.00  0.00     0.261 C 
BRANCH   7   8
ATOM      8  O   UNL A   1      33.943  26.541  23.831  1.00  0.00    -0.460 OA
BRANCH   8   9
ATOM      9  C   UNL A   1      33.280  26.110  22.731  1.00  0.00     0.342 C 
ATOM     10  O   UNL A   1      33.603  26.365  21.579  1.00  0.00    -0.246 OA
BRANCH   9  11
ATOM     11  C   UNL A   1      32.192  25.219  23.092  1.00  0.00     0.111 A 
ATOM     12  C   UNL A   1      33.173  22.875  22.384  1.00  0.00     0.070 C 
ATOM     13  C   UNL A   1      32.142  23.801  22.926  1.00  0.00     0.074 A 
ATOM     14  N   UNL A   1      30.976  23.296  23.343  1.00  0.00    -0.180 NA
ATOM     15  N   UNL A   1      30.277  24.363  23.736  1.00  0.00    -0.274 N 
ATOM     16  C   UNL A   1      30.933  25.553  23.580  1.00  0.00     0.135 A 
ATOM     17  H   UNL A   1      29.367  24.299  24.105  1.00  0.00     0.190 HD
BRANCH  16  18
ATOM     18  C   UNL A   1      30.160  26.778  23.898  1.00  0.00     0.365 C 
ATOM     19  F   UNL A   1      30.435  27.130  25.190  1.00  0.00    -0.181 F 
ATOM     20  F   UNL A   1      30.623  27.816  23.148  1.00  0.00    -0.181 F 
ATOM     21  Cl  UNL A   1      28.413  26.688  23.738  1.00  0.00    -0.040 Cl
ENDBRANCH  16  18
ENDBRANCH   9  11
ENDBRANCH   8   9
ENDBRANCH   7   8
ENDBRANCH   6   7
ENDBRANCH   5   6
ENDBRANCH   4   5
ENDBRANCH   3   4
ENDBRANCH   2   3
ENDBRANCH   1   2
BRANCH   1  22
ATOM     22  C   UNL A   1      33.714  33.889  28.560  1.00  0.00     0.188 C 
BRANCH  22  23
ATOM     23  O   UNL A   1      34.037  35.235  28.907  1.00  0.00    -0.376 OA
BRANCH  23  24
ATOM     24  C   UNL A   1      32.941  36.137  29.024  1.00  0.00     0.202 C 
BRANCH  24  25
ATOM     25  C   UNL A   1      32.895  36.828  30.390  1.00  0.00     0.261 C 
BRANCH  25  26
ATOM     26  O   UNL A   1      32.382  36.000  31.444  1.00  0.00    -0.460 OA
BRANCH  26  27
ATOM     27  C   UNL A   1      33.005  36.092  32.638  1.00  0.00     0.338 C 
ATOM     28  O   UNL A   1      32.639  36.712  33.619  1.00  0.00    -0.246 OA
BRANCH  27  29
ATOM     29  C   UNL A   1      34.146  35.160  32.626  1.00  0.00     0.060 A 
ATOM     30  C   UNL A   1      33.959  33.869  33.132  1.00  0.00     0.016 A 
ATOM     31  C   UNL A   1      35.388  35.561  32.126  1.00  0.00     0.016 A 
ATOM     32  C   UNL A   1      35.035  32.985  33.184  1.00  0.00     0.010 A 
ATOM     33  C   UNL A   1      36.468  34.683  32.194  1.00  0.00     0.010 A 
ATOM     34  C   UNL A   1      36.302  33.408  32.757  1.00  0.00    -0.014 A 
BRANCH  34  35
ATOM     35  C   UNL A   1      37.497  32.604  33.095  1.00  0.00     0.031 A 
ATOM     36  C   UNL A   1      38.220  32.917  34.374  1.00  0.00     0.074 A 
ATOM     37  C   UNL A   1      37.937  31.629  32.281  1.00  0.00     0.049 A 
ATOM     38  N   UNL A   1      39.305  32.379  34.868  1.00  0.00    -0.248 NA
ATOM     39  C   UNL A   1      37.642  33.985  35.206  1.00  0.00     0.031 C 
ATOM     40  C   UNL A   1      37.310  31.224  31.026  1.00  0.00     0.029 A 
ATOM     41  N   UNL A   1      39.033  30.813  32.393  1.00  0.00    -0.354 N 
ATOM     42  C   UNL A   1      39.533  33.037  36.069  1.00  0.00     0.074 A 
ATOM     43  C   UNL A   1      38.495  34.032  36.218  1.00  0.00     0.031 C 
ATOM     44  C   UNL A   1      38.043  30.240  30.473  1.00  0.00     0.029 A 
ATOM     45  C   UNL A   1      39.197  29.965  31.327  1.00  0.00     0.049 A 
ATOM     46  H   UNL A   1      39.644  30.834  33.165  1.00  0.00     0.167 HD
ATOM     47  C   UNL A   1      40.519  32.828  36.972  1.00  0.00     0.037 A 
ATOM     48  C   UNL A   1      40.179  29.080  31.070  1.00  0.00     0.037 A 
ATOM     49  C   UNL A   1      41.563  31.854  36.817  1.00  0.00     0.049 A 
ATOM     50  C   UNL A   1      41.305  28.915  32.057  1.00  0.00     0.074 A 
ATOM     51  C   UNL A   1      42.601  31.556  37.681  1.00  0.00     0.029 A 
ATOM     52  N   UNL A   1      41.708  31.029  35.713  1.00  0.00    -0.354 N 
ATOM     53  N   UNL A   1      41.490  29.511  33.210  1.00  0.00    -0.248 NA
ATOM     54  C   UNL A   1      42.358  27.950  31.705  1.00  0.00     0.031 C 
ATOM     55  C   UNL A   1      43.395  30.572  37.084  1.00  0.00     0.029 A 
ATOM     56  C   UNL A   1      42.830  30.235  35.863  1.00  0.00     0.049 A 
ATOM     57  H   UNL A   1      41.101  31.010  34.938  1.00  0.00     0.167 HD
ATOM     58  C   UNL A   1      42.662  28.979  33.731  1.00  0.00     0.074 A 
ATOM     59  C   UNL A   1      43.144  28.005  32.772  1.00  0.00     0.031 C 
ATOM     60  C   UNL A   1      43.286  29.267  34.900  1.00  0.00     0.037 A 
BRANCH  47  61
ATOM     61  C   UNL A   1      40.513  33.689  38.196  1.00  0.00     0.057 A 
ATOM     62  C   UNL A   1      39.690  33.401  39.291  1.00  0.00     0.134 A 
ATOM     63  C   UNL A   1      41.341  34.814  38.283  1.00  0.00     0.134 A 
ATOM     64  F   UNL A   1      38.859  32.347  39.257  1.00  0.00    -0.206 F 
ATOM     65  C   UNL A   1      39.676  34.213  40.425  1.00  0.00     0.040 A 
ATOM     66  C   UNL A   1      41.349  35.624  39.419  1.00  0.00     0.040 A 
ATOM     67  F   UNL A   1      42.149  35.146  37.265  1.00  0.00    -0.206 F 
ATOM     68  C   UNL A   1      40.512  35.326  40.493  1.00  0.00     0.006 A 
ENDBRANCH  47  61
BRANCH  48  69
ATOM     69  C   UNL A   1      40.155  28.283  29.820  1.00  0.00     0.057 A 
ATOM     70  C   UNL A   1      39.412  27.101  29.732  1.00  0.00     0.134 A 
ATOM     71  C   UNL A   1      40.897  28.666  28.697  1.00  0.00     0.134 A 
ATOM     72  F   UNL A   1      38.701  26.670  30.785  1.00  0.00    -0.206 F 
ATOM     73  C   UNL A   1      39.418  26.319  28.576  1.00  0.00     0.040 A 
ATOM     74  C   UNL A   1      40.898  27.904  27.528  1.00  0.00     0.040 A 
ATOM     75  F   UNL A   1      41.632  29.788  28.723  1.00  0.00    -0.206 F 
ATOM     76  C   UNL A   1      40.161  26.722  27.468  1.00  0.00     0.006 A 
ENDBRANCH  48  69
BRANCH  60  77
ATOM     77  C   UNL A   1      44.533  28.503  35.220  1.00  0.00     0.057 A 
ATOM     78  C   UNL A   1      45.800  28.978  34.861  1.00  0.00     0.134 A 
ATOM     79  C   UNL A   1      44.469  27.303  35.940  1.00  0.00     0.134 A 
ATOM     80  F   UNL A   1      45.926  30.115  34.160  1.00  0.00    -0.206 F 
ATOM     81  C   UNL A   1      46.961  28.279  35.197  1.00  0.00     0.040 A 
ATOM     82  C   UNL A   1      45.623  26.607  36.300  1.00  0.00     0.040 A 
ATOM     83  F   UNL A   1      43.285  26.800  36.321  1.00  0.00    -0.206 F 
ATOM     84  C   UNL A   1      46.874  27.093  35.924  1.00  0.00     0.006 A 
ENDBRANCH  60  77
ENDBRANCH  34  35
ENDBRANCH  27  29
ENDBRANCH  26  27
ENDBRANCH  25  26
ENDBRANCH  24  25
ENDBRANCH  23  24
ENDBRANCH  22  23
ENDBRANCH   1  22
TORSDOF 21
ENDMDL
