MODEL 1
REMARK VINA RESULT:     -10.6      0.000      0.000
REMARK SMILES O=C(OCCOCCOCCOCCOC(=O)c1ccc(-c2c3nc(c(-c4c(F)cccc4F)c4ccc([nH]4)c(-c4c(F)cccc4F)c4nc(c(-c5c(F)cccc5F)c5ccc2[nH]5)C=C4)C=C3)cc1)C1=Cc2c(ccc(Cl)c2Cl)O[C@H]1C(F)(F)F
REMARK SMILES IDX 10 1 9 2 8 3 7 4 6 5 5 6 4 7 3 8 2 9 1 10 72 11 73 12 83 13
REMARK SMILES IDX 74 14 82 15 75 16 80 17 76 18 78 19 81 20 77 21 79 22 84 23
REMARK SMILES IDX 85 24 86 25 87 26 11 27 12 28 13 29 14 30 15 31 16 32 17 33
REMARK SMILES IDX 18 34 19 35 71 36 20 37 70 38 21 39 22 40 23 41 64 42 24 43
REMARK SMILES IDX 69 44 63 45 65 46 25 47 68 48 62 49 61 50 26 52 52 53 35 54
REMARK SMILES IDX 51 55 36 56 39 57 50 58 66 59 37 60 38 61 49 63 67 64 40 65
REMARK SMILES IDX 27 66 28 67 33 68 29 69 30 70 32 71 34 72 31 73 53 74 54 75
REMARK SMILES IDX 59 76 55 77 56 78 58 79 60 80 57 81 41 82 42 83 47 84 43 85
REMARK SMILES IDX 44 86 46 87 48 88 45 89
REMARK H PARENT 65 51 39 62
REMARK Flexibility Score: inf
ROOT
ATOM      1  C   UNL A   1      43.023  19.244  25.373  1.00  0.00     0.188 C 
ENDROOT
BRANCH   1   2
ATOM      2  O   UNL A   1      42.430  19.577  26.624  1.00  0.00    -0.377 OA
BRANCH   2   3
ATOM      3  C   UNL A   1      41.068  19.980  26.624  1.00  0.00     0.188 C 
BRANCH   3   4
ATOM      4  C   UNL A   1      40.805  21.389  26.081  1.00  0.00     0.188 C 
BRANCH   4   5
ATOM      5  O   UNL A   1      39.809  22.095  26.810  1.00  0.00    -0.376 OA
BRANCH   5   6
ATOM      6  C   UNL A   1      38.620  22.367  26.080  1.00  0.00     0.202 C 
BRANCH   6   7
ATOM      7  C   UNL A   1      38.064  23.755  26.354  1.00  0.00     0.261 C 
BRANCH   7   8
ATOM      8  O   UNL A   1      36.906  24.040  25.551  1.00  0.00    -0.460 OA
BRANCH   8   9
ATOM      9  C   UNL A   1      36.421  23.283  24.536  1.00  0.00     0.338 C 
ATOM     10  O   UNL A   1      37.030  23.245  23.470  1.00  0.00    -0.246 OA
BRANCH   9  11
ATOM     11  C   UNL A   1      35.326  22.311  24.777  1.00  0.00     0.087 C 
ATOM     12  C   UNL A   1      35.399  21.081  25.299  1.00  0.00     0.029 C 
ATOM     13  C   UNL A   1      33.949  22.944  24.794  1.00  0.00     0.316 C 
ATOM     14  C   UNL A   1      34.374  20.142  24.852  1.00  0.00     0.037 A 
ATOM     15  O   UNL A   1      32.842  22.014  24.600  1.00  0.00    -0.475 OA
ATOM     16  C   UNL A   1      33.137  20.682  24.493  1.00  0.00     0.129 A 
ATOM     17  C   UNL A   1      34.634  18.772  24.604  1.00  0.00     0.070 A 
ATOM     18  C   UNL A   1      32.147  19.867  23.945  1.00  0.00     0.049 A 
ATOM     19  C   UNL A   1      33.651  17.975  23.998  1.00  0.00     0.060 A 
ATOM     20  Cl  UNL A   1      36.189  18.076  24.959  1.00  0.00    -0.082 Cl
ATOM     21  C   UNL A   1      32.409  18.522  23.681  1.00  0.00     0.026 A 
ATOM     22  Cl  UNL A   1      33.925  16.320  23.569  1.00  0.00    -0.083 Cl
BRANCH  13  23
ATOM     23  C   UNL A   1      33.778  23.724  26.138  1.00  0.00     0.430 C 
ATOM     24  F   UNL A   1      34.154  25.025  26.056  1.00  0.00    -0.167 F 
ATOM     25  F   UNL A   1      32.494  23.704  26.562  1.00  0.00    -0.167 F 
ATOM     26  F   UNL A   1      34.533  23.187  27.130  1.00  0.00    -0.167 F 
ENDBRANCH  13  23
ENDBRANCH   9  11
ENDBRANCH   8   9
ENDBRANCH   7   8
ENDBRANCH   6   7
ENDBRANCH   5   6
ENDBRANCH   4   5
ENDBRANCH   3   4
ENDBRANCH   2   3
ENDBRANCH   1   2
BRANCH   1  27
ATOM     27  C   UNL A   1      44.383  19.938  25.133  1.00  0.00     0.188 C 
BRANCH  27  28
ATOM     28  O   UNL A   1      44.706  20.522  23.869  1.00  0.00    -0.376 OA
BRANCH  28  29
ATOM     29  C   UNL A   1      44.998  21.909  23.827  1.00  0.00     0.202 C 
BRANCH  29  30
ATOM     30  C   UNL A   1      44.481  22.666  25.065  1.00  0.00     0.261 C 
BRANCH  30  31
ATOM     31  O   UNL A   1      43.817  23.914  24.774  1.00  0.00    -0.460 OA
BRANCH  31  32
ATOM     32  C   UNL A   1      44.484  25.045  25.147  1.00  0.00     0.338 C 
ATOM     33  O   UNL A   1      45.479  25.498  24.645  1.00  0.00    -0.246 OA
BRANCH  32  34
ATOM     34  C   UNL A   1      43.706  25.753  26.214  1.00  0.00     0.060 A 
ATOM     35  C   UNL A   1      44.076  27.066  26.536  1.00  0.00     0.016 A 
ATOM     36  C   UNL A   1      42.636  25.157  26.888  1.00  0.00     0.016 A 
ATOM     37  C   UNL A   1      43.404  27.773  27.545  1.00  0.00     0.010 A 
ATOM     38  C   UNL A   1      41.974  25.859  27.910  1.00  0.00     0.010 A 
ATOM     39  C   UNL A   1      42.373  27.161  28.268  1.00  0.00    -0.014 A 
BRANCH  39  40
ATOM     40  C   UNL A   1      41.853  27.779  29.522  1.00  0.00     0.031 A 
ATOM     41  C   UNL A   1      40.612  28.631  29.432  1.00  0.00     0.074 A 
ATOM     42  C   UNL A   1      42.451  27.616  30.718  1.00  0.00     0.049 A 
ATOM     43  N   UNL A   1      40.042  29.378  30.343  1.00  0.00    -0.248 NA
ATOM     44  C   UNL A   1      39.925  28.642  28.130  1.00  0.00     0.031 C 
ATOM     45  C   UNL A   1      43.617  26.778  30.980  1.00  0.00     0.029 A 
ATOM     46  N   UNL A   1      42.161  28.177  31.944  1.00  0.00    -0.354 N 
ATOM     47  C   UNL A   1      38.951  29.968  29.718  1.00  0.00     0.074 A 
ATOM     48  C   UNL A   1      38.938  29.497  28.350  1.00  0.00     0.031 C 
ATOM     49  C   UNL A   1      43.963  26.902  32.275  1.00  0.00     0.029 A 
ATOM     50  C   UNL A   1      43.069  27.860  32.928  1.00  0.00     0.049 A 
ATOM     51  H   UNL A   1      41.377  28.751  32.100  1.00  0.00     0.167 HD
ATOM     52  C   UNL A   1      38.041  30.830  30.232  1.00  0.00     0.037 A 
ATOM     53  C   UNL A   1      43.191  28.321  34.192  1.00  0.00     0.037 A 
ATOM     54  C   UNL A   1      38.031  31.290  31.594  1.00  0.00     0.049 A 
ATOM     55  C   UNL A   1      42.209  29.344  34.718  1.00  0.00     0.074 A 
ATOM     56  C   UNL A   1      37.117  32.127  32.211  1.00  0.00     0.029 A 
ATOM     57  N   UNL A   1      38.984  30.966  32.545  1.00  0.00    -0.354 N 
ATOM     58  N   UNL A   1      41.161  29.868  34.129  1.00  0.00    -0.248 NA
ATOM     59  C   UNL A   1      42.436  29.850  36.083  1.00  0.00     0.031 C 
ATOM     60  C   UNL A   1      37.555  32.365  33.517  1.00  0.00     0.029 A 
ATOM     61  C   UNL A   1      38.707  31.626  33.731  1.00  0.00     0.049 A 
ATOM     62  H   UNL A   1      39.745  30.359  32.400  1.00  0.00     0.167 HD
ATOM     63  C   UNL A   1      40.596  30.740  35.055  1.00  0.00     0.074 A 
ATOM     64  C   UNL A   1      41.404  30.664  36.252  1.00  0.00     0.031 C 
ATOM     65  C   UNL A   1      39.508  31.538  34.923  1.00  0.00     0.037 A 
BRANCH  52  66
ATOM     66  C   UNL A   1      36.996  31.378  29.306  1.00  0.00     0.057 A 
ATOM     67  C   UNL A   1      35.837  30.662  28.982  1.00  0.00     0.134 A 
ATOM     68  C   UNL A   1      37.126  32.672  28.786  1.00  0.00     0.134 A 
ATOM     69  F   UNL A   1      35.658  29.414  29.439  1.00  0.00    -0.206 F 
ATOM     70  C   UNL A   1      34.849  31.212  28.162  1.00  0.00     0.040 A 
ATOM     71  C   UNL A   1      36.135  33.242  27.987  1.00  0.00     0.040 A 
ATOM     72  F   UNL A   1      38.212  33.411  29.063  1.00  0.00    -0.206 F 
ATOM     73  C   UNL A   1      34.992  32.508  27.671  1.00  0.00     0.006 A 
ENDBRANCH  52  66
BRANCH  53  74
ATOM     74  C   UNL A   1      44.325  27.882  35.052  1.00  0.00     0.057 A 
ATOM     75  C   UNL A   1      44.204  26.797  35.929  1.00  0.00     0.134 A 
ATOM     76  C   UNL A   1      45.534  28.589  35.075  1.00  0.00     0.134 A 
ATOM     77  F   UNL A   1      43.059  26.100  35.984  1.00  0.00    -0.206 F 
ATOM     78  C   UNL A   1      45.228  26.449  36.813  1.00  0.00     0.040 A 
ATOM     79  C   UNL A   1      46.578  28.234  35.932  1.00  0.00     0.040 A 
ATOM     80  F   UNL A   1      45.718  29.646  34.269  1.00  0.00    -0.206 F 
ATOM     81  C   UNL A   1      46.421  27.167  36.813  1.00  0.00     0.006 A 
ENDBRANCH  53  74
BRANCH  65  82
ATOM     82  C   UNL A   1      39.102  32.377  36.101  1.00  0.00     0.057 A 
ATOM     83  C   UNL A   1      39.563  33.690  36.268  1.00  0.00     0.134 A 
ATOM     84  C   UNL A   1      38.177  31.895  37.037  1.00  0.00     0.134 A 
ATOM     85  F   UNL A   1      40.456  34.210  35.413  1.00  0.00    -0.206 F 
ATOM     86  C   UNL A   1      39.130  34.486  37.331  1.00  0.00     0.040 A 
ATOM     87  C   UNL A   1      37.716  32.690  38.088  1.00  0.00     0.040 A 
ATOM     88  F   UNL A   1      37.685  30.652  36.930  1.00  0.00    -0.206 F 
ATOM     89  C   UNL A   1      38.196  33.990  38.238  1.00  0.00     0.006 A 
ENDBRANCH  65  82
ENDBRANCH  39  40
ENDBRANCH  32  34
ENDBRANCH  31  32
ENDBRANCH  30  31
ENDBRANCH  29  30
ENDBRANCH  28  29
ENDBRANCH  27  28
ENDBRANCH   1  27
TORSDOF 21
ENDMDL
MODEL 2
REMARK VINA RESULT:     -10.5      3.079      7.275
REMARK SMILES O=C(OCCOCCOCCOCCOC(=O)c1ccc(-c2c3nc(c(-c4c(F)cccc4F)c4ccc([nH]4)c(-c4c(F)cccc4F)c4nc(c(-c5c(F)cccc5F)c5ccc2[nH]5)C=C4)C=C3)cc1)C1=Cc2c(ccc(Cl)c2Cl)O[C@H]1C(F)(F)F
REMARK SMILES IDX 10 1 9 2 8 3 7 4 6 5 5 6 4 7 3 8 2 9 1 10 72 11 73 12 83 13
REMARK SMILES IDX 74 14 82 15 75 16 80 17 76 18 78 19 81 20 77 21 79 22 84 23
REMARK SMILES IDX 85 24 86 25 87 26 11 27 12 28 13 29 14 30 15 31 16 32 17 33
REMARK SMILES IDX 18 34 19 35 71 36 20 37 70 38 21 39 22 40 23 41 64 42 24 43
REMARK SMILES IDX 69 44 63 45 65 46 25 47 68 48 62 49 61 50 26 52 52 53 35 54
REMARK SMILES IDX 51 55 36 56 39 57 50 58 66 59 37 60 38 61 49 63 67 64 40 65
REMARK SMILES IDX 27 66 28 67 33 68 29 69 30 70 32 71 34 72 31 73 53 74 54 75
REMARK SMILES IDX 59 76 55 77 56 78 58 79 60 80 57 81 41 82 42 83 47 84 43 85
REMARK SMILES IDX 44 86 46 87 48 88 45 89
REMARK H PARENT 65 51 39 62
REMARK Flexibility Score: inf
ROOT
ATOM      1  C   UNL A   1      38.561  20.576  25.491  1.00  0.00     0.188 C 
ENDROOT
BRANCH   1   2
ATOM      2  O   UNL A   1      38.922  21.927  25.756  1.00  0.00    -0.377 OA
BRANCH   2   3
ATOM      3  C   UNL A   1      37.876  22.876  25.905  1.00  0.00     0.188 C 
BRANCH   3   4
ATOM      4  C   UNL A   1      36.493  22.397  25.449  1.00  0.00     0.188 C 
BRANCH   4   5
ATOM      5  O   UNL A   1      35.554  22.299  26.511  1.00  0.00    -0.376 OA
BRANCH   5   6
ATOM      6  C   UNL A   1      34.315  21.698  26.156  1.00  0.00     0.202 C 
BRANCH   6   7
ATOM      7  C   UNL A   1      33.608  22.428  25.027  1.00  0.00     0.261 C 
BRANCH   7   8
ATOM      8  O   UNL A   1      32.980  23.640  25.478  1.00  0.00    -0.460 OA
BRANCH   8   9
ATOM      9  C   UNL A   1      33.451  24.901  25.318  1.00  0.00     0.338 C 
ATOM     10  O   UNL A   1      34.561  25.189  25.756  1.00  0.00    -0.246 OA
BRANCH   9  11
ATOM     11  C   UNL A   1      32.766  25.851  24.405  1.00  0.00     0.087 C 
ATOM     12  C   UNL A   1      32.973  27.165  24.255  1.00  0.00     0.029 C 
ATOM     13  C   UNL A   1      32.040  25.172  23.261  1.00  0.00     0.316 C 
ATOM     14  C   UNL A   1      31.815  27.941  23.821  1.00  0.00     0.037 A 
ATOM     15  O   UNL A   1      31.025  25.989  22.605  1.00  0.00    -0.475 OA
ATOM     16  C   UNL A   1      30.874  27.282  23.026  1.00  0.00     0.129 A 
ATOM     17  C   UNL A   1      31.529  29.241  24.305  1.00  0.00     0.070 A 
ATOM     18  C   UNL A   1      29.686  27.918  22.670  1.00  0.00     0.049 A 
ATOM     19  C   UNL A   1      30.305  29.849  23.989  1.00  0.00     0.060 A 
ATOM     20  Cl  UNL A   1      32.635  30.067  25.364  1.00  0.00    -0.082 Cl
ATOM     21  C   UNL A   1      29.393  29.190  23.164  1.00  0.00     0.026 A 
ATOM     22  Cl  UNL A   1      29.835  31.390  24.623  1.00  0.00    -0.083 Cl
BRANCH  13  23
ATOM     23  C   UNL A   1      33.100  24.680  22.224  1.00  0.00     0.430 C 
ATOM     24  F   UNL A   1      32.960  23.372  21.890  1.00  0.00    -0.167 F 
ATOM     25  F   UNL A   1      33.039  25.394  21.077  1.00  0.00    -0.167 F 
ATOM     26  F   UNL A   1      34.365  24.802  22.701  1.00  0.00    -0.167 F 
ENDBRANCH  13  23
ENDBRANCH   9  11
ENDBRANCH   8   9
ENDBRANCH   7   8
ENDBRANCH   6   7
ENDBRANCH   5   6
ENDBRANCH   4   5
ENDBRANCH   3   4
ENDBRANCH   2   3
ENDBRANCH   1   2
BRANCH   1  27
ATOM     27  C   UNL A   1      39.693  19.566  25.785  1.00  0.00     0.188 C 
BRANCH  27  28
ATOM     28  O   UNL A   1      40.771  19.894  26.664  1.00  0.00    -0.376 OA
BRANCH  28  29
ATOM     29  C   UNL A   1      42.078  19.974  26.120  1.00  0.00     0.202 C 
BRANCH  29  30
ATOM     30  C   UNL A   1      42.698  21.377  26.259  1.00  0.00     0.261 C 
BRANCH  30  31
ATOM     31  O   UNL A   1      42.305  22.314  25.234  1.00  0.00    -0.460 OA
BRANCH  31  32
ATOM     32  C   UNL A   1      43.074  23.437  25.127  1.00  0.00     0.338 C 
ATOM     33  O   UNL A   1      44.002  23.612  24.381  1.00  0.00    -0.246 OA
BRANCH  32  34
ATOM     34  C   UNL A   1      42.500  24.517  25.993  1.00  0.00     0.060 A 
ATOM     35  C   UNL A   1      43.135  25.767  25.992  1.00  0.00     0.016 A 
ATOM     36  C   UNL A   1      41.366  24.324  26.787  1.00  0.00     0.016 A 
ATOM     37  C   UNL A   1      42.663  26.811  26.802  1.00  0.00     0.010 A 
ATOM     38  C   UNL A   1      40.903  25.364  27.611  1.00  0.00     0.010 A 
ATOM     39  C   UNL A   1      41.566  26.607  27.649  1.00  0.00    -0.014 A 
BRANCH  39  40
ATOM     40  C   UNL A   1      41.236  27.593  28.718  1.00  0.00     0.031 A 
ATOM     41  C   UNL A   1      42.020  27.533  30.005  1.00  0.00     0.074 A 
ATOM     42  C   UNL A   1      40.266  28.518  28.582  1.00  0.00     0.049 A 
ATOM     43  N   UNL A   1      41.838  28.185  31.125  1.00  0.00    -0.248 NA
ATOM     44  C   UNL A   1      43.160  26.604  30.027  1.00  0.00     0.031 C 
ATOM     45  C   UNL A   1      39.464  28.743  27.383  1.00  0.00     0.029 A 
ATOM     46  N   UNL A   1      39.777  29.436  29.488  1.00  0.00    -0.354 N 
ATOM     47  C   UNL A   1      42.822  27.725  31.992  1.00  0.00     0.074 A 
ATOM     48  C   UNL A   1      43.595  26.737  31.271  1.00  0.00     0.031 C 
ATOM     49  C   UNL A   1      38.564  29.712  27.635  1.00  0.00     0.029 A 
ATOM     50  C   UNL A   1      38.696  30.149  29.026  1.00  0.00     0.049 A 
ATOM     51  H   UNL A   1      40.166  29.568  30.383  1.00  0.00     0.167 HD
ATOM     52  C   UNL A   1      43.061  28.086  33.275  1.00  0.00     0.037 A 
ATOM     53  C   UNL A   1      37.881  31.020  29.661  1.00  0.00     0.037 A 
ATOM     54  C   UNL A   1      42.312  29.081  33.995  1.00  0.00     0.049 A 
ATOM     55  C   UNL A   1      38.119  31.348  31.118  1.00  0.00     0.074 A 
ATOM     56  C   UNL A   1      42.517  29.543  35.284  1.00  0.00     0.029 A 
ATOM     57  N   UNL A   1      41.210  29.755  33.498  1.00  0.00    -0.354 N 
ATOM     58  N   UNL A   1      39.073  30.933  31.916  1.00  0.00    -0.248 NA
ATOM     59  C   UNL A   1      37.157  32.257  31.766  1.00  0.00     0.031 C 
ATOM     60  C   UNL A   1      41.497  30.448  35.591  1.00  0.00     0.029 A 
ATOM     61  C   UNL A   1      40.695  30.595  34.472  1.00  0.00     0.049 A 
ATOM     62  H   UNL A   1      40.847  29.654  32.589  1.00  0.00     0.167 HD
ATOM     63  C   UNL A   1      38.839  31.546  33.144  1.00  0.00     0.074 A 
ATOM     64  C   UNL A   1      37.665  32.375  32.984  1.00  0.00     0.031 C 
ATOM     65  C   UNL A   1      39.532  31.426  34.303  1.00  0.00     0.037 A 
BRANCH  52  66
ATOM     66  C   UNL A   1      44.153  27.370  34.012  1.00  0.00     0.057 A 
ATOM     67  C   UNL A   1      43.932  26.162  34.684  1.00  0.00     0.134 A 
ATOM     68  C   UNL A   1      45.461  27.869  33.988  1.00  0.00     0.134 A 
ATOM     69  F   UNL A   1      42.699  25.638  34.754  1.00  0.00    -0.206 F 
ATOM     70  C   UNL A   1      44.974  25.482  35.318  1.00  0.00     0.040 A 
ATOM     71  C   UNL A   1      46.515  27.186  34.594  1.00  0.00     0.040 A 
ATOM     72  F   UNL A   1      45.739  29.021  33.356  1.00  0.00    -0.206 F 
ATOM     73  C   UNL A   1      46.272  25.989  35.265  1.00  0.00     0.006 A 
ENDBRANCH  52  66
BRANCH  53  74
ATOM     74  C   UNL A   1      36.706  31.609  28.958  1.00  0.00     0.057 A 
ATOM     75  C   UNL A   1      36.691  32.950  28.554  1.00  0.00     0.134 A 
ATOM     76  C   UNL A   1      35.539  30.865  28.746  1.00  0.00     0.134 A 
ATOM     77  F   UNL A   1      37.763  33.729  28.761  1.00  0.00    -0.206 F 
ATOM     78  C   UNL A   1      35.553  33.535  27.992  1.00  0.00     0.040 A 
ATOM     79  C   UNL A   1      34.405  31.428  28.157  1.00  0.00     0.040 A 
ATOM     80  F   UNL A   1      35.479  29.577  29.117  1.00  0.00    -0.206 F 
ATOM     81  C   UNL A   1      34.407  32.771  27.789  1.00  0.00     0.006 A 
ENDBRANCH  53  74
BRANCH  65  82
ATOM     82  C   UNL A   1      39.067  32.224  35.488  1.00  0.00     0.057 A 
ATOM     83  C   UNL A   1      38.283  31.655  36.500  1.00  0.00     0.134 A 
ATOM     84  C   UNL A   1      39.474  33.554  35.659  1.00  0.00     0.134 A 
ATOM     85  F   UNL A   1      37.851  30.389  36.395  1.00  0.00    -0.206 F 
ATOM     86  C   UNL A   1      37.908  32.385  37.631  1.00  0.00     0.040 A 
ATOM     87  C   UNL A   1      39.129  34.285  36.798  1.00  0.00     0.040 A 
ATOM     88  F   UNL A   1      40.237  34.157  34.736  1.00  0.00    -0.206 F 
ATOM     89  C   UNL A   1      38.340  33.700  37.786  1.00  0.00     0.006 A 
ENDBRANCH  65  82
ENDBRANCH  39  40
ENDBRANCH  32  34
ENDBRANCH  31  32
ENDBRANCH  30  31
ENDBRANCH  29  30
ENDBRANCH  28  29
ENDBRANCH  27  28
ENDBRANCH   1  27
TORSDOF 21
ENDMDL
MODEL 3
REMARK VINA RESULT:     -10.1      4.937      8.399
REMARK SMILES O=C(OCCOCCOCCOCCOC(=O)c1ccc(-c2c3nc(c(-c4c(F)cccc4F)c4ccc([nH]4)c(-c4c(F)cccc4F)c4nc(c(-c5c(F)cccc5F)c5ccc2[nH]5)C=C4)C=C3)cc1)C1=Cc2c(ccc(Cl)c2Cl)O[C@H]1C(F)(F)F
REMARK SMILES IDX 10 1 9 2 8 3 7 4 6 5 5 6 4 7 3 8 2 9 1 10 72 11 73 12 83 13
REMARK SMILES IDX 74 14 82 15 75 16 80 17 76 18 78 19 81 20 77 21 79 22 84 23
REMARK SMILES IDX 85 24 86 25 87 26 11 27 12 28 13 29 14 30 15 31 16 32 17 33
REMARK SMILES IDX 18 34 19 35 71 36 20 37 70 38 21 39 22 40 23 41 64 42 24 43
REMARK SMILES IDX 69 44 63 45 65 46 25 47 68 48 62 49 61 50 26 52 52 53 35 54
REMARK SMILES IDX 51 55 36 56 39 57 50 58 66 59 37 60 38 61 49 63 67 64 40 65
REMARK SMILES IDX 27 66 28 67 33 68 29 69 30 70 32 71 34 72 31 73 53 74 54 75
REMARK SMILES IDX 59 76 55 77 56 78 58 79 60 80 57 81 41 82 42 83 47 84 43 85
REMARK SMILES IDX 44 86 46 87 48 88 45 89
REMARK H PARENT 65 51 39 62
REMARK Flexibility Score: inf
ROOT
ATOM      1  C   UNL A   1      35.554  22.581  24.018  1.00  0.00     0.188 C 
ENDROOT
BRANCH   1   2
ATOM      2  O   UNL A   1      34.171  22.730  24.322  1.00  0.00    -0.377 OA
BRANCH   2   3
ATOM      3  C   UNL A   1      33.243  22.612  23.254  1.00  0.00     0.188 C 
BRANCH   3   4
ATOM      4  C   UNL A   1      33.339  23.704  22.182  1.00  0.00     0.188 C 
BRANCH   4   5
ATOM      5  O   UNL A   1      33.502  25.008  22.723  1.00  0.00    -0.376 OA
BRANCH   5   6
ATOM      6  C   UNL A   1      33.227  26.066  21.814  1.00  0.00     0.202 C 
BRANCH   6   7
ATOM      7  C   UNL A   1      31.739  26.307  21.621  1.00  0.00     0.261 C 
BRANCH   7   8
ATOM      8  O   UNL A   1      31.037  26.376  22.875  1.00  0.00    -0.460 OA
BRANCH   8   9
ATOM      9  C   UNL A   1      30.739  27.499  23.573  1.00  0.00     0.338 C 
ATOM     10  O   UNL A   1      29.737  28.143  23.276  1.00  0.00    -0.246 OA
BRANCH   9  11
ATOM     11  C   UNL A   1      31.449  27.810  24.838  1.00  0.00     0.087 C 
ATOM     12  C   UNL A   1      31.181  28.766  25.736  1.00  0.00     0.029 C 
ATOM     13  C   UNL A   1      32.318  26.674  25.338  1.00  0.00     0.316 C 
ATOM     14  C   UNL A   1      32.327  29.262  26.493  1.00  0.00     0.037 A 
ATOM     15  O   UNL A   1      33.342  27.060  26.304  1.00  0.00    -0.475 OA
ATOM     16  C   UNL A   1      33.376  28.366  26.711  1.00  0.00     0.129 A 
ATOM     17  C   UNL A   1      32.490  30.624  26.847  1.00  0.00     0.070 A 
ATOM     18  C   UNL A   1      34.552  28.797  27.322  1.00  0.00     0.049 A 
ATOM     19  C   UNL A   1      33.700  31.059  27.407  1.00  0.00     0.060 A 
ATOM     20  Cl  UNL A   1      31.242  31.792  26.518  1.00  0.00    -0.082 Cl
ATOM     21  C   UNL A   1      34.722  30.142  27.652  1.00  0.00     0.026 A 
ATOM     22  Cl  UNL A   1      34.017  32.721  27.773  1.00  0.00    -0.083 Cl
BRANCH  13  23
ATOM     23  C   UNL A   1      31.392  25.567  25.936  1.00  0.00     0.430 C 
ATOM     24  F   UNL A   1      31.874  25.024  27.082  1.00  0.00    -0.167 F 
ATOM     25  F   UNL A   1      30.158  26.049  26.210  1.00  0.00    -0.167 F 
ATOM     26  F   UNL A   1      31.232  24.528  25.078  1.00  0.00    -0.167 F 
ENDBRANCH  13  23
ENDBRANCH   9  11
ENDBRANCH   8   9
ENDBRANCH   7   8
ENDBRANCH   6   7
ENDBRANCH   5   6
ENDBRANCH   4   5
ENDBRANCH   3   4
ENDBRANCH   2   3
ENDBRANCH   1   2
BRANCH   1  27
ATOM     27  C   UNL A   1      36.371  21.943  25.164  1.00  0.00     0.188 C 
BRANCH  27  28
ATOM     28  O   UNL A   1      36.622  20.537  25.205  1.00  0.00    -0.376 OA
BRANCH  28  29
ATOM     29  C   UNL A   1      37.943  20.084  24.962  1.00  0.00     0.202 C 
BRANCH  29  30
ATOM     30  C   UNL A   1      39.005  20.905  25.718  1.00  0.00     0.261 C 
BRANCH  30  31
ATOM     31  O   UNL A   1      39.791  20.150  26.663  1.00  0.00    -0.460 OA
BRANCH  31  32
ATOM     32  C   UNL A   1      41.074  19.877  26.286  1.00  0.00     0.338 C 
ATOM     33  O   UNL A   1      41.467  18.896  25.709  1.00  0.00    -0.246 OA
BRANCH  32  34
ATOM     34  C   UNL A   1      41.940  21.066  26.568  1.00  0.00     0.060 A 
ATOM     35  C   UNL A   1      42.210  21.381  27.907  1.00  0.00     0.016 A 
ATOM     36  C   UNL A   1      42.483  21.861  25.554  1.00  0.00     0.016 A 
ATOM     37  C   UNL A   1      42.992  22.498  28.238  1.00  0.00     0.010 A 
ATOM     38  C   UNL A   1      43.252  22.990  25.885  1.00  0.00     0.010 A 
ATOM     39  C   UNL A   1      43.487  23.336  27.230  1.00  0.00    -0.014 A 
BRANCH  39  40
ATOM     40  C   UNL A   1      44.060  24.671  27.565  1.00  0.00     0.031 A 
ATOM     41  C   UNL A   1      43.115  25.756  28.015  1.00  0.00     0.074 A 
ATOM     42  C   UNL A   1      45.376  24.945  27.469  1.00  0.00     0.049 A 
ATOM     43  N   UNL A   1      43.343  27.027  28.234  1.00  0.00    -0.248 NA
ATOM     44  C   UNL A   1      41.719  25.349  28.243  1.00  0.00     0.031 C 
ATOM     45  C   UNL A   1      46.421  23.991  27.109  1.00  0.00     0.029 A 
ATOM     46  N   UNL A   1      46.055  26.131  27.652  1.00  0.00    -0.354 N 
ATOM     47  C   UNL A   1      42.118  27.572  28.597  1.00  0.00     0.074 A 
ATOM     48  C   UNL A   1      41.148  26.499  28.565  1.00  0.00     0.031 C 
ATOM     49  C   UNL A   1      47.603  24.634  27.067  1.00  0.00     0.029 A 
ATOM     50  C   UNL A   1      47.396  26.054  27.356  1.00  0.00     0.049 A 
ATOM     51  H   UNL A   1      45.620  26.957  27.965  1.00  0.00     0.167 HD
ATOM     52  C   UNL A   1      41.821  28.853  28.923  1.00  0.00     0.037 A 
ATOM     53  C   UNL A   1      48.337  27.020  27.285  1.00  0.00     0.037 A 
ATOM     54  C   UNL A   1      42.780  29.924  28.977  1.00  0.00     0.049 A 
ATOM     55  C   UNL A   1      47.964  28.457  27.576  1.00  0.00     0.074 A 
ATOM     56  C   UNL A   1      42.573  31.243  29.345  1.00  0.00     0.029 A 
ATOM     57  N   UNL A   1      44.118  29.805  28.642  1.00  0.00    -0.354 N 
ATOM     58  N   UNL A   1      46.811  28.955  27.951  1.00  0.00    -0.248 NA
ATOM     59  C   UNL A   1      49.024  29.469  27.419  1.00  0.00     0.031 C 
ATOM     60  C   UNL A   1      43.772  31.938  29.167  1.00  0.00     0.029 A 
ATOM     61  C   UNL A   1      44.739  31.039  28.748  1.00  0.00     0.049 A 
ATOM     62  H   UNL A   1      44.562  28.971  28.370  1.00  0.00     0.167 HD
ATOM     63  C   UNL A   1      47.014  30.324  28.097  1.00  0.00     0.074 A 
ATOM     64  C   UNL A   1      48.403  30.579  27.788  1.00  0.00     0.031 C 
ATOM     65  C   UNL A   1      46.125  31.286  28.450  1.00  0.00     0.037 A 
BRANCH  52  66
ATOM     66  C   UNL A   1      40.387  29.189  29.205  1.00  0.00     0.057 A 
ATOM     67  C   UNL A   1      39.458  29.413  28.183  1.00  0.00     0.134 A 
ATOM     68  C   UNL A   1      39.920  29.221  30.525  1.00  0.00     0.134 A 
ATOM     69  F   UNL A   1      39.845  29.408  26.898  1.00  0.00    -0.206 F 
ATOM     70  C   UNL A   1      38.115  29.670  28.465  1.00  0.00     0.040 A 
ATOM     71  C   UNL A   1      38.576  29.450  30.819  1.00  0.00     0.040 A 
ATOM     72  F   UNL A   1      40.760  29.009  31.551  1.00  0.00    -0.206 F 
ATOM     73  C   UNL A   1      37.669  29.679  29.786  1.00  0.00     0.006 A 
ENDBRANCH  52  66
BRANCH  53  74
ATOM     74  C   UNL A   1      49.726  26.695  26.854  1.00  0.00     0.057 A 
ATOM     75  C   UNL A   1      50.080  26.641  25.499  1.00  0.00     0.134 A 
ATOM     76  C   UNL A   1      50.713  26.352  27.786  1.00  0.00     0.134 A 
ATOM     77  F   UNL A   1      49.171  26.922  24.554  1.00  0.00    -0.206 F 
ATOM     78  C   UNL A   1      51.351  26.233  25.088  1.00  0.00     0.040 A 
ATOM     79  C   UNL A   1      51.997  25.972  27.390  1.00  0.00     0.040 A 
ATOM     80  F   UNL A   1      50.443  26.372  29.099  1.00  0.00    -0.206 F 
ATOM     81  C   UNL A   1      52.315  25.900  26.036  1.00  0.00     0.006 A 
ENDBRANCH  53  74
BRANCH  65  82
ATOM     82  C   UNL A   1      46.620  32.701  28.550  1.00  0.00     0.057 A 
ATOM     83  C   UNL A   1      47.205  33.197  29.723  1.00  0.00     0.134 A 
ATOM     84  C   UNL A   1      46.583  33.552  27.438  1.00  0.00     0.134 A 
ATOM     85  F   UNL A   1      47.263  32.438  30.827  1.00  0.00    -0.206 F 
ATOM     86  C   UNL A   1      47.721  34.493  29.789  1.00  0.00     0.040 A 
ATOM     87  C   UNL A   1      47.121  34.840  27.483  1.00  0.00     0.040 A 
ATOM     88  F   UNL A   1      46.049  33.137  26.280  1.00  0.00    -0.206 F 
ATOM     89  C   UNL A   1      47.690  35.314  28.663  1.00  0.00     0.006 A 
ENDBRANCH  65  82
ENDBRANCH  39  40
ENDBRANCH  32  34
ENDBRANCH  31  32
ENDBRANCH  30  31
ENDBRANCH  29  30
ENDBRANCH  28  29
ENDBRANCH  27  28
ENDBRANCH   1  27
TORSDOF 21
ENDMDL
