MODEL 1
REMARK VINA RESULT:      -8.9      0.000      0.000
REMARK SMILES O=C(CC[C@@H]1CN(c2ccncc2)CC[C@@H]1[NH+]1CCOCC1)OCCOCCOCCOCCOC(=O)c1ccc(-c2c3nc(c(-c4c(F)cccc4F)c4ccc([nH]4)c(-c4c(F)cccc4F)c4nc(c(-c5c(F)cccc5F)c5ccc2[nH]5)C=C4)C=C3)cc1
REMARK SMILES IDX 28 1 27 2 26 3 25 4 24 5 23 6 2 7 1 8 3 9 4 10 5 11 6 12
REMARK SMILES IDX 16 13 7 14 15 15 14 16 17 17 18 18 22 19 19 21 21 22 20 23
REMARK SMILES IDX 8 24 9 25 13 26 10 27 12 28 11 29 29 30 30 31 31 32 32 33
REMARK SMILES IDX 33 34 34 35 35 36 36 37 37 38 38 39 39 40 91 41 40 42 90 43
REMARK SMILES IDX 41 44 42 45 43 46 84 47 44 48 89 49 83 50 85 51 45 52 88 53
REMARK SMILES IDX 82 54 81 55 46 57 72 58 55 59 71 60 56 61 59 62 70 63 86 64
REMARK SMILES IDX 57 65 58 66 69 68 87 69 60 70 47 71 48 72 53 73 49 74 50 75
REMARK SMILES IDX 52 76 54 77 51 78 73 79 74 80 79 81 75 82 76 83 78 84 80 85
REMARK SMILES IDX 77 86 61 87 62 88 67 89 63 90 64 91 66 92 68 93 65 94
REMARK H PARENT 17 20 85 56 59 67
REMARK Flexibility Score: inf
ROOT
ATOM      1  C   UNL A   1      34.730  22.459  24.338  1.00  0.00     0.188 C 
ENDROOT
BRANCH   1   2
ATOM      2  C   UNL A   1      34.009  23.015  23.112  1.00  0.00     0.188 C 
BRANCH   2   3
ATOM      3  O   UNL A   1      33.163  24.140  23.343  1.00  0.00    -0.376 OA
BRANCH   3   4
ATOM      4  C   UNL A   1      33.660  25.411  23.003  1.00  0.00     0.202 C 
BRANCH   4   5
ATOM      5  C   UNL A   1      33.882  26.319  24.200  1.00  0.00     0.261 C 
BRANCH   5   6
ATOM      6  O   UNL A   1      33.471  27.711  24.173  1.00  0.00    -0.463 OA
BRANCH   6   7
ATOM      7  C   UNL A   1      33.209  28.563  25.184  1.00  0.00     0.305 C 
ATOM      8  O   UNL A   1      32.064  29.008  25.297  1.00  0.00    -0.252 OA
BRANCH   7   9
ATOM      9  C   UNL A   1      34.248  28.885  26.259  1.00  0.00     0.123 C 
BRANCH   9  10
ATOM     10  C   UNL A   1      34.096  30.148  27.105  1.00  0.00     0.023 C 
BRANCH  10  11
ATOM     11  C   UNL A   1      35.419  30.705  27.640  1.00  0.00     0.067 C 
ATOM     12  C   UNL A   1      36.194  29.667  28.453  1.00  0.00     0.126 C 
ATOM     13  C   UNL A   1      35.441  32.157  28.235  1.00  0.00     0.190 C 
ATOM     14  N   UNL A   1      37.538  30.194  28.656  1.00  0.00    -0.371 N 
ATOM     15  C   UNL A   1      36.898  32.526  28.595  1.00  0.00     0.087 C 
ATOM     16  C   UNL A   1      37.651  31.450  29.372  1.00  0.00     0.122 C 
BRANCH  13  17
ATOM     17  N   UNL A   1      34.392  32.515  29.206  1.00  0.00    -0.328 N 
ATOM     18  C   UNL A   1      33.506  33.626  28.767  1.00  0.00     0.291 C 
ATOM     19  C   UNL A   1      34.738  32.699  30.619  1.00  0.00     0.291 C 
ATOM     20  H   UNL A   1      33.892  31.625  29.192  1.00  0.00     0.348 HD
ATOM     21  C   UNL A   1      33.905  35.038  29.239  1.00  0.00     0.221 C 
ATOM     22  C   UNL A   1      35.130  34.132  31.024  1.00  0.00     0.221 C 
ATOM     23  O   UNL A   1      34.125  35.077  30.652  1.00  0.00    -0.370 OA
ENDBRANCH  13  17
BRANCH  14  24
ATOM     24  C   UNL A   1      38.640  29.371  28.550  1.00  0.00     0.040 A 
ATOM     25  C   UNL A   1      39.294  29.178  27.336  1.00  0.00     0.046 A 
ATOM     26  C   UNL A   1      39.090  28.650  29.656  1.00  0.00     0.046 A 
ATOM     27  C   UNL A   1      40.337  28.266  27.272  1.00  0.00     0.113 A 
ATOM     28  C   UNL A   1      40.126  27.744  29.493  1.00  0.00     0.113 A 
ATOM     29  N   UNL A   1      40.761  27.534  28.322  1.00  0.00    -0.265 NA
ENDBRANCH  14  24
ENDBRANCH  10  11
ENDBRANCH   9  10
ENDBRANCH   7   9
ENDBRANCH   6   7
ENDBRANCH   5   6
ENDBRANCH   4   5
ENDBRANCH   3   4
ENDBRANCH   2   3
ENDBRANCH   1   2
BRANCH   1  30
ATOM     30  O   UNL A   1      35.567  23.326  25.092  1.00  0.00    -0.377 OA
BRANCH  30  31
ATOM     31  C   UNL A   1      36.973  23.321  24.928  1.00  0.00     0.188 C 
BRANCH  31  32
ATOM     32  C   UNL A   1      37.760  23.416  26.243  1.00  0.00     0.188 C 
BRANCH  32  33
ATOM     33  O   UNL A   1      39.178  23.430  26.167  1.00  0.00    -0.376 OA
BRANCH  33  34
ATOM     34  C   UNL A   1      39.891  22.332  26.736  1.00  0.00     0.202 C 
BRANCH  34  35
ATOM     35  C   UNL A   1      41.252  21.898  26.144  1.00  0.00     0.261 C 
BRANCH  35  36
ATOM     36  O   UNL A   1      42.407  22.220  26.950  1.00  0.00    -0.460 OA
BRANCH  36  37
ATOM     37  C   UNL A   1      43.528  22.572  26.279  1.00  0.00     0.338 C 
ATOM     38  O   UNL A   1      44.161  21.879  25.501  1.00  0.00    -0.246 OA
BRANCH  37  39
ATOM     39  C   UNL A   1      43.805  24.022  26.426  1.00  0.00     0.060 A 
ATOM     40  C   UNL A   1      44.007  24.769  25.255  1.00  0.00     0.016 A 
ATOM     41  C   UNL A   1      44.004  24.615  27.674  1.00  0.00     0.016 A 
ATOM     42  C   UNL A   1      44.475  26.081  25.319  1.00  0.00     0.010 A 
ATOM     43  C   UNL A   1      44.506  25.925  27.739  1.00  0.00     0.010 A 
ATOM     44  C   UNL A   1      44.802  26.638  26.560  1.00  0.00    -0.014 A 
BRANCH  44  45
ATOM     45  C   UNL A   1      45.725  27.805  26.584  1.00  0.00     0.031 A 
ATOM     46  C   UNL A   1      47.202  27.531  26.426  1.00  0.00     0.074 A 
ATOM     47  C   UNL A   1      45.286  29.073  26.655  1.00  0.00     0.049 A 
ATOM     48  N   UNL A   1      48.209  28.367  26.387  1.00  0.00    -0.248 NA
ATOM     49  C   UNL A   1      47.591  26.118  26.290  1.00  0.00     0.031 C 
ATOM     50  C   UNL A   1      43.887  29.483  26.744  1.00  0.00     0.029 A 
ATOM     51  N   UNL A   1      45.986  30.257  26.656  1.00  0.00    -0.354 N 
ATOM     52  C   UNL A   1      49.346  27.581  26.236  1.00  0.00     0.074 A 
ATOM     53  C   UNL A   1      48.910  26.203  26.221  1.00  0.00     0.031 C 
ATOM     54  C   UNL A   1      43.831  30.827  26.796  1.00  0.00     0.029 A 
ATOM     55  C   UNL A   1      45.190  31.369  26.770  1.00  0.00     0.049 A 
ATOM     56  H   UNL A   1      46.966  30.300  26.583  1.00  0.00     0.167 HD
ATOM     57  C   UNL A   1      50.638  27.966  26.110  1.00  0.00     0.037 A 
ATOM     58  C   UNL A   1      45.524  32.674  26.853  1.00  0.00     0.037 A 
ATOM     59  C   UNL A   1      51.077  29.337  26.122  1.00  0.00     0.049 A 
ATOM     60  C   UNL A   1      46.978  33.076  26.791  1.00  0.00     0.074 A 
ATOM     61  C   UNL A   1      52.362  29.830  25.986  1.00  0.00     0.029 A 
ATOM     62  N   UNL A   1      50.242  30.431  26.290  1.00  0.00    -0.354 N 
ATOM     63  N   UNL A   1      48.041  32.326  26.624  1.00  0.00    -0.248 NA
ATOM     64  C   UNL A   1      47.274  34.511  26.921  1.00  0.00     0.031 C 
ATOM     65  C   UNL A   1      52.314  31.220  26.134  1.00  0.00     0.029 A 
ATOM     66  C   UNL A   1      50.989  31.597  26.290  1.00  0.00     0.049 A 
ATOM     67  H   UNL A   1      49.264  30.385  26.392  1.00  0.00     0.167 HD
ATOM     68  C   UNL A   1      49.122  33.200  26.584  1.00  0.00     0.074 A 
ATOM     69  C   UNL A   1      48.586  34.536  26.737  1.00  0.00     0.031 C 
ATOM     70  C   UNL A   1      50.442  32.923  26.429  1.00  0.00     0.037 A 
BRANCH  57  71
ATOM     71  C   UNL A   1      51.673  26.884  25.994  1.00  0.00     0.057 A 
ATOM     72  C   UNL A   1      52.289  26.313  27.116  1.00  0.00     0.134 A 
ATOM     73  C   UNL A   1      52.051  26.399  24.736  1.00  0.00     0.134 A 
ATOM     74  F   UNL A   1      51.985  26.744  28.351  1.00  0.00    -0.206 F 
ATOM     75  C   UNL A   1      53.263  25.323  26.990  1.00  0.00     0.040 A 
ATOM     76  C   UNL A   1      53.002  25.386  24.598  1.00  0.00     0.040 A 
ATOM     77  F   UNL A   1      51.501  26.898  23.618  1.00  0.00    -0.206 F 
ATOM     78  C   UNL A   1      53.617  24.851  25.727  1.00  0.00     0.006 A 
ENDBRANCH  57  71
BRANCH  58  79
ATOM     79  C   UNL A   1      44.469  33.711  27.007  1.00  0.00     0.057 A 
ATOM     80  C   UNL A   1      43.989  34.079  28.270  1.00  0.00     0.134 A 
ATOM     81  C   UNL A   1      43.883  34.326  25.894  1.00  0.00     0.134 A 
ATOM     82  F   UNL A   1      44.489  33.506  29.375  1.00  0.00    -0.206 F 
ATOM     83  C   UNL A   1      42.951  35.001  28.421  1.00  0.00     0.040 A 
ATOM     84  C   UNL A   1      42.863  35.271  26.030  1.00  0.00     0.040 A 
ATOM     85  F   UNL A   1      44.293  34.018  24.655  1.00  0.00    -0.206 F 
ATOM     86  C   UNL A   1      42.389  35.604  27.297  1.00  0.00     0.006 A 
ENDBRANCH  58  79
BRANCH  70  87
ATOM     87  C   UNL A   1      51.392  34.087  26.353  1.00  0.00     0.057 A 
ATOM     88  C   UNL A   1      51.917  34.704  27.496  1.00  0.00     0.134 A 
ATOM     89  C   UNL A   1      51.810  34.579  25.107  1.00  0.00     0.134 A 
ATOM     90  F   UNL A   1      51.554  34.290  28.719  1.00  0.00    -0.206 F 
ATOM     91  C   UNL A   1      52.793  35.788  27.404  1.00  0.00     0.040 A 
ATOM     92  C   UNL A   1      52.711  35.639  25.003  1.00  0.00     0.040 A 
ATOM     93  F   UNL A   1      51.360  34.026  23.970  1.00  0.00    -0.206 F 
ATOM     94  C   UNL A   1      53.197  36.254  26.155  1.00  0.00     0.006 A 
ENDBRANCH  70  87
ENDBRANCH  44  45
ENDBRANCH  37  39
ENDBRANCH  36  37
ENDBRANCH  35  36
ENDBRANCH  34  35
ENDBRANCH  33  34
ENDBRANCH  32  33
ENDBRANCH  31  32
ENDBRANCH  30  31
ENDBRANCH   1  30
TORSDOF 24
ENDMDL
MODEL 2
REMARK VINA RESULT:      -8.9      1.377      3.480
REMARK SMILES O=C(CC[C@@H]1CN(c2ccncc2)CC[C@@H]1[NH+]1CCOCC1)OCCOCCOCCOCCOC(=O)c1ccc(-c2c3nc(c(-c4c(F)cccc4F)c4ccc([nH]4)c(-c4c(F)cccc4F)c4nc(c(-c5c(F)cccc5F)c5ccc2[nH]5)C=C4)C=C3)cc1
REMARK SMILES IDX 28 1 27 2 26 3 25 4 24 5 23 6 2 7 1 8 3 9 4 10 5 11 6 12
REMARK SMILES IDX 16 13 7 14 15 15 14 16 17 17 18 18 22 19 19 21 21 22 20 23
REMARK SMILES IDX 8 24 9 25 13 26 10 27 12 28 11 29 29 30 30 31 31 32 32 33
REMARK SMILES IDX 33 34 34 35 35 36 36 37 37 38 38 39 39 40 91 41 40 42 90 43
REMARK SMILES IDX 41 44 42 45 43 46 84 47 44 48 89 49 83 50 85 51 45 52 88 53
REMARK SMILES IDX 82 54 81 55 46 57 72 58 55 59 71 60 56 61 59 62 70 63 86 64
REMARK SMILES IDX 57 65 58 66 69 68 87 69 60 70 47 71 48 72 53 73 49 74 50 75
REMARK SMILES IDX 52 76 54 77 51 78 73 79 74 80 79 81 75 82 76 83 78 84 80 85
REMARK SMILES IDX 77 86 61 87 62 88 67 89 63 90 64 91 66 92 68 93 65 94
REMARK H PARENT 17 20 85 56 59 67
REMARK Flexibility Score: inf
ROOT
ATOM      1  C   UNL A   1      35.275  23.937  24.630  1.00  0.00     0.188 C 
ENDROOT
BRANCH   1   2
ATOM      2  C   UNL A   1      33.783  24.128  24.894  1.00  0.00     0.188 C 
BRANCH   2   3
ATOM      3  O   UNL A   1      33.439  25.187  25.786  1.00  0.00    -0.376 OA
BRANCH   3   4
ATOM      4  C   UNL A   1      32.096  25.605  25.815  1.00  0.00     0.202 C 
BRANCH   4   5
ATOM      5  C   UNL A   1      31.852  26.805  26.713  1.00  0.00     0.261 C 
BRANCH   5   6
ATOM      6  O   UNL A   1      32.345  28.123  26.357  1.00  0.00    -0.463 OA
BRANCH   6   7
ATOM      7  C   UNL A   1      33.606  28.594  26.288  1.00  0.00     0.305 C 
ATOM      8  O   UNL A   1      34.164  28.624  25.189  1.00  0.00    -0.252 OA
BRANCH   7   9
ATOM      9  C   UNL A   1      34.304  29.210  27.502  1.00  0.00     0.123 C 
BRANCH   9  10
ATOM     10  C   UNL A   1      35.024  30.550  27.363  1.00  0.00     0.023 C 
BRANCH  10  11
ATOM     11  C   UNL A   1      35.232  31.289  28.688  1.00  0.00     0.067 C 
ATOM     12  C   UNL A   1      35.236  32.807  28.506  1.00  0.00     0.126 C 
ATOM     13  C   UNL A   1      36.305  30.745  29.695  1.00  0.00     0.190 C 
ATOM     14  N   UNL A   1      35.143  33.401  29.834  1.00  0.00    -0.371 N 
ATOM     15  C   UNL A   1      36.243  31.584  30.992  1.00  0.00     0.087 C 
ATOM     16  C   UNL A   1      36.209  33.093  30.768  1.00  0.00     0.122 C 
BRANCH  13  17
ATOM     17  N   UNL A   1      37.640  30.416  29.164  1.00  0.00    -0.328 N 
ATOM     18  C   UNL A   1      37.890  28.961  28.995  1.00  0.00     0.291 C 
ATOM     19  C   UNL A   1      38.830  31.051  29.740  1.00  0.00     0.291 C 
ATOM     20  H   UNL A   1      37.535  30.875  28.258  1.00  0.00     0.348 HD
ATOM     21  C   UNL A   1      38.593  28.252  30.170  1.00  0.00     0.221 C 
ATOM     22  C   UNL A   1      39.482  30.295  30.912  1.00  0.00     0.221 C 
ATOM     23  O   UNL A   1      39.783  28.942  30.563  1.00  0.00    -0.370 OA
ENDBRANCH  13  17
BRANCH  14  24
ATOM     24  C   UNL A   1      34.339  34.498  30.060  1.00  0.00     0.040 A 
ATOM     25  C   UNL A   1      33.974  34.886  31.347  1.00  0.00     0.046 A 
ATOM     26  C   UNL A   1      33.807  35.215  28.987  1.00  0.00     0.046 A 
ATOM     27  C   UNL A   1      33.087  35.939  31.505  1.00  0.00     0.113 A 
ATOM     28  C   UNL A   1      32.909  36.240  29.241  1.00  0.00     0.113 A 
ATOM     29  N   UNL A   1      32.534  36.619  30.480  1.00  0.00    -0.265 NA
ENDBRANCH  14  24
ENDBRANCH  10  11
ENDBRANCH   9  10
ENDBRANCH   7   9
ENDBRANCH   6   7
ENDBRANCH   5   6
ENDBRANCH   4   5
ENDBRANCH   3   4
ENDBRANCH   2   3
ENDBRANCH   1   2
BRANCH   1  30
ATOM     30  O   UNL A   1      36.099  23.442  25.678  1.00  0.00    -0.377 OA
BRANCH  30  31
ATOM     31  C   UNL A   1      36.563  22.105  25.682  1.00  0.00     0.188 C 
BRANCH  31  32
ATOM     32  C   UNL A   1      38.019  21.944  25.221  1.00  0.00     0.188 C 
BRANCH  32  33
ATOM     33  O   UNL A   1      38.931  21.320  26.113  1.00  0.00    -0.376 OA
BRANCH  33  34
ATOM     34  C   UNL A   1      40.084  22.058  26.519  1.00  0.00     0.202 C 
BRANCH  34  35
ATOM     35  C   UNL A   1      41.500  21.510  26.230  1.00  0.00     0.261 C 
BRANCH  35  36
ATOM     36  O   UNL A   1      42.341  22.366  25.424  1.00  0.00    -0.460 OA
BRANCH  36  37
ATOM     37  C   UNL A   1      43.615  22.529  25.851  1.00  0.00     0.338 C 
ATOM     38  O   UNL A   1      44.498  21.689  25.851  1.00  0.00    -0.246 OA
BRANCH  37  39
ATOM     39  C   UNL A   1      43.903  23.956  26.138  1.00  0.00     0.060 A 
ATOM     40  C   UNL A   1      43.961  24.840  25.049  1.00  0.00     0.016 A 
ATOM     41  C   UNL A   1      44.248  24.401  27.415  1.00  0.00     0.016 A 
ATOM     42  C   UNL A   1      44.428  26.143  25.214  1.00  0.00     0.010 A 
ATOM     43  C   UNL A   1      44.749  25.702  27.577  1.00  0.00     0.010 A 
ATOM     44  C   UNL A   1      44.899  26.556  26.465  1.00  0.00    -0.014 A 
BRANCH  44  45
ATOM     45  C   UNL A   1      45.815  27.727  26.519  1.00  0.00     0.031 A 
ATOM     46  C   UNL A   1      47.295  27.465  26.374  1.00  0.00     0.074 A 
ATOM     47  C   UNL A   1      45.367  28.991  26.606  1.00  0.00     0.049 A 
ATOM     48  N   UNL A   1      48.298  28.307  26.360  1.00  0.00    -0.248 NA
ATOM     49  C   UNL A   1      47.695  26.057  26.218  1.00  0.00     0.031 C 
ATOM     50  C   UNL A   1      43.965  29.391  26.686  1.00  0.00     0.029 A 
ATOM     51  N   UNL A   1      46.060  30.179  26.634  1.00  0.00    -0.354 N 
ATOM     52  C   UNL A   1      49.441  27.531  26.208  1.00  0.00     0.074 A 
ATOM     53  C   UNL A   1      49.013  26.150  26.166  1.00  0.00     0.031 C 
ATOM     54  C   UNL A   1      43.900  30.733  26.759  1.00  0.00     0.029 A 
ATOM     55  C   UNL A   1      45.256  31.284  26.757  1.00  0.00     0.049 A 
ATOM     56  H   UNL A   1      47.041  30.230  26.573  1.00  0.00     0.167 HD
ATOM     57  C   UNL A   1      50.732  27.926  26.104  1.00  0.00     0.037 A 
ATOM     58  C   UNL A   1      45.580  32.589  26.866  1.00  0.00     0.037 A 
ATOM     59  C   UNL A   1      51.162  29.299  26.143  1.00  0.00     0.049 A 
ATOM     60  C   UNL A   1      47.033  33.001  26.827  1.00  0.00     0.074 A 
ATOM     61  C   UNL A   1      52.446  29.802  26.030  1.00  0.00     0.029 A 
ATOM     62  N   UNL A   1      50.319  30.385  26.319  1.00  0.00    -0.354 N 
ATOM     63  N   UNL A   1      48.103  32.261  26.660  1.00  0.00    -0.248 NA
ATOM     64  C   UNL A   1      47.318  34.435  26.984  1.00  0.00     0.031 C 
ATOM     65  C   UNL A   1      52.387  31.189  26.200  1.00  0.00     0.029 A 
ATOM     66  C   UNL A   1      51.059  31.555  26.347  1.00  0.00     0.049 A 
ATOM     67  H   UNL A   1      49.340  30.331  26.410  1.00  0.00     0.167 HD
ATOM     68  C   UNL A   1      49.179  33.142  26.647  1.00  0.00     0.074 A 
ATOM     69  C   UNL A   1      48.632  34.471  26.816  1.00  0.00     0.031 C 
ATOM     70  C   UNL A   1      50.502  32.876  26.502  1.00  0.00     0.037 A 
BRANCH  57  71
ATOM     71  C   UNL A   1      51.775  26.852  25.982  1.00  0.00     0.057 A 
ATOM     72  C   UNL A   1      52.126  26.284  24.750  1.00  0.00     0.134 A 
ATOM     73  C   UNL A   1      52.447  26.386  27.120  1.00  0.00     0.134 A 
ATOM     74  F   UNL A   1      51.508  26.672  23.623  1.00  0.00    -0.206 F 
ATOM     75  C   UNL A   1      53.083  25.273  24.657  1.00  0.00     0.040 A 
ATOM     76  C   UNL A   1      53.429  25.397  27.035  1.00  0.00     0.040 A 
ATOM     77  F   UNL A   1      52.164  26.886  28.332  1.00  0.00    -0.206 F 
ATOM     78  C   UNL A   1      53.743  24.832  25.802  1.00  0.00     0.006 A 
ENDBRANCH  57  71
BRANCH  58  79
ATOM     79  C   UNL A   1      44.518  33.618  27.025  1.00  0.00     0.057 A 
ATOM     80  C   UNL A   1      43.991  33.931  28.284  1.00  0.00     0.134 A 
ATOM     81  C   UNL A   1      43.971  34.278  25.918  1.00  0.00     0.134 A 
ATOM     82  F   UNL A   1      44.452  33.313  29.381  1.00  0.00    -0.206 F 
ATOM     83  C   UNL A   1      42.945  34.845  28.435  1.00  0.00     0.040 A 
ATOM     84  C   UNL A   1      42.944  35.215  26.057  1.00  0.00     0.040 A 
ATOM     85  F   UNL A   1      44.427  34.023  24.683  1.00  0.00    -0.206 F 
ATOM     86  C   UNL A   1      42.423  35.493  27.318  1.00  0.00     0.006 A 
ENDBRANCH  58  79
BRANCH  70  87
ATOM     87  C   UNL A   1      51.445  34.046  26.456  1.00  0.00     0.057 A 
ATOM     88  C   UNL A   1      51.675  34.780  25.285  1.00  0.00     0.134 A 
ATOM     89  C   UNL A   1      52.114  34.462  27.616  1.00  0.00     0.134 A 
ATOM     90  F   UNL A   1      51.075  34.433  24.137  1.00  0.00    -0.206 F 
ATOM     91  C   UNL A   1      52.561  35.859  25.261  1.00  0.00     0.040 A 
ATOM     92  C   UNL A   1      52.975  35.560  27.613  1.00  0.00     0.040 A 
ATOM     93  F   UNL A   1      51.930  33.816  28.778  1.00  0.00    -0.206 F 
ATOM     94  C   UNL A   1      53.209  36.256  26.429  1.00  0.00     0.006 A 
ENDBRANCH  70  87
ENDBRANCH  44  45
ENDBRANCH  37  39
ENDBRANCH  36  37
ENDBRANCH  35  36
ENDBRANCH  34  35
ENDBRANCH  33  34
ENDBRANCH  32  33
ENDBRANCH  31  32
ENDBRANCH  30  31
ENDBRANCH   1  30
TORSDOF 24
ENDMDL
MODEL 3
REMARK VINA RESULT:      -8.8      1.381      6.713
REMARK SMILES O=C(CC[C@@H]1CN(c2ccncc2)CC[C@@H]1[NH+]1CCOCC1)OCCOCCOCCOCCOC(=O)c1ccc(-c2c3nc(c(-c4c(F)cccc4F)c4ccc([nH]4)c(-c4c(F)cccc4F)c4nc(c(-c5c(F)cccc5F)c5ccc2[nH]5)C=C4)C=C3)cc1
REMARK SMILES IDX 28 1 27 2 26 3 25 4 24 5 23 6 2 7 1 8 3 9 4 10 5 11 6 12
REMARK SMILES IDX 16 13 7 14 15 15 14 16 17 17 18 18 22 19 19 21 21 22 20 23
REMARK SMILES IDX 8 24 9 25 13 26 10 27 12 28 11 29 29 30 30 31 31 32 32 33
REMARK SMILES IDX 33 34 34 35 35 36 36 37 37 38 38 39 39 40 91 41 40 42 90 43
REMARK SMILES IDX 41 44 42 45 43 46 84 47 44 48 89 49 83 50 85 51 45 52 88 53
REMARK SMILES IDX 82 54 81 55 46 57 72 58 55 59 71 60 56 61 59 62 70 63 86 64
REMARK SMILES IDX 57 65 58 66 69 68 87 69 60 70 47 71 48 72 53 73 49 74 50 75
REMARK SMILES IDX 52 76 54 77 51 78 73 79 74 80 79 81 75 82 76 83 78 84 80 85
REMARK SMILES IDX 77 86 61 87 62 88 67 89 63 90 64 91 66 92 68 93 65 94
REMARK H PARENT 17 20 85 56 59 67
REMARK Flexibility Score: inf
ROOT
ATOM      1  C   UNL A   1      34.718  23.745  23.873  1.00  0.00     0.188 C 
ENDROOT
BRANCH   1   2
ATOM      2  C   UNL A   1      33.292  24.149  24.241  1.00  0.00     0.188 C 
BRANCH   2   3
ATOM      3  O   UNL A   1      33.169  25.133  25.267  1.00  0.00    -0.376 OA
BRANCH   3   4
ATOM      4  C   UNL A   1      31.872  25.489  25.678  1.00  0.00     0.202 C 
BRANCH   4   5
ATOM      5  C   UNL A   1      31.837  26.676  26.625  1.00  0.00     0.261 C 
BRANCH   5   6
ATOM      6  O   UNL A   1      32.283  27.990  26.198  1.00  0.00    -0.463 OA
BRANCH   6   7
ATOM      7  C   UNL A   1      33.517  28.533  26.190  1.00  0.00     0.305 C 
ATOM      8  O   UNL A   1      34.133  28.579  25.122  1.00  0.00    -0.252 OA
BRANCH   7   9
ATOM      9  C   UNL A   1      34.111  29.206  27.429  1.00  0.00     0.123 C 
BRANCH   9  10
ATOM     10  C   UNL A   1      34.766  30.580  27.303  1.00  0.00     0.023 C 
BRANCH  10  11
ATOM     11  C   UNL A   1      34.970  31.301  28.639  1.00  0.00     0.067 C 
ATOM     12  C   UNL A   1      35.073  32.817  28.465  1.00  0.00     0.126 C 
ATOM     13  C   UNL A   1      35.969  30.689  29.682  1.00  0.00     0.190 C 
ATOM     14  N   UNL A   1      34.968  33.411  29.792  1.00  0.00    -0.371 N 
ATOM     15  C   UNL A   1      35.911  31.526  30.980  1.00  0.00     0.087 C 
ATOM     16  C   UNL A   1      35.978  33.035  30.763  1.00  0.00     0.122 C 
BRANCH  13  17
ATOM     17  N   UNL A   1      37.300  30.280  29.198  1.00  0.00    -0.328 N 
ATOM     18  C   UNL A   1      37.763  28.966  29.715  1.00  0.00     0.291 C 
ATOM     19  C   UNL A   1      38.413  31.235  29.234  1.00  0.00     0.291 C 
ATOM     20  H   UNL A   1      37.065  30.219  28.207  1.00  0.00     0.348 HD
ATOM     21  C   UNL A   1      38.645  29.005  30.979  1.00  0.00     0.221 C 
ATOM     22  C   UNL A   1      39.252  31.227  30.525  1.00  0.00     0.221 C 
ATOM     23  O   UNL A   1      39.737  29.917  30.829  1.00  0.00    -0.370 OA
ENDBRANCH  13  17
BRANCH  14  24
ATOM     24  C   UNL A   1      34.224  34.554  29.994  1.00  0.00     0.040 A 
ATOM     25  C   UNL A   1      33.841  34.962  31.269  1.00  0.00     0.046 A 
ATOM     26  C   UNL A   1      33.773  35.303  28.906  1.00  0.00     0.046 A 
ATOM     27  C   UNL A   1      33.014  36.067  31.401  1.00  0.00     0.113 A 
ATOM     28  C   UNL A   1      32.931  36.380  29.133  1.00  0.00     0.113 A 
ATOM     29  N   UNL A   1      32.539  36.780  30.359  1.00  0.00    -0.265 NA
ENDBRANCH  14  24
ENDBRANCH  10  11
ENDBRANCH   9  10
ENDBRANCH   7   9
ENDBRANCH   6   7
ENDBRANCH   5   6
ENDBRANCH   4   5
ENDBRANCH   3   4
ENDBRANCH   2   3
ENDBRANCH   1   2
BRANCH   1  30
ATOM     30  O   UNL A   1      35.565  23.220  24.887  1.00  0.00    -0.377 OA
BRANCH  30  31
ATOM     31  C   UNL A   1      35.850  21.836  24.966  1.00  0.00     0.188 C 
BRANCH  31  32
ATOM     32  C   UNL A   1      37.324  21.483  24.718  1.00  0.00     0.188 C 
BRANCH  32  33
ATOM     33  O   UNL A   1      38.182  21.391  25.846  1.00  0.00    -0.376 OA
BRANCH  33  34
ATOM     34  C   UNL A   1      39.078  22.473  26.098  1.00  0.00     0.202 C 
BRANCH  34  35
ATOM     35  C   UNL A   1      40.509  22.195  26.614  1.00  0.00     0.261 C 
BRANCH  35  36
ATOM     36  O   UNL A   1      41.535  23.067  26.088  1.00  0.00    -0.460 OA
BRANCH  36  37
ATOM     37  C   UNL A   1      42.686  23.133  26.796  1.00  0.00     0.338 C 
ATOM     38  O   UNL A   1      43.339  22.195  27.216  1.00  0.00    -0.246 OA
BRANCH  37  39
ATOM     39  C   UNL A   1      43.211  24.520  26.831  1.00  0.00     0.060 A 
ATOM     40  C   UNL A   1      43.445  25.160  25.603  1.00  0.00     0.016 A 
ATOM     41  C   UNL A   1      43.601  25.136  28.021  1.00  0.00     0.016 A 
ATOM     42  C   UNL A   1      44.128  26.374  25.551  1.00  0.00     0.010 A 
ATOM     43  C   UNL A   1      44.318  26.342  27.968  1.00  0.00     0.010 A 
ATOM     44  C   UNL A   1      44.637  26.932  26.728  1.00  0.00    -0.014 A 
BRANCH  44  45
ATOM     45  C   UNL A   1      45.741  27.922  26.616  1.00  0.00     0.031 A 
ATOM     46  C   UNL A   1      45.381  29.385  26.714  1.00  0.00     0.074 A 
ATOM     47  C   UNL A   1      47.032  27.558  26.516  1.00  0.00     0.049 A 
ATOM     48  N   UNL A   1      46.153  30.443  26.674  1.00  0.00    -0.248 NA
ATOM     49  C   UNL A   1      43.952  29.694  26.887  1.00  0.00     0.031 C 
ATOM     50  C   UNL A   1      47.526  26.185  26.477  1.00  0.00     0.029 A 
ATOM     51  N   UNL A   1      48.168  28.328  26.437  1.00  0.00    -0.354 N 
ATOM     52  C   UNL A   1      45.303  31.535  26.802  1.00  0.00     0.074 A 
ATOM     53  C   UNL A   1      43.956  31.017  26.891  1.00  0.00     0.031 C 
ATOM     54  C   UNL A   1      48.867  26.208  26.376  1.00  0.00     0.029 A 
ATOM     55  C   UNL A   1      49.324  27.598  26.317  1.00  0.00     0.049 A 
ATOM     56  H   UNL A   1      48.153  29.312  26.462  1.00  0.00     0.167 HD
ATOM     57  C   UNL A   1      45.610  32.853  26.852  1.00  0.00     0.037 A 
ATOM     58  C   UNL A   1      50.601  28.006  26.168  1.00  0.00     0.037 A 
ATOM     59  C   UNL A   1      46.949  33.374  26.767  1.00  0.00     0.049 A 
ATOM     60  C   UNL A   1      50.912  29.483  26.147  1.00  0.00     0.074 A 
ATOM     61  C   UNL A   1      47.365  34.692  26.824  1.00  0.00     0.029 A 
ATOM     62  N   UNL A   1      48.087  32.600  26.597  1.00  0.00    -0.354 N 
ATOM     63  N   UNL A   1      50.104  30.506  26.293  1.00  0.00    -0.248 NA
ATOM     64  C   UNL A   1      52.320  29.859  25.947  1.00  0.00     0.031 C 
ATOM     65  C   UNL A   1      48.750  34.722  26.625  1.00  0.00     0.029 A 
ATOM     66  C   UNL A   1      49.203  33.416  26.516  1.00  0.00     0.049 A 
ATOM     67  H   UNL A   1      48.099  31.618  26.541  1.00  0.00     0.167 HD
ATOM     68  C   UNL A   1      50.909  31.639  26.248  1.00  0.00     0.074 A 
ATOM     69  C   UNL A   1      52.269  31.178  26.068  1.00  0.00     0.031 C 
ATOM     70  C   UNL A   1      50.556  32.945  26.352  1.00  0.00     0.037 A 
BRANCH  57  71
ATOM     71  C   UNL A   1      44.470  33.824  26.962  1.00  0.00     0.057 A 
ATOM     72  C   UNL A   1      43.823  34.350  25.835  1.00  0.00     0.134 A 
ATOM     73  C   UNL A   1      44.006  34.232  28.219  1.00  0.00     0.134 A 
ATOM     74  F   UNL A   1      44.229  34.014  24.600  1.00  0.00    -0.206 F 
ATOM     75  C   UNL A   1      42.778  35.267  25.954  1.00  0.00     0.040 A 
ATOM     76  C   UNL A   1      42.941  35.125  28.351  1.00  0.00     0.040 A 
ATOM     77  F   UNL A   1      44.577  33.768  29.341  1.00  0.00    -0.206 F 
ATOM     78  C   UNL A   1      42.330  35.651  27.216  1.00  0.00     0.006 A 
ENDBRANCH  57  71
BRANCH  58  79
ATOM     79  C   UNL A   1      51.696  27.011  26.023  1.00  0.00     0.057 A 
ATOM     80  C   UNL A   1      52.031  26.473  24.775  1.00  0.00     0.134 A 
ATOM     81  C   UNL A   1      52.403  26.538  27.136  1.00  0.00     0.134 A 
ATOM     82  F   UNL A   1      51.372  26.864  23.673  1.00  0.00    -0.206 F 
ATOM     83  C   UNL A   1      53.012  25.487  24.638  1.00  0.00     0.040 A 
ATOM     84  C   UNL A   1      53.405  25.572  27.012  1.00  0.00     0.040 A 
ATOM     85  F   UNL A   1      52.131  27.007  28.362  1.00  0.00    -0.206 F 
ATOM     86  C   UNL A   1      53.705  25.038  25.760  1.00  0.00     0.006 A 
ENDBRANCH  58  79
BRANCH  70  87
ATOM     87  C   UNL A   1      51.659  33.967  26.338  1.00  0.00     0.057 A 
ATOM     88  C   UNL A   1      52.275  34.422  27.511  1.00  0.00     0.134 A 
ATOM     89  C   UNL A   1      52.132  34.482  25.122  1.00  0.00     0.134 A 
ATOM     90  F   UNL A   1      51.868  33.978  28.710  1.00  0.00    -0.206 F 
ATOM     91  C   UNL A   1      53.293  35.378  27.478  1.00  0.00     0.040 A 
ATOM     92  C   UNL A   1      53.172  35.411  25.075  1.00  0.00     0.040 A 
ATOM     93  F   UNL A   1      51.599  34.079  23.959  1.00  0.00    -0.206 F 
ATOM     94  C   UNL A   1      53.749  35.870  26.257  1.00  0.00     0.006 A 
ENDBRANCH  70  87
ENDBRANCH  44  45
ENDBRANCH  37  39
ENDBRANCH  36  37
ENDBRANCH  35  36
ENDBRANCH  34  35
ENDBRANCH  33  34
ENDBRANCH  32  33
ENDBRANCH  31  32
ENDBRANCH  30  31
ENDBRANCH   1  30
TORSDOF 24
ENDMDL
