MODEL 1
REMARK VINA RESULT:     -10.2      0.000      0.000
REMARK SMILES Cc1ccc(NC(=O)C[C@H]([NH2+]Cc2cccnc2)C(=O)OCCOCCOCCOCCOC(=O)c2ccc(-c3c4nc(c(-c5c(F)cccc5F)c5ccc([nH]5)c(-c5c(F)cccc5F)c5nc(c(-c6c(F)cccc6F)c6ccc3[nH]6)C=C5)C=C4)cc2)cc1Cl
REMARK SMILES IDX 26 1 25 2 24 3 23 4 22 5 21 6 19 7 20 8 10 9 9 10 7 11 6 12
REMARK SMILES IDX 8 14 5 15 1 16 2 17 3 18 91 19 4 20 90 21 92 22 11 23 12 26
REMARK SMILES IDX 13 27 14 28 18 29 15 30 17 31 16 32 27 33 28 34 29 35 30 36
REMARK SMILES IDX 31 37 32 38 33 39 34 40 35 41 36 42 37 43 89 44 38 45 88 46
REMARK SMILES IDX 39 47 40 48 41 49 82 50 42 51 87 52 81 53 83 54 43 55 86 56
REMARK SMILES IDX 80 57 79 58 44 60 70 61 53 62 69 63 54 64 57 65 68 66 84 67
REMARK SMILES IDX 55 68 56 69 67 71 85 72 58 73 45 74 46 75 51 76 47 77 48 78
REMARK SMILES IDX 50 79 52 80 49 81 71 82 72 83 77 84 73 85 74 86 76 87 78 88
REMARK SMILES IDX 75 89 59 90 60 91 65 92 61 93 62 94 64 95 66 96 63 97
REMARK H PARENT 6 13 11 24 11 25 83 59 57 70
REMARK Flexibility Score: inf
ROOT
ATOM      1  C   UNL A   1      32.913  35.528  30.002  1.00  0.00     0.188 C 
ENDROOT
BRANCH   1   2
ATOM      2  C   UNL A   1      33.985  35.389  28.926  1.00  0.00     0.188 C 
BRANCH   2   3
ATOM      3  O   UNL A   1      34.000  34.296  28.018  1.00  0.00    -0.376 OA
BRANCH   3   4
ATOM      4  C   UNL A   1      33.005  33.290  28.074  1.00  0.00     0.202 C 
BRANCH   4   5
ATOM      5  C   UNL A   1      33.161  32.107  27.107  1.00  0.00     0.261 C 
BRANCH   5   6
ATOM      6  O   UNL A   1      33.362  30.785  27.652  1.00  0.00    -0.459 OA
BRANCH   6   7
ATOM      7  C   UNL A   1      33.836  29.823  26.810  1.00  0.00     0.365 C 
ATOM      8  O   UNL A   1      34.887  29.214  26.984  1.00  0.00    -0.245 OA
BRANCH   7   9
ATOM      9  C   UNL A   1      32.961  29.622  25.545  1.00  0.00     0.303 C 
BRANCH   9  10
ATOM     10  C   UNL A   1      31.736  28.796  25.913  1.00  0.00     0.177 C 
BRANCH  10  11
ATOM     11  C   UNL A   1      31.616  27.720  26.986  1.00  0.00     0.231 C 
ATOM     12  N   UNL A   1      31.826  26.384  26.930  1.00  0.00    -0.326 N 
ATOM     13  H   UNL A   1      31.322  25.936  27.646  1.00  0.00     0.169 HD
ATOM     14  O   UNL A   1      31.037  28.078  28.032  1.00  0.00    -0.274 OA
BRANCH  12  15
ATOM     15  C   UNL A   1      32.534  25.436  26.176  1.00  0.00     0.042 A 
ATOM     16  C   UNL A   1      35.019  22.612  23.995  1.00  0.00     0.046 C 
ATOM     17  C   UNL A   1      34.141  23.607  24.692  1.00  0.00    -0.032 A 
ATOM     18  C   UNL A   1      34.631  24.865  25.054  1.00  0.00     0.007 A 
ATOM     19  C   UNL A   1      32.831  23.297  25.049  1.00  0.00     0.046 A 
ATOM     20  C   UNL A   1      33.840  25.760  25.793  1.00  0.00     0.026 A 
ATOM     21  C   UNL A   1      32.032  24.237  25.714  1.00  0.00     0.047 A 
ATOM     22  Cl  UNL A   1      32.178  21.722  24.733  1.00  0.00    -0.084 Cl
ENDBRANCH  12  15
ENDBRANCH  10  11
ENDBRANCH   9  10
BRANCH   9  23
ATOM     23  N   UNL A   1      33.685  29.264  24.298  1.00  0.00    -0.330 N 
ATOM     24  H   UNL A   1      34.172  28.382  24.458  1.00  0.00     0.347 HD
ATOM     25  H   UNL A   1      34.312  30.045  24.100  1.00  0.00     0.347 HD
BRANCH  23  26
ATOM     26  C   UNL A   1      32.836  29.108  23.107  1.00  0.00     0.299 C 
BRANCH  26  27
ATOM     27  C   UNL A   1      32.598  27.668  22.714  1.00  0.00     0.024 A 
ATOM     28  C   UNL A   1      33.580  26.879  22.107  1.00  0.00     0.013 A 
ATOM     29  C   UNL A   1      31.359  27.061  22.931  1.00  0.00     0.120 A 
ATOM     30  C   UNL A   1      33.296  25.557  21.762  1.00  0.00     0.021 A 
ATOM     31  N   UNL A   1      31.050  25.783  22.597  1.00  0.00    -0.264 NA
ATOM     32  C   UNL A   1      32.031  25.058  22.025  1.00  0.00     0.111 A 
ENDBRANCH  26  27
ENDBRANCH  23  26
ENDBRANCH   9  23
ENDBRANCH   7   9
ENDBRANCH   6   7
ENDBRANCH   5   6
ENDBRANCH   4   5
ENDBRANCH   3   4
ENDBRANCH   2   3
ENDBRANCH   1   2
BRANCH   1  33
ATOM     33  O   UNL A   1      32.666  36.847  30.435  1.00  0.00    -0.377 OA
BRANCH  33  34
ATOM     34  C   UNL A   1      33.279  37.260  31.642  1.00  0.00     0.188 C 
BRANCH  34  35
ATOM     35  C   UNL A   1      33.751  36.146  32.581  1.00  0.00     0.188 C 
BRANCH  35  36
ATOM     36  O   UNL A   1      35.106  36.100  32.997  1.00  0.00    -0.376 OA
BRANCH  36  37
ATOM     37  C   UNL A   1      35.729  34.962  33.568  1.00  0.00     0.202 C 
BRANCH  37  38
ATOM     38  C   UNL A   1      35.040  33.624  33.878  1.00  0.00     0.261 C 
BRANCH  38  39
ATOM     39  O   UNL A   1      35.628  32.447  33.327  1.00  0.00    -0.460 OA
BRANCH  39  40
ATOM     40  C   UNL A   1      35.212  32.138  32.086  1.00  0.00     0.338 C 
ATOM     41  O   UNL A   1      34.264  32.632  31.476  1.00  0.00    -0.246 OA
BRANCH  40  42
ATOM     42  C   UNL A   1      36.156  31.205  31.460  1.00  0.00     0.060 A 
ATOM     43  C   UNL A   1      37.083  30.565  32.289  1.00  0.00     0.016 A 
ATOM     44  C   UNL A   1      36.212  31.050  30.072  1.00  0.00     0.016 A 
ATOM     45  C   UNL A   1      38.123  29.836  31.729  1.00  0.00     0.010 A 
ATOM     46  C   UNL A   1      37.257  30.313  29.509  1.00  0.00     0.010 A 
ATOM     47  C   UNL A   1      38.252  29.764  30.336  1.00  0.00    -0.014 A 
BRANCH  47  48
ATOM     48  C   UNL A   1      39.559  29.348  29.777  1.00  0.00     0.031 A 
ATOM     49  C   UNL A   1      40.688  30.345  29.782  1.00  0.00     0.074 A 
ATOM     50  C   UNL A   1      39.769  28.086  29.368  1.00  0.00     0.049 A 
ATOM     51  N   UNL A   1      41.932  30.197  29.402  1.00  0.00    -0.248 NA
ATOM     52  C   UNL A   1      40.373  31.693  30.288  1.00  0.00     0.031 C 
ATOM     53  C   UNL A   1      38.767  27.021  29.363  1.00  0.00     0.029 A 
ATOM     54  N   UNL A   1      40.906  27.486  28.890  1.00  0.00    -0.354 N 
ATOM     55  C   UNL A   1      42.540  31.428  29.621  1.00  0.00     0.074 A 
ATOM     56  C   UNL A   1      41.524  32.324  30.122  1.00  0.00     0.031 C 
ATOM     57  C   UNL A   1      39.337  25.893  28.905  1.00  0.00     0.029 A 
ATOM     58  C   UNL A   1      40.732  26.164  28.564  1.00  0.00     0.049 A 
ATOM     59  H   UNL A   1      41.764  27.958  28.791  1.00  0.00     0.167 HD
ATOM     60  C   UNL A   1      43.835  31.776  29.437  1.00  0.00     0.037 A 
ATOM     61  C   UNL A   1      41.604  25.281  28.040  1.00  0.00     0.037 A 
ATOM     62  C   UNL A   1      44.847  30.882  28.943  1.00  0.00     0.049 A 
ATOM     63  C   UNL A   1      43.024  25.712  27.781  1.00  0.00     0.074 A 
ATOM     64  C   UNL A   1      46.190  31.132  28.730  1.00  0.00     0.029 A 
ATOM     65  N   UNL A   1      44.623  29.562  28.581  1.00  0.00    -0.354 N 
ATOM     66  N   UNL A   1      43.595  26.870  28.011  1.00  0.00    -0.248 NA
ATOM     67  C   UNL A   1      43.924  24.707  27.197  1.00  0.00     0.031 C 
ATOM     68  C   UNL A   1      46.767  29.980  28.184  1.00  0.00     0.029 A 
ATOM     69  C   UNL A   1      45.798  28.992  28.119  1.00  0.00     0.049 A 
ATOM     70  H   UNL A   1      43.756  29.099  28.641  1.00  0.00     0.167 HD
ATOM     71  C   UNL A   1      44.926  26.721  27.635  1.00  0.00     0.074 A 
ATOM     72  C   UNL A   1      45.078  25.357  27.175  1.00  0.00     0.031 C 
ATOM     73  C   UNL A   1      45.933  27.629  27.672  1.00  0.00     0.037 A 
BRANCH  60  74
ATOM     74  C   UNL A   1      44.220  33.196  29.745  1.00  0.00     0.057 A 
ATOM     75  C   UNL A   1      44.182  34.205  28.774  1.00  0.00     0.134 A 
ATOM     76  C   UNL A   1      44.615  33.560  31.039  1.00  0.00     0.134 A 
ATOM     77  F   UNL A   1      43.830  33.921  27.511  1.00  0.00    -0.206 F 
ATOM     78  C   UNL A   1      44.547  35.520  29.072  1.00  0.00     0.040 A 
ATOM     79  C   UNL A   1      44.955  34.876  31.356  1.00  0.00     0.040 A 
ATOM     80  F   UNL A   1      44.673  32.643  32.016  1.00  0.00    -0.206 F 
ATOM     81  C   UNL A   1      44.929  35.859  30.370  1.00  0.00     0.006 A 
ENDBRANCH  60  74
BRANCH  61  82
ATOM     82  C   UNL A   1      41.161  23.899  27.721  1.00  0.00     0.057 A 
ATOM     83  C   UNL A   1      41.595  22.802  28.474  1.00  0.00     0.134 A 
ATOM     84  C   UNL A   1      40.317  23.641  26.635  1.00  0.00     0.134 A 
ATOM     85  F   UNL A   1      42.424  22.981  29.513  1.00  0.00    -0.206 F 
ATOM     86  C   UNL A   1      41.225  21.497  28.144  1.00  0.00     0.040 A 
ATOM     87  C   UNL A   1      39.915  22.344  26.312  1.00  0.00     0.040 A 
ATOM     88  F   UNL A   1      39.863  24.649  25.874  1.00  0.00    -0.206 F 
ATOM     89  C   UNL A   1      40.378  21.266  27.063  1.00  0.00     0.006 A 
ENDBRANCH  61  82
BRANCH  73  90
ATOM     90  C   UNL A   1      47.298  27.163  27.248  1.00  0.00     0.057 A 
ATOM     91  C   UNL A   1      48.192  26.563  28.143  1.00  0.00     0.134 A 
ATOM     92  C   UNL A   1      47.708  27.290  25.914  1.00  0.00     0.134 A 
ATOM     93  F   UNL A   1      47.866  26.418  29.437  1.00  0.00    -0.206 F 
ATOM     94  C   UNL A   1      49.458  26.138  27.735  1.00  0.00     0.040 A 
ATOM     95  C   UNL A   1      48.957  26.839  25.487  1.00  0.00     0.040 A 
ATOM     96  F   UNL A   1      46.896  27.842  25.000  1.00  0.00    -0.206 F 
ATOM     97  C   UNL A   1      49.841  26.269  26.401  1.00  0.00     0.006 A 
ENDBRANCH  73  90
ENDBRANCH  47  48
ENDBRANCH  40  42
ENDBRANCH  39  40
ENDBRANCH  38  39
ENDBRANCH  37  38
ENDBRANCH  36  37
ENDBRANCH  35  36
ENDBRANCH  34  35
ENDBRANCH  33  34
ENDBRANCH   1  33
TORSDOF 26
ENDMDL
MODEL 2
REMARK VINA RESULT:     -10.0      0.945      5.868
REMARK SMILES Cc1ccc(NC(=O)C[C@H]([NH2+]Cc2cccnc2)C(=O)OCCOCCOCCOCCOC(=O)c2ccc(-c3c4nc(c(-c5c(F)cccc5F)c5ccc([nH]5)c(-c5c(F)cccc5F)c5nc(c(-c6c(F)cccc6F)c6ccc3[nH]6)C=C5)C=C4)cc2)cc1Cl
REMARK SMILES IDX 26 1 25 2 24 3 23 4 22 5 21 6 19 7 20 8 10 9 9 10 7 11 6 12
REMARK SMILES IDX 8 14 5 15 1 16 2 17 3 18 91 19 4 20 90 21 92 22 11 23 12 26
REMARK SMILES IDX 13 27 14 28 18 29 15 30 17 31 16 32 27 33 28 34 29 35 30 36
REMARK SMILES IDX 31 37 32 38 33 39 34 40 35 41 36 42 37 43 89 44 38 45 88 46
REMARK SMILES IDX 39 47 40 48 41 49 82 50 42 51 87 52 81 53 83 54 43 55 86 56
REMARK SMILES IDX 80 57 79 58 44 60 70 61 53 62 69 63 54 64 57 65 68 66 84 67
REMARK SMILES IDX 55 68 56 69 67 71 85 72 58 73 45 74 46 75 51 76 47 77 48 78
REMARK SMILES IDX 50 79 52 80 49 81 71 82 72 83 77 84 73 85 74 86 76 87 78 88
REMARK SMILES IDX 75 89 59 90 60 91 65 92 61 93 62 94 64 95 66 96 63 97
REMARK H PARENT 6 13 11 24 11 25 83 59 57 70
REMARK Flexibility Score: inf
ROOT
ATOM      1  C   UNL A   1      32.905  35.603  29.967  1.00  0.00     0.188 C 
ENDROOT
BRANCH   1   2
ATOM      2  C   UNL A   1      33.772  35.528  28.715  1.00  0.00     0.188 C 
BRANCH   2   3
ATOM      3  O   UNL A   1      33.832  34.357  27.911  1.00  0.00    -0.376 OA
BRANCH   3   4
ATOM      4  C   UNL A   1      33.058  33.216  28.232  1.00  0.00     0.202 C 
BRANCH   4   5
ATOM      5  C   UNL A   1      33.260  31.973  27.352  1.00  0.00     0.261 C 
BRANCH   5   6
ATOM      6  O   UNL A   1      34.069  30.888  27.856  1.00  0.00    -0.459 OA
BRANCH   6   7
ATOM      7  C   UNL A   1      34.051  29.715  27.161  1.00  0.00     0.365 C 
ATOM      8  O   UNL A   1      34.779  28.759  27.408  1.00  0.00    -0.245 OA
BRANCH   7   9
ATOM      9  C   UNL A   1      33.075  29.725  25.954  1.00  0.00     0.303 C 
BRANCH   9  10
ATOM     10  C   UNL A   1      31.777  29.040  26.358  1.00  0.00     0.177 C 
BRANCH  10  11
ATOM     11  C   UNL A   1      31.595  27.841  27.282  1.00  0.00     0.231 C 
ATOM     12  N   UNL A   1      31.724  26.515  27.050  1.00  0.00    -0.326 N 
ATOM     13  H   UNL A   1      31.196  26.007  27.706  1.00  0.00     0.169 HD
ATOM     14  O   UNL A   1      31.043  28.093  28.373  1.00  0.00    -0.274 OA
BRANCH  12  15
ATOM     15  C   UNL A   1      32.370  25.633  26.170  1.00  0.00     0.042 A 
ATOM     16  C   UNL A   1      34.675  22.995  23.594  1.00  0.00     0.046 C 
ATOM     17  C   UNL A   1      33.856  23.931  24.431  1.00  0.00    -0.032 A 
ATOM     18  C   UNL A   1      34.391  25.141  24.883  1.00  0.00     0.007 A 
ATOM     19  C   UNL A   1      32.561  23.608  24.829  1.00  0.00     0.046 A 
ATOM     20  C   UNL A   1      33.660  25.972  25.748  1.00  0.00     0.026 A 
ATOM     21  C   UNL A   1      31.819  24.491  25.625  1.00  0.00     0.047 A 
ATOM     22  Cl  UNL A   1      31.861  22.082  24.401  1.00  0.00    -0.084 Cl
ENDBRANCH  12  15
ENDBRANCH  10  11
ENDBRANCH   9  10
BRANCH   9  23
ATOM     23  N   UNL A   1      33.662  29.372  24.636  1.00  0.00    -0.330 N 
ATOM     24  H   UNL A   1      34.073  28.442  24.713  1.00  0.00     0.347 HD
ATOM     25  H   UNL A   1      34.342  30.101  24.423  1.00  0.00     0.347 HD
BRANCH  23  26
ATOM     26  C   UNL A   1      32.709  29.359  23.515  1.00  0.00     0.299 C 
BRANCH  26  27
ATOM     27  C   UNL A   1      32.594  28.016  22.829  1.00  0.00     0.024 A 
ATOM     28  C   UNL A   1      31.445  27.226  22.906  1.00  0.00     0.013 A 
ATOM     29  C   UNL A   1      33.660  27.495  22.092  1.00  0.00     0.120 A 
ATOM     30  C   UNL A   1      31.403  25.992  22.256  1.00  0.00     0.021 A 
ATOM     31  N   UNL A   1      33.654  26.296  21.459  1.00  0.00    -0.264 NA
ATOM     32  C   UNL A   1      32.520  25.573  21.551  1.00  0.00     0.111 A 
ENDBRANCH  26  27
ENDBRANCH  23  26
ENDBRANCH   9  23
ENDBRANCH   7   9
ENDBRANCH   6   7
ENDBRANCH   5   6
ENDBRANCH   4   5
ENDBRANCH   3   4
ENDBRANCH   2   3
ENDBRANCH   1   2
BRANCH   1  33
ATOM     33  O   UNL A   1      32.751  36.893  30.513  1.00  0.00    -0.377 OA
BRANCH  33  34
ATOM     34  C   UNL A   1      33.274  37.117  31.810  1.00  0.00     0.188 C 
BRANCH  34  35
ATOM     35  C   UNL A   1      33.499  35.875  32.676  1.00  0.00     0.188 C 
BRANCH  35  36
ATOM     36  O   UNL A   1      34.627  35.806  33.532  1.00  0.00    -0.376 OA
BRANCH  36  37
ATOM     37  C   UNL A   1      35.222  34.598  33.977  1.00  0.00     0.202 C 
BRANCH  37  38
ATOM     38  C   UNL A   1      34.801  33.183  33.551  1.00  0.00     0.261 C 
BRANCH  38  39
ATOM     39  O   UNL A   1      35.795  32.366  32.936  1.00  0.00    -0.460 OA
BRANCH  39  40
ATOM     40  C   UNL A   1      35.929  32.546  31.610  1.00  0.00     0.338 C 
ATOM     41  O   UNL A   1      35.421  33.435  30.926  1.00  0.00    -0.246 OA
BRANCH  40  42
ATOM     42  C   UNL A   1      36.916  31.601  31.073  1.00  0.00     0.060 A 
ATOM     43  C   UNL A   1      37.878  31.098  31.954  1.00  0.00     0.016 A 
ATOM     44  C   UNL A   1      36.973  31.307  29.709  1.00  0.00     0.016 A 
ATOM     45  C   UNL A   1      38.951  30.368  31.462  1.00  0.00     0.010 A 
ATOM     46  C   UNL A   1      38.051  30.569  29.213  1.00  0.00     0.010 A 
ATOM     47  C   UNL A   1      39.077  30.158  30.083  1.00  0.00    -0.014 A 
BRANCH  47  48
ATOM     48  C   UNL A   1      40.401  29.753  29.556  1.00  0.00     0.031 A 
ATOM     49  C   UNL A   1      40.565  28.347  29.042  1.00  0.00     0.074 A 
ATOM     50  C   UNL A   1      41.403  30.640  29.443  1.00  0.00     0.049 A 
ATOM     51  N   UNL A   1      41.604  27.781  28.484  1.00  0.00    -0.248 NA
ATOM     52  C   UNL A   1      39.397  27.459  29.171  1.00  0.00     0.031 C 
ATOM     53  C   UNL A   1      41.345  32.040  29.861  1.00  0.00     0.029 A 
ATOM     54  N   UNL A   1      42.665  30.491  28.927  1.00  0.00    -0.354 N 
ATOM     55  C   UNL A   1      41.215  26.476  28.201  1.00  0.00     0.074 A 
ATOM     56  C   UNL A   1      39.864  26.320  28.687  1.00  0.00     0.031 C 
ATOM     57  C   UNL A   1      42.523  32.625  29.580  1.00  0.00     0.029 A 
ATOM     58  C   UNL A   1      43.420  31.635  28.987  1.00  0.00     0.049 A 
ATOM     59  H   UNL A   1      42.996  29.646  28.548  1.00  0.00     0.167 HD
ATOM     60  C   UNL A   1      41.915  25.501  27.575  1.00  0.00     0.037 A 
ATOM     61  C   UNL A   1      44.696  31.850  28.613  1.00  0.00     0.037 A 
ATOM     62  C   UNL A   1      43.258  25.661  27.086  1.00  0.00     0.049 A 
ATOM     63  C   UNL A   1      45.478  30.728  27.980  1.00  0.00     0.074 A 
ATOM     64  C   UNL A   1      44.052  24.739  26.430  1.00  0.00     0.029 A 
ATOM     65  N   UNL A   1      44.007  26.822  27.207  1.00  0.00    -0.354 N 
ATOM     66  N   UNL A   1      45.094  29.506  27.696  1.00  0.00    -0.248 NA
ATOM     67  C   UNL A   1      46.868  31.020  27.605  1.00  0.00     0.031 C 
ATOM     68  C   UNL A   1      45.303  25.324  26.203  1.00  0.00     0.029 A 
ATOM     69  C   UNL A   1      45.265  26.631  26.660  1.00  0.00     0.049 A 
ATOM     70  H   UNL A   1      43.691  27.658  27.621  1.00  0.00     0.167 HD
ATOM     71  C   UNL A   1      46.182  28.898  27.079  1.00  0.00     0.074 A 
ATOM     72  C   UNL A   1      47.234  29.890  27.018  1.00  0.00     0.031 C 
ATOM     73  C   UNL A   1      46.299  27.634  26.601  1.00  0.00     0.037 A 
BRANCH  60  74
ATOM     74  C   UNL A   1      41.245  24.166  27.413  1.00  0.00     0.057 A 
ATOM     75  C   UNL A   1      40.183  23.969  26.523  1.00  0.00     0.134 A 
ATOM     76  C   UNL A   1      41.687  23.056  28.147  1.00  0.00     0.134 A 
ATOM     77  F   UNL A   1      39.699  24.992  25.803  1.00  0.00    -0.206 F 
ATOM     78  C   UNL A   1      39.565  22.723  26.386  1.00  0.00     0.040 A 
ATOM     79  C   UNL A   1      41.097  21.800  27.997  1.00  0.00     0.040 A 
ATOM     80  F   UNL A   1      42.701  23.175  29.016  1.00  0.00    -0.206 F 
ATOM     81  C   UNL A   1      40.029  21.633  27.120  1.00  0.00     0.006 A 
ENDBRANCH  60  74
BRANCH  61  82
ATOM     82  C   UNL A   1      45.321  33.180  28.829  1.00  0.00     0.057 A 
ATOM     83  C   UNL A   1      45.361  34.142  27.813  1.00  0.00     0.134 A 
ATOM     84  C   UNL A   1      45.921  33.510  30.051  1.00  0.00     0.134 A 
ATOM     85  F   UNL A   1      44.824  33.877  26.612  1.00  0.00    -0.206 F 
ATOM     86  C   UNL A   1      45.995  35.372  27.995  1.00  0.00     0.040 A 
ATOM     87  C   UNL A   1      46.532  34.748  30.256  1.00  0.00     0.040 A 
ATOM     88  F   UNL A   1      45.915  32.633  31.067  1.00  0.00    -0.206 F 
ATOM     89  C   UNL A   1      46.579  35.680  29.222  1.00  0.00     0.006 A 
ENDBRANCH  61  82
BRANCH  73  90
ATOM     90  C   UNL A   1      47.591  27.268  25.927  1.00  0.00     0.057 A 
ATOM     91  C   UNL A   1      48.673  26.727  26.633  1.00  0.00     0.134 A 
ATOM     92  C   UNL A   1      47.741  27.432  24.543  1.00  0.00     0.134 A 
ATOM     93  F   UNL A   1      48.600  26.551  27.961  1.00  0.00    -0.206 F 
ATOM     94  C   UNL A   1      49.869  26.396  25.993  1.00  0.00     0.040 A 
ATOM     95  C   UNL A   1      48.919  27.073  23.887  1.00  0.00     0.040 A 
ATOM     96  F   UNL A   1      46.740  27.931  23.803  1.00  0.00    -0.206 F 
ATOM     97  C   UNL A   1      49.992  26.562  24.615  1.00  0.00     0.006 A 
ENDBRANCH  73  90
ENDBRANCH  47  48
ENDBRANCH  40  42
ENDBRANCH  39  40
ENDBRANCH  38  39
ENDBRANCH  37  38
ENDBRANCH  36  37
ENDBRANCH  35  36
ENDBRANCH  34  35
ENDBRANCH  33  34
ENDBRANCH   1  33
TORSDOF 26
ENDMDL
MODEL 3
REMARK VINA RESULT:     -10.0      1.911      2.898
REMARK SMILES Cc1ccc(NC(=O)C[C@H]([NH2+]Cc2cccnc2)C(=O)OCCOCCOCCOCCOC(=O)c2ccc(-c3c4nc(c(-c5c(F)cccc5F)c5ccc([nH]5)c(-c5c(F)cccc5F)c5nc(c(-c6c(F)cccc6F)c6ccc3[nH]6)C=C5)C=C4)cc2)cc1Cl
REMARK SMILES IDX 26 1 25 2 24 3 23 4 22 5 21 6 19 7 20 8 10 9 9 10 7 11 6 12
REMARK SMILES IDX 8 14 5 15 1 16 2 17 3 18 91 19 4 20 90 21 92 22 11 23 12 26
REMARK SMILES IDX 13 27 14 28 18 29 15 30 17 31 16 32 27 33 28 34 29 35 30 36
REMARK SMILES IDX 31 37 32 38 33 39 34 40 35 41 36 42 37 43 89 44 38 45 88 46
REMARK SMILES IDX 39 47 40 48 41 49 82 50 42 51 87 52 81 53 83 54 43 55 86 56
REMARK SMILES IDX 80 57 79 58 44 60 70 61 53 62 69 63 54 64 57 65 68 66 84 67
REMARK SMILES IDX 55 68 56 69 67 71 85 72 58 73 45 74 46 75 51 76 47 77 48 78
REMARK SMILES IDX 50 79 52 80 49 81 71 82 72 83 77 84 73 85 74 86 76 87 78 88
REMARK SMILES IDX 75 89 59 90 60 91 65 92 61 93 62 94 64 95 66 96 63 97
REMARK H PARENT 6 13 11 24 11 25 83 59 57 70
REMARK Flexibility Score: inf
ROOT
ATOM      1  C   UNL A   1      33.897  31.531  27.906  1.00  0.00     0.188 C 
ENDROOT
BRANCH   1   2
ATOM      2  C   UNL A   1      34.999  30.512  27.630  1.00  0.00     0.188 C 
BRANCH   2   3
ATOM      3  O   UNL A   1      34.709  29.147  27.357  1.00  0.00    -0.376 OA
BRANCH   3   4
ATOM      4  C   UNL A   1      33.372  28.703  27.213  1.00  0.00     0.202 C 
BRANCH   4   5
ATOM      5  C   UNL A   1      33.008  28.022  25.886  1.00  0.00     0.261 C 
BRANCH   5   6
ATOM      6  O   UNL A   1      31.616  27.911  25.519  1.00  0.00    -0.459 OA
BRANCH   6   7
ATOM      7  C   UNL A   1      31.204  26.738  24.959  1.00  0.00     0.365 C 
ATOM      8  O   UNL A   1      31.474  25.629  25.408  1.00  0.00    -0.245 OA
BRANCH   7   9
ATOM      9  C   UNL A   1      30.423  26.928  23.631  1.00  0.00     0.303 C 
BRANCH   9  10
ATOM     10  C   UNL A   1      31.354  26.644  22.461  1.00  0.00     0.177 C 
BRANCH  10  11
ATOM     11  C   UNL A   1      32.879  26.623  22.457  1.00  0.00     0.231 C 
ATOM     12  N   UNL A   1      33.755  25.726  22.965  1.00  0.00    -0.326 N 
ATOM     13  H   UNL A   1      34.622  26.162  23.130  1.00  0.00     0.169 HD
ATOM     14  O   UNL A   1      33.421  27.695  22.116  1.00  0.00    -0.274 OA
BRANCH  12  15
ATOM     15  C   UNL A   1      33.821  24.373  23.331  1.00  0.00     0.042 A 
ATOM     16  C   UNL A   1      34.107  20.287  24.791  1.00  0.00     0.046 C 
ATOM     17  C   UNL A   1      34.051  21.682  24.243  1.00  0.00    -0.032 A 
ATOM     18  C   UNL A   1      34.856  22.693  24.775  1.00  0.00     0.007 A 
ATOM     19  C   UNL A   1      33.163  22.030  23.228  1.00  0.00     0.046 A 
ATOM     20  C   UNL A   1      34.734  24.020  24.330  1.00  0.00     0.026 A 
ATOM     21  C   UNL A   1      33.116  23.344  22.743  1.00  0.00     0.047 A 
ATOM     22  Cl  UNL A   1      32.054  20.863  22.586  1.00  0.00    -0.084 Cl
ENDBRANCH  12  15
ENDBRANCH  10  11
ENDBRANCH   9  10
BRANCH   9  23
ATOM     23  N   UNL A   1      29.557  28.132  23.548  1.00  0.00    -0.330 N 
ATOM     24  H   UNL A   1      29.070  28.233  24.439  1.00  0.00     0.347 HD
ATOM     25  H   UNL A   1      28.931  27.977  22.758  1.00  0.00     0.347 HD
BRANCH  23  26
ATOM     26  C   UNL A   1      30.265  29.391  23.270  1.00  0.00     0.299 C 
BRANCH  26  27
ATOM     27  C   UNL A   1      29.385  30.466  22.674  1.00  0.00     0.024 A 
ATOM     28  C   UNL A   1      29.042  30.497  21.321  1.00  0.00     0.013 A 
ATOM     29  C   UNL A   1      28.883  31.500  23.467  1.00  0.00     0.120 A 
ATOM     30  C   UNL A   1      28.229  31.520  20.830  1.00  0.00     0.021 A 
ATOM     31  N   UNL A   1      28.101  32.514  23.019  1.00  0.00    -0.264 NA
ATOM     32  C   UNL A   1      27.787  32.496  21.709  1.00  0.00     0.111 A 
ENDBRANCH  26  27
ENDBRANCH  23  26
ENDBRANCH   9  23
ENDBRANCH   7   9
ENDBRANCH   6   7
ENDBRANCH   5   6
ENDBRANCH   4   5
ENDBRANCH   3   4
ENDBRANCH   2   3
ENDBRANCH   1   2
BRANCH   1  33
ATOM     33  O   UNL A   1      34.162  32.429  28.959  1.00  0.00    -0.377 OA
BRANCH  33  34
ATOM     34  C   UNL A   1      33.728  33.767  28.796  1.00  0.00     0.188 C 
BRANCH  34  35
ATOM     35  C   UNL A   1      34.012  34.721  29.959  1.00  0.00     0.188 C 
BRANCH  35  36
ATOM     36  O   UNL A   1      33.264  34.614  31.159  1.00  0.00    -0.376 OA
BRANCH  36  37
ATOM     37  C   UNL A   1      33.815  34.742  32.459  1.00  0.00     0.202 C 
BRANCH  37  38
ATOM     38  C   UNL A   1      34.304  33.584  33.342  1.00  0.00     0.261 C 
BRANCH  38  39
ATOM     39  O   UNL A   1      35.052  32.551  32.704  1.00  0.00    -0.460 OA
BRANCH  39  40
ATOM     40  C   UNL A   1      36.203  32.227  33.319  1.00  0.00     0.338 C 
ATOM     41  O   UNL A   1      36.538  32.516  34.468  1.00  0.00    -0.246 OA
BRANCH  40  42
ATOM     42  C   UNL A   1      36.985  31.319  32.472  1.00  0.00     0.060 A 
ATOM     43  C   UNL A   1      38.034  30.614  33.072  1.00  0.00     0.016 A 
ATOM     44  C   UNL A   1      36.774  31.248  31.093  1.00  0.00     0.016 A 
ATOM     45  C   UNL A   1      38.929  29.904  32.283  1.00  0.00     0.010 A 
ATOM     46  C   UNL A   1      37.673  30.531  30.299  1.00  0.00     0.010 A 
ATOM     47  C   UNL A   1      38.791  29.916  30.890  1.00  0.00    -0.014 A 
BRANCH  47  48
ATOM     48  C   UNL A   1      39.957  29.514  30.069  1.00  0.00     0.031 A 
ATOM     49  C   UNL A   1      41.068  30.512  29.870  1.00  0.00     0.074 A 
ATOM     50  C   UNL A   1      40.075  28.263  29.597  1.00  0.00     0.049 A 
ATOM     51  N   UNL A   1      42.209  30.374  29.245  1.00  0.00    -0.248 NA
ATOM     52  C   UNL A   1      40.867  31.847  30.461  1.00  0.00     0.031 C 
ATOM     53  C   UNL A   1      39.088  27.198  29.768  1.00  0.00     0.029 A 
ATOM     54  N   UNL A   1      41.089  27.675  28.886  1.00  0.00    -0.354 N 
ATOM     55  C   UNL A   1      42.854  31.600  29.365  1.00  0.00     0.074 A 
ATOM     56  C   UNL A   1      41.963  32.482  30.082  1.00  0.00     0.031 C 
ATOM     57  C   UNL A   1      39.550  26.081  29.178  1.00  0.00     0.029 A 
ATOM     58  C   UNL A   1      40.848  26.361  28.570  1.00  0.00     0.049 A 
ATOM     59  H   UNL A   1      41.912  28.149  28.628  1.00  0.00     0.167 HD
ATOM     60  C   UNL A   1      44.087  31.953  28.932  1.00  0.00     0.037 A 
ATOM     61  C   UNL A   1      41.593  25.491  27.861  1.00  0.00     0.037 A 
ATOM     62  C   UNL A   1      44.975  31.071  28.224  1.00  0.00     0.049 A 
ATOM     63  C   UNL A   1      42.934  25.930  27.331  1.00  0.00     0.074 A 
ATOM     64  C   UNL A   1      46.249  31.327  27.750  1.00  0.00     0.029 A 
ATOM     65  N   UNL A   1      44.677  29.760  27.883  1.00  0.00    -0.354 N 
ATOM     66  N   UNL A   1      43.545  27.082  27.469  1.00  0.00    -0.248 NA
ATOM     67  C   UNL A   1      43.693  24.939  26.555  1.00  0.00     0.031 C 
ATOM     68  C   UNL A   1      46.699  30.189  27.073  1.00  0.00     0.029 A 
ATOM     69  C   UNL A   1      45.733  29.203  27.181  1.00  0.00     0.049 A 
ATOM     70  H   UNL A   1      43.838  29.295  28.106  1.00  0.00     0.167 HD
ATOM     71  C   UNL A   1      44.772  26.943  26.830  1.00  0.00     0.074 A 
ATOM     72  C   UNL A   1      44.822  25.590  26.316  1.00  0.00     0.031 C 
ATOM     73  C   UNL A   1      45.769  27.850  26.684  1.00  0.00     0.037 A 
BRANCH  60  74
ATOM     74  C   UNL A   1      44.532  33.365  29.190  1.00  0.00     0.057 A 
ATOM     75  C   UNL A   1      44.258  34.406  28.295  1.00  0.00     0.134 A 
ATOM     76  C   UNL A   1      45.228  33.688  30.362  1.00  0.00     0.134 A 
ATOM     77  F   UNL A   1      43.611  34.164  27.145  1.00  0.00    -0.206 F 
ATOM     78  C   UNL A   1      44.682  35.714  28.543  1.00  0.00     0.040 A 
ATOM     79  C   UNL A   1      45.631  34.996  30.636  1.00  0.00     0.040 A 
ATOM     80  F   UNL A   1      45.522  32.738  31.263  1.00  0.00    -0.206 F 
ATOM     81  C   UNL A   1      45.365  36.012  29.722  1.00  0.00     0.006 A 
ENDBRANCH  60  74
BRANCH  61  82
ATOM     82  C   UNL A   1      41.090  24.117  27.605  1.00  0.00     0.057 A 
ATOM     83  C   UNL A   1      41.618  23.009  28.278  1.00  0.00     0.134 A 
ATOM     84  C   UNL A   1      40.087  23.877  26.658  1.00  0.00     0.134 A 
ATOM     85  F   UNL A   1      42.597  23.171  29.181  1.00  0.00    -0.206 F 
ATOM     86  C   UNL A   1      41.186  21.711  28.001  1.00  0.00     0.040 A 
ATOM     87  C   UNL A   1      39.624  22.587  26.392  1.00  0.00     0.040 A 
ATOM     88  F   UNL A   1      39.537  24.896  25.980  1.00  0.00    -0.206 F 
ATOM     89  C   UNL A   1      40.181  21.498  27.059  1.00  0.00     0.006 A 
ENDBRANCH  61  82
BRANCH  73  90
ATOM     90  C   UNL A   1      47.019  27.395  25.983  1.00  0.00     0.057 A 
ATOM     91  C   UNL A   1      48.091  26.816  26.673  1.00  0.00     0.134 A 
ATOM     92  C   UNL A   1      47.134  27.512  24.591  1.00  0.00     0.134 A 
ATOM     93  F   UNL A   1      48.050  26.681  28.007  1.00  0.00    -0.206 F 
ATOM     94  C   UNL A   1      49.247  26.401  26.008  1.00  0.00     0.040 A 
ATOM     95  C   UNL A   1      48.270  27.070  23.912  1.00  0.00     0.040 A 
ATOM     96  F   UNL A   1      46.138  28.044  23.866  1.00  0.00    -0.206 F 
ATOM     97  C   UNL A   1      49.335  26.522  24.622  1.00  0.00     0.006 A 
ENDBRANCH  73  90
ENDBRANCH  47  48
ENDBRANCH  40  42
ENDBRANCH  39  40
ENDBRANCH  38  39
ENDBRANCH  37  38
ENDBRANCH  36  37
ENDBRANCH  35  36
ENDBRANCH  34  35
ENDBRANCH  33  34
ENDBRANCH   1  33
TORSDOF 26
ENDMDL
