MODEL 1
REMARK VINA RESULT:     -10.4      0.000      0.000
REMARK SMILES O=C(OCCOCCOCCOCCOC(=O)c1cc(Br)ccc1OCc1ccc(O)cc1)c1ccc(-c2c3nc(c(-c4c(F)cccc4F)c4ccc([nH]4)c(-c4c(F)cccc4F)c4nc(c(-c5c(F)cccc5F)c5ccc2[nH]5)C=C4)C=C3)cc1
REMARK SMILES IDX 10 1 9 2 8 3 7 4 6 5 5 6 4 7 3 8 2 9 1 10 34 11 35 12 87 13
REMARK SMILES IDX 36 14 86 15 37 16 38 17 39 18 80 19 40 20 85 21 79 22 81 23
REMARK SMILES IDX 41 24 84 25 78 26 77 27 42 29 68 30 51 31 67 32 52 33 55 34
REMARK SMILES IDX 66 35 82 36 53 37 54 38 65 40 83 41 56 42 43 43 44 44 49 45
REMARK SMILES IDX 45 46 46 47 48 48 50 49 47 50 69 51 70 52 75 53 71 54 72 55
REMARK SMILES IDX 74 56 76 57 73 58 57 59 58 60 63 61 59 62 60 63 62 64 64 65
REMARK SMILES IDX 61 66 11 67 12 68 13 69 14 70 15 71 16 72 17 73 18 74 19 75
REMARK SMILES IDX 24 76 20 77 23 78 21 79 22 80 25 81 26 82 27 83 28 84 33 85
REMARK SMILES IDX 29 86 32 87 30 88 31 89
REMARK H PARENT 81 28 55 39 31 90
REMARK Flexibility Score: inf
ROOT
ATOM      1  C   UNL A   1      39.648  21.947  26.115  1.00  0.00     0.188 C 
ENDROOT
BRANCH   1   2
ATOM      2  O   UNL A   1      40.064  22.064  27.472  1.00  0.00    -0.377 OA
BRANCH   2   3
ATOM      3  C   UNL A   1      41.330  21.489  27.791  1.00  0.00     0.188 C 
BRANCH   3   4
ATOM      4  C   UNL A   1      41.667  20.276  26.926  1.00  0.00     0.188 C 
BRANCH   4   5
ATOM      5  O   UNL A   1      42.237  19.247  27.747  1.00  0.00    -0.376 OA
BRANCH   5   6
ATOM      6  C   UNL A   1      43.000  18.278  27.033  1.00  0.00     0.202 C 
BRANCH   6   7
ATOM      7  C   UNL A   1      42.978  18.493  25.519  1.00  0.00     0.261 C 
BRANCH   7   8
ATOM      8  O   UNL A   1      44.281  18.331  24.942  1.00  0.00    -0.460 OA
BRANCH   8   9
ATOM      9  C   UNL A   1      45.029  19.269  24.307  1.00  0.00     0.338 C 
ATOM     10  O   UNL A   1      45.724  18.918  23.354  1.00  0.00    -0.246 OA
BRANCH   9  11
ATOM     11  C   UNL A   1      44.991  20.729  24.635  1.00  0.00     0.060 A 
ATOM     12  C   UNL A   1      44.594  21.755  23.772  1.00  0.00     0.016 A 
ATOM     13  C   UNL A   1      45.321  21.075  25.957  1.00  0.00     0.016 A 
ATOM     14  C   UNL A   1      44.612  23.091  24.176  1.00  0.00     0.010 A 
ATOM     15  C   UNL A   1      45.300  22.406  26.382  1.00  0.00     0.010 A 
ATOM     16  C   UNL A   1      44.975  23.425  25.479  1.00  0.00    -0.014 A 
BRANCH  16  17
ATOM     17  C   UNL A   1      45.122  24.844  25.867  1.00  0.00     0.031 A 
ATOM     18  C   UNL A   1      46.467  25.489  25.709  1.00  0.00     0.074 A 
ATOM     19  C   UNL A   1      44.066  25.544  26.318  1.00  0.00     0.049 A 
ATOM     20  N   UNL A   1      46.878  26.661  26.112  1.00  0.00    -0.248 NA
ATOM     21  C   UNL A   1      47.489  24.702  24.997  1.00  0.00     0.031 C 
ATOM     22  C   UNL A   1      42.700  25.034  26.433  1.00  0.00     0.029 A 
ATOM     23  N   UNL A   1      43.980  26.836  26.768  1.00  0.00    -0.354 N 
ATOM     24  C   UNL A   1      48.215  26.737  25.740  1.00  0.00     0.074 A 
ATOM     25  C   UNL A   1      48.545  25.499  25.071  1.00  0.00     0.031 C 
ATOM     26  C   UNL A   1      41.911  26.004  26.926  1.00  0.00     0.029 A 
ATOM     27  C   UNL A   1      42.727  27.178  27.217  1.00  0.00     0.049 A 
ATOM     28  H   UNL A   1      44.742  27.459  26.768  1.00  0.00     0.167 HD
ATOM     29  C   UNL A   1      49.087  27.748  25.953  1.00  0.00     0.037 A 
ATOM     30  C   UNL A   1      42.309  28.298  27.840  1.00  0.00     0.037 A 
ATOM     31  C   UNL A   1      48.735  28.978  26.607  1.00  0.00     0.049 A 
ATOM     32  C   UNL A   1      43.316  29.381  28.125  1.00  0.00     0.074 A 
ATOM     33  C   UNL A   1      49.535  30.069  26.889  1.00  0.00     0.029 A 
ATOM     34  N   UNL A   1      47.465  29.275  27.079  1.00  0.00    -0.354 N 
ATOM     35  N   UNL A   1      44.587  29.433  27.802  1.00  0.00    -0.248 NA
ATOM     36  C   UNL A   1      42.840  30.547  28.883  1.00  0.00     0.031 C 
ATOM     37  C   UNL A   1      48.756  31.013  27.566  1.00  0.00     0.029 A 
ATOM     38  C   UNL A   1      47.463  30.522  27.675  1.00  0.00     0.049 A 
ATOM     39  H   UNL A   1      46.681  28.684  27.002  1.00  0.00     0.167 HD
ATOM     40  C   UNL A   1      45.062  30.632  28.318  1.00  0.00     0.074 A 
ATOM     41  C   UNL A   1      43.936  31.290  28.948  1.00  0.00     0.031 C 
ATOM     42  C   UNL A   1      46.318  31.141  28.290  1.00  0.00     0.037 A 
BRANCH  29  43
ATOM     43  C   UNL A   1      50.505  27.533  25.527  1.00  0.00     0.057 A 
ATOM     44  C   UNL A   1      51.493  27.095  26.418  1.00  0.00     0.134 A 
ATOM     45  C   UNL A   1      50.889  27.774  24.202  1.00  0.00     0.134 A 
ATOM     46  F   UNL A   1      51.195  26.872  27.707  1.00  0.00    -0.206 F 
ATOM     47  C   UNL A   1      52.816  26.919  26.008  1.00  0.00     0.040 A 
ATOM     48  C   UNL A   1      52.204  27.586  23.776  1.00  0.00     0.040 A 
ATOM     49  F   UNL A   1      49.992  28.203  23.301  1.00  0.00    -0.206 F 
ATOM     50  C   UNL A   1      53.174  27.161  24.683  1.00  0.00     0.006 A 
ENDBRANCH  29  43
BRANCH  30  51
ATOM     51  C   UNL A   1      40.902  28.426  28.302  1.00  0.00     0.057 A 
ATOM     52  C   UNL A   1      40.510  28.003  29.577  1.00  0.00     0.134 A 
ATOM     53  C   UNL A   1      39.904  28.941  27.464  1.00  0.00     0.134 A 
ATOM     54  F   UNL A   1      41.412  27.475  30.419  1.00  0.00    -0.206 F 
ATOM     55  C   UNL A   1      39.179  28.070  29.996  1.00  0.00     0.040 A 
ATOM     56  C   UNL A   1      38.575  29.039  27.879  1.00  0.00     0.040 A 
ATOM     57  F   UNL A   1      40.208  29.362  26.228  1.00  0.00    -0.206 F 
ATOM     58  C   UNL A   1      38.207  28.595  29.147  1.00  0.00     0.006 A 
ENDBRANCH  30  51
BRANCH  42  59
ATOM     59  C   UNL A   1      46.528  32.465  28.957  1.00  0.00     0.057 A 
ATOM     60  C   UNL A   1      46.915  32.548  30.300  1.00  0.00     0.134 A 
ATOM     61  C   UNL A   1      46.399  33.658  28.238  1.00  0.00     0.134 A 
ATOM     62  F   UNL A   1      47.042  31.438  31.042  1.00  0.00    -0.206 F 
ATOM     63  C   UNL A   1      47.156  33.779  30.910  1.00  0.00     0.040 A 
ATOM     64  C   UNL A   1      46.658  34.893  28.831  1.00  0.00     0.040 A 
ATOM     65  F   UNL A   1      46.040  33.639  26.946  1.00  0.00    -0.206 F 
ATOM     66  C   UNL A   1      47.035  34.956  30.172  1.00  0.00     0.006 A 
ENDBRANCH  42  59
ENDBRANCH  16  17
ENDBRANCH   9  11
ENDBRANCH   8   9
ENDBRANCH   7   8
ENDBRANCH   6   7
ENDBRANCH   5   6
ENDBRANCH   4   5
ENDBRANCH   3   4
ENDBRANCH   2   3
ENDBRANCH   1   2
BRANCH   1  67
ATOM     67  C   UNL A   1      38.136  22.053  25.840  1.00  0.00     0.188 C 
BRANCH  67  68
ATOM     68  O   UNL A   1      37.622  21.023  24.997  1.00  0.00    -0.376 OA
BRANCH  68  69
ATOM     69  C   UNL A   1      36.247  20.710  25.213  1.00  0.00     0.202 C 
BRANCH  69  70
ATOM     70  C   UNL A   1      35.517  21.813  25.970  1.00  0.00     0.261 C 
BRANCH  70  71
ATOM     71  O   UNL A   1      34.389  21.281  26.684  1.00  0.00    -0.460 OA
BRANCH  71  72
ATOM     72  C   UNL A   1      33.458  22.112  27.207  1.00  0.00     0.342 C 
ATOM     73  O   UNL A   1      33.173  22.238  28.378  1.00  0.00    -0.246 OA
BRANCH  72  74
ATOM     74  C   UNL A   1      32.745  22.679  26.038  1.00  0.00     0.103 A 
ATOM     75  C   UNL A   1      32.899  24.082  25.931  1.00  0.00     0.035 A 
ATOM     76  C   UNL A   1      31.992  21.993  25.072  1.00  0.00     0.134 A 
ATOM     77  C   UNL A   1      32.299  24.792  24.898  1.00  0.00     0.019 A 
ATOM     78  C   UNL A   1      31.388  22.741  24.044  1.00  0.00     0.048 A 
ATOM     79  Br  UNL A   1      32.556  26.658  24.770  1.00  0.00    -0.051 Br
ATOM     80  C   UNL A   1      31.528  24.128  23.957  1.00  0.00     0.019 A 
BRANCH  76  81
ATOM     81  O   UNL A   1      31.838  20.655  24.854  1.00  0.00    -0.488 OA
BRANCH  81  82
ATOM     82  C   UNL A   1      32.492  20.002  23.767  1.00  0.00     0.265 C 
BRANCH  82  83
ATOM     83  C   UNL A   1      32.818  18.576  24.124  1.00  0.00    -0.010 A 
ATOM     84  C   UNL A   1      32.539  18.072  25.401  1.00  0.00     0.011 A 
ATOM     85  C   UNL A   1      33.457  17.745  23.190  1.00  0.00     0.011 A 
ATOM     86  C   UNL A   1      33.050  16.831  25.790  1.00  0.00     0.046 A 
ATOM     87  C   UNL A   1      33.950  16.500  23.570  1.00  0.00     0.046 A 
ATOM     88  C   UNL A   1      33.788  16.081  24.881  1.00  0.00     0.115 A 
BRANCH  88  89
ATOM     89  O   UNL A   1      34.407  14.929  25.266  1.00  0.00    -0.508 OA
ATOM     90  H   UNL A   1      34.481  14.718  26.175  1.00  0.00     0.293 HD
ENDBRANCH  88  89
ENDBRANCH  82  83
ENDBRANCH  81  82
ENDBRANCH  76  81
ENDBRANCH  72  74
ENDBRANCH  71  72
ENDBRANCH  70  71
ENDBRANCH  69  70
ENDBRANCH  68  69
ENDBRANCH  67  68
ENDBRANCH   1  67
TORSDOF 24
ENDMDL
MODEL 2
REMARK VINA RESULT:     -10.0      5.373      9.239
REMARK SMILES O=C(OCCOCCOCCOCCOC(=O)c1cc(Br)ccc1OCc1ccc(O)cc1)c1ccc(-c2c3nc(c(-c4c(F)cccc4F)c4ccc([nH]4)c(-c4c(F)cccc4F)c4nc(c(-c5c(F)cccc5F)c5ccc2[nH]5)C=C4)C=C3)cc1
REMARK SMILES IDX 10 1 9 2 8 3 7 4 6 5 5 6 4 7 3 8 2 9 1 10 34 11 35 12 87 13
REMARK SMILES IDX 36 14 86 15 37 16 38 17 39 18 80 19 40 20 85 21 79 22 81 23
REMARK SMILES IDX 41 24 84 25 78 26 77 27 42 29 68 30 51 31 67 32 52 33 55 34
REMARK SMILES IDX 66 35 82 36 53 37 54 38 65 40 83 41 56 42 43 43 44 44 49 45
REMARK SMILES IDX 45 46 46 47 48 48 50 49 47 50 69 51 70 52 75 53 71 54 72 55
REMARK SMILES IDX 74 56 76 57 73 58 57 59 58 60 63 61 59 62 60 63 62 64 64 65
REMARK SMILES IDX 61 66 11 67 12 68 13 69 14 70 15 71 16 72 17 73 18 74 19 75
REMARK SMILES IDX 24 76 20 77 23 78 21 79 22 80 25 81 26 82 27 83 28 84 33 85
REMARK SMILES IDX 29 86 32 87 30 88 31 89
REMARK H PARENT 81 28 55 39 31 90
REMARK Flexibility Score: inf
ROOT
ATOM      1  C   UNL A   1      39.876  21.860  26.807  1.00  0.00     0.188 C 
ENDROOT
BRANCH   1   2
ATOM      2  O   UNL A   1      41.034  21.599  26.019  1.00  0.00    -0.377 OA
BRANCH   2   3
ATOM      3  C   UNL A   1      41.991  20.708  26.591  1.00  0.00     0.188 C 
BRANCH   3   4
ATOM      4  C   UNL A   1      43.197  20.471  25.683  1.00  0.00     0.188 C 
BRANCH   4   5
ATOM      5  O   UNL A   1      44.153  21.523  25.874  1.00  0.00    -0.376 OA
BRANCH   5   6
ATOM      6  C   UNL A   1      43.894  22.700  25.114  1.00  0.00     0.202 C 
BRANCH   6   7
ATOM      7  C   UNL A   1      43.863  23.970  25.966  1.00  0.00     0.261 C 
BRANCH   7   8
ATOM      8  O   UNL A   1      42.519  24.382  26.254  1.00  0.00    -0.460 OA
BRANCH   8   9
ATOM      9  C   UNL A   1      41.970  25.609  26.070  1.00  0.00     0.338 C 
ATOM     10  O   UNL A   1      41.635  25.937  24.933  1.00  0.00    -0.246 OA
BRANCH   9  11
ATOM     11  C   UNL A   1      41.661  26.560  27.184  1.00  0.00     0.060 A 
ATOM     12  C   UNL A   1      42.161  27.859  27.317  1.00  0.00     0.016 A 
ATOM     13  C   UNL A   1      40.726  26.116  28.136  1.00  0.00     0.016 A 
ATOM     14  C   UNL A   1      41.819  28.660  28.409  1.00  0.00     0.010 A 
ATOM     15  C   UNL A   1      40.346  26.928  29.208  1.00  0.00     0.010 A 
ATOM     16  C   UNL A   1      40.918  28.195  29.365  1.00  0.00    -0.014 A 
BRANCH  16  17
ATOM     17  C   UNL A   1      40.659  28.988  30.585  1.00  0.00     0.031 A 
ATOM     18  C   UNL A   1      39.546  29.993  30.559  1.00  0.00     0.074 A 
ATOM     19  C   UNL A   1      41.384  28.786  31.699  1.00  0.00     0.049 A 
ATOM     20  N   UNL A   1      39.224  30.900  31.442  1.00  0.00    -0.248 NA
ATOM     21  C   UNL A   1      38.674  29.971  29.371  1.00  0.00     0.031 C 
ATOM     22  C   UNL A   1      42.435  27.780  31.855  1.00  0.00     0.029 A 
ATOM     23  N   UNL A   1      41.350  29.424  32.913  1.00  0.00    -0.354 N 
ATOM     24  C   UNL A   1      38.142  31.583  30.900  1.00  0.00     0.074 A 
ATOM     25  C   UNL A   1      37.854  30.981  29.617  1.00  0.00     0.031 C 
ATOM     26  C   UNL A   1      42.947  27.870  33.094  1.00  0.00     0.029 A 
ATOM     27  C   UNL A   1      42.305  28.978  33.794  1.00  0.00     0.049 A 
ATOM     28  H   UNL A   1      40.702  30.133  33.132  1.00  0.00     0.167 HD
ATOM     29  C   UNL A   1      37.462  32.626  31.426  1.00  0.00     0.037 A 
ATOM     30  C   UNL A   1      42.649  29.453  35.008  1.00  0.00     0.037 A 
ATOM     31  C   UNL A   1      37.755  33.200  32.710  1.00  0.00     0.049 A 
ATOM     32  C   UNL A   1      41.920  30.658  35.542  1.00  0.00     0.074 A 
ATOM     33  C   UNL A   1      37.143  34.266  33.342  1.00  0.00     0.029 A 
ATOM     34  N   UNL A   1      38.752  32.744  33.560  1.00  0.00    -0.354 N 
ATOM     35  N   UNL A   1      40.921  31.321  35.010  1.00  0.00    -0.248 NA
ATOM     36  C   UNL A   1      42.384  31.198  36.828  1.00  0.00     0.031 C 
ATOM     37  C   UNL A   1      37.795  34.478  34.561  1.00  0.00     0.029 A 
ATOM     38  C   UNL A   1      38.791  33.522  34.701  1.00  0.00     0.049 A 
ATOM     39  H   UNL A   1      39.345  31.979  33.376  1.00  0.00     0.167 HD
ATOM     40  C   UNL A   1      40.637  32.356  35.893  1.00  0.00     0.074 A 
ATOM     41  C   UNL A   1      41.550  32.213  37.009  1.00  0.00     0.031 C 
ATOM     42  C   UNL A   1      39.717  33.345  35.790  1.00  0.00     0.037 A 
BRANCH  29  43
ATOM     43  C   UNL A   1      36.386  33.239  30.585  1.00  0.00     0.057 A 
ATOM     44  C   UNL A   1      36.674  34.022  29.461  1.00  0.00     0.134 A 
ATOM     45  C   UNL A   1      35.038  33.045  30.912  1.00  0.00     0.134 A 
ATOM     46  F   UNL A   1      37.946  34.267  29.110  1.00  0.00    -0.206 F 
ATOM     47  C   UNL A   1      35.658  34.603  28.699  1.00  0.00     0.040 A 
ATOM     48  C   UNL A   1      34.014  33.606  30.150  1.00  0.00     0.040 A 
ATOM     49  F   UNL A   1      34.697  32.312  31.983  1.00  0.00    -0.206 F 
ATOM     50  C   UNL A   1      34.323  34.392  29.041  1.00  0.00     0.006 A 
ENDBRANCH  29  43
BRANCH  30  51
ATOM     51  C   UNL A   1      43.774  28.845  35.767  1.00  0.00     0.057 A 
ATOM     52  C   UNL A   1      45.079  29.337  35.658  1.00  0.00     0.134 A 
ATOM     53  C   UNL A   1      43.577  27.731  36.594  1.00  0.00     0.134 A 
ATOM     54  F   UNL A   1      45.340  30.385  34.862  1.00  0.00    -0.206 F 
ATOM     55  C   UNL A   1      46.148  28.736  36.326  1.00  0.00     0.040 A 
ATOM     56  C   UNL A   1      44.631  27.136  37.288  1.00  0.00     0.040 A 
ATOM     57  F   UNL A   1      42.352  27.205  36.742  1.00  0.00    -0.206 F 
ATOM     58  C   UNL A   1      45.924  27.634  37.149  1.00  0.00     0.006 A 
ENDBRANCH  30  51
BRANCH  42  59
ATOM     59  C   UNL A   1      39.660  34.338  36.908  1.00  0.00     0.057 A 
ATOM     60  C   UNL A   1      40.307  35.577  36.814  1.00  0.00     0.134 A 
ATOM     61  C   UNL A   1      38.908  34.079  38.060  1.00  0.00     0.134 A 
ATOM     62  F   UNL A   1      41.051  35.875  35.740  1.00  0.00    -0.206 F 
ATOM     63  C   UNL A   1      40.216  36.521  37.837  1.00  0.00     0.040 A 
ATOM     64  C   UNL A   1      38.794  35.023  39.079  1.00  0.00     0.040 A 
ATOM     65  F   UNL A   1      38.260  32.912  38.202  1.00  0.00    -0.206 F 
ATOM     66  C   UNL A   1      39.452  36.247  38.970  1.00  0.00     0.006 A 
ENDBRANCH  42  59
ENDBRANCH  16  17
ENDBRANCH   9  11
ENDBRANCH   8   9
ENDBRANCH   7   8
ENDBRANCH   6   7
ENDBRANCH   5   6
ENDBRANCH   4   5
ENDBRANCH   3   4
ENDBRANCH   2   3
ENDBRANCH   1   2
BRANCH   1  67
ATOM     67  C   UNL A   1      39.120  23.171  26.515  1.00  0.00     0.188 C 
BRANCH  67  68
ATOM     68  O   UNL A   1      37.928  22.999  25.748  1.00  0.00    -0.376 OA
BRANCH  68  69
ATOM     69  C   UNL A   1      37.613  21.643  25.436  1.00  0.00     0.202 C 
BRANCH  69  70
ATOM     70  C   UNL A   1      36.113  21.423  25.281  1.00  0.00     0.261 C 
BRANCH  70  71
ATOM     71  O   UNL A   1      35.373  22.453  25.958  1.00  0.00    -0.460 OA
BRANCH  71  72
ATOM     72  C   UNL A   1      34.362  22.129  26.797  1.00  0.00     0.342 C 
ATOM     73  O   UNL A   1      34.427  21.405  27.765  1.00  0.00    -0.246 OA
BRANCH  72  74
ATOM     74  C   UNL A   1      33.142  22.691  26.169  1.00  0.00     0.103 A 
ATOM     75  C   UNL A   1      33.132  24.105  26.164  1.00  0.00     0.035 A 
ATOM     76  C   UNL A   1      32.070  21.991  25.593  1.00  0.00     0.134 A 
ATOM     77  C   UNL A   1      32.067  24.813  25.620  1.00  0.00     0.019 A 
ATOM     78  C   UNL A   1      31.000  22.735  25.060  1.00  0.00     0.048 A 
ATOM     79  Br  UNL A   1      32.104  26.700  25.602  1.00  0.00    -0.051 Br
ATOM     80  C   UNL A   1      30.989  24.131  25.077  1.00  0.00     0.019 A 
BRANCH  76  81
ATOM     81  O   UNL A   1      31.921  20.663  25.321  1.00  0.00    -0.488 OA
BRANCH  81  82
ATOM     82  C   UNL A   1      32.651  20.038  24.266  1.00  0.00     0.265 C 
BRANCH  82  83
ATOM     83  C   UNL A   1      33.167  18.693  24.703  1.00  0.00    -0.010 A 
ATOM     84  C   UNL A   1      34.414  18.224  24.269  1.00  0.00     0.011 A 
ATOM     85  C   UNL A   1      32.375  17.865  25.515  1.00  0.00     0.011 A 
ATOM     86  C   UNL A   1      34.777  16.893  24.491  1.00  0.00     0.046 A 
ATOM     87  C   UNL A   1      32.744  16.545  25.754  1.00  0.00     0.046 A 
ATOM     88  C   UNL A   1      33.915  16.058  25.194  1.00  0.00     0.115 A 
BRANCH  88  89
ATOM     89  O   UNL A   1      34.179  14.726  25.317  1.00  0.00    -0.508 OA
ATOM     90  H   UNL A   1      35.047  14.405  25.173  1.00  0.00     0.293 HD
ENDBRANCH  88  89
ENDBRANCH  82  83
ENDBRANCH  81  82
ENDBRANCH  76  81
ENDBRANCH  72  74
ENDBRANCH  71  72
ENDBRANCH  70  71
ENDBRANCH  69  70
ENDBRANCH  68  69
ENDBRANCH  67  68
ENDBRANCH   1  67
TORSDOF 24
ENDMDL
MODEL 3
REMARK VINA RESULT:      -9.9      4.549      7.485
REMARK SMILES O=C(OCCOCCOCCOCCOC(=O)c1cc(Br)ccc1OCc1ccc(O)cc1)c1ccc(-c2c3nc(c(-c4c(F)cccc4F)c4ccc([nH]4)c(-c4c(F)cccc4F)c4nc(c(-c5c(F)cccc5F)c5ccc2[nH]5)C=C4)C=C3)cc1
REMARK SMILES IDX 10 1 9 2 8 3 7 4 6 5 5 6 4 7 3 8 2 9 1 10 34 11 35 12 87 13
REMARK SMILES IDX 36 14 86 15 37 16 38 17 39 18 80 19 40 20 85 21 79 22 81 23
REMARK SMILES IDX 41 24 84 25 78 26 77 27 42 29 68 30 51 31 67 32 52 33 55 34
REMARK SMILES IDX 66 35 82 36 53 37 54 38 65 40 83 41 56 42 43 43 44 44 49 45
REMARK SMILES IDX 45 46 46 47 48 48 50 49 47 50 69 51 70 52 75 53 71 54 72 55
REMARK SMILES IDX 74 56 76 57 73 58 57 59 58 60 63 61 59 62 60 63 62 64 64 65
REMARK SMILES IDX 61 66 11 67 12 68 13 69 14 70 15 71 16 72 17 73 18 74 19 75
REMARK SMILES IDX 24 76 20 77 23 78 21 79 22 80 25 81 26 82 27 83 28 84 33 85
REMARK SMILES IDX 29 86 32 87 30 88 31 89
REMARK H PARENT 81 28 55 39 31 90
REMARK Flexibility Score: inf
ROOT
ATOM      1  C   UNL A   1      40.810  20.372  27.128  1.00  0.00     0.188 C 
ENDROOT
BRANCH   1   2
ATOM      2  O   UNL A   1      42.157  20.278  26.677  1.00  0.00    -0.377 OA
BRANCH   2   3
ATOM      3  C   UNL A   1      42.445  19.204  25.783  1.00  0.00     0.188 C 
BRANCH   3   4
ATOM      4  C   UNL A   1      43.863  19.265  25.216  1.00  0.00     0.188 C 
BRANCH   4   5
ATOM      5  O   UNL A   1      44.549  20.398  25.767  1.00  0.00    -0.376 OA
BRANCH   5   6
ATOM      6  C   UNL A   1      45.314  21.141  24.823  1.00  0.00     0.202 C 
BRANCH   6   7
ATOM      7  C   UNL A   1      45.704  22.531  25.328  1.00  0.00     0.261 C 
BRANCH   7   8
ATOM      8  O   UNL A   1      44.800  23.539  24.853  1.00  0.00    -0.460 OA
BRANCH   8   9
ATOM      9  C   UNL A   1      43.509  23.735  25.221  1.00  0.00     0.338 C 
ATOM     10  O   UNL A   1      42.659  22.939  24.824  1.00  0.00    -0.246 OA
BRANCH   9  11
ATOM     11  C   UNL A   1      43.063  24.813  26.160  1.00  0.00     0.060 A 
ATOM     12  C   UNL A   1      43.328  26.179  26.026  1.00  0.00     0.016 A 
ATOM     13  C   UNL A   1      42.246  24.404  27.228  1.00  0.00     0.016 A 
ATOM     14  C   UNL A   1      42.876  27.102  26.971  1.00  0.00     0.010 A 
ATOM     15  C   UNL A   1      41.754  25.328  28.155  1.00  0.00     0.010 A 
ATOM     16  C   UNL A   1      42.096  26.680  28.046  1.00  0.00    -0.014 A 
BRANCH  16  17
ATOM     17  C   UNL A   1      41.731  27.634  29.115  1.00  0.00     0.031 A 
ATOM     18  C   UNL A   1      42.561  27.654  30.364  1.00  0.00     0.074 A 
ATOM     19  C   UNL A   1      40.700  28.482  28.954  1.00  0.00     0.049 A 
ATOM     20  N   UNL A   1      42.355  28.287  31.488  1.00  0.00    -0.248 NA
ATOM     21  C   UNL A   1      43.795  26.849  30.342  1.00  0.00     0.031 C 
ATOM     22  C   UNL A   1      39.880  28.598  27.748  1.00  0.00     0.029 A 
ATOM     23  N   UNL A   1      40.164  29.406  29.813  1.00  0.00    -0.354 N 
ATOM     24  C   UNL A   1      43.408  27.925  32.319  1.00  0.00     0.074 A 
ATOM     25  C   UNL A   1      44.257  27.026  31.570  1.00  0.00     0.031 C 
ATOM     26  C   UNL A   1      38.942  29.539  27.946  1.00  0.00     0.029 A 
ATOM     27  C   UNL A   1      39.056  30.045  29.310  1.00  0.00     0.049 A 
ATOM     28  H   UNL A   1      40.537  29.594  30.705  1.00  0.00     0.167 HD
ATOM     29  C   UNL A   1      43.634  28.304  33.598  1.00  0.00     0.037 A 
ATOM     30  C   UNL A   1      38.206  30.901  29.910  1.00  0.00     0.037 A 
ATOM     31  C   UNL A   1      42.785  29.211  34.320  1.00  0.00     0.049 A 
ATOM     32  C   UNL A   1      38.442  31.255  31.355  1.00  0.00     0.074 A 
ATOM     33  C   UNL A   1      42.906  29.658  35.622  1.00  0.00     0.029 A 
ATOM     34  N   UNL A   1      41.653  29.811  33.789  1.00  0.00    -0.354 N 
ATOM     35  N   UNL A   1      39.420  30.883  32.147  1.00  0.00    -0.248 NA
ATOM     36  C   UNL A   1      37.444  32.121  31.998  1.00  0.00     0.031 C 
ATOM     37  C   UNL A   1      41.824  30.503  35.891  1.00  0.00     0.029 A 
ATOM     38  C   UNL A   1      41.050  30.606  34.744  1.00  0.00     0.049 A 
ATOM     39  H   UNL A   1      41.328  29.689  32.867  1.00  0.00     0.167 HD
ATOM     40  C   UNL A   1      39.155  31.467  33.380  1.00  0.00     0.074 A 
ATOM     41  C   UNL A   1      37.942  32.243  33.221  1.00  0.00     0.031 C 
ATOM     42  C   UNL A   1      39.841  31.364  34.544  1.00  0.00     0.037 A 
BRANCH  29  43
ATOM     43  C   UNL A   1      44.804  27.690  34.299  1.00  0.00     0.057 A 
ATOM     44  C   UNL A   1      46.068  28.295  34.309  1.00  0.00     0.134 A 
ATOM     45  C   UNL A   1      44.665  26.470  34.972  1.00  0.00     0.134 A 
ATOM     46  F   UNL A   1      46.273  29.451  33.661  1.00  0.00    -0.206 F 
ATOM     47  C   UNL A   1      47.154  27.698  34.952  1.00  0.00     0.040 A 
ATOM     48  C   UNL A   1      45.738  25.872  35.632  1.00  0.00     0.040 A 
ATOM     49  F   UNL A   1      43.482  25.836  34.992  1.00  0.00    -0.206 F 
ATOM     50  C   UNL A   1      46.990  26.485  35.620  1.00  0.00     0.006 A 
ENDBRANCH  29  43
BRANCH  30  51
ATOM     51  C   UNL A   1      37.020  31.426  29.182  1.00  0.00     0.057 A 
ATOM     52  C   UNL A   1      35.899  30.624  28.939  1.00  0.00     0.134 A 
ATOM     53  C   UNL A   1      36.994  32.733  28.678  1.00  0.00     0.134 A 
ATOM     54  F   UNL A   1      35.872  29.354  29.372  1.00  0.00    -0.206 F 
ATOM     55  C   UNL A   1      34.806  31.094  28.208  1.00  0.00     0.040 A 
ATOM     56  C   UNL A   1      35.897  33.224  27.969  1.00  0.00     0.040 A 
ATOM     57  F   UNL A   1      38.036  33.554  28.872  1.00  0.00    -0.206 F 
ATOM     58  C   UNL A   1      34.800  32.400  27.725  1.00  0.00     0.006 A 
ENDBRANCH  30  51
BRANCH  42  59
ATOM     59  C   UNL A   1      39.292  32.105  35.723  1.00  0.00     0.057 A 
ATOM     60  C   UNL A   1      39.639  33.439  35.970  1.00  0.00     0.134 A 
ATOM     61  C   UNL A   1      38.368  31.499  36.582  1.00  0.00     0.134 A 
ATOM     62  F   UNL A   1      40.529  34.066  35.187  1.00  0.00    -0.206 F 
ATOM     63  C   UNL A   1      39.092  34.144  37.042  1.00  0.00     0.040 A 
ATOM     64  C   UNL A   1      37.799  32.200  37.645  1.00  0.00     0.040 A 
ATOM     65  F   UNL A   1      37.992  30.226  36.390  1.00  0.00    -0.206 F 
ATOM     66  C   UNL A   1      38.163  33.526  37.878  1.00  0.00     0.006 A 
ENDBRANCH  42  59
ENDBRANCH  16  17
ENDBRANCH   9  11
ENDBRANCH   8   9
ENDBRANCH   7   8
ENDBRANCH   6   7
ENDBRANCH   5   6
ENDBRANCH   4   5
ENDBRANCH   3   4
ENDBRANCH   2   3
ENDBRANCH   1   2
BRANCH   1  67
ATOM     67  C   UNL A   1      40.092  21.716  26.894  1.00  0.00     0.188 C 
BRANCH  67  68
ATOM     68  O   UNL A   1      39.505  21.847  25.600  1.00  0.00    -0.376 OA
BRANCH  68  69
ATOM     69  C   UNL A   1      38.160  21.379  25.508  1.00  0.00     0.202 C 
BRANCH  69  70
ATOM     70  C   UNL A   1      37.146  22.492  25.748  1.00  0.00     0.261 C 
BRANCH  70  71
ATOM     71  O   UNL A   1      35.902  22.199  25.090  1.00  0.00    -0.460 OA
BRANCH  71  72
ATOM     72  C   UNL A   1      34.790  21.939  25.815  1.00  0.00     0.342 C 
ATOM     73  O   UNL A   1      34.614  22.185  26.988  1.00  0.00    -0.246 OA
BRANCH  72  74
ATOM     74  C   UNL A   1      33.927  21.129  24.922  1.00  0.00     0.103 A 
ATOM     75  C   UNL A   1      34.288  19.761  24.907  1.00  0.00     0.035 A 
ATOM     76  C   UNL A   1      32.837  21.563  24.151  1.00  0.00     0.134 A 
ATOM     77  C   UNL A   1      33.595  18.846  24.124  1.00  0.00     0.019 A 
ATOM     78  C   UNL A   1      32.161  20.615  23.360  1.00  0.00     0.048 A 
ATOM     79  Br  UNL A   1      34.085  17.023  24.156  1.00  0.00    -0.051 Br
ATOM     80  C   UNL A   1      32.537  19.270  23.336  1.00  0.00     0.019 A 
BRANCH  76  81
ATOM     81  O   UNL A   1      32.193  22.765  24.125  1.00  0.00    -0.488 OA
BRANCH  81  82
ATOM     82  C   UNL A   1      31.485  23.251  25.264  1.00  0.00     0.265 C 
BRANCH  82  83
ATOM     83  C   UNL A   1      31.859  24.682  25.549  1.00  0.00    -0.010 A 
ATOM     84  C   UNL A   1      33.193  25.104  25.485  1.00  0.00     0.011 A 
ATOM     85  C   UNL A   1      30.872  25.603  25.936  1.00  0.00     0.011 A 
ATOM     86  C   UNL A   1      33.552  26.364  25.971  1.00  0.00     0.046 A 
ATOM     87  C   UNL A   1      31.226  26.866  26.402  1.00  0.00     0.046 A 
ATOM     88  C   UNL A   1      32.566  27.212  26.465  1.00  0.00     0.115 A 
BRANCH  88  89
ATOM     89  O   UNL A   1      32.895  28.392  27.062  1.00  0.00    -0.508 OA
ATOM     90  H   UNL A   1      32.222  28.978  27.346  1.00  0.00     0.293 HD
ENDBRANCH  88  89
ENDBRANCH  82  83
ENDBRANCH  81  82
ENDBRANCH  76  81
ENDBRANCH  72  74
ENDBRANCH  71  72
ENDBRANCH  70  71
ENDBRANCH  69  70
ENDBRANCH  68  69
ENDBRANCH  67  68
ENDBRANCH   1  67
TORSDOF 24
ENDMDL
