MODEL 1
REMARK VINA RESULT:     -10.2      0.000      0.000
REMARK SMILES O=C(OCCOCCOCCOCCOC(=O)[C@@H](Cc1ccccc1)NC(=O)c1ccccc1[N+](=O)[O-])c1ccc(-c2c3nc(c(-c4c(F)cccc4F)c4ccc([nH]4)c(-c4c(F)cccc4F)c4nc(c(-c5c(F)cccc5F)c5ccc2[nH]5)C=C4)C=C3)cc1
REMARK SMILES IDX 10 1 9 2 8 3 7 4 6 5 5 6 4 7 3 8 2 9 1 10 38 11 39 12 91 13
REMARK SMILES IDX 40 14 90 15 41 16 42 17 43 18 84 19 44 20 89 21 83 22 85 23
REMARK SMILES IDX 45 24 88 25 82 26 81 27 46 29 72 30 55 31 71 32 56 33 59 34
REMARK SMILES IDX 70 35 86 36 57 37 58 38 69 40 87 41 60 42 47 43 48 44 53 45
REMARK SMILES IDX 49 46 50 47 52 48 54 49 51 50 73 51 74 52 79 53 75 54 76 55
REMARK SMILES IDX 78 56 80 57 77 58 61 59 62 60 67 61 63 62 64 63 66 64 68 65
REMARK SMILES IDX 65 66 11 67 12 68 13 69 14 70 15 71 16 72 17 73 18 74 19 75
REMARK SMILES IDX 20 76 21 77 25 78 22 79 24 80 23 81 26 82 27 83 28 85 29 86
REMARK SMILES IDX 30 87 34 88 31 89 33 90 32 91 35 92 36 93 37 94
REMARK H PARENT 85 28 59 39 26 84
REMARK Flexibility Score: inf
ROOT
ATOM      1  C   UNL A   1      39.837  21.980  26.649  1.00  0.00     0.188 C 
ENDROOT
BRANCH   1   2
ATOM      2  O   UNL A   1      40.393  21.078  27.595  1.00  0.00    -0.377 OA
BRANCH   2   3
ATOM      3  C   UNL A   1      41.665  20.482  27.367  1.00  0.00     0.188 C 
BRANCH   3   4
ATOM      4  C   UNL A   1      42.375  20.993  26.128  1.00  0.00     0.188 C 
BRANCH   4   5
ATOM      5  O   UNL A   1      43.468  21.762  26.580  1.00  0.00    -0.376 OA
BRANCH   5   6
ATOM      6  C   UNL A   1      44.454  22.207  25.678  1.00  0.00     0.202 C 
BRANCH   6   7
ATOM      7  C   UNL A   1      43.963  22.958  24.452  1.00  0.00     0.261 C 
BRANCH   7   8
ATOM      8  O   UNL A   1      43.626  24.351  24.630  1.00  0.00    -0.460 OA
BRANCH   8   9
ATOM      9  C   UNL A   1      44.222  25.362  25.293  1.00  0.00     0.338 C 
ATOM     10  O   UNL A   1      45.307  25.789  24.878  1.00  0.00    -0.246 OA
BRANCH   9  11
ATOM     11  C   UNL A   1      43.662  26.005  26.504  1.00  0.00     0.060 A 
ATOM     12  C   UNL A   1      43.864  27.340  26.824  1.00  0.00     0.016 A 
ATOM     13  C   UNL A   1      42.731  25.296  27.272  1.00  0.00     0.016 A 
ATOM     14  C   UNL A   1      43.331  27.932  27.945  1.00  0.00     0.010 A 
ATOM     15  C   UNL A   1      42.080  25.915  28.345  1.00  0.00     0.010 A 
ATOM     16  C   UNL A   1      42.405  27.233  28.693  1.00  0.00    -0.014 A 
BRANCH  16  17
ATOM     17  C   UNL A   1      41.886  27.907  29.887  1.00  0.00     0.031 A 
ATOM     18  C   UNL A   1      40.617  28.674  29.737  1.00  0.00     0.074 A 
ATOM     19  C   UNL A   1      42.461  27.684  31.084  1.00  0.00     0.049 A 
ATOM     20  N   UNL A   1      40.030  29.467  30.585  1.00  0.00    -0.248 NA
ATOM     21  C   UNL A   1      39.899  28.514  28.457  1.00  0.00     0.031 C 
ATOM     22  C   UNL A   1      43.592  26.778  31.331  1.00  0.00     0.029 A 
ATOM     23  N   UNL A   1      42.160  28.177  32.323  1.00  0.00    -0.354 N 
ATOM     24  C   UNL A   1      38.916  29.955  29.918  1.00  0.00     0.074 A 
ATOM     25  C   UNL A   1      38.882  29.347  28.610  1.00  0.00     0.031 C 
ATOM     26  C   UNL A   1      43.885  26.784  32.641  1.00  0.00     0.029 A 
ATOM     27  C   UNL A   1      43.039  27.769  33.299  1.00  0.00     0.049 A 
ATOM     28  H   UNL A   1      41.390  28.765  32.499  1.00  0.00     0.167 HD
ATOM     29  C   UNL A   1      38.027  30.862  30.374  1.00  0.00     0.037 A 
ATOM     30  C   UNL A   1      43.182  28.217  34.558  1.00  0.00     0.037 A 
ATOM     31  C   UNL A   1      38.103  31.419  31.695  1.00  0.00     0.049 A 
ATOM     32  C   UNL A   1      42.253  29.317  34.999  1.00  0.00     0.074 A 
ATOM     33  C   UNL A   1      37.302  32.379  32.277  1.00  0.00     0.029 A 
ATOM     34  N   UNL A   1      39.055  31.050  32.638  1.00  0.00    -0.354 N 
ATOM     35  N   UNL A   1      41.241  29.850  34.351  1.00  0.00    -0.248 NA
ATOM     36  C   UNL A   1      42.500  29.905  36.319  1.00  0.00     0.031 C 
ATOM     37  C   UNL A   1      37.807  32.634  33.556  1.00  0.00     0.029 A 
ATOM     38  C   UNL A   1      38.889  31.793  33.789  1.00  0.00     0.049 A 
ATOM     39  H   UNL A   1      39.745  30.361  32.505  1.00  0.00     0.167 HD
ATOM     40  C   UNL A   1      40.728  30.831  35.184  1.00  0.00     0.074 A 
ATOM     41  C   UNL A   1      41.521  30.795  36.399  1.00  0.00     0.031 C 
ATOM     42  C   UNL A   1      39.707  31.698  34.971  1.00  0.00     0.037 A 
BRANCH  29  43
ATOM     43  C   UNL A   1      37.002  31.366  29.408  1.00  0.00     0.057 A 
ATOM     44  C   UNL A   1      37.074  32.633  28.820  1.00  0.00     0.134 A 
ATOM     45  C   UNL A   1      35.902  30.562  29.084  1.00  0.00     0.134 A 
ATOM     46  F   UNL A   1      38.079  33.469  29.122  1.00  0.00    -0.206 F 
ATOM     47  C   UNL A   1      36.081  33.088  27.947  1.00  0.00     0.040 A 
ATOM     48  C   UNL A   1      34.915  30.995  28.198  1.00  0.00     0.040 A 
ATOM     49  F   UNL A   1      35.763  29.345  29.631  1.00  0.00    -0.206 F 
ATOM     50  C   UNL A   1      35.002  32.263  27.629  1.00  0.00     0.006 A 
ENDBRANCH  29  43
BRANCH  30  51
ATOM     51  C   UNL A   1      44.297  27.745  35.424  1.00  0.00     0.057 A 
ATOM     52  C   UNL A   1      44.085  26.825  36.456  1.00  0.00     0.134 A 
ATOM     53  C   UNL A   1      45.598  28.248  35.277  1.00  0.00     0.134 A 
ATOM     54  F   UNL A   1      42.863  26.314  36.666  1.00  0.00    -0.206 F 
ATOM     55  C   UNL A   1      45.113  26.448  37.328  1.00  0.00     0.040 A 
ATOM     56  C   UNL A   1      46.642  27.855  36.118  1.00  0.00     0.040 A 
ATOM     57  F   UNL A   1      45.880  29.134  34.310  1.00  0.00    -0.206 F 
ATOM     58  C   UNL A   1      46.396  26.964  37.157  1.00  0.00     0.006 A 
ENDBRANCH  30  51
BRANCH  42  59
ATOM     59  C   UNL A   1      39.396  32.649  36.082  1.00  0.00     0.057 A 
ATOM     60  C   UNL A   1      40.006  33.904  36.163  1.00  0.00     0.134 A 
ATOM     61  C   UNL A   1      38.419  32.329  37.034  1.00  0.00     0.134 A 
ATOM     62  F   UNL A   1      40.960  34.255  35.287  1.00  0.00    -0.206 F 
ATOM     63  C   UNL A   1      39.664  34.811  37.165  1.00  0.00     0.040 A 
ATOM     64  C   UNL A   1      38.046  33.239  38.020  1.00  0.00     0.040 A 
ATOM     65  F   UNL A   1      37.794  31.143  36.997  1.00  0.00    -0.206 F 
ATOM     66  C   UNL A   1      38.673  34.483  38.088  1.00  0.00     0.006 A 
ENDBRANCH  42  59
ENDBRANCH  16  17
ENDBRANCH   9  11
ENDBRANCH   8   9
ENDBRANCH   7   8
ENDBRANCH   6   7
ENDBRANCH   5   6
ENDBRANCH   4   5
ENDBRANCH   3   4
ENDBRANCH   2   3
ENDBRANCH   1   2
BRANCH   1  67
ATOM     67  C   UNL A   1      38.816  21.463  25.626  1.00  0.00     0.188 C 
BRANCH  67  68
ATOM     68  O   UNL A   1      37.571  22.128  25.598  1.00  0.00    -0.376 OA
BRANCH  68  69
ATOM     69  C   UNL A   1      36.424  21.464  26.129  1.00  0.00     0.202 C 
BRANCH  69  70
ATOM     70  C   UNL A   1      34.987  22.001  25.952  1.00  0.00     0.261 C 
BRANCH  70  71
ATOM     71  O   UNL A   1      34.461  22.741  27.073  1.00  0.00    -0.462 OA
BRANCH  71  72
ATOM     72  C   UNL A   1      33.191  23.202  26.950  1.00  0.00     0.329 C 
ATOM     73  O   UNL A   1      32.309  22.939  27.769  1.00  0.00    -0.250 OA
BRANCH  72  74
ATOM     74  C   UNL A   1      32.930  24.236  25.821  1.00  0.00     0.197 C 
BRANCH  74  75
ATOM     75  C   UNL A   1      33.701  25.541  25.531  1.00  0.00     0.072 C 
BRANCH  75  76
ATOM     76  C   UNL A   1      33.177  26.943  25.698  1.00  0.00    -0.045 A 
ATOM     77  C   UNL A   1      33.657  27.908  24.785  1.00  0.00     0.004 A 
ATOM     78  C   UNL A   1      32.252  27.339  26.659  1.00  0.00     0.004 A 
ATOM     79  C   UNL A   1      33.197  29.222  24.808  1.00  0.00     0.000 A 
ATOM     80  C   UNL A   1      31.781  28.657  26.675  1.00  0.00     0.000 A 
ATOM     81  C   UNL A   1      32.249  29.594  25.753  1.00  0.00     0.000 A 
ENDBRANCH  75  76
ENDBRANCH  74  75
BRANCH  74  82
ATOM     82  N   UNL A   1      32.741  23.521  24.546  1.00  0.00    -0.338 N 
ATOM     83  C   UNL A   1      32.097  23.899  23.407  1.00  0.00     0.258 C 
ATOM     84  H   UNL A   1      33.147  22.624  24.513  1.00  0.00     0.164 HD
ATOM     85  O   UNL A   1      31.996  23.084  22.476  1.00  0.00    -0.269 OA
BRANCH  83  86
ATOM     86  C   UNL A   1      31.439  25.211  23.242  1.00  0.00     0.117 A 
ATOM     87  C   UNL A   1      30.299  25.430  24.030  1.00  0.00     0.021 A 
ATOM     88  C   UNL A   1      31.781  26.190  22.303  1.00  0.00     0.282 A 
ATOM     89  C   UNL A   1      29.539  26.596  23.891  1.00  0.00     0.001 A 
ATOM     90  C   UNL A   1      31.036  27.376  22.171  1.00  0.00     0.086 A 
ATOM     91  C   UNL A   1      29.907  27.570  22.964  1.00  0.00     0.007 A 
BRANCH  88  92
ATOM     92  N   UNL A   1      32.902  26.021  21.408  1.00  0.00     0.063 N 
ATOM     93  O   UNL A   1      32.644  25.574  20.279  1.00  0.00    -0.258 OA
ATOM     94  O   UNL A   1      34.025  26.320  21.821  1.00  0.00    -0.258 OA
ENDBRANCH  88  92
ENDBRANCH  83  86
ENDBRANCH  74  82
ENDBRANCH  72  74
ENDBRANCH  71  72
ENDBRANCH  70  71
ENDBRANCH  69  70
ENDBRANCH  68  69
ENDBRANCH  67  68
ENDBRANCH   1  67
TORSDOF 25
ENDMDL
MODEL 2
REMARK VINA RESULT:      -9.1      1.737      6.740
REMARK SMILES O=C(OCCOCCOCCOCCOC(=O)[C@@H](Cc1ccccc1)NC(=O)c1ccccc1[N+](=O)[O-])c1ccc(-c2c3nc(c(-c4c(F)cccc4F)c4ccc([nH]4)c(-c4c(F)cccc4F)c4nc(c(-c5c(F)cccc5F)c5ccc2[nH]5)C=C4)C=C3)cc1
REMARK SMILES IDX 10 1 9 2 8 3 7 4 6 5 5 6 4 7 3 8 2 9 1 10 38 11 39 12 91 13
REMARK SMILES IDX 40 14 90 15 41 16 42 17 43 18 84 19 44 20 89 21 83 22 85 23
REMARK SMILES IDX 45 24 88 25 82 26 81 27 46 29 72 30 55 31 71 32 56 33 59 34
REMARK SMILES IDX 70 35 86 36 57 37 58 38 69 40 87 41 60 42 47 43 48 44 53 45
REMARK SMILES IDX 49 46 50 47 52 48 54 49 51 50 73 51 74 52 79 53 75 54 76 55
REMARK SMILES IDX 78 56 80 57 77 58 61 59 62 60 67 61 63 62 64 63 66 64 68 65
REMARK SMILES IDX 65 66 11 67 12 68 13 69 14 70 15 71 16 72 17 73 18 74 19 75
REMARK SMILES IDX 20 76 21 77 25 78 22 79 24 80 23 81 26 82 27 83 28 85 29 86
REMARK SMILES IDX 30 87 34 88 31 89 33 90 32 91 35 92 36 93 37 94
REMARK H PARENT 85 28 59 39 26 84
REMARK Flexibility Score: inf
ROOT
ATOM      1  C   UNL A   1      40.537  21.837  27.537  1.00  0.00     0.188 C 
ENDROOT
BRANCH   1   2
ATOM      2  O   UNL A   1      41.920  21.841  27.214  1.00  0.00    -0.377 OA
BRANCH   2   3
ATOM      3  C   UNL A   1      42.386  21.231  26.016  1.00  0.00     0.188 C 
BRANCH   3   4
ATOM      4  C   UNL A   1      43.345  20.077  26.241  1.00  0.00     0.188 C 
BRANCH   4   5
ATOM      5  O   UNL A   1      44.398  20.243  25.316  1.00  0.00    -0.376 OA
BRANCH   5   6
ATOM      6  C   UNL A   1      44.578  21.469  24.645  1.00  0.00     0.202 C 
BRANCH   6   7
ATOM      7  C   UNL A   1      45.487  22.483  25.318  1.00  0.00     0.261 C 
BRANCH   7   8
ATOM      8  O   UNL A   1      44.854  23.470  26.163  1.00  0.00    -0.460 OA
BRANCH   8   9
ATOM      9  C   UNL A   1      43.940  24.431  25.925  1.00  0.00     0.338 C 
ATOM     10  O   UNL A   1      43.453  24.523  24.791  1.00  0.00    -0.246 OA
BRANCH   9  11
ATOM     11  C   UNL A   1      43.472  25.402  26.940  1.00  0.00     0.060 A 
ATOM     12  C   UNL A   1      42.727  25.046  28.054  1.00  0.00     0.016 A 
ATOM     13  C   UNL A   1      43.958  26.715  26.888  1.00  0.00     0.016 A 
ATOM     14  C   UNL A   1      42.307  25.952  28.998  1.00  0.00     0.010 A 
ATOM     15  C   UNL A   1      43.647  27.626  27.904  1.00  0.00     0.010 A 
ATOM     16  C   UNL A   1      42.795  27.243  28.949  1.00  0.00    -0.014 A 
BRANCH  16  17
ATOM     17  C   UNL A   1      42.299  28.170  29.970  1.00  0.00     0.031 A 
ATOM     18  C   UNL A   1      43.102  28.301  31.218  1.00  0.00     0.074 A 
ATOM     19  C   UNL A   1      41.256  28.975  29.691  1.00  0.00     0.049 A 
ATOM     20  N   UNL A   1      42.813  28.931  32.319  1.00  0.00    -0.248 NA
ATOM     21  C   UNL A   1      44.422  27.642  31.223  1.00  0.00     0.031 C 
ATOM     22  C   UNL A   1      40.547  29.037  28.405  1.00  0.00     0.029 A 
ATOM     23  N   UNL A   1      40.625  29.915  30.458  1.00  0.00    -0.354 N 
ATOM     24  C   UNL A   1      43.881  28.687  33.171  1.00  0.00     0.074 A 
ATOM     25  C   UNL A   1      44.842  27.883  32.454  1.00  0.00     0.031 C 
ATOM     26  C   UNL A   1      39.581  29.966  28.478  1.00  0.00     0.029 A 
ATOM     27  C   UNL A   1      39.535  30.480  29.838  1.00  0.00     0.049 A 
ATOM     28  H   UNL A   1      40.922  30.162  31.363  1.00  0.00     0.167 HD
ATOM     29  C   UNL A   1      44.008  29.086  34.452  1.00  0.00     0.037 A 
ATOM     30  C   UNL A   1      38.571  31.260  30.355  1.00  0.00     0.037 A 
ATOM     31  C   UNL A   1      43.025  29.903  35.106  1.00  0.00     0.049 A 
ATOM     32  C   UNL A   1      38.675  31.590  31.821  1.00  0.00     0.074 A 
ATOM     33  C   UNL A   1      42.996  30.345  36.412  1.00  0.00     0.029 A 
ATOM     34  N   UNL A   1      41.885  30.395  34.479  1.00  0.00    -0.354 N 
ATOM     35  N   UNL A   1      39.639  31.298  32.665  1.00  0.00    -0.248 NA
ATOM     36  C   UNL A   1      37.552  32.318  32.419  1.00  0.00     0.031 C 
ATOM     37  C   UNL A   1      41.807  31.059  36.591  1.00  0.00     0.029 A 
ATOM     38  C   UNL A   1      41.122  31.106  35.383  1.00  0.00     0.049 A 
ATOM     39  H   UNL A   1      41.657  30.257  33.532  1.00  0.00     0.167 HD
ATOM     40  C   UNL A   1      39.243  31.810  33.890  1.00  0.00     0.074 A 
ATOM     41  C   UNL A   1      37.965  32.460  33.670  1.00  0.00     0.031 C 
ATOM     42  C   UNL A   1      39.862  31.742  35.095  1.00  0.00     0.037 A 
BRANCH  29  43
ATOM     43  C   UNL A   1      45.172  28.555  35.227  1.00  0.00     0.057 A 
ATOM     44  C   UNL A   1      45.135  27.332  35.907  1.00  0.00     0.134 A 
ATOM     45  C   UNL A   1      46.351  29.307  35.310  1.00  0.00     0.134 A 
ATOM     46  F   UNL A   1      44.021  26.584  35.903  1.00  0.00    -0.206 F 
ATOM     47  C   UNL A   1      46.229  26.880  36.650  1.00  0.00     0.040 A 
ATOM     48  C   UNL A   1      47.457  28.857  36.030  1.00  0.00     0.040 A 
ATOM     49  F   UNL A   1      46.442  30.498  34.699  1.00  0.00    -0.206 F 
ATOM     50  C   UNL A   1      47.396  27.641  36.706  1.00  0.00     0.006 A 
ENDBRANCH  29  43
BRANCH  30  51
ATOM     51  C   UNL A   1      37.385  31.659  29.549  1.00  0.00     0.057 A 
ATOM     52  C   UNL A   1      37.361  32.854  28.821  1.00  0.00     0.134 A 
ATOM     53  C   UNL A   1      36.218  30.880  29.532  1.00  0.00     0.134 A 
ATOM     54  F   UNL A   1      38.435  33.657  28.805  1.00  0.00    -0.206 F 
ATOM     55  C   UNL A   1      36.216  33.274  28.136  1.00  0.00     0.040 A 
ATOM     56  C   UNL A   1      35.079  31.271  28.825  1.00  0.00     0.040 A 
ATOM     57  F   UNL A   1      36.164  29.722  30.207  1.00  0.00    -0.206 F 
ATOM     58  C   UNL A   1      35.072  32.480  28.136  1.00  0.00     0.006 A 
ENDBRANCH  30  51
BRANCH  42  59
ATOM     59  C   UNL A   1      39.165  32.403  36.241  1.00  0.00     0.057 A 
ATOM     60  C   UNL A   1      39.445  33.725  36.603  1.00  0.00     0.134 A 
ATOM     61  C   UNL A   1      38.153  31.731  36.937  1.00  0.00     0.134 A 
ATOM     62  F   UNL A   1      40.416  34.410  35.980  1.00  0.00    -0.206 F 
ATOM     63  C   UNL A   1      38.747  34.356  37.631  1.00  0.00     0.040 A 
ATOM     64  C   UNL A   1      37.427  32.361  37.945  1.00  0.00     0.040 A 
ATOM     65  F   UNL A   1      37.836  30.465  36.624  1.00  0.00    -0.206 F 
ATOM     66  C   UNL A   1      37.727  33.677  38.295  1.00  0.00     0.006 A 
ENDBRANCH  42  59
ENDBRANCH  16  17
ENDBRANCH   9  11
ENDBRANCH   8   9
ENDBRANCH   7   8
ENDBRANCH   6   7
ENDBRANCH   5   6
ENDBRANCH   4   5
ENDBRANCH   3   4
ENDBRANCH   2   3
ENDBRANCH   1   2
BRANCH   1  67
ATOM     67  C   UNL A   1      39.563  22.669  26.692  1.00  0.00     0.188 C 
BRANCH  67  68
ATOM     68  O   UNL A   1      38.753  21.951  25.786  1.00  0.00    -0.376 OA
BRANCH  68  69
ATOM     69  C   UNL A   1      37.486  22.495  25.416  1.00  0.00     0.202 C 
BRANCH  69  70
ATOM     70  C   UNL A   1      36.624  21.911  24.276  1.00  0.00     0.261 C 
BRANCH  70  71
ATOM     71  O   UNL A   1      35.209  21.835  24.549  1.00  0.00    -0.462 OA
BRANCH  71  72
ATOM     72  C   UNL A   1      34.486  22.958  24.311  1.00  0.00     0.329 C 
ATOM     73  O   UNL A   1      35.011  24.031  24.009  1.00  0.00    -0.250 OA
BRANCH  72  74
ATOM     74  C   UNL A   1      32.943  22.797  24.257  1.00  0.00     0.197 C 
BRANCH  74  75
ATOM     75  C   UNL A   1      32.129  21.653  23.615  1.00  0.00     0.072 C 
BRANCH  75  76
ATOM     76  C   UNL A   1      32.382  20.178  23.778  1.00  0.00    -0.045 A 
ATOM     77  C   UNL A   1      32.559  19.712  25.100  1.00  0.00     0.004 A 
ATOM     78  C   UNL A   1      32.431  19.257  22.736  1.00  0.00     0.004 A 
ATOM     79  C   UNL A   1      32.741  18.359  25.374  1.00  0.00     0.000 A 
ATOM     80  C   UNL A   1      32.602  17.895  23.013  1.00  0.00     0.000 A 
ATOM     81  C   UNL A   1      32.754  17.447  24.326  1.00  0.00     0.000 A 
ENDBRANCH  75  76
ENDBRANCH  74  75
BRANCH  74  82
ATOM     82  N   UNL A   1      32.382  23.066  25.593  1.00  0.00    -0.338 N 
ATOM     83  C   UNL A   1      32.067  24.243  26.200  1.00  0.00     0.258 C 
ATOM     84  H   UNL A   1      32.206  22.262  26.135  1.00  0.00     0.164 HD
ATOM     85  O   UNL A   1      31.679  24.227  27.379  1.00  0.00    -0.269 OA
BRANCH  83  86
ATOM     86  C   UNL A   1      32.234  25.562  25.553  1.00  0.00     0.117 A 
ATOM     87  C   UNL A   1      33.373  26.291  25.932  1.00  0.00     0.021 A 
ATOM     88  C   UNL A   1      31.316  26.183  24.701  1.00  0.00     0.282 A 
ATOM     89  C   UNL A   1      33.587  27.589  25.459  1.00  0.00     0.001 A 
ATOM     90  C   UNL A   1      31.533  27.480  24.202  1.00  0.00     0.086 A 
ATOM     91  C   UNL A   1      32.670  28.184  24.592  1.00  0.00     0.007 A 
BRANCH  88  92
ATOM     92  N   UNL A   1      30.087  25.530  24.309  1.00  0.00     0.063 N 
ATOM     93  O   UNL A   1      30.196  24.574  23.525  1.00  0.00    -0.258 OA
ATOM     94  O   UNL A   1      29.027  25.965  24.766  1.00  0.00    -0.258 OA
ENDBRANCH  88  92
ENDBRANCH  83  86
ENDBRANCH  74  82
ENDBRANCH  72  74
ENDBRANCH  71  72
ENDBRANCH  70  71
ENDBRANCH  69  70
ENDBRANCH  68  69
ENDBRANCH  67  68
ENDBRANCH   1  67
TORSDOF 25
ENDMDL
MODEL 3
REMARK VINA RESULT:      -8.9      5.510     11.131
REMARK SMILES O=C(OCCOCCOCCOCCOC(=O)[C@@H](Cc1ccccc1)NC(=O)c1ccccc1[N+](=O)[O-])c1ccc(-c2c3nc(c(-c4c(F)cccc4F)c4ccc([nH]4)c(-c4c(F)cccc4F)c4nc(c(-c5c(F)cccc5F)c5ccc2[nH]5)C=C4)C=C3)cc1
REMARK SMILES IDX 10 1 9 2 8 3 7 4 6 5 5 6 4 7 3 8 2 9 1 10 38 11 39 12 91 13
REMARK SMILES IDX 40 14 90 15 41 16 42 17 43 18 84 19 44 20 89 21 83 22 85 23
REMARK SMILES IDX 45 24 88 25 82 26 81 27 46 29 72 30 55 31 71 32 56 33 59 34
REMARK SMILES IDX 70 35 86 36 57 37 58 38 69 40 87 41 60 42 47 43 48 44 53 45
REMARK SMILES IDX 49 46 50 47 52 48 54 49 51 50 73 51 74 52 79 53 75 54 76 55
REMARK SMILES IDX 78 56 80 57 77 58 61 59 62 60 67 61 63 62 64 63 66 64 68 65
REMARK SMILES IDX 65 66 11 67 12 68 13 69 14 70 15 71 16 72 17 73 18 74 19 75
REMARK SMILES IDX 20 76 21 77 25 78 22 79 24 80 23 81 26 82 27 83 28 85 29 86
REMARK SMILES IDX 30 87 34 88 31 89 33 90 32 91 35 92 36 93 37 94
REMARK H PARENT 85 28 59 39 26 84
REMARK Flexibility Score: inf
ROOT
ATOM      1  C   UNL A   1      35.843  32.239  31.130  1.00  0.00     0.188 C 
ENDROOT
BRANCH   1   2
ATOM      2  O   UNL A   1      34.543  32.367  31.689  1.00  0.00    -0.377 OA
BRANCH   2   3
ATOM      3  C   UNL A   1      34.291  33.302  32.730  1.00  0.00     0.188 C 
BRANCH   3   4
ATOM      4  C   UNL A   1      34.990  34.635  32.549  1.00  0.00     0.188 C 
BRANCH   4   5
ATOM      5  O   UNL A   1      35.512  34.991  33.810  1.00  0.00    -0.376 OA
BRANCH   5   6
ATOM      6  C   UNL A   1      35.741  34.010  34.796  1.00  0.00     0.202 C 
BRANCH   6   7
ATOM      7  C   UNL A   1      37.188  33.623  35.043  1.00  0.00     0.261 C 
BRANCH   7   8
ATOM      8  O   UNL A   1      37.905  33.028  33.939  1.00  0.00    -0.460 OA
BRANCH   8   9
ATOM      9  C   UNL A   1      38.742  33.531  33.010  1.00  0.00     0.338 C 
ATOM     10  O   UNL A   1      38.468  34.620  32.489  1.00  0.00    -0.246 OA
BRANCH   9  11
ATOM     11  C   UNL A   1      39.983  32.861  32.560  1.00  0.00     0.060 A 
ATOM     12  C   UNL A   1      40.131  32.290  31.305  1.00  0.00     0.016 A 
ATOM     13  C   UNL A   1      41.131  32.966  33.355  1.00  0.00     0.016 A 
ATOM     14  C   UNL A   1      41.291  31.678  30.890  1.00  0.00     0.010 A 
ATOM     15  C   UNL A   1      42.355  32.462  32.902  1.00  0.00     0.010 A 
ATOM     16  C   UNL A   1      42.423  31.793  31.672  1.00  0.00    -0.014 A 
BRANCH  16  17
ATOM     17  C   UNL A   1      43.624  31.106  31.190  1.00  0.00     0.031 A 
ATOM     18  C   UNL A   1      44.575  31.900  30.361  1.00  0.00     0.074 A 
ATOM     19  C   UNL A   1      43.909  29.867  31.632  1.00  0.00     0.049 A 
ATOM     20  N   UNL A   1      45.622  31.501  29.700  1.00  0.00    -0.248 NA
ATOM     21  C   UNL A   1      44.320  33.351  30.276  1.00  0.00     0.031 C 
ATOM     22  C   UNL A   1      43.115  29.107  32.608  1.00  0.00     0.029 A 
ATOM     23  N   UNL A   1      44.955  29.036  31.343  1.00  0.00    -0.354 N 
ATOM     24  C   UNL A   1      46.109  32.634  29.065  1.00  0.00     0.074 A 
ATOM     25  C   UNL A   1      45.270  33.746  29.444  1.00  0.00     0.031 C 
ATOM     26  C   UNL A   1      43.707  27.923  32.833  1.00  0.00     0.029 A 
ATOM     27  C   UNL A   1      44.851  27.802  31.942  1.00  0.00     0.049 A 
ATOM     28  H   UNL A   1      45.708  29.295  30.764  1.00  0.00     0.167 HD
ATOM     29  C   UNL A   1      47.153  32.706  28.216  1.00  0.00     0.037 A 
ATOM     30  C   UNL A   1      45.562  26.683  31.718  1.00  0.00     0.037 A 
ATOM     31  C   UNL A   1      47.963  31.566  27.892  1.00  0.00     0.049 A 
ATOM     32  C   UNL A   1      46.643  26.762  30.674  1.00  0.00     0.074 A 
ATOM     33  C   UNL A   1      49.023  31.478  27.013  1.00  0.00     0.029 A 
ATOM     34  N   UNL A   1      47.785  30.305  28.449  1.00  0.00    -0.354 N 
ATOM     35  N   UNL A   1      47.065  27.810  30.002  1.00  0.00    -0.248 NA
ATOM     36  C   UNL A   1      47.322  25.510  30.325  1.00  0.00     0.031 C 
ATOM     37  C   UNL A   1      49.450  30.146  26.997  1.00  0.00     0.029 A 
ATOM     38  C   UNL A   1      48.691  29.418  27.905  1.00  0.00     0.049 A 
ATOM     39  H   UNL A   1      47.112  30.079  29.132  1.00  0.00     0.167 HD
ATOM     40  C   UNL A   1      48.060  27.346  29.156  1.00  0.00     0.074 A 
ATOM     41  C   UNL A   1      48.201  25.927  29.425  1.00  0.00     0.031 C 
ATOM     42  C   UNL A   1      48.787  28.017  28.228  1.00  0.00     0.037 A 
BRANCH  29  43
ATOM     43  C   UNL A   1      47.385  34.009  27.519  1.00  0.00     0.057 A 
ATOM     44  C   UNL A   1      48.292  34.967  27.984  1.00  0.00     0.134 A 
ATOM     45  C   UNL A   1      46.655  34.315  26.362  1.00  0.00     0.134 A 
ATOM     46  F   UNL A   1      48.990  34.753  29.110  1.00  0.00    -0.206 F 
ATOM     47  C   UNL A   1      48.461  36.189  27.328  1.00  0.00     0.040 A 
ATOM     48  C   UNL A   1      46.830  35.522  25.686  1.00  0.00     0.040 A 
ATOM     49  F   UNL A   1      45.754  33.449  25.877  1.00  0.00    -0.206 F 
ATOM     50  C   UNL A   1      47.734  36.465  26.170  1.00  0.00     0.006 A 
ENDBRANCH  29  43
BRANCH  30  51
ATOM     51  C   UNL A   1      45.200  25.395  32.370  1.00  0.00     0.057 A 
ATOM     52  C   UNL A   1      44.354  24.470  31.748  1.00  0.00     0.134 A 
ATOM     53  C   UNL A   1      45.647  25.081  33.662  1.00  0.00     0.134 A 
ATOM     54  F   UNL A   1      43.875  24.712  30.519  1.00  0.00    -0.206 F 
ATOM     55  C   UNL A   1      43.942  23.301  32.396  1.00  0.00     0.040 A 
ATOM     56  C   UNL A   1      45.270  23.901  34.308  1.00  0.00     0.040 A 
ATOM     57  F   UNL A   1      46.459  25.919  34.324  1.00  0.00    -0.206 F 
ATOM     58  C   UNL A   1      44.402  23.014  33.680  1.00  0.00     0.006 A 
ENDBRANCH  30  51
BRANCH  42  59
ATOM     59  C   UNL A   1      49.797  27.219  27.466  1.00  0.00     0.057 A 
ATOM     60  C   UNL A   1      49.478  26.605  26.251  1.00  0.00     0.134 A 
ATOM     61  C   UNL A   1      51.118  27.133  27.921  1.00  0.00     0.134 A 
ATOM     62  F   UNL A   1      48.223  26.643  25.778  1.00  0.00    -0.206 F 
ATOM     63  C   UNL A   1      50.441  25.918  25.514  1.00  0.00     0.040 A 
ATOM     64  C   UNL A   1      52.096  26.476  27.178  1.00  0.00     0.040 A 
ATOM     65  F   UNL A   1      51.482  27.713  29.075  1.00  0.00    -0.206 F 
ATOM     66  C   UNL A   1      51.756  25.863  25.972  1.00  0.00     0.006 A 
ENDBRANCH  42  59
ENDBRANCH  16  17
ENDBRANCH   9  11
ENDBRANCH   8   9
ENDBRANCH   7   8
ENDBRANCH   6   7
ENDBRANCH   5   6
ENDBRANCH   4   5
ENDBRANCH   3   4
ENDBRANCH   2   3
ENDBRANCH   1   2
BRANCH   1  67
ATOM     67  C   UNL A   1      35.995  32.017  29.619  1.00  0.00     0.188 C 
BRANCH  67  68
ATOM     68  O   UNL A   1      37.289  31.680  29.165  1.00  0.00    -0.376 OA
BRANCH  68  69
ATOM     69  C   UNL A   1      37.665  30.303  29.121  1.00  0.00     0.202 C 
BRANCH  69  70
ATOM     70  C   UNL A   1      38.495  29.698  27.968  1.00  0.00     0.261 C 
BRANCH  70  71
ATOM     71  O   UNL A   1      39.776  29.153  28.349  1.00  0.00    -0.462 OA
BRANCH  71  72
ATOM     72  C   UNL A   1      39.804  27.833  28.657  1.00  0.00     0.329 C 
ATOM     73  O   UNL A   1      39.237  27.372  29.651  1.00  0.00    -0.250 OA
BRANCH  72  74
ATOM     74  C   UNL A   1      40.431  26.882  27.601  1.00  0.00     0.197 C 
BRANCH  74  75
ATOM     75  C   UNL A   1      39.875  25.538  27.085  1.00  0.00     0.072 C 
BRANCH  75  76
ATOM     76  C   UNL A   1      40.497  24.181  27.282  1.00  0.00    -0.045 A 
ATOM     77  C   UNL A   1      41.508  24.088  28.264  1.00  0.00     0.004 A 
ATOM     78  C   UNL A   1      40.135  23.030  26.590  1.00  0.00     0.004 A 
ATOM     79  C   UNL A   1      42.112  22.872  28.572  1.00  0.00     0.000 A 
ATOM     80  C   UNL A   1      40.734  21.805  26.907  1.00  0.00     0.000 A 
ATOM     81  C   UNL A   1      41.716  21.725  27.895  1.00  0.00     0.000 A 
ENDBRANCH  75  76
ENDBRANCH  74  75
BRANCH  74  82
ATOM     82  N   UNL A   1      40.870  27.675  26.439  1.00  0.00    -0.338 N 
ATOM     83  C   UNL A   1      42.035  27.641  25.734  1.00  0.00     0.258 C 
ATOM     84  H   UNL A   1      40.214  28.337  26.120  1.00  0.00     0.164 HD
ATOM     85  O   UNL A   1      42.215  28.473  24.831  1.00  0.00    -0.269 OA
BRANCH  83  86
ATOM     86  C   UNL A   1      43.140  26.707  26.035  1.00  0.00     0.117 A 
ATOM     87  C   UNL A   1      43.161  25.520  25.287  1.00  0.00     0.021 A 
ATOM     88  C   UNL A   1      44.082  26.850  27.059  1.00  0.00     0.282 A 
ATOM     89  C   UNL A   1      44.103  24.520  25.548  1.00  0.00     0.001 A 
ATOM     90  C   UNL A   1      45.048  25.860  27.315  1.00  0.00     0.086 A 
ATOM     91  C   UNL A   1      45.049  24.689  26.559  1.00  0.00     0.007 A 
BRANCH  88  92
ATOM     92  N   UNL A   1      44.095  28.012  27.918  1.00  0.00     0.063 N 
ATOM     93  O   UNL A   1      43.341  27.977  28.903  1.00  0.00    -0.258 OA
ATOM     94  O   UNL A   1      44.837  28.950  27.615  1.00  0.00    -0.258 OA
ENDBRANCH  88  92
ENDBRANCH  83  86
ENDBRANCH  74  82
ENDBRANCH  72  74
ENDBRANCH  71  72
ENDBRANCH  70  71
ENDBRANCH  69  70
ENDBRANCH  68  69
ENDBRANCH  67  68
ENDBRANCH   1  67
TORSDOF 25
ENDMDL
