MODEL 1
REMARK VINA RESULT:     -10.9      0.000      0.000
REMARK SMILES COc1cc2ccccc2cc1C(=O)Nc1cc(C(=O)OCCOCCOCCOCCOC(=O)c2ccc(-c3c4nc(c(-c5c(F)cccc5F)c5ccc([nH]5)c(-c5c(F)cccc5F)c5nc(c(-c6c(F)cccc6F)c6ccc3[nH]6)C=C5)C=C4)cc2)ccc1C
REMARK SMILES IDX 26 1 25 2 24 3 23 4 22 5 21 6 19 7 20 8 18 9 16 10 17 11
REMARK SMILES IDX 92 12 91 13 93 14 90 15 15 16 13 17 14 18 12 20 3 21 4 22
REMARK SMILES IDX 5 23 11 24 6 25 10 26 7 27 9 28 8 29 2 30 1 31 27 32 28 33
REMARK SMILES IDX 29 34 30 35 31 36 32 37 33 38 34 39 35 40 36 41 37 42 89 43
REMARK SMILES IDX 38 44 88 45 39 46 40 47 41 48 82 49 42 50 87 51 81 52 83 53
REMARK SMILES IDX 43 54 86 55 80 56 79 57 44 59 70 60 53 61 69 62 54 63 57 64
REMARK SMILES IDX 68 65 84 66 55 67 56 68 67 70 85 71 58 72 45 73 46 74 51 75
REMARK SMILES IDX 47 76 48 77 50 78 52 79 49 80 71 81 72 82 77 83 73 84 74 85
REMARK SMILES IDX 76 86 78 87 75 88 59 89 60 90 65 91 61 92 62 93 64 94 66 95
REMARK SMILES IDX 63 96
REMARK H PARENT 15 19 83 58 57 69
REMARK Flexibility Score: inf
ROOT
ATOM      1  C   UNL A   1      32.235  28.991  25.814  1.00  0.00     0.188 C 
ENDROOT
BRANCH   1   2
ATOM      2  C   UNL A   1      31.320  29.121  24.577  1.00  0.00     0.188 C 
BRANCH   2   3
ATOM      3  O   UNL A   1      31.803  28.895  23.266  1.00  0.00    -0.376 OA
BRANCH   3   4
ATOM      4  C   UNL A   1      33.214  28.946  23.103  1.00  0.00     0.202 C 
BRANCH   4   5
ATOM      5  C   UNL A   1      33.885  28.023  22.100  1.00  0.00     0.261 C 
BRANCH   5   6
ATOM      6  O   UNL A   1      33.685  26.692  22.563  1.00  0.00    -0.460 OA
BRANCH   6   7
ATOM      7  C   UNL A   1      33.051  25.909  21.691  1.00  0.00     0.338 C 
ATOM      8  O   UNL A   1      33.255  25.813  20.485  1.00  0.00    -0.246 OA
BRANCH   7   9
ATOM      9  C   UNL A   1      32.294  24.927  22.475  1.00  0.00     0.062 A 
ATOM     10  C   UNL A   1      32.146  22.812  23.578  1.00  0.00     0.045 A 
ATOM     11  C   UNL A   1      32.642  23.573  22.529  1.00  0.00     0.042 A 
ATOM     12  C   UNL A   1      31.086  23.330  24.366  1.00  0.00    -0.027 A 
ATOM     13  C   UNL A   1      30.574  24.611  24.103  1.00  0.00     0.006 A 
ATOM     14  C   UNL A   1      30.648  22.732  25.676  1.00  0.00     0.046 C 
ATOM     15  C   UNL A   1      31.221  25.432  23.205  1.00  0.00     0.016 A 
BRANCH  10  16
ATOM     16  N   UNL A   1      32.726  21.591  23.950  1.00  0.00    -0.322 N 
ATOM     17  C   UNL A   1      33.923  21.201  24.508  1.00  0.00     0.259 C 
ATOM     18  O   UNL A   1      34.066  19.973  24.610  1.00  0.00    -0.269 OA
ATOM     19  H   UNL A   1      32.133  20.827  23.768  1.00  0.00     0.170 HD
BRANCH  17  20
ATOM     20  C   UNL A   1      35.015  22.062  25.073  1.00  0.00     0.082 A 
ATOM     21  C   UNL A   1      34.936  23.375  25.540  1.00  0.00     0.132 A 
ATOM     22  C   UNL A   1      36.093  24.070  25.915  1.00  0.00     0.056 A 
ATOM     23  C   UNL A   1      37.341  23.446  25.986  1.00  0.00    -0.015 A 
ATOM     24  C   UNL A   1      36.272  21.416  25.210  1.00  0.00     0.026 A 
ATOM     25  C   UNL A   1      38.489  24.153  26.382  1.00  0.00     0.009 A 
ATOM     26  C   UNL A   1      37.427  22.078  25.687  1.00  0.00    -0.017 A 
ATOM     27  C   UNL A   1      39.709  23.502  26.533  1.00  0.00     0.001 A 
ATOM     28  C   UNL A   1      38.661  21.427  25.876  1.00  0.00     0.009 A 
ATOM     29  C   UNL A   1      39.790  22.133  26.306  1.00  0.00     0.001 A 
BRANCH  21  30
ATOM     30  O   UNL A   1      33.824  24.158  25.612  1.00  0.00    -0.496 OA
ATOM     31  C   UNL A   1      34.087  25.541  25.786  1.00  0.00     0.278 C 
ENDBRANCH  21  30
ENDBRANCH  17  20
ENDBRANCH  10  16
ENDBRANCH   7   9
ENDBRANCH   6   7
ENDBRANCH   5   6
ENDBRANCH   4   5
ENDBRANCH   3   4
ENDBRANCH   2   3
ENDBRANCH   1   2
BRANCH   1  32
ATOM     32  O   UNL A   1      32.357  30.061  26.736  1.00  0.00    -0.377 OA
BRANCH  32  33
ATOM     33  C   UNL A   1      33.661  30.330  27.242  1.00  0.00     0.188 C 
BRANCH  33  34
ATOM     34  C   UNL A   1      34.000  31.682  27.809  1.00  0.00     0.188 C 
BRANCH  34  35
ATOM     35  O   UNL A   1      32.864  32.509  27.592  1.00  0.00    -0.376 OA
BRANCH  35  36
ATOM     36  C   UNL A   1      33.038  33.867  27.960  1.00  0.00     0.202 C 
BRANCH  36  37
ATOM     37  C   UNL A   1      34.510  34.265  28.120  1.00  0.00     0.261 C 
BRANCH  37  38
ATOM     38  O   UNL A   1      34.680  34.931  29.391  1.00  0.00    -0.460 OA
BRANCH  38  39
ATOM     39  C   UNL A   1      34.736  34.124  30.485  1.00  0.00     0.338 C 
ATOM     40  O   UNL A   1      33.782  33.800  31.174  1.00  0.00    -0.246 OA
BRANCH  39  41
ATOM     41  C   UNL A   1      36.157  33.929  30.901  1.00  0.00     0.060 A 
ATOM     42  C   UNL A   1      37.191  33.999  29.952  1.00  0.00     0.016 A 
ATOM     43  C   UNL A   1      36.415  33.367  32.142  1.00  0.00     0.016 A 
ATOM     44  C   UNL A   1      38.411  33.335  30.177  1.00  0.00     0.010 A 
ATOM     45  C   UNL A   1      37.579  32.647  32.317  1.00  0.00     0.010 A 
ATOM     46  C   UNL A   1      38.570  32.563  31.324  1.00  0.00    -0.014 A 
BRANCH  46  47
ATOM     47  C   UNL A   1      39.637  31.561  31.556  1.00  0.00     0.031 A 
ATOM     48  C   UNL A   1      39.645  30.343  30.686  1.00  0.00     0.074 A 
ATOM     49  C   UNL A   1      40.764  31.922  32.238  1.00  0.00     0.049 A 
ATOM     50  N   UNL A   1      40.604  29.490  30.646  1.00  0.00    -0.248 NA
ATOM     51  C   UNL A   1      38.624  30.032  29.689  1.00  0.00     0.031 C 
ATOM     52  C   UNL A   1      42.110  31.329  32.200  1.00  0.00     0.029 A 
ATOM     53  N   UNL A   1      40.977  33.003  33.104  1.00  0.00    -0.354 N 
ATOM     54  C   UNL A   1      40.502  28.713  29.508  1.00  0.00     0.074 A 
ATOM     55  C   UNL A   1      39.224  29.082  28.958  1.00  0.00     0.031 C 
ATOM     56  C   UNL A   1      42.904  31.861  33.144  1.00  0.00     0.029 A 
ATOM     57  C   UNL A   1      42.038  32.661  33.971  1.00  0.00     0.049 A 
ATOM     58  H   UNL A   1      40.476  33.851  33.108  1.00  0.00     0.167 HD
ATOM     59  C   UNL A   1      41.584  27.942  29.171  1.00  0.00     0.037 A 
ATOM     60  C   UNL A   1      41.756  32.418  35.276  1.00  0.00     0.037 A 
ATOM     61  C   UNL A   1      42.548  27.938  30.292  1.00  0.00     0.049 A 
ATOM     62  C   UNL A   1      41.886  30.912  35.479  1.00  0.00     0.074 A 
ATOM     63  C   UNL A   1      43.863  28.335  30.439  1.00  0.00     0.029 A 
ATOM     64  N   UNL A   1      42.071  27.706  31.595  1.00  0.00    -0.354 N 
ATOM     65  N   UNL A   1      41.693  30.010  34.533  1.00  0.00    -0.248 NA
ATOM     66  C   UNL A   1      42.543  30.344  36.648  1.00  0.00     0.031 C 
ATOM     67  C   UNL A   1      44.106  28.479  31.832  1.00  0.00     0.029 A 
ATOM     68  C   UNL A   1      42.969  28.135  32.553  1.00  0.00     0.049 A 
ATOM     69  H   UNL A   1      41.204  27.288  31.799  1.00  0.00     0.167 HD
ATOM     70  C   UNL A   1      42.390  28.865  34.842  1.00  0.00     0.074 A 
ATOM     71  C   UNL A   1      42.814  29.098  36.219  1.00  0.00     0.031 C 
ATOM     72  C   UNL A   1      42.748  27.854  33.975  1.00  0.00     0.037 A 
BRANCH  59  73
ATOM     73  C   UNL A   1      41.899  27.312  27.806  1.00  0.00     0.057 A 
ATOM     74  C   UNL A   1      42.261  25.946  27.692  1.00  0.00     0.134 A 
ATOM     75  C   UNL A   1      41.934  27.987  26.569  1.00  0.00     0.134 A 
ATOM     76  F   UNL A   1      42.244  25.119  28.745  1.00  0.00    -0.206 F 
ATOM     77  C   UNL A   1      42.657  25.334  26.487  1.00  0.00     0.040 A 
ATOM     78  C   UNL A   1      42.299  27.380  25.351  1.00  0.00     0.040 A 
ATOM     79  F   UNL A   1      41.620  29.277  26.451  1.00  0.00    -0.206 F 
ATOM     80  C   UNL A   1      42.675  26.051  25.305  1.00  0.00     0.006 A 
ENDBRANCH  59  73
BRANCH  60  81
ATOM     81  C   UNL A   1      40.845  33.512  35.770  1.00  0.00     0.057 A 
ATOM     82  C   UNL A   1      39.516  33.095  36.062  1.00  0.00     0.134 A 
ATOM     83  C   UNL A   1      41.308  34.600  36.516  1.00  0.00     0.134 A 
ATOM     84  F   UNL A   1      38.974  32.070  35.382  1.00  0.00    -0.206 F 
ATOM     85  C   UNL A   1      38.796  33.566  37.172  1.00  0.00     0.040 A 
ATOM     86  C   UNL A   1      40.571  35.108  37.609  1.00  0.00     0.040 A 
ATOM     87  F   UNL A   1      42.545  35.080  36.325  1.00  0.00    -0.206 F 
ATOM     88  C   UNL A   1      39.352  34.544  37.984  1.00  0.00     0.006 A 
ENDBRANCH  60  81
BRANCH  72  89
ATOM     89  C   UNL A   1      43.063  26.431  34.406  1.00  0.00     0.057 A 
ATOM     90  C   UNL A   1      44.361  25.911  34.465  1.00  0.00     0.134 A 
ATOM     91  C   UNL A   1      42.068  25.593  34.977  1.00  0.00     0.134 A 
ATOM     92  F   UNL A   1      45.431  26.634  34.116  1.00  0.00    -0.206 F 
ATOM     93  C   UNL A   1      44.634  24.631  34.958  1.00  0.00     0.040 A 
ATOM     94  C   UNL A   1      42.341  24.345  35.534  1.00  0.00     0.040 A 
ATOM     95  F   UNL A   1      40.779  25.946  35.074  1.00  0.00    -0.206 F 
ATOM     96  C   UNL A   1      43.627  23.847  35.504  1.00  0.00     0.006 A 
ENDBRANCH  72  89
ENDBRANCH  46  47
ENDBRANCH  39  41
ENDBRANCH  38  39
ENDBRANCH  37  38
ENDBRANCH  36  37
ENDBRANCH  35  36
ENDBRANCH  34  35
ENDBRANCH  33  34
ENDBRANCH  32  33
ENDBRANCH   1  32
TORSDOF 23
ENDMDL
MODEL 2
REMARK VINA RESULT:     -10.8      2.336      3.734
REMARK SMILES COc1cc2ccccc2cc1C(=O)Nc1cc(C(=O)OCCOCCOCCOCCOC(=O)c2ccc(-c3c4nc(c(-c5c(F)cccc5F)c5ccc([nH]5)c(-c5c(F)cccc5F)c5nc(c(-c6c(F)cccc6F)c6ccc3[nH]6)C=C5)C=C4)cc2)ccc1C
REMARK SMILES IDX 26 1 25 2 24 3 23 4 22 5 21 6 19 7 20 8 18 9 16 10 17 11
REMARK SMILES IDX 92 12 91 13 93 14 90 15 15 16 13 17 14 18 12 20 3 21 4 22
REMARK SMILES IDX 5 23 11 24 6 25 10 26 7 27 9 28 8 29 2 30 1 31 27 32 28 33
REMARK SMILES IDX 29 34 30 35 31 36 32 37 33 38 34 39 35 40 36 41 37 42 89 43
REMARK SMILES IDX 38 44 88 45 39 46 40 47 41 48 82 49 42 50 87 51 81 52 83 53
REMARK SMILES IDX 43 54 86 55 80 56 79 57 44 59 70 60 53 61 69 62 54 63 57 64
REMARK SMILES IDX 68 65 84 66 55 67 56 68 67 70 85 71 58 72 45 73 46 74 51 75
REMARK SMILES IDX 47 76 48 77 50 78 52 79 49 80 71 81 72 82 77 83 73 84 74 85
REMARK SMILES IDX 76 86 78 87 75 88 59 89 60 90 65 91 61 92 62 93 64 94 66 95
REMARK SMILES IDX 63 96
REMARK H PARENT 15 19 83 58 57 69
REMARK Flexibility Score: inf
ROOT
ATOM      1  C   UNL A   1      30.264  26.011  25.276  1.00  0.00     0.188 C 
ENDROOT
BRANCH   1   2
ATOM      2  C   UNL A   1      29.725  27.073  24.294  1.00  0.00     0.188 C 
BRANCH   2   3
ATOM      3  O   UNL A   1      30.069  27.063  22.922  1.00  0.00    -0.376 OA
BRANCH   3   4
ATOM      4  C   UNL A   1      30.346  28.330  22.338  1.00  0.00     0.202 C 
BRANCH   4   5
ATOM      5  C   UNL A   1      31.664  29.021  22.641  1.00  0.00     0.261 C 
BRANCH   5   6
ATOM      6  O   UNL A   1      32.520  28.045  23.226  1.00  0.00    -0.460 OA
BRANCH   6   7
ATOM      7  C   UNL A   1      33.417  27.540  22.379  1.00  0.00     0.338 C 
ATOM      8  O   UNL A   1      34.303  28.141  21.780  1.00  0.00    -0.246 OA
BRANCH   7   9
ATOM      9  C   UNL A   1      33.385  26.082  22.548  1.00  0.00     0.062 A 
ATOM     10  C   UNL A   1      33.103  24.152  23.927  1.00  0.00     0.045 A 
ATOM     11  C   UNL A   1      33.540  25.462  23.792  1.00  0.00     0.042 A 
ATOM     12  C   UNL A   1      32.807  23.398  22.763  1.00  0.00    -0.027 A 
ATOM     13  C   UNL A   1      32.924  23.988  21.493  1.00  0.00     0.006 A 
ATOM     14  C   UNL A   1      32.079  22.081  22.781  1.00  0.00     0.046 C 
ATOM     15  C   UNL A   1      33.147  25.344  21.391  1.00  0.00     0.016 A 
BRANCH  10  16
ATOM     16  N   UNL A   1      32.845  23.581  25.181  1.00  0.00    -0.322 N 
ATOM     17  C   UNL A   1      33.375  22.544  25.918  1.00  0.00     0.259 C 
ATOM     18  O   UNL A   1      32.786  22.320  26.987  1.00  0.00    -0.269 OA
ATOM     19  H   UNL A   1      32.105  24.030  25.649  1.00  0.00     0.170 HD
BRANCH  17  20
ATOM     20  C   UNL A   1      34.601  21.727  25.633  1.00  0.00     0.082 A 
ATOM     21  C   UNL A   1      34.687  20.452  25.069  1.00  0.00     0.132 A 
ATOM     22  C   UNL A   1      35.918  19.786  24.995  1.00  0.00     0.056 A 
ATOM     23  C   UNL A   1      37.120  20.414  25.332  1.00  0.00    -0.015 A 
ATOM     24  C   UNL A   1      35.830  22.380  25.911  1.00  0.00     0.026 A 
ATOM     25  C   UNL A   1      38.348  19.738  25.236  1.00  0.00     0.009 A 
ATOM     26  C   UNL A   1      37.087  21.755  25.742  1.00  0.00    -0.017 A 
ATOM     27  C   UNL A   1      39.545  20.396  25.491  1.00  0.00     0.001 A 
ATOM     28  C   UNL A   1      38.310  22.417  25.965  1.00  0.00     0.009 A 
ATOM     29  C   UNL A   1      39.529  21.745  25.829  1.00  0.00     0.001 A 
BRANCH  21  30
ATOM     30  O   UNL A   1      33.660  19.678  24.622  1.00  0.00    -0.496 OA
ATOM     31  C   UNL A   1      34.052  18.410  24.122  1.00  0.00     0.278 C 
ENDBRANCH  21  30
ENDBRANCH  17  20
ENDBRANCH  10  16
ENDBRANCH   7   9
ENDBRANCH   6   7
ENDBRANCH   5   6
ENDBRANCH   4   5
ENDBRANCH   3   4
ENDBRANCH   2   3
ENDBRANCH   1   2
BRANCH   1  32
ATOM     32  O   UNL A   1      30.623  26.368  26.600  1.00  0.00    -0.377 OA
BRANCH  32  33
ATOM     33  C   UNL A   1      31.807  27.142  26.760  1.00  0.00     0.188 C 
BRANCH  33  34
ATOM     34  C   UNL A   1      31.768  28.640  26.630  1.00  0.00     0.188 C 
BRANCH  34  35
ATOM     35  O   UNL A   1      32.674  29.155  27.598  1.00  0.00    -0.376 OA
BRANCH  35  36
ATOM     36  C   UNL A   1      33.348  30.340  27.212  1.00  0.00     0.202 C 
BRANCH  36  37
ATOM     37  C   UNL A   1      34.870  30.169  27.129  1.00  0.00     0.261 C 
BRANCH  37  38
ATOM     38  O   UNL A   1      35.503  31.408  27.513  1.00  0.00    -0.460 OA
BRANCH  38  39
ATOM     39  C   UNL A   1      36.248  31.371  28.651  1.00  0.00     0.338 C 
ATOM     40  O   UNL A   1      36.451  32.318  29.395  1.00  0.00    -0.246 OA
BRANCH  39  41
ATOM     41  C   UNL A   1      37.023  30.096  28.710  1.00  0.00     0.060 A 
ATOM     42  C   UNL A   1      36.951  29.272  29.846  1.00  0.00     0.016 A 
ATOM     43  C   UNL A   1      38.044  29.896  27.794  1.00  0.00     0.016 A 
ATOM     44  C   UNL A   1      38.004  28.392  30.156  1.00  0.00     0.010 A 
ATOM     45  C   UNL A   1      39.110  29.096  28.150  1.00  0.00     0.010 A 
ATOM     46  C   UNL A   1      39.144  28.379  29.358  1.00  0.00    -0.014 A 
BRANCH  46  47
ATOM     47  C   UNL A   1      40.447  27.768  29.714  1.00  0.00     0.031 A 
ATOM     48  C   UNL A   1      40.787  26.450  29.092  1.00  0.00     0.074 A 
ATOM     49  C   UNL A   1      41.433  28.548  30.249  1.00  0.00     0.049 A 
ATOM     50  N   UNL A   1      41.943  25.896  29.159  1.00  0.00    -0.248 NA
ATOM     51  C   UNL A   1      39.887  25.684  28.234  1.00  0.00     0.031 C 
ATOM     52  C   UNL A   1      42.890  28.343  30.246  1.00  0.00     0.029 A 
ATOM     53  N   UNL A   1      41.343  29.796  30.879  1.00  0.00    -0.354 N 
ATOM     54  C   UNL A   1      42.054  24.910  28.198  1.00  0.00     0.074 A 
ATOM     55  C   UNL A   1      40.723  24.805  27.663  1.00  0.00     0.031 C 
ATOM     56  C   UNL A   1      43.511  29.245  31.024  1.00  0.00     0.029 A 
ATOM     57  C   UNL A   1      42.461  29.931  31.732  1.00  0.00     0.049 A 
ATOM     58  H   UNL A   1      40.629  30.460  30.751  1.00  0.00     0.167 HD
ATOM     59  C   UNL A   1      43.306  24.408  27.951  1.00  0.00     0.037 A 
ATOM     60  C   UNL A   1      42.261  29.885  33.073  1.00  0.00     0.037 A 
ATOM     61  C   UNL A   1      44.238  24.886  28.995  1.00  0.00     0.049 A 
ATOM     62  C   UNL A   1      42.802  28.542  33.552  1.00  0.00     0.074 A 
ATOM     63  C   UNL A   1      45.393  25.643  28.986  1.00  0.00     0.029 A 
ATOM     64  N   UNL A   1      43.848  24.798  30.343  1.00  0.00    -0.354 N 
ATOM     65  N   UNL A   1      42.861  27.452  32.807  1.00  0.00    -0.248 NA
ATOM     66  C   UNL A   1      43.594  28.416  34.767  1.00  0.00     0.031 C 
ATOM     67  C   UNL A   1      45.593  26.122  30.310  1.00  0.00     0.029 A 
ATOM     68  C   UNL A   1      44.597  25.635  31.149  1.00  0.00     0.049 A 
ATOM     69  H   UNL A   1      43.130  24.212  30.674  1.00  0.00     0.167 HD
ATOM     70  C   UNL A   1      43.848  26.621  33.287  1.00  0.00     0.074 A 
ATOM     71  C   UNL A   1      44.196  27.229  34.567  1.00  0.00     0.031 C 
ATOM     72  C   UNL A   1      44.467  25.593  32.608  1.00  0.00     0.037 A 
BRANCH  59  73
ATOM     73  C   UNL A   1      43.777  23.628  26.715  1.00  0.00     0.057 A 
ATOM     74  C   UNL A   1      44.490  24.267  25.669  1.00  0.00     0.134 A 
ATOM     75  C   UNL A   1      43.517  22.269  26.442  1.00  0.00     0.134 A 
ATOM     76  F   UNL A   1      44.876  25.546  25.755  1.00  0.00    -0.206 F 
ATOM     77  C   UNL A   1      44.861  23.633  24.467  1.00  0.00     0.040 A 
ATOM     78  C   UNL A   1      43.909  21.615  25.257  1.00  0.00     0.040 A 
ATOM     79  F   UNL A   1      42.866  21.482  27.298  1.00  0.00    -0.206 F 
ATOM     80  C   UNL A   1      44.573  22.298  24.256  1.00  0.00     0.006 A 
ENDBRANCH  59  73
BRANCH  60  81
ATOM     81  C   UNL A   1      41.087  30.769  33.402  1.00  0.00     0.057 A 
ATOM     82  C   UNL A   1      39.903  30.074  33.777  1.00  0.00     0.134 A 
ATOM     83  C   UNL A   1      41.233  32.043  33.961  1.00  0.00     0.134 A 
ATOM     84  F   UNL A   1      39.662  28.850  33.275  1.00  0.00    -0.206 F 
ATOM     85  C   UNL A   1      39.057  30.510  34.809  1.00  0.00     0.040 A 
ATOM     86  C   UNL A   1      40.361  32.507  34.971  1.00  0.00     0.040 A 
ATOM     87  F   UNL A   1      42.309  32.791  33.678  1.00  0.00    -0.206 F 
ATOM     88  C   UNL A   1      39.319  31.712  35.449  1.00  0.00     0.006 A 
ENDBRANCH  60  81
BRANCH  72  89
ATOM     89  C   UNL A   1      45.163  24.423  33.283  1.00  0.00     0.057 A 
ATOM     90  C   UNL A   1      46.480  24.473  33.753  1.00  0.00     0.134 A 
ATOM     91  C   UNL A   1      44.448  23.255  33.665  1.00  0.00     0.134 A 
ATOM     92  F   UNL A   1      47.240  25.566  33.617  1.00  0.00    -0.206 F 
ATOM     93  C   UNL A   1      47.066  23.417  34.457  1.00  0.00     0.040 A 
ATOM     94  C   UNL A   1      45.003  22.229  34.427  1.00  0.00     0.040 A 
ATOM     95  F   UNL A   1      43.157  23.057  33.367  1.00  0.00    -0.206 F 
ATOM     96  C   UNL A   1      46.327  22.296  34.807  1.00  0.00     0.006 A 
ENDBRANCH  72  89
ENDBRANCH  46  47
ENDBRANCH  39  41
ENDBRANCH  38  39
ENDBRANCH  37  38
ENDBRANCH  36  37
ENDBRANCH  35  36
ENDBRANCH  34  35
ENDBRANCH  33  34
ENDBRANCH  32  33
ENDBRANCH   1  32
TORSDOF 23
ENDMDL
MODEL 3
REMARK VINA RESULT:     -10.8      2.843      8.534
REMARK SMILES COc1cc2ccccc2cc1C(=O)Nc1cc(C(=O)OCCOCCOCCOCCOC(=O)c2ccc(-c3c4nc(c(-c5c(F)cccc5F)c5ccc([nH]5)c(-c5c(F)cccc5F)c5nc(c(-c6c(F)cccc6F)c6ccc3[nH]6)C=C5)C=C4)cc2)ccc1C
REMARK SMILES IDX 26 1 25 2 24 3 23 4 22 5 21 6 19 7 20 8 18 9 16 10 17 11
REMARK SMILES IDX 92 12 91 13 93 14 90 15 15 16 13 17 14 18 12 20 3 21 4 22
REMARK SMILES IDX 5 23 11 24 6 25 10 26 7 27 9 28 8 29 2 30 1 31 27 32 28 33
REMARK SMILES IDX 29 34 30 35 31 36 32 37 33 38 34 39 35 40 36 41 37 42 89 43
REMARK SMILES IDX 38 44 88 45 39 46 40 47 41 48 82 49 42 50 87 51 81 52 83 53
REMARK SMILES IDX 43 54 86 55 80 56 79 57 44 59 70 60 53 61 69 62 54 63 57 64
REMARK SMILES IDX 68 65 84 66 55 67 56 68 67 70 85 71 58 72 45 73 46 74 51 75
REMARK SMILES IDX 47 76 48 77 50 78 52 79 49 80 71 81 72 82 77 83 73 84 74 85
REMARK SMILES IDX 76 86 78 87 75 88 59 89 60 90 65 91 61 92 62 93 64 94 66 95
REMARK SMILES IDX 63 96
REMARK H PARENT 15 19 83 58 57 69
REMARK Flexibility Score: inf
ROOT
ATOM      1  C   UNL A   1      42.461  21.695  27.042  1.00  0.00     0.188 C 
ENDROOT
BRANCH   1   2
ATOM      2  C   UNL A   1      41.397  20.715  26.500  1.00  0.00     0.188 C 
BRANCH   2   3
ATOM      3  O   UNL A   1      40.022  20.874  26.790  1.00  0.00    -0.376 OA
BRANCH   3   4
ATOM      4  C   UNL A   1      39.485  22.174  26.578  1.00  0.00     0.202 C 
BRANCH   4   5
ATOM      5  C   UNL A   1      38.468  22.392  25.472  1.00  0.00     0.261 C 
BRANCH   5   6
ATOM      6  O   UNL A   1      37.249  21.797  25.905  1.00  0.00    -0.460 OA
BRANCH   6   7
ATOM      7  C   UNL A   1      36.820  20.814  25.114  1.00  0.00     0.338 C 
ATOM      8  O   UNL A   1      37.315  19.701  24.967  1.00  0.00    -0.246 OA
BRANCH   7   9
ATOM      9  C   UNL A   1      35.455  21.165  24.704  1.00  0.00     0.062 A 
ATOM     10  C   UNL A   1      33.941  22.545  23.473  1.00  0.00     0.045 A 
ATOM     11  C   UNL A   1      35.119  22.425  24.197  1.00  0.00     0.042 A 
ATOM     12  C   UNL A   1      32.987  21.496  23.527  1.00  0.00    -0.027 A 
ATOM     13  C   UNL A   1      33.254  20.340  24.279  1.00  0.00     0.006 A 
ATOM     14  C   UNL A   1      31.813  21.384  22.593  1.00  0.00     0.046 C 
ATOM     15  C   UNL A   1      34.511  20.147  24.810  1.00  0.00     0.016 A 
BRANCH  10  16
ATOM     16  N   UNL A   1      33.708  23.622  22.607  1.00  0.00    -0.322 N 
ATOM     17  C   UNL A   1      33.197  24.895  22.735  1.00  0.00     0.259 C 
ATOM     18  O   UNL A   1      33.097  25.518  21.668  1.00  0.00    -0.269 OA
ATOM     19  H   UNL A   1      33.973  23.419  21.681  1.00  0.00     0.170 HD
BRANCH  17  20
ATOM     20  C   UNL A   1      32.834  25.633  23.991  1.00  0.00     0.082 A 
ATOM     21  C   UNL A   1      32.298  25.126  25.176  1.00  0.00     0.132 A 
ATOM     22  C   UNL A   1      31.901  25.989  26.206  1.00  0.00     0.056 A 
ATOM     23  C   UNL A   1      32.159  27.361  26.163  1.00  0.00    -0.015 A 
ATOM     24  C   UNL A   1      33.152  27.017  23.982  1.00  0.00     0.026 A 
ATOM     25  C   UNL A   1      31.769  28.210  27.212  1.00  0.00     0.009 A 
ATOM     26  C   UNL A   1      32.851  27.881  25.058  1.00  0.00    -0.017 A 
ATOM     27  C   UNL A   1      32.106  29.559  27.199  1.00  0.00     0.001 A 
ATOM     28  C   UNL A   1      33.213  29.242  25.076  1.00  0.00     0.009 A 
ATOM     29  C   UNL A   1      32.853  30.071  26.143  1.00  0.00     0.001 A 
BRANCH  21  30
ATOM     30  O   UNL A   1      32.014  23.825  25.461  1.00  0.00    -0.496 OA
ATOM     31  C   UNL A   1      30.702  23.602  25.951  1.00  0.00     0.278 C 
ENDBRANCH  21  30
ENDBRANCH  17  20
ENDBRANCH  10  16
ENDBRANCH   7   9
ENDBRANCH   6   7
ENDBRANCH   5   6
ENDBRANCH   4   5
ENDBRANCH   3   4
ENDBRANCH   2   3
ENDBRANCH   1   2
BRANCH   1  32
ATOM     32  O   UNL A   1      43.657  21.934  26.319  1.00  0.00    -0.377 OA
BRANCH  32  33
ATOM     33  C   UNL A   1      43.534  22.625  25.080  1.00  0.00     0.188 C 
BRANCH  33  34
ATOM     34  C   UNL A   1      43.863  24.091  24.984  1.00  0.00     0.188 C 
BRANCH  34  35
ATOM     35  O   UNL A   1      43.938  24.578  26.318  1.00  0.00    -0.376 OA
BRANCH  35  36
ATOM     36  C   UNL A   1      43.223  25.779  26.553  1.00  0.00     0.202 C 
BRANCH  36  37
ATOM     37  C   UNL A   1      42.498  26.304  25.308  1.00  0.00     0.261 C 
BRANCH  37  38
ATOM     38  O   UNL A   1      41.700  27.449  25.678  1.00  0.00    -0.460 OA
BRANCH  38  39
ATOM     39  C   UNL A   1      40.807  27.254  26.686  1.00  0.00     0.338 C 
ATOM     40  O   UNL A   1      40.171  26.230  26.879  1.00  0.00    -0.246 OA
BRANCH  39  41
ATOM     41  C   UNL A   1      40.493  28.556  27.346  1.00  0.00     0.060 A 
ATOM     42  C   UNL A   1      41.511  29.310  27.954  1.00  0.00     0.016 A 
ATOM     43  C   UNL A   1      39.169  28.852  27.634  1.00  0.00     0.016 A 
ATOM     44  C   UNL A   1      41.208  30.216  28.987  1.00  0.00     0.010 A 
ATOM     45  C   UNL A   1      38.890  29.676  28.706  1.00  0.00     0.010 A 
ATOM     46  C   UNL A   1      39.897  30.323  29.441  1.00  0.00    -0.014 A 
BRANCH  46  47
ATOM     47  C   UNL A   1      39.465  30.968  30.704  1.00  0.00     0.031 A 
ATOM     48  C   UNL A   1      38.690  32.244  30.600  1.00  0.00     0.074 A 
ATOM     49  C   UNL A   1      39.425  30.235  31.856  1.00  0.00     0.049 A 
ATOM     50  N   UNL A   1      38.096  32.812  31.587  1.00  0.00    -0.248 NA
ATOM     51  C   UNL A   1      38.411  32.943  29.348  1.00  0.00     0.031 C 
ATOM     52  C   UNL A   1      38.630  30.452  33.075  1.00  0.00     0.029 A 
ATOM     53  N   UNL A   1      40.070  29.031  32.173  1.00  0.00    -0.354 N 
ATOM     54  C   UNL A   1      37.176  33.732  31.123  1.00  0.00     0.074 A 
ATOM     55  C   UNL A   1      37.436  33.789  29.709  1.00  0.00     0.031 C 
ATOM     56  C   UNL A   1      38.998  29.610  34.054  1.00  0.00     0.029 A 
ATOM     57  C   UNL A   1      40.194  28.964  33.578  1.00  0.00     0.049 A 
ATOM     58  H   UNL A   1      40.380  28.353  31.530  1.00  0.00     0.167 HD
ATOM     59  C   UNL A   1      36.270  34.228  32.025  1.00  0.00     0.037 A 
ATOM     60  C   UNL A   1      41.428  29.098  34.126  1.00  0.00     0.037 A 
ATOM     61  C   UNL A   1      36.673  33.829  33.390  1.00  0.00     0.049 A 
ATOM     62  C   UNL A   1      41.470  30.476  34.779  1.00  0.00     0.074 A 
ATOM     63  C   UNL A   1      36.085  33.084  34.393  1.00  0.00     0.029 A 
ATOM     64  N   UNL A   1      38.013  34.004  33.780  1.00  0.00    -0.354 N 
ATOM     65  N   UNL A   1      40.755  31.514  34.383  1.00  0.00    -0.248 NA
ATOM     66  C   UNL A   1      42.062  30.690  36.092  1.00  0.00     0.031 C 
ATOM     67  C   UNL A   1      37.117  32.697  35.292  1.00  0.00     0.029 A 
ATOM     68  C   UNL A   1      38.332  33.230  34.879  1.00  0.00     0.049 A 
ATOM     69  H   UNL A   1      38.646  34.605  33.325  1.00  0.00     0.167 HD
ATOM     70  C   UNL A   1      40.586  32.383  35.435  1.00  0.00     0.074 A 
ATOM     71  C   UNL A   1      41.508  31.866  36.442  1.00  0.00     0.031 C 
ATOM     72  C   UNL A   1      39.629  33.369  35.549  1.00  0.00     0.037 A 
BRANCH  59  73
ATOM     73  C   UNL A   1      34.936  34.927  31.726  1.00  0.00     0.057 A 
ATOM     74  C   UNL A   1      34.182  34.610  30.567  1.00  0.00     0.134 A 
ATOM     75  C   UNL A   1      34.354  35.964  32.483  1.00  0.00     0.134 A 
ATOM     76  F   UNL A   1      34.540  33.620  29.740  1.00  0.00    -0.206 F 
ATOM     77  C   UNL A   1      33.006  35.282  30.184  1.00  0.00     0.040 A 
ATOM     78  C   UNL A   1      33.161  36.625  32.128  1.00  0.00     0.040 A 
ATOM     79  F   UNL A   1      34.897  36.411  33.615  1.00  0.00    -0.206 F 
ATOM     80  C   UNL A   1      32.486  36.296  30.968  1.00  0.00     0.006 A 
ENDBRANCH  59  73
BRANCH  60  81
ATOM     81  C   UNL A   1      42.382  28.228  33.350  1.00  0.00     0.057 A 
ATOM     82  C   UNL A   1      43.319  28.938  32.548  1.00  0.00     0.134 A 
ATOM     83  C   UNL A   1      42.816  26.982  33.814  1.00  0.00     0.134 A 
ATOM     84  F   UNL A   1      42.986  30.135  32.036  1.00  0.00    -0.206 F 
ATOM     85  C   UNL A   1      44.663  28.549  32.420  1.00  0.00     0.040 A 
ATOM     86  C   UNL A   1      44.156  26.564  33.654  1.00  0.00     0.040 A 
ATOM     87  F   UNL A   1      42.017  26.225  34.578  1.00  0.00    -0.206 F 
ATOM     88  C   UNL A   1      45.097  27.378  33.024  1.00  0.00     0.006 A 
ENDBRANCH  60  81
BRANCH  72  89
ATOM     89  C   UNL A   1      39.762  34.588  36.447  1.00  0.00     0.057 A 
ATOM     90  C   UNL A   1      39.081  34.733  37.660  1.00  0.00     0.134 A 
ATOM     91  C   UNL A   1      40.751  35.580  36.207  1.00  0.00     0.134 A 
ATOM     92  F   UNL A   1      38.231  33.803  38.112  1.00  0.00    -0.206 F 
ATOM     93  C   UNL A   1      39.294  35.819  38.516  1.00  0.00     0.040 A 
ATOM     94  C   UNL A   1      41.019  36.627  37.087  1.00  0.00     0.040 A 
ATOM     95  F   UNL A   1      41.552  35.572  35.133  1.00  0.00    -0.206 F 
ATOM     96  C   UNL A   1      40.272  36.764  38.238  1.00  0.00     0.006 A 
ENDBRANCH  72  89
ENDBRANCH  46  47
ENDBRANCH  39  41
ENDBRANCH  38  39
ENDBRANCH  37  38
ENDBRANCH  36  37
ENDBRANCH  35  36
ENDBRANCH  34  35
ENDBRANCH  33  34
ENDBRANCH  32  33
ENDBRANCH   1  32
TORSDOF 23
ENDMDL
