MODEL 1
REMARK VINA RESULT:      -9.1      0.000      0.000
REMARK SMILES Cc1ccc(C)c(-n2nc(C)c(C=C(C#N)C(=O)OCCOCCOCCOCCOC(=O)c3ccc(-c4c5nc(c(-c6c(F)cccc6F)c6ccc([nH]6)c(-c6c(F)cccc6F)c6nc(c(-c7c(F)cccc7F)c7ccc4[nH]7)C=C6)C=C5)cc3)c2Cl)c1
REMARK SMILES IDX 25 1 24 2 23 3 22 4 21 5 20 6 19 7 17 8 18 9 14 10 13 11
REMARK SMILES IDX 12 12 8 13 9 14 88 15 10 16 89 17 11 18 7 19 1 20 2 21 3 22
REMARK SMILES IDX 90 23 4 24 5 25 6 26 15 27 16 28 26 29 27 30 28 31 29 32
REMARK SMILES IDX 30 33 31 34 32 35 33 36 34 37 35 38 87 39 36 40 86 41 37 42
REMARK SMILES IDX 38 43 39 44 80 45 40 46 85 47 79 48 81 49 41 50 84 51 78 52
REMARK SMILES IDX 77 53 42 55 68 56 51 57 67 58 52 59 55 60 66 61 82 62 53 63
REMARK SMILES IDX 54 64 65 66 83 67 56 68 43 69 44 70 49 71 45 72 46 73 48 74
REMARK SMILES IDX 50 75 47 76 69 77 70 78 75 79 71 80 72 81 74 82 76 83 73 84
REMARK SMILES IDX 57 85 58 86 63 87 59 88 60 89 62 90 64 91 61 92
REMARK H PARENT 81 54 55 65
REMARK Flexibility Score: inf
ROOT
ATOM      1  O   UNL A   1      30.997  27.103  27.256  1.00  0.00    -0.377 OA
ENDROOT
BRANCH   1   2
ATOM      2  C   UNL A   1      31.154  26.392  26.033  1.00  0.00     0.188 C 
BRANCH   2   3
ATOM      3  C   UNL A   1      31.440  24.855  25.988  1.00  0.00     0.188 C 
BRANCH   3   4
ATOM      4  O   UNL A   1      32.387  24.221  25.119  1.00  0.00    -0.376 OA
BRANCH   4   5
ATOM      5  C   UNL A   1      32.597  24.415  23.716  1.00  0.00     0.202 C 
BRANCH   5   6
ATOM      6  C   UNL A   1      34.024  24.384  23.123  1.00  0.00     0.261 C 
BRANCH   6   7
ATOM      7  O   UNL A   1      35.037  24.322  24.131  1.00  0.00    -0.459 OA
BRANCH   7   8
ATOM      8  C   UNL A   1      35.957  23.400  23.852  1.00  0.00     0.348 C 
ATOM      9  O   UNL A   1      35.984  22.979  22.688  1.00  0.00    -0.245 OA
BRANCH   8  10
ATOM     10  C   UNL A   1      37.014  22.900  25.097  1.00  0.00     0.138 C 
ATOM     11  C   UNL A   1      37.534  23.754  26.130  1.00  0.00     0.040 C 
BRANCH  11  12
ATOM     12  C   UNL A   1      39.022  24.105  26.619  1.00  0.00     0.037 A 
ATOM     13  N   UNL A   1      41.323  24.224  26.859  1.00  0.00    -0.221 N 
ATOM     14  N   UNL A   1      40.841  25.461  26.865  1.00  0.00    -0.171 NA
ATOM     15  C   UNL A   1      40.216  23.338  26.742  1.00  0.00     0.140 A 
ATOM     16  C   UNL A   1      39.619  25.209  27.316  1.00  0.00     0.069 A 
ATOM     17  Cl  UNL A   1      40.511  21.665  26.795  1.00  0.00    -0.061 Cl
ATOM     18  C   UNL A   1      39.199  26.216  28.255  1.00  0.00     0.069 C 
BRANCH  13  19
ATOM     19  C   UNL A   1      42.705  24.213  27.224  1.00  0.00     0.069 A 
ATOM     20  C   UNL A   1      44.384  23.857  30.683  1.00  0.00     0.044 C 
ATOM     21  C   UNL A   1      44.164  23.842  29.195  1.00  0.00    -0.049 A 
ATOM     22  C   UNL A   1      45.172  23.372  28.358  1.00  0.00     0.004 A 
ATOM     23  C   UNL A   1      42.950  24.271  28.623  1.00  0.00     0.032 A 
ATOM     24  C   UNL A   1      44.922  23.210  26.996  1.00  0.00     0.006 A 
ATOM     25  C   UNL A   1      43.669  23.545  26.429  1.00  0.00    -0.025 A 
ATOM     26  C   UNL A   1      43.427  23.009  25.041  1.00  0.00     0.047 C 
ENDBRANCH  13  19
ENDBRANCH  11  12
BRANCH  10  27
ATOM     27  C   UNL A   1      35.753  22.068  25.279  1.00  0.00     0.107 C 
ATOM     28  N   UNL A   1      34.708  21.378  25.431  1.00  0.00    -0.192 NA
ENDBRANCH  10  27
ENDBRANCH   8  10
ENDBRANCH   7   8
ENDBRANCH   6   7
ENDBRANCH   5   6
ENDBRANCH   4   5
ENDBRANCH   3   4
ENDBRANCH   2   3
ENDBRANCH   1   2
BRANCH   1  29
ATOM     29  C   UNL A   1      31.630  28.369  27.265  1.00  0.00     0.188 C 
BRANCH  29  30
ATOM     30  C   UNL A   1      33.086  28.229  26.819  1.00  0.00     0.188 C 
BRANCH  30  31
ATOM     31  O   UNL A   1      33.955  28.936  27.680  1.00  0.00    -0.376 OA
BRANCH  31  32
ATOM     32  C   UNL A   1      34.535  30.153  27.276  1.00  0.00     0.202 C 
BRANCH  32  33
ATOM     33  C   UNL A   1      33.490  31.208  27.585  1.00  0.00     0.261 C 
BRANCH  33  34
ATOM     34  O   UNL A   1      34.078  32.538  27.418  1.00  0.00    -0.460 OA
BRANCH  34  35
ATOM     35  C   UNL A   1      33.818  33.494  28.386  1.00  0.00     0.338 C 
ATOM     36  O   UNL A   1      32.869  34.233  28.387  1.00  0.00    -0.246 OA
BRANCH  35  37
ATOM     37  C   UNL A   1      34.978  33.548  29.373  1.00  0.00     0.060 A 
ATOM     38  C   UNL A   1      36.261  34.011  29.066  1.00  0.00     0.016 A 
ATOM     39  C   UNL A   1      34.846  32.901  30.583  1.00  0.00     0.016 A 
ATOM     40  C   UNL A   1      37.392  33.672  29.902  1.00  0.00     0.010 A 
ATOM     41  C   UNL A   1      35.974  32.464  31.308  1.00  0.00     0.010 A 
ATOM     42  C   UNL A   1      37.324  32.745  30.985  1.00  0.00    -0.014 A 
BRANCH  42  43
ATOM     43  C   UNL A   1      38.721  32.404  31.832  1.00  0.00     0.031 A 
ATOM     44  C   UNL A   1      38.959  31.018  31.338  1.00  0.00     0.074 A 
ATOM     45  C   UNL A   1      39.996  32.893  32.374  1.00  0.00     0.049 A 
ATOM     46  N   UNL A   1      39.220  29.994  32.073  1.00  0.00    -0.248 NA
ATOM     47  C   UNL A   1      38.819  30.662  29.899  1.00  0.00     0.031 C 
ATOM     48  C   UNL A   1      40.069  33.222  33.809  1.00  0.00     0.029 A 
ATOM     49  N   UNL A   1      41.156  33.716  32.031  1.00  0.00    -0.354 N 
ATOM     50  C   UNL A   1      39.930  29.223  31.177  1.00  0.00     0.074 A 
ATOM     51  C   UNL A   1      39.334  29.434  29.888  1.00  0.00     0.031 C 
ATOM     52  C   UNL A   1      40.968  34.188  34.143  1.00  0.00     0.029 A 
ATOM     53  C   UNL A   1      41.695  34.665  32.973  1.00  0.00     0.049 A 
ATOM     54  H   UNL A   1      41.574  33.620  31.146  1.00  0.00     0.167 HD
ATOM     55  C   UNL A   1      41.256  29.091  31.450  1.00  0.00     0.037 A 
ATOM     56  C   UNL A   1      42.830  35.473  33.130  1.00  0.00     0.037 A 
ATOM     57  C   UNL A   1      41.541  29.322  32.860  1.00  0.00     0.049 A 
ATOM     58  C   UNL A   1      43.794  34.500  33.732  1.00  0.00     0.074 A 
ATOM     59  C   UNL A   1      40.913  28.866  34.009  1.00  0.00     0.029 A 
ATOM     60  N   UNL A   1      42.260  30.439  33.232  1.00  0.00    -0.354 N 
ATOM     61  N   UNL A   1      43.666  34.002  34.933  1.00  0.00    -0.248 NA
ATOM     62  C   UNL A   1      44.496  33.647  32.767  1.00  0.00     0.031 C 
ATOM     63  C   UNL A   1      41.220  29.761  35.052  1.00  0.00     0.029 A 
ATOM     64  C   UNL A   1      42.153  30.674  34.595  1.00  0.00     0.049 A 
ATOM     65  H   UNL A   1      42.781  30.998  32.609  1.00  0.00     0.167 HD
ATOM     66  C   UNL A   1      43.640  32.637  34.670  1.00  0.00     0.074 A 
ATOM     67  C   UNL A   1      44.342  32.478  33.393  1.00  0.00     0.031 C 
ATOM     68  C   UNL A   1      42.717  31.822  35.271  1.00  0.00     0.037 A 
BRANCH  55  69
ATOM     69  C   UNL A   1      42.295  29.083  30.376  1.00  0.00     0.057 A 
ATOM     70  C   UNL A   1      42.610  30.290  29.760  1.00  0.00     0.134 A 
ATOM     71  C   UNL A   1      42.906  27.933  29.831  1.00  0.00     0.134 A 
ATOM     72  F   UNL A   1      42.071  31.434  30.203  1.00  0.00    -0.206 F 
ATOM     73  C   UNL A   1      43.472  30.354  28.663  1.00  0.00     0.040 A 
ATOM     74  C   UNL A   1      43.786  27.982  28.749  1.00  0.00     0.040 A 
ATOM     75  F   UNL A   1      42.659  26.705  30.296  1.00  0.00    -0.206 F 
ATOM     76  C   UNL A   1      44.063  29.201  28.154  1.00  0.00     0.006 A 
ENDBRANCH  55  69
BRANCH  56  77
ATOM     77  C   UNL A   1      43.383  36.825  32.582  1.00  0.00     0.057 A 
ATOM     78  C   UNL A   1      43.338  38.049  33.300  1.00  0.00     0.134 A 
ATOM     79  C   UNL A   1      43.797  37.044  31.252  1.00  0.00     0.134 A 
ATOM     80  F   UNL A   1      42.750  38.108  34.502  1.00  0.00    -0.206 F 
ATOM     81  C   UNL A   1      43.844  39.291  32.816  1.00  0.00     0.040 A 
ATOM     82  C   UNL A   1      44.356  38.259  30.763  1.00  0.00     0.040 A 
ATOM     83  F   UNL A   1      43.613  36.102  30.325  1.00  0.00    -0.206 F 
ATOM     84  C   UNL A   1      44.420  39.386  31.561  1.00  0.00     0.006 A 
ENDBRANCH  56  77
BRANCH  68  85
ATOM     85  C   UNL A   1      42.178  32.205  36.650  1.00  0.00     0.057 A 
ATOM     86  C   UNL A   1      40.857  32.545  36.984  1.00  0.00     0.134 A 
ATOM     87  C   UNL A   1      42.952  31.971  37.774  1.00  0.00     0.134 A 
ATOM     88  F   UNL A   1      39.850  31.901  36.399  1.00  0.00    -0.206 F 
ATOM     89  C   UNL A   1      40.438  33.079  38.198  1.00  0.00     0.040 A 
ATOM     90  C   UNL A   1      42.471  32.226  39.073  1.00  0.00     0.040 A 
ATOM     91  F   UNL A   1      44.129  31.341  37.649  1.00  0.00    -0.206 F 
ATOM     92  C   UNL A   1      41.249  32.864  39.283  1.00  0.00     0.006 A 
ENDBRANCH  68  85
ENDBRANCH  42  43
ENDBRANCH  35  37
ENDBRANCH  34  35
ENDBRANCH  33  34
ENDBRANCH  32  33
ENDBRANCH  31  32
ENDBRANCH  30  31
ENDBRANCH  29  30
ENDBRANCH   1  29
TORSDOF 23
ENDMDL
MODEL 2
REMARK VINA RESULT:      -9.1      4.085      9.948
REMARK SMILES Cc1ccc(C)c(-n2nc(C)c(C=C(C#N)C(=O)OCCOCCOCCOCCOC(=O)c3ccc(-c4c5nc(c(-c6c(F)cccc6F)c6ccc([nH]6)c(-c6c(F)cccc6F)c6nc(c(-c7c(F)cccc7F)c7ccc4[nH]7)C=C6)C=C5)cc3)c2Cl)c1
REMARK SMILES IDX 25 1 24 2 23 3 22 4 21 5 20 6 19 7 17 8 18 9 14 10 13 11
REMARK SMILES IDX 12 12 8 13 9 14 88 15 10 16 89 17 11 18 7 19 1 20 2 21 3 22
REMARK SMILES IDX 90 23 4 24 5 25 6 26 15 27 16 28 26 29 27 30 28 31 29 32
REMARK SMILES IDX 30 33 31 34 32 35 33 36 34 37 35 38 87 39 36 40 86 41 37 42
REMARK SMILES IDX 38 43 39 44 80 45 40 46 85 47 79 48 81 49 41 50 84 51 78 52
REMARK SMILES IDX 77 53 42 55 68 56 51 57 67 58 52 59 55 60 66 61 82 62 53 63
REMARK SMILES IDX 54 64 65 66 83 67 56 68 43 69 44 70 49 71 45 72 46 73 48 74
REMARK SMILES IDX 50 75 47 76 69 77 70 78 75 79 71 80 72 81 74 82 76 83 73 84
REMARK SMILES IDX 57 85 58 86 63 87 59 88 60 89 62 90 64 91 61 92
REMARK H PARENT 81 54 55 65
REMARK Flexibility Score: inf
ROOT
ATOM      1  O   UNL A   1      34.265  22.728  23.768  1.00  0.00    -0.377 OA
ENDROOT
BRANCH   1   2
ATOM      2  C   UNL A   1      33.037  23.342  23.392  1.00  0.00     0.188 C 
BRANCH   2   3
ATOM      3  C   UNL A   1      31.678  22.988  24.080  1.00  0.00     0.188 C 
BRANCH   3   4
ATOM      4  O   UNL A   1      30.852  23.917  24.793  1.00  0.00    -0.376 OA
BRANCH   4   5
ATOM      5  C   UNL A   1      31.042  25.321  25.000  1.00  0.00     0.202 C 
BRANCH   5   6
ATOM      6  C   UNL A   1      32.156  25.831  25.943  1.00  0.00     0.261 C 
BRANCH   6   7
ATOM      7  O   UNL A   1      32.478  27.206  25.720  1.00  0.00    -0.459 OA
BRANCH   7   8
ATOM      8  C   UNL A   1      31.935  27.998  26.644  1.00  0.00     0.348 C 
ATOM      9  O   UNL A   1      31.149  27.464  27.437  1.00  0.00    -0.245 OA
BRANCH   8  10
ATOM     10  C   UNL A   1      32.377  29.647  26.666  1.00  0.00     0.138 C 
ATOM     11  C   UNL A   1      33.728  30.140  26.625  1.00  0.00     0.040 C 
BRANCH  11  12
ATOM     12  C   UNL A   1      34.570  31.118  27.579  1.00  0.00     0.037 A 
ATOM     13  N   UNL A   1      36.248  32.133  28.812  1.00  0.00    -0.221 N 
ATOM     14  N   UNL A   1      35.627  33.070  28.106  1.00  0.00    -0.171 NA
ATOM     15  C   UNL A   1      35.598  30.897  28.541  1.00  0.00     0.140 A 
ATOM     16  C   UNL A   1      34.440  32.489  27.982  1.00  0.00     0.069 A 
ATOM     17  Cl  UNL A   1      36.118  29.510  29.374  1.00  0.00    -0.061 Cl
ATOM     18  C   UNL A   1      33.379  33.450  28.132  1.00  0.00     0.069 C 
BRANCH  13  19
ATOM     19  C   UNL A   1      37.144  32.717  29.760  1.00  0.00     0.069 A 
ATOM     20  C   UNL A   1      40.118  35.126  29.247  1.00  0.00     0.044 C 
ATOM     21  C   UNL A   1      38.983  34.376  29.889  1.00  0.00    -0.049 A 
ATOM     22  C   UNL A   1      38.624  34.669  31.202  1.00  0.00     0.004 A 
ATOM     23  C   UNL A   1      38.254  33.396  29.187  1.00  0.00     0.032 A 
ATOM     24  C   UNL A   1      37.480  34.091  31.752  1.00  0.00     0.006 A 
ATOM     25  C   UNL A   1      36.684  33.181  31.016  1.00  0.00    -0.025 A 
ATOM     26  C   UNL A   1      35.320  32.906  31.596  1.00  0.00     0.047 C 
ENDBRANCH  13  19
ENDBRANCH  11  12
BRANCH  10  27
ATOM     27  C   UNL A   1      31.530  29.473  25.415  1.00  0.00     0.107 C 
ATOM     28  N   UNL A   1      30.827  29.329  24.378  1.00  0.00    -0.192 NA
ENDBRANCH  10  27
ENDBRANCH   8  10
ENDBRANCH   7   8
ENDBRANCH   6   7
ENDBRANCH   5   6
ENDBRANCH   4   5
ENDBRANCH   3   4
ENDBRANCH   2   3
ENDBRANCH   1   2
BRANCH   1  29
ATOM     29  C   UNL A   1      35.403  23.538  23.538  1.00  0.00     0.188 C 
BRANCH  29  30
ATOM     30  C   UNL A   1      36.664  22.673  23.511  1.00  0.00     0.188 C 
BRANCH  30  31
ATOM     31  O   UNL A   1      37.197  22.505  24.809  1.00  0.00    -0.376 OA
BRANCH  31  32
ATOM     32  C   UNL A   1      37.734  21.268  25.211  1.00  0.00     0.202 C 
BRANCH  32  33
ATOM     33  C   UNL A   1      39.086  21.602  25.812  1.00  0.00     0.261 C 
BRANCH  33  34
ATOM     34  O   UNL A   1      39.623  20.422  26.490  1.00  0.00    -0.460 OA
BRANCH  34  35
ATOM     35  C   UNL A   1      40.922  20.037  26.205  1.00  0.00     0.338 C 
ATOM     36  O   UNL A   1      41.239  18.971  25.747  1.00  0.00    -0.246 OA
BRANCH  35  37
ATOM     37  C   UNL A   1      41.888  21.117  26.676  1.00  0.00     0.060 A 
ATOM     38  C   UNL A   1      42.089  21.475  28.012  1.00  0.00     0.016 A 
ATOM     39  C   UNL A   1      42.445  21.959  25.737  1.00  0.00     0.016 A 
ATOM     40  C   UNL A   1      42.698  22.740  28.358  1.00  0.00     0.010 A 
ATOM     41  C   UNL A   1      42.908  23.245  26.088  1.00  0.00     0.010 A 
ATOM     42  C   UNL A   1      42.996  23.761  27.405  1.00  0.00    -0.014 A 
BRANCH  42  43
ATOM     43  C   UNL A   1      43.648  25.197  27.950  1.00  0.00     0.031 A 
ATOM     44  C   UNL A   1      42.466  26.081  27.742  1.00  0.00     0.074 A 
ATOM     45  C   UNL A   1      44.531  25.876  28.908  1.00  0.00     0.049 A 
ATOM     46  N   UNL A   1      42.480  27.227  27.157  1.00  0.00    -0.248 NA
ATOM     47  C   UNL A   1      41.091  25.659  28.128  1.00  0.00     0.031 C 
ATOM     48  C   UNL A   1      45.878  26.274  28.461  1.00  0.00     0.029 A 
ATOM     49  N   UNL A   1      44.891  25.905  30.326  1.00  0.00    -0.354 N 
ATOM     50  C   UNL A   1      41.401  27.829  27.769  1.00  0.00     0.074 A 
ATOM     51  C   UNL A   1      40.422  26.801  27.986  1.00  0.00     0.031 C 
ATOM     52  C   UNL A   1      46.829  26.315  29.434  1.00  0.00     0.029 A 
ATOM     53  C   UNL A   1      46.271  25.977  30.737  1.00  0.00     0.049 A 
ATOM     54  H   UNL A   1      44.182  25.875  31.007  1.00  0.00     0.167 HD
ATOM     55  C   UNL A   1      41.710  28.851  28.612  1.00  0.00     0.037 A 
ATOM     56  C   UNL A   1      47.018  26.200  31.903  1.00  0.00     0.037 A 
ATOM     57  C   UNL A   1      43.006  29.437  28.298  1.00  0.00     0.049 A 
ATOM     58  C   UNL A   1      47.045  27.696  31.944  1.00  0.00     0.074 A 
ATOM     59  C   UNL A   1      43.572  29.813  27.090  1.00  0.00     0.029 A 
ATOM     60  N   UNL A   1      44.053  29.279  29.181  1.00  0.00    -0.354 N 
ATOM     61  N   UNL A   1      47.693  28.432  31.080  1.00  0.00    -0.248 NA
ATOM     62  C   UNL A   1      45.862  28.321  32.544  1.00  0.00     0.031 C 
ATOM     63  C   UNL A   1      44.972  29.818  27.251  1.00  0.00     0.029 A 
ATOM     64  C   UNL A   1      45.265  29.600  28.586  1.00  0.00     0.049 A 
ATOM     65  H   UNL A   1      43.954  28.977  30.114  1.00  0.00     0.167 HD
ATOM     66  C   UNL A   1      46.674  29.231  30.573  1.00  0.00     0.074 A 
ATOM     67  C   UNL A   1      45.651  29.263  31.623  1.00  0.00     0.031 C 
ATOM     68  C   UNL A   1      46.553  29.446  29.225  1.00  0.00     0.037 A 
BRANCH  55  69
ATOM     69  C   UNL A   1      40.982  29.072  29.899  1.00  0.00     0.057 A 
ATOM     70  C   UNL A   1      41.390  28.350  31.015  1.00  0.00     0.134 A 
ATOM     71  C   UNL A   1      39.821  29.860  30.062  1.00  0.00     0.134 A 
ATOM     72  F   UNL A   1      42.476  27.567  30.952  1.00  0.00    -0.206 F 
ATOM     73  C   UNL A   1      40.687  28.398  32.221  1.00  0.00     0.040 A 
ATOM     74  C   UNL A   1      39.119  29.936  31.266  1.00  0.00     0.040 A 
ATOM     75  F   UNL A   1      39.293  30.569  29.061  1.00  0.00    -0.206 F 
ATOM     76  C   UNL A   1      39.549  29.191  32.351  1.00  0.00     0.006 A 
ENDBRANCH  55  69
BRANCH  56  77
ATOM     77  C   UNL A   1      47.450  25.413  33.179  1.00  0.00     0.057 A 
ATOM     78  C   UNL A   1      48.775  25.395  33.688  1.00  0.00     0.134 A 
ATOM     79  C   UNL A   1      46.646  24.472  33.853  1.00  0.00     0.134 A 
ATOM     80  F   UNL A   1      49.759  26.035  33.041  1.00  0.00    -0.206 F 
ATOM     81  C   UNL A   1      49.185  24.686  34.855  1.00  0.00     0.040 A 
ATOM     82  C   UNL A   1      47.016  23.795  35.051  1.00  0.00     0.040 A 
ATOM     83  F   UNL A   1      45.471  24.098  33.341  1.00  0.00    -0.206 F 
ATOM     84  C   UNL A   1      48.283  23.932  35.584  1.00  0.00     0.006 A 
ENDBRANCH  56  77
BRANCH  68  85
ATOM     85  C   UNL A   1      47.810  29.406  28.354  1.00  0.00     0.057 A 
ATOM     86  C   UNL A   1      48.118  28.477  27.346  1.00  0.00     0.134 A 
ATOM     87  C   UNL A   1      48.655  30.502  28.323  1.00  0.00     0.134 A 
ATOM     88  F   UNL A   1      47.147  28.030  26.554  1.00  0.00    -0.206 F 
ATOM     89  C   UNL A   1      49.348  28.347  26.711  1.00  0.00     0.040 A 
ATOM     90  C   UNL A   1      49.778  30.550  27.476  1.00  0.00     0.040 A 
ATOM     91  F   UNL A   1      48.322  31.615  28.994  1.00  0.00    -0.206 F 
ATOM     92  C   UNL A   1      50.177  29.438  26.735  1.00  0.00     0.006 A 
ENDBRANCH  68  85
ENDBRANCH  42  43
ENDBRANCH  35  37
ENDBRANCH  34  35
ENDBRANCH  33  34
ENDBRANCH  32  33
ENDBRANCH  31  32
ENDBRANCH  30  31
ENDBRANCH  29  30
ENDBRANCH   1  29
TORSDOF 23
ENDMDL
MODEL 3
REMARK VINA RESULT:      -9.0      2.362      5.672
REMARK SMILES Cc1ccc(C)c(-n2nc(C)c(C=C(C#N)C(=O)OCCOCCOCCOCCOC(=O)c3ccc(-c4c5nc(c(-c6c(F)cccc6F)c6ccc([nH]6)c(-c6c(F)cccc6F)c6nc(c(-c7c(F)cccc7F)c7ccc4[nH]7)C=C6)C=C5)cc3)c2Cl)c1
REMARK SMILES IDX 25 1 24 2 23 3 22 4 21 5 20 6 19 7 17 8 18 9 14 10 13 11
REMARK SMILES IDX 12 12 8 13 9 14 88 15 10 16 89 17 11 18 7 19 1 20 2 21 3 22
REMARK SMILES IDX 90 23 4 24 5 25 6 26 15 27 16 28 26 29 27 30 28 31 29 32
REMARK SMILES IDX 30 33 31 34 32 35 33 36 34 37 35 38 87 39 36 40 86 41 37 42
REMARK SMILES IDX 38 43 39 44 80 45 40 46 85 47 79 48 81 49 41 50 84 51 78 52
REMARK SMILES IDX 77 53 42 55 68 56 51 57 67 58 52 59 55 60 66 61 82 62 53 63
REMARK SMILES IDX 54 64 65 66 83 67 56 68 43 69 44 70 49 71 45 72 46 73 48 74
REMARK SMILES IDX 50 75 47 76 69 77 70 78 75 79 71 80 72 81 74 82 76 83 73 84
REMARK SMILES IDX 57 85 58 86 63 87 59 88 60 89 62 90 64 91 61 92
REMARK H PARENT 81 54 55 65
REMARK Flexibility Score: inf
ROOT
ATOM      1  O   UNL A   1      33.863  25.157  22.223  1.00  0.00    -0.377 OA
ENDROOT
BRANCH   1   2
ATOM      2  C   UNL A   1      33.992  23.834  22.732  1.00  0.00     0.188 C 
BRANCH   2   3
ATOM      3  C   UNL A   1      32.797  22.825  22.756  1.00  0.00     0.188 C 
BRANCH   3   4
ATOM      4  O   UNL A   1      32.531  21.892  23.812  1.00  0.00    -0.376 OA
BRANCH   4   5
ATOM      5  C   UNL A   1      33.049  20.571  24.001  1.00  0.00     0.202 C 
BRANCH   5   6
ATOM      6  C   UNL A   1      34.191  20.313  25.010  1.00  0.00     0.261 C 
BRANCH   6   7
ATOM      7  O   UNL A   1      35.066  21.434  25.150  1.00  0.00    -0.459 OA
BRANCH   7   8
ATOM      8  C   UNL A   1      35.038  21.934  26.385  1.00  0.00     0.348 C 
ATOM      9  O   UNL A   1      34.334  21.334  27.209  1.00  0.00    -0.245 OA
BRANCH   8  10
ATOM     10  C   UNL A   1      35.970  23.324  26.724  1.00  0.00     0.138 C 
ATOM     11  C   UNL A   1      37.169  23.703  26.026  1.00  0.00     0.040 C 
BRANCH  11  12
ATOM     12  C   UNL A   1      38.666  24.024  26.508  1.00  0.00     0.037 A 
ATOM     13  N   UNL A   1      40.968  24.063  26.766  1.00  0.00    -0.221 N 
ATOM     14  N   UNL A   1      40.538  25.317  26.683  1.00  0.00    -0.171 NA
ATOM     15  C   UNL A   1      39.825  23.218  26.695  1.00  0.00     0.140 A 
ATOM     16  C   UNL A   1      39.303  25.147  27.136  1.00  0.00     0.069 A 
ATOM     17  Cl  UNL A   1      40.049  21.541  26.863  1.00  0.00    -0.061 Cl
ATOM     18  C   UNL A   1      38.918  26.231  28.001  1.00  0.00     0.069 C 
BRANCH  13  19
ATOM     19  C   UNL A   1      42.344  24.019  27.147  1.00  0.00     0.069 A 
ATOM     20  C   UNL A   1      43.975  23.699  30.632  1.00  0.00     0.044 C 
ATOM     21  C   UNL A   1      43.770  23.654  29.143  1.00  0.00    -0.049 A 
ATOM     22  C   UNL A   1      44.772  23.132  28.329  1.00  0.00     0.004 A 
ATOM     23  C   UNL A   1      42.577  24.105  28.546  1.00  0.00     0.032 A 
ATOM     24  C   UNL A   1      44.532  22.944  26.968  1.00  0.00     0.006 A 
ATOM     25  C   UNL A   1      43.296  23.302  26.379  1.00  0.00    -0.025 A 
ATOM     26  C   UNL A   1      43.052  22.740  25.002  1.00  0.00     0.047 C 
ENDBRANCH  13  19
ENDBRANCH  11  12
BRANCH  10  27
ATOM     27  C   UNL A   1      34.595  23.846  26.335  1.00  0.00     0.107 C 
ATOM     28  N   UNL A   1      33.456  24.279  26.013  1.00  0.00    -0.192 NA
ENDBRANCH  10  27
ENDBRANCH   8  10
ENDBRANCH   7   8
ENDBRANCH   6   7
ENDBRANCH   5   6
ENDBRANCH   4   5
ENDBRANCH   3   4
ENDBRANCH   2   3
ENDBRANCH   1   2
BRANCH   1  29
ATOM     29  C   UNL A   1      32.593  25.736  22.454  1.00  0.00     0.188 C 
BRANCH  29  30
ATOM     30  C   UNL A   1      32.756  27.173  22.952  1.00  0.00     0.188 C 
BRANCH  30  31
ATOM     31  O   UNL A   1      33.485  27.215  24.161  1.00  0.00    -0.376 OA
BRANCH  31  32
ATOM     32  C   UNL A   1      33.732  28.440  24.809  1.00  0.00     0.202 C 
BRANCH  32  33
ATOM     33  C   UNL A   1      33.258  28.233  26.236  1.00  0.00     0.261 C 
BRANCH  33  34
ATOM     34  O   UNL A   1      34.308  28.658  27.164  1.00  0.00    -0.460 OA
BRANCH  34  35
ATOM     35  C   UNL A   1      34.352  29.991  27.535  1.00  0.00     0.338 C 
ATOM     36  O   UNL A   1      33.407  30.735  27.545  1.00  0.00    -0.246 OA
BRANCH  35  37
ATOM     37  C   UNL A   1      35.796  30.397  27.803  1.00  0.00     0.060 A 
ATOM     38  C   UNL A   1      36.901  29.557  27.639  1.00  0.00     0.016 A 
ATOM     39  C   UNL A   1      36.036  31.585  28.461  1.00  0.00     0.016 A 
ATOM     40  C   UNL A   1      38.165  29.859  28.274  1.00  0.00     0.010 A 
ATOM     41  C   UNL A   1      37.228  31.793  29.187  1.00  0.00     0.010 A 
ATOM     42  C   UNL A   1      38.343  30.920  29.214  1.00  0.00    -0.014 A 
BRANCH  42  43
ATOM     43  C   UNL A   1      39.844  31.121  29.914  1.00  0.00     0.031 A 
ATOM     44  C   UNL A   1      39.457  30.950  31.344  1.00  0.00     0.074 A 
ATOM     45  C   UNL A   1      41.294  30.900  29.831  1.00  0.00     0.049 A 
ATOM     46  N   UNL A   1      39.791  31.732  32.310  1.00  0.00    -0.248 NA
ATOM     47  C   UNL A   1      38.536  29.866  31.784  1.00  0.00     0.031 C 
ATOM     48  C   UNL A   1      42.151  32.017  29.394  1.00  0.00     0.029 A 
ATOM     49  N   UNL A   1      42.288  29.882  29.492  1.00  0.00    -0.354 N 
ATOM     50  C   UNL A   1      39.746  30.848  33.368  1.00  0.00     0.074 A 
ATOM     51  C   UNL A   1      38.659  29.947  33.107  1.00  0.00     0.031 C 
ATOM     52  C   UNL A   1      43.301  31.659  28.760  1.00  0.00     0.029 A 
ATOM     53  C   UNL A   1      43.438  30.210  28.686  1.00  0.00     0.049 A 
ATOM     54  H   UNL A   1      42.171  28.962  29.818  1.00  0.00     0.167 HD
ATOM     55  C   UNL A   1      40.953  30.533  33.911  1.00  0.00     0.037 A 
ATOM     56  C   UNL A   1      44.657  29.637  28.298  1.00  0.00     0.037 A 
ATOM     57  C   UNL A   1      41.950  31.560  33.640  1.00  0.00     0.049 A 
ATOM     58  C   UNL A   1      45.522  29.981  29.470  1.00  0.00     0.074 A 
ATOM     59  C   UNL A   1      41.889  32.942  33.730  1.00  0.00     0.029 A 
ATOM     60  N   UNL A   1      43.005  31.275  32.800  1.00  0.00    -0.354 N 
ATOM     61  N   UNL A   1      45.893  31.200  29.762  1.00  0.00    -0.248 NA
ATOM     62  C   UNL A   1      45.416  29.064  30.609  1.00  0.00     0.031 C 
ATOM     63  C   UNL A   1      42.883  33.474  32.885  1.00  0.00     0.029 A 
ATOM     64  C   UNL A   1      43.654  32.434  32.397  1.00  0.00     0.049 A 
ATOM     65  H   UNL A   1      43.265  30.367  32.521  1.00  0.00     0.167 HD
ATOM     66  C   UNL A   1      45.408  31.337  31.058  1.00  0.00     0.074 A 
ATOM     67  C   UNL A   1      45.315  29.971  31.582  1.00  0.00     0.031 C 
ATOM     68  C   UNL A   1      44.740  32.470  31.442  1.00  0.00     0.037 A 
BRANCH  55  69
ATOM     69  C   UNL A   1      41.279  29.154  34.385  1.00  0.00     0.057 A 
ATOM     70  C   UNL A   1      41.506  28.964  35.745  1.00  0.00     0.134 A 
ATOM     71  C   UNL A   1      41.507  28.032  33.558  1.00  0.00     0.134 A 
ATOM     72  F   UNL A   1      41.323  29.975  36.605  1.00  0.00    -0.206 F 
ATOM     73  C   UNL A   1      41.940  27.739  36.255  1.00  0.00     0.040 A 
ATOM     74  C   UNL A   1      41.921  26.796  34.054  1.00  0.00     0.040 A 
ATOM     75  F   UNL A   1      41.372  28.085  32.230  1.00  0.00    -0.206 F 
ATOM     76  C   UNL A   1      42.150  26.650  35.412  1.00  0.00     0.006 A 
ENDBRANCH  55  69
BRANCH  56  77
ATOM     77  C   UNL A   1      45.174  28.573  27.281  1.00  0.00     0.057 A 
ATOM     78  C   UNL A   1      44.419  27.447  26.859  1.00  0.00     0.134 A 
ATOM     79  C   UNL A   1      46.504  28.478  26.822  1.00  0.00     0.134 A 
ATOM     80  F   UNL A   1      43.204  27.214  27.375  1.00  0.00    -0.206 F 
ATOM     81  C   UNL A   1      44.874  26.469  25.927  1.00  0.00     0.040 A 
ATOM     82  C   UNL A   1      46.966  27.545  25.851  1.00  0.00     0.040 A 
ATOM     83  F   UNL A   1      47.457  29.250  27.352  1.00  0.00    -0.206 F 
ATOM     84  C   UNL A   1      46.135  26.553  25.365  1.00  0.00     0.006 A 
ENDBRANCH  56  77
BRANCH  68  85
ATOM     85  C   UNL A   1      45.074  33.795  30.754  1.00  0.00     0.057 A 
ATOM     86  C   UNL A   1      44.232  34.564  29.933  1.00  0.00     0.134 A 
ATOM     87  C   UNL A   1      46.207  34.495  31.132  1.00  0.00     0.134 A 
ATOM     88  F   UNL A   1      42.939  34.659  30.233  1.00  0.00    -0.206 F 
ATOM     89  C   UNL A   1      44.623  35.655  29.164  1.00  0.00     0.040 A 
ATOM     90  C   UNL A   1      46.516  35.757  30.591  1.00  0.00     0.040 A 
ATOM     91  F   UNL A   1      46.956  34.043  32.149  1.00  0.00    -0.206 F 
ATOM     92  C   UNL A   1      45.773  36.299  29.542  1.00  0.00     0.006 A 
ENDBRANCH  68  85
ENDBRANCH  42  43
ENDBRANCH  35  37
ENDBRANCH  34  35
ENDBRANCH  33  34
ENDBRANCH  32  33
ENDBRANCH  31  32
ENDBRANCH  30  31
ENDBRANCH  29  30
ENDBRANCH   1  29
TORSDOF 23
ENDMDL
