MODEL 1
REMARK VINA RESULT:     -10.5      0.000      0.000
REMARK SMILES O=C(Cc1ccn[nH]1)Nc1sc2c(c1C(=O)OCCOCCOCCOCCOC(=O)c1ccc(-c3c4nc(c(-c5c(F)cccc5F)c5ccc([nH]5)c(-c5c(F)cccc5F)c5nc(c(-c6c(F)cccc6F)c6ccc3[nH]6)C=C5)C=C4)cc1)CCC2
REMARK SMILES IDX 22 1 21 2 20 3 19 4 18 5 17 6 15 7 16 8 14 9 10 10 11 11
REMARK SMILES IDX 12 12 13 13 88 14 86 15 87 16 9 17 1 18 2 19 3 21 4 22 5 23
REMARK SMILES IDX 8 24 6 25 7 26 23 28 24 29 25 30 26 31 27 32 28 33 29 34
REMARK SMILES IDX 30 35 31 36 32 37 33 38 85 39 34 40 84 41 35 42 36 43 37 44
REMARK SMILES IDX 78 45 38 46 83 47 77 48 79 49 39 50 82 51 76 52 75 53 40 55
REMARK SMILES IDX 66 56 49 57 65 58 50 59 53 60 64 61 80 62 51 63 52 64 63 66
REMARK SMILES IDX 81 67 54 68 41 69 42 70 47 71 43 72 44 73 46 74 48 75 45 76
REMARK SMILES IDX 67 77 68 78 73 79 69 80 70 81 72 82 74 83 71 84 55 85 56 86
REMARK SMILES IDX 61 87 57 88 58 89 60 90 62 91 59 92
REMARK H PARENT 9 20 8 27 79 54 53 65
REMARK Flexibility Score: inf
ROOT
ATOM      1  C   UNL A   1      34.387  33.142  28.943  1.00  0.00     0.188 C 
ENDROOT
BRANCH   1   2
ATOM      2  C   UNL A   1      34.517  32.122  27.782  1.00  0.00     0.188 C 
BRANCH   2   3
ATOM      3  O   UNL A   1      33.587  31.058  27.839  1.00  0.00    -0.376 OA
BRANCH   3   4
ATOM      4  C   UNL A   1      32.823  30.762  26.693  1.00  0.00     0.202 C 
BRANCH   4   5
ATOM      5  C   UNL A   1      31.816  29.608  26.791  1.00  0.00     0.261 C 
BRANCH   5   6
ATOM      6  O   UNL A   1      32.037  28.481  25.930  1.00  0.00    -0.460 OA
BRANCH   6   7
ATOM      7  C   UNL A   1      31.426  27.310  26.260  1.00  0.00     0.341 C 
ATOM      8  O   UNL A   1      30.843  27.118  27.321  1.00  0.00    -0.246 OA
BRANCH   7   9
ATOM      9  C   UNL A   1      31.466  26.342  25.168  1.00  0.00     0.098 A 
ATOM     10  C   UNL A   1      30.383  26.030  24.352  1.00  0.00     0.110 A 
ATOM     11  S   UNL A   1      30.648  24.675  23.337  1.00  0.00    -0.122 S 
ATOM     12  C   UNL A   1      32.266  24.674  23.761  1.00  0.00     0.011 A 
ATOM     13  C   UNL A   1      32.596  25.605  24.708  1.00  0.00    -0.017 A 
ATOM     14  C   UNL A   1      33.403  23.843  23.305  1.00  0.00     0.047 C 
ATOM     15  C   UNL A   1      34.051  25.567  25.012  1.00  0.00     0.038 C 
ATOM     16  C   UNL A   1      34.611  24.636  23.890  1.00  0.00     0.010 C 
BRANCH  10  17
ATOM     17  N   UNL A   1      29.173  26.674  24.170  1.00  0.00    -0.317 N 
ATOM     18  O   UNL A   1      30.019  27.947  22.426  1.00  0.00    -0.274 OA
ATOM     19  C   UNL A   1      29.111  27.677  23.210  1.00  0.00     0.230 C 
ATOM     20  H   UNL A   1      28.381  26.431  24.703  1.00  0.00     0.170 HD
BRANCH  19  21
ATOM     21  C   UNL A   1      27.777  28.393  23.122  1.00  0.00     0.155 C 
BRANCH  21  22
ATOM     22  C   UNL A   1      27.910  29.790  22.612  1.00  0.00     0.044 A 
ATOM     23  C   UNL A   1      28.115  30.972  23.294  1.00  0.00     0.045 A 
ATOM     24  N   UNL A   1      27.891  30.137  21.283  1.00  0.00    -0.282 N 
ATOM     25  C   UNL A   1      28.124  31.968  22.303  1.00  0.00     0.135 A 
ATOM     26  N   UNL A   1      27.959  31.463  21.079  1.00  0.00    -0.184 NA
ATOM     27  H   UNL A   1      27.832  29.480  20.553  1.00  0.00     0.190 HD
ENDBRANCH  21  22
ENDBRANCH  19  21
ENDBRANCH  10  17
ENDBRANCH   7   9
ENDBRANCH   6   7
ENDBRANCH   5   6
ENDBRANCH   4   5
ENDBRANCH   3   4
ENDBRANCH   2   3
ENDBRANCH   1   2
BRANCH   1  28
ATOM     28  O   UNL A   1      33.214  33.935  29.116  1.00  0.00    -0.377 OA
BRANCH  28  29
ATOM     29  C   UNL A   1      33.352  35.315  29.415  1.00  0.00     0.188 C 
BRANCH  29  30
ATOM     30  C   UNL A   1      32.861  35.847  30.789  1.00  0.00     0.188 C 
BRANCH  30  31
ATOM     31  O   UNL A   1      32.859  34.907  31.850  1.00  0.00    -0.376 OA
BRANCH  31  32
ATOM     32  C   UNL A   1      33.996  34.535  32.609  1.00  0.00     0.202 C 
BRANCH  32  33
ATOM     33  C   UNL A   1      34.515  33.097  32.610  1.00  0.00     0.261 C 
BRANCH  33  34
ATOM     34  O   UNL A   1      35.767  32.958  31.986  1.00  0.00    -0.460 OA
BRANCH  34  35
ATOM     35  C   UNL A   1      36.347  31.768  32.178  1.00  0.00     0.338 C 
ATOM     36  O   UNL A   1      36.534  31.192  33.248  1.00  0.00    -0.246 OA
BRANCH  35  37
ATOM     37  C   UNL A   1      36.757  31.251  30.870  1.00  0.00     0.060 A 
ATOM     38  C   UNL A   1      36.587  29.877  30.714  1.00  0.00     0.016 A 
ATOM     39  C   UNL A   1      37.730  31.991  30.184  1.00  0.00     0.016 A 
ATOM     40  C   UNL A   1      37.676  29.186  30.271  1.00  0.00     0.010 A 
ATOM     41  C   UNL A   1      38.830  31.304  29.775  1.00  0.00     0.010 A 
ATOM     42  C   UNL A   1      38.822  29.927  29.972  1.00  0.00    -0.014 A 
BRANCH  42  43
ATOM     43  C   UNL A   1      40.076  29.231  29.971  1.00  0.00     0.031 A 
ATOM     44  C   UNL A   1      40.643  29.100  31.316  1.00  0.00     0.074 A 
ATOM     45  C   UNL A   1      40.570  28.713  28.833  1.00  0.00     0.049 A 
ATOM     46  N   UNL A   1      41.672  29.712  31.792  1.00  0.00    -0.248 NA
ATOM     47  C   UNL A   1      39.835  28.385  32.316  1.00  0.00     0.031 C 
ATOM     48  C   UNL A   1      39.929  28.584  27.519  1.00  0.00     0.029 A 
ATOM     49  N   UNL A   1      41.753  28.077  28.663  1.00  0.00    -0.354 N 
ATOM     50  C   UNL A   1      41.754  29.294  33.112  1.00  0.00     0.074 A 
ATOM     51  C   UNL A   1      40.493  28.685  33.432  1.00  0.00     0.031 C 
ATOM     52  C   UNL A   1      40.638  27.710  26.767  1.00  0.00     0.029 A 
ATOM     53  C   UNL A   1      41.828  27.321  27.502  1.00  0.00     0.049 A 
ATOM     54  H   UNL A   1      42.496  28.145  29.306  1.00  0.00     0.167 HD
ATOM     55  C   UNL A   1      42.946  29.240  33.759  1.00  0.00     0.037 A 
ATOM     56  C   UNL A   1      42.759  26.361  27.281  1.00  0.00     0.037 A 
ATOM     57  C   UNL A   1      43.959  29.988  33.059  1.00  0.00     0.049 A 
ATOM     58  C   UNL A   1      43.882  26.620  28.233  1.00  0.00     0.074 A 
ATOM     59  C   UNL A   1      44.111  31.322  32.733  1.00  0.00     0.029 A 
ATOM     60  N   UNL A   1      44.809  29.292  32.234  1.00  0.00    -0.354 N 
ATOM     61  N   UNL A   1      44.668  27.662  28.150  1.00  0.00    -0.248 NA
ATOM     62  C   UNL A   1      43.805  26.010  29.555  1.00  0.00     0.031 C 
ATOM     63  C   UNL A   1      44.694  31.322  31.434  1.00  0.00     0.029 A 
ATOM     64  C   UNL A   1      44.914  29.995  31.060  1.00  0.00     0.049 A 
ATOM     65  H   UNL A   1      45.260  28.443  32.445  1.00  0.00     0.167 HD
ATOM     66  C   UNL A   1      44.859  28.078  29.464  1.00  0.00     0.074 A 
ATOM     67  C   UNL A   1      44.360  26.982  30.288  1.00  0.00     0.031 C 
ATOM     68  C   UNL A   1      45.122  29.385  29.765  1.00  0.00     0.037 A 
BRANCH  55  69
ATOM     69  C   UNL A   1      43.266  28.224  34.814  1.00  0.00     0.057 A 
ATOM     70  C   UNL A   1      43.583  28.663  36.107  1.00  0.00     0.134 A 
ATOM     71  C   UNL A   1      43.525  26.861  34.556  1.00  0.00     0.134 A 
ATOM     72  F   UNL A   1      43.400  29.943  36.464  1.00  0.00    -0.206 F 
ATOM     73  C   UNL A   1      44.168  27.818  37.057  1.00  0.00     0.040 A 
ATOM     74  C   UNL A   1      44.051  25.996  35.514  1.00  0.00     0.040 A 
ATOM     75  F   UNL A   1      43.383  26.315  33.341  1.00  0.00    -0.206 F 
ATOM     76  C   UNL A   1      44.405  26.481  36.760  1.00  0.00     0.006 A 
ENDBRANCH  55  69
BRANCH  56  77
ATOM     77  C   UNL A   1      42.568  25.076  26.572  1.00  0.00     0.057 A 
ATOM     78  C   UNL A   1      43.312  24.755  25.429  1.00  0.00     0.134 A 
ATOM     79  C   UNL A   1      41.817  24.025  27.132  1.00  0.00     0.134 A 
ATOM     80  F   UNL A   1      44.098  25.674  24.851  1.00  0.00    -0.206 F 
ATOM     81  C   UNL A   1      43.309  23.466  24.877  1.00  0.00     0.040 A 
ATOM     82  C   UNL A   1      41.798  22.738  26.586  1.00  0.00     0.040 A 
ATOM     83  F   UNL A   1      41.139  24.186  28.276  1.00  0.00    -0.206 F 
ATOM     84  C   UNL A   1      42.555  22.451  25.459  1.00  0.00     0.006 A 
ENDBRANCH  56  77
BRANCH  68  85
ATOM     85  C   UNL A   1      45.388  30.330  28.625  1.00  0.00     0.057 A 
ATOM     86  C   UNL A   1      46.649  30.483  28.027  1.00  0.00     0.134 A 
ATOM     87  C   UNL A   1      44.306  30.944  27.986  1.00  0.00     0.134 A 
ATOM     88  F   UNL A   1      47.722  29.846  28.508  1.00  0.00    -0.206 F 
ATOM     89  C   UNL A   1      46.829  31.237  26.863  1.00  0.00     0.040 A 
ATOM     90  C   UNL A   1      44.468  31.673  26.805  1.00  0.00     0.040 A 
ATOM     91  F   UNL A   1      43.062  30.788  28.464  1.00  0.00    -0.206 F 
ATOM     92  C   UNL A   1      45.733  31.826  26.243  1.00  0.00     0.006 A 
ENDBRANCH  68  85
ENDBRANCH  42  43
ENDBRANCH  35  37
ENDBRANCH  34  35
ENDBRANCH  33  34
ENDBRANCH  32  33
ENDBRANCH  31  32
ENDBRANCH  30  31
ENDBRANCH  29  30
ENDBRANCH  28  29
ENDBRANCH   1  28
TORSDOF 23
ENDMDL
MODEL 2
REMARK VINA RESULT:     -10.3      4.390      9.050
REMARK SMILES O=C(Cc1ccn[nH]1)Nc1sc2c(c1C(=O)OCCOCCOCCOCCOC(=O)c1ccc(-c3c4nc(c(-c5c(F)cccc5F)c5ccc([nH]5)c(-c5c(F)cccc5F)c5nc(c(-c6c(F)cccc6F)c6ccc3[nH]6)C=C5)C=C4)cc1)CCC2
REMARK SMILES IDX 22 1 21 2 20 3 19 4 18 5 17 6 15 7 16 8 14 9 10 10 11 11
REMARK SMILES IDX 12 12 13 13 88 14 86 15 87 16 9 17 1 18 2 19 3 21 4 22 5 23
REMARK SMILES IDX 8 24 6 25 7 26 23 28 24 29 25 30 26 31 27 32 28 33 29 34
REMARK SMILES IDX 30 35 31 36 32 37 33 38 85 39 34 40 84 41 35 42 36 43 37 44
REMARK SMILES IDX 78 45 38 46 83 47 77 48 79 49 39 50 82 51 76 52 75 53 40 55
REMARK SMILES IDX 66 56 49 57 65 58 50 59 53 60 64 61 80 62 51 63 52 64 63 66
REMARK SMILES IDX 81 67 54 68 41 69 42 70 47 71 43 72 44 73 46 74 48 75 45 76
REMARK SMILES IDX 67 77 68 78 73 79 69 80 70 81 72 82 74 83 71 84 55 85 56 86
REMARK SMILES IDX 61 87 57 88 58 89 60 90 62 91 59 92
REMARK H PARENT 9 20 8 27 79 54 53 65
REMARK Flexibility Score: inf
ROOT
ATOM      1  C   UNL A   1      39.727  21.917  26.299  1.00  0.00     0.188 C 
ENDROOT
BRANCH   1   2
ATOM      2  C   UNL A   1      38.193  22.082  26.142  1.00  0.00     0.188 C 
BRANCH   2   3
ATOM      3  O   UNL A   1      37.766  22.280  24.808  1.00  0.00    -0.376 OA
BRANCH   3   4
ATOM      4  C   UNL A   1      36.750  23.222  24.554  1.00  0.00     0.202 C 
BRANCH   4   5
ATOM      5  C   UNL A   1      35.986  23.101  23.228  1.00  0.00     0.261 C 
BRANCH   5   6
ATOM      6  O   UNL A   1      34.621  22.664  23.305  1.00  0.00    -0.460 OA
BRANCH   6   7
ATOM      7  C   UNL A   1      33.653  23.587  23.056  1.00  0.00     0.341 C 
ATOM      8  O   UNL A   1      33.367  23.996  21.936  1.00  0.00    -0.246 OA
BRANCH   7   9
ATOM      9  C   UNL A   1      32.930  23.965  24.268  1.00  0.00     0.098 A 
ATOM     10  C   UNL A   1      32.687  23.110  25.339  1.00  0.00     0.110 A 
ATOM     11  S   UNL A   1      31.593  23.745  26.496  1.00  0.00    -0.122 S 
ATOM     12  C   UNL A   1      31.659  25.236  25.741  1.00  0.00     0.011 A 
ATOM     13  C   UNL A   1      32.409  25.250  24.597  1.00  0.00    -0.017 A 
ATOM     14  C   UNL A   1      31.047  26.541  26.082  1.00  0.00     0.047 C 
ATOM     15  C   UNL A   1      32.448  26.611  23.998  1.00  0.00     0.038 C 
ATOM     16  C   UNL A   1      31.817  27.496  25.121  1.00  0.00     0.010 C 
BRANCH  10  17
ATOM     17  N   UNL A   1      33.238  21.884  25.660  1.00  0.00    -0.317 N 
ATOM     18  O   UNL A   1      31.637  20.748  24.425  1.00  0.00    -0.274 OA
ATOM     19  C   UNL A   1      32.593  20.743  25.200  1.00  0.00     0.230 C 
ATOM     20  H   UNL A   1      34.062  21.821  26.196  1.00  0.00     0.170 HD
BRANCH  19  21
ATOM     21  C   UNL A   1      33.208  19.434  25.658  1.00  0.00     0.155 C 
BRANCH  21  22
ATOM     22  C   UNL A   1      33.374  18.458  24.540  1.00  0.00     0.044 A 
ATOM     23  C   UNL A   1      34.477  17.721  24.158  1.00  0.00     0.045 A 
ATOM     24  N   UNL A   1      32.371  18.082  23.681  1.00  0.00    -0.282 N 
ATOM     25  C   UNL A   1      34.059  17.003  23.024  1.00  0.00     0.135 A 
ATOM     26  N   UNL A   1      32.784  17.244  22.716  1.00  0.00    -0.184 NA
ATOM     27  H   UNL A   1      31.442  18.396  23.764  1.00  0.00     0.190 HD
ENDBRANCH  21  22
ENDBRANCH  19  21
ENDBRANCH  10  17
ENDBRANCH   7   9
ENDBRANCH   6   7
ENDBRANCH   5   6
ENDBRANCH   4   5
ENDBRANCH   3   4
ENDBRANCH   2   3
ENDBRANCH   1   2
BRANCH   1  28
ATOM     28  O   UNL A   1      40.380  20.679  26.024  1.00  0.00    -0.377 OA
BRANCH  28  29
ATOM     29  C   UNL A   1      41.596  20.377  26.690  1.00  0.00     0.188 C 
BRANCH  29  30
ATOM     30  C   UNL A   1      42.930  20.934  26.123  1.00  0.00     0.188 C 
BRANCH  30  31
ATOM     31  O   UNL A   1      42.812  21.807  25.012  1.00  0.00    -0.376 OA
BRANCH  31  32
ATOM     32  C   UNL A   1      43.096  23.195  25.035  1.00  0.00     0.202 C 
BRANCH  32  33
ATOM     33  C   UNL A   1      42.919  24.021  26.309  1.00  0.00     0.261 C 
BRANCH  33  34
ATOM     34  O   UNL A   1      41.770  24.831  26.290  1.00  0.00    -0.460 OA
BRANCH  34  35
ATOM     35  C   UNL A   1      42.021  26.135  26.128  1.00  0.00     0.338 C 
ATOM     36  O   UNL A   1      43.080  26.656  25.786  1.00  0.00    -0.246 OA
BRANCH  35  37
ATOM     37  C   UNL A   1      40.797  26.871  26.453  1.00  0.00     0.060 A 
ATOM     38  C   UNL A   1      40.857  28.237  26.185  1.00  0.00     0.016 A 
ATOM     39  C   UNL A   1      39.980  26.316  27.448  1.00  0.00     0.016 A 
ATOM     40  C   UNL A   1      40.496  29.065  27.208  1.00  0.00     0.010 A 
ATOM     41  C   UNL A   1      39.652  27.135  28.483  1.00  0.00     0.010 A 
ATOM     42  C   UNL A   1      40.058  28.462  28.389  1.00  0.00    -0.014 A 
BRANCH  42  43
ATOM     43  C   UNL A   1      40.130  29.239  29.592  1.00  0.00     0.031 A 
ATOM     44  C   UNL A   1      38.961  30.107  29.767  1.00  0.00     0.074 A 
ATOM     45  C   UNL A   1      41.146  29.071  30.455  1.00  0.00     0.049 A 
ATOM     46  N   UNL A   1      38.920  31.390  29.659  1.00  0.00    -0.248 NA
ATOM     47  C   UNL A   1      37.646  29.452  29.839  1.00  0.00     0.031 C 
ATOM     48  C   UNL A   1      42.194  28.043  30.464  1.00  0.00     0.029 A 
ATOM     49  N   UNL A   1      41.378  29.758  31.599  1.00  0.00    -0.354 N 
ATOM     50  C   UNL A   1      37.587  31.719  29.852  1.00  0.00     0.074 A 
ATOM     51  C   UNL A   1      36.836  30.500  29.721  1.00  0.00     0.031 C 
ATOM     52  C   UNL A   1      42.795  28.037  31.677  1.00  0.00     0.029 A 
ATOM     53  C   UNL A   1      42.257  29.128  32.469  1.00  0.00     0.049 A 
ATOM     54  H   UNL A   1      40.960  30.627  31.797  1.00  0.00     0.167 HD
ATOM     55  C   UNL A   1      37.228  32.920  30.370  1.00  0.00     0.037 A 
ATOM     56  C   UNL A   1      42.386  29.449  33.780  1.00  0.00     0.037 A 
ATOM     57  C   UNL A   1      38.317  33.861  30.321  1.00  0.00     0.049 A 
ATOM     58  C   UNL A   1      41.819  30.822  33.947  1.00  0.00     0.074 A 
ATOM     59  C   UNL A   1      39.042  34.435  29.295  1.00  0.00     0.029 A 
ATOM     60  N   UNL A   1      39.069  34.025  31.460  1.00  0.00    -0.354 N 
ATOM     61  N   UNL A   1      42.370  31.893  33.439  1.00  0.00    -0.248 NA
ATOM     62  C   UNL A   1      40.393  30.937  34.229  1.00  0.00     0.031 C 
ATOM     63  C   UNL A   1      40.379  34.505  29.779  1.00  0.00     0.029 A 
ATOM     64  C   UNL A   1      40.390  34.021  31.088  1.00  0.00     0.049 A 
ATOM     65  H   UNL A   1      38.724  34.127  32.376  1.00  0.00     0.167 HD
ATOM     66  C   UNL A   1      41.308  32.658  32.966  1.00  0.00     0.074 A 
ATOM     67  C   UNL A   1      40.113  32.051  33.542  1.00  0.00     0.031 C 
ATOM     68  C   UNL A   1      41.465  33.521  31.917  1.00  0.00     0.037 A 
BRANCH  55  69
ATOM     69  C   UNL A   1      36.018  33.118  31.235  1.00  0.00     0.057 A 
ATOM     70  C   UNL A   1      35.036  34.033  30.832  1.00  0.00     0.134 A 
ATOM     71  C   UNL A   1      35.900  32.644  32.559  1.00  0.00     0.134 A 
ATOM     72  F   UNL A   1      35.056  34.568  29.603  1.00  0.00    -0.206 F 
ATOM     73  C   UNL A   1      34.040  34.486  31.704  1.00  0.00     0.040 A 
ATOM     74  C   UNL A   1      34.876  33.042  33.416  1.00  0.00     0.040 A 
ATOM     75  F   UNL A   1      36.820  31.855  33.130  1.00  0.00    -0.206 F 
ATOM     76  C   UNL A   1      33.959  33.991  33.000  1.00  0.00     0.006 A 
ENDBRANCH  55  69
BRANCH  56  77
ATOM     77  C   UNL A   1      42.632  28.523  34.907  1.00  0.00     0.057 A 
ATOM     78  C   UNL A   1      41.903  27.335  35.050  1.00  0.00     0.134 A 
ATOM     79  C   UNL A   1      43.752  28.662  35.750  1.00  0.00     0.134 A 
ATOM     80  F   UNL A   1      40.849  27.086  34.260  1.00  0.00    -0.206 F 
ATOM     81  C   UNL A   1      42.268  26.345  35.973  1.00  0.00     0.040 A 
ATOM     82  C   UNL A   1      44.121  27.686  36.680  1.00  0.00     0.040 A 
ATOM     83  F   UNL A   1      44.578  29.712  35.642  1.00  0.00    -0.206 F 
ATOM     84  C   UNL A   1      43.384  26.516  36.788  1.00  0.00     0.006 A 
ENDBRANCH  56  77
BRANCH  68  85
ATOM     85  C   UNL A   1      42.859  33.765  31.408  1.00  0.00     0.057 A 
ATOM     86  C   UNL A   1      43.733  34.708  31.971  1.00  0.00     0.134 A 
ATOM     87  C   UNL A   1      43.400  32.886  30.465  1.00  0.00     0.134 A 
ATOM     88  F   UNL A   1      43.331  35.519  32.957  1.00  0.00    -0.206 F 
ATOM     89  C   UNL A   1      45.076  34.793  31.591  1.00  0.00     0.040 A 
ATOM     90  C   UNL A   1      44.748  32.939  30.100  1.00  0.00     0.040 A 
ATOM     91  F   UNL A   1      42.642  31.917  29.931  1.00  0.00    -0.206 F 
ATOM     92  C   UNL A   1      45.589  33.898  30.659  1.00  0.00     0.006 A 
ENDBRANCH  68  85
ENDBRANCH  42  43
ENDBRANCH  35  37
ENDBRANCH  34  35
ENDBRANCH  33  34
ENDBRANCH  32  33
ENDBRANCH  31  32
ENDBRANCH  30  31
ENDBRANCH  29  30
ENDBRANCH  28  29
ENDBRANCH   1  28
TORSDOF 23
ENDMDL
MODEL 3
REMARK VINA RESULT:     -10.2      1.682      3.440
REMARK SMILES O=C(Cc1ccn[nH]1)Nc1sc2c(c1C(=O)OCCOCCOCCOCCOC(=O)c1ccc(-c3c4nc(c(-c5c(F)cccc5F)c5ccc([nH]5)c(-c5c(F)cccc5F)c5nc(c(-c6c(F)cccc6F)c6ccc3[nH]6)C=C5)C=C4)cc1)CCC2
REMARK SMILES IDX 22 1 21 2 20 3 19 4 18 5 17 6 15 7 16 8 14 9 10 10 11 11
REMARK SMILES IDX 12 12 13 13 88 14 86 15 87 16 9 17 1 18 2 19 3 21 4 22 5 23
REMARK SMILES IDX 8 24 6 25 7 26 23 28 24 29 25 30 26 31 27 32 28 33 29 34
REMARK SMILES IDX 30 35 31 36 32 37 33 38 85 39 34 40 84 41 35 42 36 43 37 44
REMARK SMILES IDX 78 45 38 46 83 47 77 48 79 49 39 50 82 51 76 52 75 53 40 55
REMARK SMILES IDX 66 56 49 57 65 58 50 59 53 60 64 61 80 62 51 63 52 64 63 66
REMARK SMILES IDX 81 67 54 68 41 69 42 70 47 71 43 72 44 73 46 74 48 75 45 76
REMARK SMILES IDX 67 77 68 78 73 79 69 80 70 81 72 82 74 83 71 84 55 85 56 86
REMARK SMILES IDX 61 87 57 88 58 89 60 90 62 91 59 92
REMARK H PARENT 9 20 8 27 79 54 53 65
REMARK Flexibility Score: inf
ROOT
ATOM      1  C   UNL A   1      33.977  34.301  28.997  1.00  0.00     0.188 C 
ENDROOT
BRANCH   1   2
ATOM      2  C   UNL A   1      34.473  32.844  29.179  1.00  0.00     0.188 C 
BRANCH   2   3
ATOM      3  O   UNL A   1      34.848  32.205  27.973  1.00  0.00    -0.376 OA
BRANCH   3   4
ATOM      4  C   UNL A   1      34.344  30.919  27.701  1.00  0.00     0.202 C 
BRANCH   4   5
ATOM      5  C   UNL A   1      32.893  30.814  27.212  1.00  0.00     0.261 C 
BRANCH   5   6
ATOM      6  O   UNL A   1      32.668  30.070  26.006  1.00  0.00    -0.460 OA
BRANCH   6   7
ATOM      7  C   UNL A   1      31.808  29.017  26.070  1.00  0.00     0.341 C 
ATOM      8  O   UNL A   1      31.519  28.431  27.108  1.00  0.00    -0.246 OA
BRANCH   7   9
ATOM      9  C   UNL A   1      31.198  28.725  24.776  1.00  0.00     0.098 A 
ATOM     10  C   UNL A   1      31.255  27.489  24.140  1.00  0.00     0.110 A 
ATOM     11  S   UNL A   1      30.684  27.515  22.523  1.00  0.00    -0.122 S 
ATOM     12  C   UNL A   1      30.108  29.068  22.752  1.00  0.00     0.011 A 
ATOM     13  C   UNL A   1      30.407  29.601  23.976  1.00  0.00    -0.017 A 
ATOM     14  C   UNL A   1      29.342  29.975  21.867  1.00  0.00     0.047 C 
ATOM     15  C   UNL A   1      29.839  30.968  24.119  1.00  0.00     0.038 C 
ATOM     16  C   UNL A   1      28.904  31.082  22.873  1.00  0.00     0.010 C 
BRANCH  10  17
ATOM     17  N   UNL A   1      31.614  26.242  24.617  1.00  0.00    -0.317 N 
ATOM     18  O   UNL A   1      33.873  26.712  24.383  1.00  0.00    -0.274 OA
ATOM     19  C   UNL A   1      32.966  25.922  24.640  1.00  0.00     0.230 C 
ATOM     20  H   UNL A   1      30.934  25.603  24.932  1.00  0.00     0.170 HD
BRANCH  19  21
ATOM     21  C   UNL A   1      33.279  24.510  25.100  1.00  0.00     0.155 C 
BRANCH  21  22
ATOM     22  C   UNL A   1      32.104  23.842  25.735  1.00  0.00     0.044 A 
ATOM     23  C   UNL A   1      31.384  22.735  25.333  1.00  0.00     0.045 A 
ATOM     24  N   UNL A   1      31.542  24.226  26.927  1.00  0.00    -0.282 N 
ATOM     25  C   UNL A   1      30.374  22.587  26.299  1.00  0.00     0.135 A 
ATOM     26  N   UNL A   1      30.452  23.513  27.256  1.00  0.00    -0.184 NA
ATOM     27  H   UNL A   1      31.901  24.953  27.485  1.00  0.00     0.190 HD
ENDBRANCH  21  22
ENDBRANCH  19  21
ENDBRANCH  10  17
ENDBRANCH   7   9
ENDBRANCH   6   7
ENDBRANCH   5   6
ENDBRANCH   4   5
ENDBRANCH   3   4
ENDBRANCH   2   3
ENDBRANCH   1   2
BRANCH   1  28
ATOM     28  O   UNL A   1      32.767  34.761  29.598  1.00  0.00    -0.377 OA
BRANCH  28  29
ATOM     29  C   UNL A   1      32.838  35.703  30.658  1.00  0.00     0.188 C 
BRANCH  29  30
ATOM     30  C   UNL A   1      33.850  35.471  31.813  1.00  0.00     0.188 C 
BRANCH  30  31
ATOM     31  O   UNL A   1      33.433  34.573  32.828  1.00  0.00    -0.376 OA
BRANCH  31  32
ATOM     32  C   UNL A   1      33.844  33.221  32.936  1.00  0.00     0.202 C 
BRANCH  32  33
ATOM     33  C   UNL A   1      35.308  32.854  33.177  1.00  0.00     0.261 C 
BRANCH  33  34
ATOM     34  O   UNL A   1      35.789  31.880  32.283  1.00  0.00    -0.460 OA
BRANCH  34  35
ATOM     35  C   UNL A   1      37.111  31.926  32.082  1.00  0.00     0.338 C 
ATOM     36  O   UNL A   1      37.960  32.437  32.808  1.00  0.00    -0.246 OA
BRANCH  35  37
ATOM     37  C   UNL A   1      37.394  31.263  30.806  1.00  0.00     0.060 A 
ATOM     38  C   UNL A   1      36.980  29.934  30.743  1.00  0.00     0.016 A 
ATOM     39  C   UNL A   1      38.466  31.774  30.061  1.00  0.00     0.016 A 
ATOM     40  C   UNL A   1      37.921  29.034  30.334  1.00  0.00     0.010 A 
ATOM     41  C   UNL A   1      39.418  30.878  29.687  1.00  0.00     0.010 A 
ATOM     42  C   UNL A   1      39.172  29.540  29.975  1.00  0.00    -0.014 A 
BRANCH  42  43
ATOM     43  C   UNL A   1      40.284  28.633  30.005  1.00  0.00     0.031 A 
ATOM     44  C   UNL A   1      40.859  28.502  31.347  1.00  0.00     0.074 A 
ATOM     45  C   UNL A   1      40.643  27.954  28.903  1.00  0.00     0.049 A 
ATOM     46  N   UNL A   1      41.994  28.955  31.756  1.00  0.00    -0.248 NA
ATOM     47  C   UNL A   1      39.969  28.018  32.413  1.00  0.00     0.031 C 
ATOM     48  C   UNL A   1      39.949  27.845  27.614  1.00  0.00     0.029 A 
ATOM     49  N   UNL A   1      41.690  27.107  28.761  1.00  0.00    -0.354 N 
ATOM     50  C   UNL A   1      42.042  28.626  33.102  1.00  0.00     0.074 A 
ATOM     51  C   UNL A   1      40.704  28.276  33.491  1.00  0.00     0.031 C 
ATOM     52  C   UNL A   1      40.469  26.807  26.919  1.00  0.00     0.029 A 
ATOM     53  C   UNL A   1      41.594  26.267  27.661  1.00  0.00     0.049 A 
ATOM     54  H   UNL A   1      42.452  27.089  29.384  1.00  0.00     0.167 HD
ATOM     55  C   UNL A   1      43.225  28.408  33.730  1.00  0.00     0.037 A 
ATOM     56  C   UNL A   1      42.334  25.143  27.499  1.00  0.00     0.037 A 
ATOM     57  C   UNL A   1      44.332  28.911  32.957  1.00  0.00     0.049 A 
ATOM     58  C   UNL A   1      43.515  25.267  28.408  1.00  0.00     0.074 A 
ATOM     59  C   UNL A   1      44.706  30.169  32.526  1.00  0.00     0.029 A 
ATOM     60  N   UNL A   1      45.021  28.016  32.174  1.00  0.00    -0.354 N 
ATOM     61  N   UNL A   1      44.469  26.144  28.231  1.00  0.00    -0.248 NA
ATOM     62  C   UNL A   1      43.372  24.779  29.775  1.00  0.00     0.031 C 
ATOM     63  C   UNL A   1      45.239  29.971  31.221  1.00  0.00     0.029 A 
ATOM     64  C   UNL A   1      45.211  28.602  30.947  1.00  0.00     0.049 A 
ATOM     65  H   UNL A   1      45.322  27.119  32.442  1.00  0.00     0.167 HD
ATOM     66  C   UNL A   1      44.771  26.614  29.505  1.00  0.00     0.074 A 
ATOM     67  C   UNL A   1      44.112  25.687  30.421  1.00  0.00     0.031 C 
ATOM     68  C   UNL A   1      45.268  27.872  29.700  1.00  0.00     0.037 A 
BRANCH  55  69
ATOM     69  C   UNL A   1      43.394  27.432  34.856  1.00  0.00     0.057 A 
ATOM     70  C   UNL A   1      43.402  26.060  34.571  1.00  0.00     0.134 A 
ATOM     71  C   UNL A   1      43.293  27.767  36.223  1.00  0.00     0.134 A 
ATOM     72  F   UNL A   1      43.473  25.619  33.306  1.00  0.00    -0.206 F 
ATOM     73  C   UNL A   1      43.262  25.092  35.571  1.00  0.00     0.040 A 
ATOM     74  C   UNL A   1      43.215  26.809  37.233  1.00  0.00     0.040 A 
ATOM     75  F   UNL A   1      43.160  29.030  36.650  1.00  0.00    -0.206 F 
ATOM     76  C   UNL A   1      43.167  25.466  36.906  1.00  0.00     0.006 A 
ENDBRANCH  55  69
BRANCH  56  77
ATOM     77  C   UNL A   1      41.899  23.865  26.895  1.00  0.00     0.057 A 
ATOM     78  C   UNL A   1      42.767  23.093  26.112  1.00  0.00     0.134 A 
ATOM     79  C   UNL A   1      40.688  23.245  27.263  1.00  0.00     0.134 A 
ATOM     80  F   UNL A   1      43.965  23.575  25.751  1.00  0.00    -0.206 F 
ATOM     81  C   UNL A   1      42.451  21.784  25.720  1.00  0.00     0.040 A 
ATOM     82  C   UNL A   1      40.358  21.944  26.871  1.00  0.00     0.040 A 
ATOM     83  F   UNL A   1      39.820  23.848  28.086  1.00  0.00    -0.206 F 
ATOM     84  C   UNL A   1      41.245  21.204  26.104  1.00  0.00     0.006 A 
ENDBRANCH  56  77
BRANCH  68  85
ATOM     85  C   UNL A   1      45.662  28.669  28.486  1.00  0.00     0.057 A 
ATOM     86  C   UNL A   1      44.784  29.531  27.810  1.00  0.00     0.134 A 
ATOM     87  C   UNL A   1      47.009  28.722  28.117  1.00  0.00     0.134 A 
ATOM     88  F   UNL A   1      43.499  29.625  28.168  1.00  0.00    -0.206 F 
ATOM     89  C   UNL A   1      45.223  30.386  26.795  1.00  0.00     0.040 A 
ATOM     90  C   UNL A   1      47.466  29.595  27.126  1.00  0.00     0.040 A 
ATOM     91  F   UNL A   1      47.917  27.973  28.763  1.00  0.00    -0.206 F 
ATOM     92  C   UNL A   1      46.571  30.426  26.457  1.00  0.00     0.006 A 
ENDBRANCH  68  85
ENDBRANCH  42  43
ENDBRANCH  35  37
ENDBRANCH  34  35
ENDBRANCH  33  34
ENDBRANCH  32  33
ENDBRANCH  31  32
ENDBRANCH  30  31
ENDBRANCH  29  30
ENDBRANCH  28  29
ENDBRANCH   1  28
TORSDOF 23
ENDMDL
