MODEL 1
REMARK VINA RESULT:      -9.5      0.000      0.000
REMARK SMILES C[C@@H](C(=O)OCCOCCOCCOCCOC(=O)c1ccc(-c2c3nc(c(-c4c(F)cccc4F)c4ccc([nH]4)c(-c4c(F)cccc4F)c4nc(c(-c5c(F)cccc5F)c5ccc2[nH]5)C=C4)C=C3)cc1)c1cc(/C=C/S(C)(=O)=O)cc(C(=O)c2ccccc2)c1
REMARK SMILES IDX 10 1 9 2 8 3 7 4 6 5 5 6 3 7 4 8 2 9 1 10 74 11 75 12 93 13
REMARK SMILES IDX 76 14 84 15 83 16 77 17 78 18 79 19 80 20 81 21 82 22 85 23
REMARK SMILES IDX 86 24 87 25 88 26 92 27 89 28 91 29 90 30 11 31 12 32 13 33
REMARK SMILES IDX 14 34 15 35 16 36 17 37 18 38 19 39 20 40 21 41 73 42 22 43
REMARK SMILES IDX 72 44 23 45 24 46 25 47 66 48 26 49 71 50 65 51 67 52 27 53
REMARK SMILES IDX 70 54 64 55 63 56 28 58 54 59 37 60 53 61 38 62 41 63 52 64
REMARK SMILES IDX 68 65 39 66 40 67 51 69 69 70 42 71 29 72 30 73 35 74 31 75
REMARK SMILES IDX 32 76 34 77 36 78 33 79 55 80 56 81 61 82 57 83 58 84 60 85
REMARK SMILES IDX 62 86 59 87 43 88 44 89 49 90 45 91 46 92 48 93 50 94 47 95
REMARK H PARENT 67 57 41 68
REMARK Flexibility Score: inf
ROOT
ATOM      1  C   UNL A   1      33.205  26.523  26.488  1.00  0.00     0.188 C 
ENDROOT
BRANCH   1   2
ATOM      2  C   UNL A   1      33.965  25.283  26.013  1.00  0.00     0.188 C 
BRANCH   2   3
ATOM      3  O   UNL A   1      34.443  25.309  24.684  1.00  0.00    -0.376 OA
BRANCH   3   4
ATOM      4  C   UNL A   1      34.263  24.200  23.816  1.00  0.00     0.202 C 
BRANCH   4   5
ATOM      5  C   UNL A   1      33.685  24.256  22.384  1.00  0.00     0.261 C 
BRANCH   5   6
ATOM      6  O   UNL A   1      33.970  25.431  21.620  1.00  0.00    -0.463 OA
BRANCH   6   7
ATOM      7  C   UNL A   1      32.980  26.002  20.897  1.00  0.00     0.313 C 
ATOM      8  O   UNL A   1      32.453  25.484  19.920  1.00  0.00    -0.252 OA
BRANCH   7   9
ATOM      9  C   UNL A   1      32.504  27.327  21.514  1.00  0.00     0.126 C 
ATOM     10  C   UNL A   1      33.670  28.126  22.144  1.00  0.00     0.025 C 
BRANCH   9  11
ATOM     11  C   UNL A   1      31.262  27.189  22.413  1.00  0.00    -0.033 A 
ATOM     12  C   UNL A   1      31.180  26.159  23.372  1.00  0.00     0.012 A 
ATOM     13  C   UNL A   1      30.197  28.113  22.364  1.00  0.00     0.016 A 
ATOM     14  C   UNL A   1      30.064  26.004  24.213  1.00  0.00    -0.024 A 
ATOM     15  C   UNL A   1      29.058  27.963  23.168  1.00  0.00     0.023 A 
ATOM     16  C   UNL A   1      29.007  26.917  24.097  1.00  0.00     0.020 A 
BRANCH  14  17
ATOM     17  C   UNL A   1      29.969  24.952  25.246  1.00  0.00     0.020 C 
ATOM     18  C   UNL A   1      30.815  23.920  25.386  1.00  0.00     0.106 C 
BRANCH  18  19
ATOM     19  S   UNL A   1      30.587  22.775  26.675  1.00  0.00     0.168 S 
ATOM     20  C   UNL A   1      28.992  23.253  27.294  1.00  0.00     0.163 C 
ATOM     21  O   UNL A   1      30.438  21.459  26.086  1.00  0.00    -0.225 OA
ATOM     22  O   UNL A   1      31.544  23.008  27.739  1.00  0.00    -0.225 OA
ENDBRANCH  18  19
ENDBRANCH  14  17
BRANCH  15  23
ATOM     23  C   UNL A   1      27.908  28.915  23.100  1.00  0.00     0.193 C 
ATOM     24  O   UNL A   1      26.767  28.528  23.333  1.00  0.00    -0.289 OA
BRANCH  23  25
ATOM     25  C   UNL A   1      28.116  30.338  22.754  1.00  0.00     0.022 A 
ATOM     26  C   UNL A   1      27.781  30.792  21.478  1.00  0.00     0.012 A 
ATOM     27  C   UNL A   1      28.662  31.220  23.690  1.00  0.00     0.012 A 
ATOM     28  C   UNL A   1      27.930  32.145  21.165  1.00  0.00     0.001 A 
ATOM     29  C   UNL A   1      28.793  32.573  23.380  1.00  0.00     0.001 A 
ATOM     30  C   UNL A   1      28.418  33.038  22.121  1.00  0.00     0.000 A 
ENDBRANCH  23  25
ENDBRANCH  15  23
ENDBRANCH   9  11
ENDBRANCH   7   9
ENDBRANCH   6   7
ENDBRANCH   5   6
ENDBRANCH   4   5
ENDBRANCH   3   4
ENDBRANCH   2   3
ENDBRANCH   1   2
BRANCH   1  31
ATOM     31  O   UNL A   1      33.240  27.593  25.565  1.00  0.00    -0.377 OA
BRANCH  31  32
ATOM     32  C   UNL A   1      33.999  28.742  25.927  1.00  0.00     0.188 C 
BRANCH  32  33
ATOM     33  C   UNL A   1      33.554  29.684  27.073  1.00  0.00     0.188 C 
BRANCH  33  34
ATOM     34  O   UNL A   1      32.913  30.884  26.657  1.00  0.00    -0.376 OA
BRANCH  34  35
ATOM     35  C   UNL A   1      32.434  31.776  27.650  1.00  0.00     0.202 C 
BRANCH  35  36
ATOM     36  C   UNL A   1      31.963  33.154  27.163  1.00  0.00     0.261 C 
BRANCH  36  37
ATOM     37  O   UNL A   1      32.831  34.256  27.470  1.00  0.00    -0.460 OA
BRANCH  37  38
ATOM     38  C   UNL A   1      33.176  34.436  28.762  1.00  0.00     0.338 C 
ATOM     39  O   UNL A   1      32.501  34.939  29.643  1.00  0.00    -0.246 OA
BRANCH  38  40
ATOM     40  C   UNL A   1      34.450  33.723  28.991  1.00  0.00     0.060 A 
ATOM     41  C   UNL A   1      34.538  32.819  30.059  1.00  0.00     0.016 A 
ATOM     42  C   UNL A   1      35.545  33.933  28.149  1.00  0.00     0.016 A 
ATOM     43  C   UNL A   1      35.735  32.150  30.311  1.00  0.00     0.010 A 
ATOM     44  C   UNL A   1      36.751  33.282  28.418  1.00  0.00     0.010 A 
ATOM     45  C   UNL A   1      36.861  32.418  29.523  1.00  0.00    -0.014 A 
BRANCH  45  46
ATOM     46  C   UNL A   1      38.199  31.972  29.981  1.00  0.00     0.031 A 
ATOM     47  C   UNL A   1      38.709  30.646  29.485  1.00  0.00     0.074 A 
ATOM     48  C   UNL A   1      38.956  32.726  30.795  1.00  0.00     0.049 A 
ATOM     49  N   UNL A   1      39.814  30.015  29.783  1.00  0.00    -0.248 NA
ATOM     50  C   UNL A   1      37.850  29.937  28.522  1.00  0.00     0.031 C 
ATOM     51  C   UNL A   1      38.594  34.046  31.305  1.00  0.00     0.029 A 
ATOM     52  N   UNL A   1      40.189  32.476  31.344  1.00  0.00    -0.354 N 
ATOM     53  C   UNL A   1      39.780  28.833  29.051  1.00  0.00     0.074 A 
ATOM     54  C   UNL A   1      38.530  28.819  28.324  1.00  0.00     0.031 C 
ATOM     55  C   UNL A   1      39.580  34.485  32.109  1.00  0.00     0.029 A 
ATOM     56  C   UNL A   1      40.622  33.462  32.195  1.00  0.00     0.049 A 
ATOM     57  H   UNL A   1      40.712  31.666  31.146  1.00  0.00     0.167 HD
ATOM     58  C   UNL A   1      40.710  27.853  28.984  1.00  0.00     0.037 A 
ATOM     59  C   UNL A   1      41.721  33.517  32.974  1.00  0.00     0.037 A 
ATOM     60  C   UNL A   1      41.949  27.865  29.716  1.00  0.00     0.049 A 
ATOM     61  C   UNL A   1      42.703  32.374  32.949  1.00  0.00     0.074 A 
ATOM     62  C   UNL A   1      42.962  26.924  29.711  1.00  0.00     0.029 A 
ATOM     63  N   UNL A   1      42.336  28.866  30.594  1.00  0.00    -0.354 N 
ATOM     64  N   UNL A   1      42.674  31.270  32.240  1.00  0.00    -0.248 NA
ATOM     65  C   UNL A   1      43.873  32.485  33.832  1.00  0.00     0.031 C 
ATOM     66  C   UNL A   1      43.936  27.326  30.631  1.00  0.00     0.029 A 
ATOM     67  C   UNL A   1      43.561  28.551  31.159  1.00  0.00     0.049 A 
ATOM     68  H   UNL A   1      41.818  29.680  30.788  1.00  0.00     0.167 HD
ATOM     69  C   UNL A   1      43.833  30.574  32.567  1.00  0.00     0.074 A 
ATOM     70  C   UNL A   1      44.550  31.386  33.528  1.00  0.00     0.031 C 
ATOM     71  C   UNL A   1      44.266  29.372  32.110  1.00  0.00     0.037 A 
BRANCH  58  72
ATOM     72  C   UNL A   1      40.402  26.669  28.113  1.00  0.00     0.057 A 
ATOM     73  C   UNL A   1      39.496  25.674  28.504  1.00  0.00     0.134 A 
ATOM     74  C   UNL A   1      41.009  26.533  26.857  1.00  0.00     0.134 A 
ATOM     75  F   UNL A   1      38.894  25.733  29.702  1.00  0.00    -0.206 F 
ATOM     76  C   UNL A   1      39.228  24.571  27.691  1.00  0.00     0.040 A 
ATOM     77  C   UNL A   1      40.724  25.451  26.024  1.00  0.00     0.040 A 
ATOM     78  F   UNL A   1      41.883  27.450  26.420  1.00  0.00    -0.206 F 
ATOM     79  C   UNL A   1      39.837  24.462  26.443  1.00  0.00     0.006 A 
ENDBRANCH  58  72
BRANCH  59  80
ATOM     80  C   UNL A   1      41.947  34.688  33.861  1.00  0.00     0.057 A 
ATOM     81  C   UNL A   1      41.454  34.715  35.171  1.00  0.00     0.134 A 
ATOM     82  C   UNL A   1      42.639  35.819  33.412  1.00  0.00     0.134 A 
ATOM     83  F   UNL A   1      40.760  33.673  35.652  1.00  0.00    -0.206 F 
ATOM     84  C   UNL A   1      41.624  35.830  35.995  1.00  0.00     0.040 A 
ATOM     85  C   UNL A   1      42.842  36.929  34.234  1.00  0.00     0.040 A 
ATOM     86  F   UNL A   1      43.136  35.859  32.167  1.00  0.00    -0.206 F 
ATOM     87  C   UNL A   1      42.326  36.939  35.527  1.00  0.00     0.006 A 
ENDBRANCH  59  80
BRANCH  71  88
ATOM     88  C   UNL A   1      45.597  28.881  32.607  1.00  0.00     0.057 A 
ATOM     89  C   UNL A   1      46.802  29.230  31.982  1.00  0.00     0.134 A 
ATOM     90  C   UNL A   1      45.676  28.085  33.758  1.00  0.00     0.134 A 
ATOM     91  F   UNL A   1      46.798  29.981  30.871  1.00  0.00    -0.206 F 
ATOM     92  C   UNL A   1      48.033  28.784  32.468  1.00  0.00     0.040 A 
ATOM     93  C   UNL A   1      46.902  27.660  34.272  1.00  0.00     0.040 A 
ATOM     94  F   UNL A   1      44.563  27.724  34.414  1.00  0.00    -0.206 F 
ATOM     95  C   UNL A   1      48.085  28.003  33.621  1.00  0.00     0.006 A 
ENDBRANCH  71  88
ENDBRANCH  45  46
ENDBRANCH  38  40
ENDBRANCH  37  38
ENDBRANCH  36  37
ENDBRANCH  35  36
ENDBRANCH  34  35
ENDBRANCH  33  34
ENDBRANCH  32  33
ENDBRANCH  31  32
ENDBRANCH   1  31
TORSDOF 25
ENDMDL
MODEL 2
REMARK VINA RESULT:      -9.3      1.983      2.862
REMARK SMILES C[C@@H](C(=O)OCCOCCOCCOCCOC(=O)c1ccc(-c2c3nc(c(-c4c(F)cccc4F)c4ccc([nH]4)c(-c4c(F)cccc4F)c4nc(c(-c5c(F)cccc5F)c5ccc2[nH]5)C=C4)C=C3)cc1)c1cc(/C=C/S(C)(=O)=O)cc(C(=O)c2ccccc2)c1
REMARK SMILES IDX 10 1 9 2 8 3 7 4 6 5 5 6 3 7 4 8 2 9 1 10 74 11 75 12 93 13
REMARK SMILES IDX 76 14 84 15 83 16 77 17 78 18 79 19 80 20 81 21 82 22 85 23
REMARK SMILES IDX 86 24 87 25 88 26 92 27 89 28 91 29 90 30 11 31 12 32 13 33
REMARK SMILES IDX 14 34 15 35 16 36 17 37 18 38 19 39 20 40 21 41 73 42 22 43
REMARK SMILES IDX 72 44 23 45 24 46 25 47 66 48 26 49 71 50 65 51 67 52 27 53
REMARK SMILES IDX 70 54 64 55 63 56 28 58 54 59 37 60 53 61 38 62 41 63 52 64
REMARK SMILES IDX 68 65 39 66 40 67 51 69 69 70 42 71 29 72 30 73 35 74 31 75
REMARK SMILES IDX 32 76 34 77 36 78 33 79 55 80 56 81 61 82 57 83 58 84 60 85
REMARK SMILES IDX 62 86 59 87 43 88 44 89 49 90 45 91 46 92 48 93 50 94 47 95
REMARK H PARENT 67 57 41 68
REMARK Flexibility Score: inf
ROOT
ATOM      1  C   UNL A   1      32.734  27.536  26.650  1.00  0.00     0.188 C 
ENDROOT
BRANCH   1   2
ATOM      2  C   UNL A   1      33.314  26.164  26.297  1.00  0.00     0.188 C 
BRANCH   2   3
ATOM      3  O   UNL A   1      34.159  26.110  25.167  1.00  0.00    -0.376 OA
BRANCH   3   4
ATOM      4  C   UNL A   1      34.310  24.914  24.418  1.00  0.00     0.202 C 
BRANCH   4   5
ATOM      5  C   UNL A   1      34.095  24.765  22.895  1.00  0.00     0.261 C 
BRANCH   5   6
ATOM      6  O   UNL A   1      34.260  25.945  22.104  1.00  0.00    -0.463 OA
BRANCH   6   7
ATOM      7  C   UNL A   1      33.261  26.326  21.276  1.00  0.00     0.313 C 
ATOM      8  O   UNL A   1      32.869  25.667  20.319  1.00  0.00    -0.252 OA
BRANCH   7   9
ATOM      9  C   UNL A   1      32.588  27.627  21.741  1.00  0.00     0.126 C 
ATOM     10  C   UNL A   1      33.595  28.598  22.401  1.00  0.00     0.025 C 
BRANCH   9  11
ATOM     11  C   UNL A   1      31.290  27.409  22.541  1.00  0.00    -0.033 A 
ATOM     12  C   UNL A   1      31.192  26.361  23.479  1.00  0.00     0.012 A 
ATOM     13  C   UNL A   1      30.184  28.275  22.422  1.00  0.00     0.016 A 
ATOM     14  C   UNL A   1      30.026  26.133  24.231  1.00  0.00    -0.024 A 
ATOM     15  C   UNL A   1      28.997  28.053  23.135  1.00  0.00     0.023 A 
ATOM     16  C   UNL A   1      28.932  26.991  24.045  1.00  0.00     0.020 A 
BRANCH  14  17
ATOM     17  C   UNL A   1      29.910  25.062  25.241  1.00  0.00     0.020 C 
ATOM     18  C   UNL A   1      30.782  24.056  25.413  1.00  0.00     0.106 C 
BRANCH  18  19
ATOM     19  S   UNL A   1      30.523  22.883  26.670  1.00  0.00     0.168 S 
ATOM     20  C   UNL A   1      32.108  22.865  27.470  1.00  0.00     0.163 C 
ATOM     21  O   UNL A   1      29.575  23.440  27.615  1.00  0.00    -0.225 OA
ATOM     22  O   UNL A   1      30.317  21.564  26.102  1.00  0.00    -0.225 OA
ENDBRANCH  18  19
ENDBRANCH  14  17
BRANCH  15  23
ATOM     23  C   UNL A   1      27.805  28.942  22.990  1.00  0.00     0.193 C 
ATOM     24  O   UNL A   1      26.680  28.519  23.234  1.00  0.00    -0.289 OA
BRANCH  23  25
ATOM     25  C   UNL A   1      27.952  30.348  22.554  1.00  0.00     0.022 A 
ATOM     26  C   UNL A   1      28.060  31.358  23.511  1.00  0.00     0.012 A 
ATOM     27  C   UNL A   1      27.962  30.669  21.195  1.00  0.00     0.012 A 
ATOM     28  C   UNL A   1      28.249  32.680  23.104  1.00  0.00     0.001 A 
ATOM     29  C   UNL A   1      28.168  31.988  20.790  1.00  0.00     0.001 A 
ATOM     30  C   UNL A   1      28.322  32.992  21.745  1.00  0.00     0.000 A 
ENDBRANCH  23  25
ENDBRANCH  15  23
ENDBRANCH   9  11
ENDBRANCH   7   9
ENDBRANCH   6   7
ENDBRANCH   5   6
ENDBRANCH   4   5
ENDBRANCH   3   4
ENDBRANCH   2   3
ENDBRANCH   1   2
BRANCH   1  31
ATOM     31  O   UNL A   1      33.240  28.584  25.848  1.00  0.00    -0.377 OA
BRANCH  31  32
ATOM     32  C   UNL A   1      34.326  29.342  26.373  1.00  0.00     0.188 C 
BRANCH  32  33
ATOM     33  C   UNL A   1      34.137  30.324  27.555  1.00  0.00     0.188 C 
BRANCH  33  34
ATOM     34  O   UNL A   1      33.926  31.681  27.188  1.00  0.00    -0.376 OA
BRANCH  34  35
ATOM     35  C   UNL A   1      33.478  32.591  28.181  1.00  0.00     0.202 C 
BRANCH  35  36
ATOM     36  C   UNL A   1      33.370  34.064  27.761  1.00  0.00     0.261 C 
BRANCH  36  37
ATOM     37  O   UNL A   1      33.996  35.012  28.639  1.00  0.00    -0.460 OA
BRANCH  37  38
ATOM     38  C   UNL A   1      33.695  34.937  29.952  1.00  0.00     0.338 C 
ATOM     39  O   UNL A   1      32.593  35.030  30.463  1.00  0.00    -0.246 OA
BRANCH  38  40
ATOM     40  C   UNL A   1      34.915  34.510  30.670  1.00  0.00     0.060 A 
ATOM     41  C   UNL A   1      36.136  34.495  29.982  1.00  0.00     0.016 A 
ATOM     42  C   UNL A   1      34.856  34.144  32.017  1.00  0.00     0.016 A 
ATOM     43  C   UNL A   1      37.297  34.074  30.629  1.00  0.00     0.010 A 
ATOM     44  C   UNL A   1      36.015  33.699  32.657  1.00  0.00     0.010 A 
ATOM     45  C   UNL A   1      37.232  33.626  31.954  1.00  0.00    -0.014 A 
BRANCH  45  46
ATOM     46  C   UNL A   1      38.375  32.880  32.532  1.00  0.00     0.031 A 
ATOM     47  C   UNL A   1      38.912  31.703  31.764  1.00  0.00     0.074 A 
ATOM     48  C   UNL A   1      38.943  33.246  33.693  1.00  0.00     0.049 A 
ATOM     49  N   UNL A   1      39.861  30.863  32.083  1.00  0.00    -0.248 NA
ATOM     50  C   UNL A   1      38.287  31.439  30.457  1.00  0.00     0.031 C 
ATOM     51  C   UNL A   1      38.547  34.393  34.506  1.00  0.00     0.029 A 
ATOM     52  N   UNL A   1      39.976  32.673  34.394  1.00  0.00    -0.354 N 
ATOM     53  C   UNL A   1      39.941  29.968  31.022  1.00  0.00     0.074 A 
ATOM     54  C   UNL A   1      38.923  30.346  30.068  1.00  0.00     0.031 C 
ATOM     55  C   UNL A   1      39.318  34.431  35.608  1.00  0.00     0.029 A 
ATOM     56  C   UNL A   1      40.237  33.292  35.592  1.00  0.00     0.049 A 
ATOM     57  H   UNL A   1      40.481  31.894  34.069  1.00  0.00     0.167 HD
ATOM     58  C   UNL A   1      40.795  28.931  30.853  1.00  0.00     0.037 A 
ATOM     59  C   UNL A   1      41.099  32.960  36.572  1.00  0.00     0.037 A 
ATOM     60  C   UNL A   1      41.802  28.552  31.808  1.00  0.00     0.049 A 
ATOM     61  C   UNL A   1      41.981  31.749  36.402  1.00  0.00     0.074 A 
ATOM     62  C   UNL A   1      42.721  27.522  31.728  1.00  0.00     0.029 A 
ATOM     63  N   UNL A   1      42.012  29.184  33.025  1.00  0.00    -0.354 N 
ATOM     64  N   UNL A   1      42.065  30.920  35.388  1.00  0.00    -0.248 NA
ATOM     65  C   UNL A   1      42.889  31.428  37.513  1.00  0.00     0.031 C 
ATOM     66  C   UNL A   1      43.448  27.492  32.922  1.00  0.00     0.029 A 
ATOM     67  C   UNL A   1      43.029  28.546  33.718  1.00  0.00     0.049 A 
ATOM     68  H   UNL A   1      41.514  29.968  33.349  1.00  0.00     0.167 HD
ATOM     69  C   UNL A   1      43.056  30.002  35.725  1.00  0.00     0.074 A 
ATOM     70  C   UNL A   1      43.551  30.384  37.031  1.00  0.00     0.031 C 
ATOM     71  C   UNL A   1      43.516  28.941  35.015  1.00  0.00     0.037 A 
BRANCH  58  72
ATOM     72  C   UNL A   1      40.647  28.114  29.602  1.00  0.00     0.057 A 
ATOM     73  C   UNL A   1      41.426  28.351  28.462  1.00  0.00     0.134 A 
ATOM     74  C   UNL A   1      39.721  27.064  29.544  1.00  0.00     0.134 A 
ATOM     75  F   UNL A   1      42.318  29.353  28.444  1.00  0.00    -0.206 F 
ATOM     76  C   UNL A   1      41.269  27.594  27.300  1.00  0.00     0.040 A 
ATOM     77  C   UNL A   1      39.578  26.280  28.399  1.00  0.00     0.040 A 
ATOM     78  F   UNL A   1      38.945  26.780  30.600  1.00  0.00    -0.206 F 
ATOM     79  C   UNL A   1      40.348  26.549  27.270  1.00  0.00     0.006 A 
ENDBRANCH  58  72
BRANCH  59  80
ATOM     80  C   UNL A   1      41.163  33.771  37.816  1.00  0.00     0.057 A 
ATOM     81  C   UNL A   1      42.108  34.791  37.972  1.00  0.00     0.134 A 
ATOM     82  C   UNL A   1      40.297  33.528  38.889  1.00  0.00     0.134 A 
ATOM     83  F   UNL A   1      42.984  35.056  36.991  1.00  0.00    -0.206 F 
ATOM     84  C   UNL A   1      42.203  35.527  39.155  1.00  0.00     0.040 A 
ATOM     85  C   UNL A   1      40.360  34.274  40.066  1.00  0.00     0.040 A 
ATOM     86  F   UNL A   1      39.368  32.564  38.804  1.00  0.00    -0.206 F 
ATOM     87  C   UNL A   1      41.322  35.272  40.204  1.00  0.00     0.006 A 
ENDBRANCH  59  80
BRANCH  71  88
ATOM     88  C   UNL A   1      44.641  28.143  35.613  1.00  0.00     0.057 A 
ATOM     89  C   UNL A   1      45.985  28.459  35.380  1.00  0.00     0.134 A 
ATOM     90  C   UNL A   1      44.371  27.070  36.474  1.00  0.00     0.134 A 
ATOM     91  F   UNL A   1      46.314  29.468  34.559  1.00  0.00    -0.206 F 
ATOM     92  C   UNL A   1      47.020  27.722  35.960  1.00  0.00     0.040 A 
ATOM     93  C   UNL A   1      45.396  26.347  37.085  1.00  0.00     0.040 A 
ATOM     94  F   UNL A   1      43.106  26.720  36.751  1.00  0.00    -0.206 F 
ATOM     95  C   UNL A   1      46.726  26.667  36.821  1.00  0.00     0.006 A 
ENDBRANCH  71  88
ENDBRANCH  45  46
ENDBRANCH  38  40
ENDBRANCH  37  38
ENDBRANCH  36  37
ENDBRANCH  35  36
ENDBRANCH  34  35
ENDBRANCH  33  34
ENDBRANCH  32  33
ENDBRANCH  31  32
ENDBRANCH   1  31
TORSDOF 25
ENDMDL
MODEL 3
REMARK VINA RESULT:      -9.2      0.962      5.808
REMARK SMILES C[C@@H](C(=O)OCCOCCOCCOCCOC(=O)c1ccc(-c2c3nc(c(-c4c(F)cccc4F)c4ccc([nH]4)c(-c4c(F)cccc4F)c4nc(c(-c5c(F)cccc5F)c5ccc2[nH]5)C=C4)C=C3)cc1)c1cc(/C=C/S(C)(=O)=O)cc(C(=O)c2ccccc2)c1
REMARK SMILES IDX 10 1 9 2 8 3 7 4 6 5 5 6 3 7 4 8 2 9 1 10 74 11 75 12 93 13
REMARK SMILES IDX 76 14 84 15 83 16 77 17 78 18 79 19 80 20 81 21 82 22 85 23
REMARK SMILES IDX 86 24 87 25 88 26 92 27 89 28 91 29 90 30 11 31 12 32 13 33
REMARK SMILES IDX 14 34 15 35 16 36 17 37 18 38 19 39 20 40 21 41 73 42 22 43
REMARK SMILES IDX 72 44 23 45 24 46 25 47 66 48 26 49 71 50 65 51 67 52 27 53
REMARK SMILES IDX 70 54 64 55 63 56 28 58 54 59 37 60 53 61 38 62 41 63 52 64
REMARK SMILES IDX 68 65 39 66 40 67 51 69 69 70 42 71 29 72 30 73 35 74 31 75
REMARK SMILES IDX 32 76 34 77 36 78 33 79 55 80 56 81 61 82 57 83 58 84 60 85
REMARK SMILES IDX 62 86 59 87 43 88 44 89 49 90 45 91 46 92 48 93 50 94 47 95
REMARK H PARENT 67 57 41 68
REMARK Flexibility Score: inf
ROOT
ATOM      1  C   UNL A   1      33.211  26.446  26.457  1.00  0.00     0.188 C 
ENDROOT
BRANCH   1   2
ATOM      2  C   UNL A   1      33.964  25.206  25.968  1.00  0.00     0.188 C 
BRANCH   2   3
ATOM      3  O   UNL A   1      34.443  25.246  24.640  1.00  0.00    -0.376 OA
BRANCH   3   4
ATOM      4  C   UNL A   1      34.268  24.143  23.762  1.00  0.00     0.202 C 
BRANCH   4   5
ATOM      5  C   UNL A   1      33.688  24.208  22.332  1.00  0.00     0.261 C 
BRANCH   5   6
ATOM      6  O   UNL A   1      33.977  25.385  21.573  1.00  0.00    -0.463 OA
BRANCH   6   7
ATOM      7  C   UNL A   1      32.984  25.973  20.868  1.00  0.00     0.313 C 
ATOM      8  O   UNL A   1      32.437  25.468  19.894  1.00  0.00    -0.252 OA
BRANCH   7   9
ATOM      9  C   UNL A   1      32.534  27.299  21.499  1.00  0.00     0.126 C 
ATOM     10  C   UNL A   1      33.715  28.070  22.137  1.00  0.00     0.025 C 
BRANCH   9  11
ATOM     11  C   UNL A   1      31.291  27.174  22.399  1.00  0.00    -0.033 A 
ATOM     12  C   UNL A   1      31.197  26.142  23.355  1.00  0.00     0.012 A 
ATOM     13  C   UNL A   1      30.238  28.111  22.355  1.00  0.00     0.016 A 
ATOM     14  C   UNL A   1      30.080  25.998  24.197  1.00  0.00    -0.024 A 
ATOM     15  C   UNL A   1      29.098  27.973  23.160  1.00  0.00     0.023 A 
ATOM     16  C   UNL A   1      29.034  26.925  24.085  1.00  0.00     0.020 A 
BRANCH  14  17
ATOM     17  C   UNL A   1      29.973  24.944  25.226  1.00  0.00     0.020 C 
ATOM     18  C   UNL A   1      30.822  23.916  25.379  1.00  0.00     0.106 C 
BRANCH  18  19
ATOM     19  S   UNL A   1      30.578  22.768  26.662  1.00  0.00     0.168 S 
ATOM     20  C   UNL A   1      28.967  23.232  27.250  1.00  0.00     0.163 C 
ATOM     21  O   UNL A   1      30.451  21.451  26.068  1.00  0.00    -0.225 OA
ATOM     22  O   UNL A   1      31.511  23.007  27.745  1.00  0.00    -0.225 OA
ENDBRANCH  18  19
ENDBRANCH  14  17
BRANCH  15  23
ATOM     23  C   UNL A   1      27.959  28.939  23.095  1.00  0.00     0.193 C 
ATOM     24  O   UNL A   1      26.808  28.555  23.271  1.00  0.00    -0.289 OA
BRANCH  23  25
ATOM     25  C   UNL A   1      28.192  30.375  22.824  1.00  0.00     0.022 A 
ATOM     26  C   UNL A   1      27.813  30.912  21.594  1.00  0.00     0.012 A 
ATOM     27  C   UNL A   1      28.806  31.184  23.782  1.00  0.00     0.012 A 
ATOM     28  C   UNL A   1      27.986  32.277  21.353  1.00  0.00     0.001 A 
ATOM     29  C   UNL A   1      28.962  32.550  23.546  1.00  0.00     0.001 A 
ATOM     30  C   UNL A   1      28.542  33.099  22.335  1.00  0.00     0.000 A 
ENDBRANCH  23  25
ENDBRANCH  15  23
ENDBRANCH   9  11
ENDBRANCH   7   9
ENDBRANCH   6   7
ENDBRANCH   5   6
ENDBRANCH   4   5
ENDBRANCH   3   4
ENDBRANCH   2   3
ENDBRANCH   1   2
BRANCH   1  31
ATOM     31  O   UNL A   1      33.245  27.523  25.543  1.00  0.00    -0.377 OA
BRANCH  31  32
ATOM     32  C   UNL A   1      34.021  28.661  25.905  1.00  0.00     0.188 C 
BRANCH  32  33
ATOM     33  C   UNL A   1      33.587  29.613  27.046  1.00  0.00     0.188 C 
BRANCH  33  34
ATOM     34  O   UNL A   1      33.006  30.841  26.623  1.00  0.00    -0.376 OA
BRANCH  34  35
ATOM     35  C   UNL A   1      32.520  31.736  27.611  1.00  0.00     0.202 C 
BRANCH  35  36
ATOM     36  C   UNL A   1      32.166  33.153  27.136  1.00  0.00     0.261 C 
BRANCH  36  37
ATOM     37  O   UNL A   1      33.069  34.193  27.542  1.00  0.00    -0.460 OA
BRANCH  37  38
ATOM     38  C   UNL A   1      33.365  34.283  28.855  1.00  0.00     0.338 C 
ATOM     39  O   UNL A   1      32.659  34.732  29.742  1.00  0.00    -0.246 OA
BRANCH  38  40
ATOM     40  C   UNL A   1      34.626  33.547  29.085  1.00  0.00     0.060 A 
ATOM     41  C   UNL A   1      34.678  32.598  30.115  1.00  0.00     0.016 A 
ATOM     42  C   UNL A   1      35.742  33.778  28.277  1.00  0.00     0.016 A 
ATOM     43  C   UNL A   1      35.862  31.906  30.367  1.00  0.00     0.010 A 
ATOM     44  C   UNL A   1      36.935  33.104  28.547  1.00  0.00     0.010 A 
ATOM     45  C   UNL A   1      37.009  32.193  29.617  1.00  0.00    -0.014 A 
BRANCH  45  46
ATOM     46  C   UNL A   1      38.331  31.712  30.088  1.00  0.00     0.031 A 
ATOM     47  C   UNL A   1      38.915  32.347  31.320  1.00  0.00     0.074 A 
ATOM     48  C   UNL A   1      38.988  30.724  29.459  1.00  0.00     0.049 A 
ATOM     49  N   UNL A   1      40.072  32.142  31.894  1.00  0.00    -0.248 NA
ATOM     50  C   UNL A   1      38.078  33.353  31.994  1.00  0.00     0.031 C 
ATOM     51  C   UNL A   1      38.507  29.999  28.286  1.00  0.00     0.029 A 
ATOM     52  N   UNL A   1      40.216  30.169  29.721  1.00  0.00    -0.354 N 
ATOM     53  C   UNL A   1      40.104  32.997  32.989  1.00  0.00     0.074 A 
ATOM     54  C   UNL A   1      38.868  33.747  32.980  1.00  0.00     0.031 C 
ATOM     55  C   UNL A   1      39.439  29.102  27.917  1.00  0.00     0.029 A 
ATOM     56  C   UNL A   1      40.595  29.216  28.807  1.00  0.00     0.049 A 
ATOM     57  H   UNL A   1      40.772  30.429  30.490  1.00  0.00     0.167 HD
ATOM     58  C   UNL A   1      41.072  33.137  33.925  1.00  0.00     0.037 A 
ATOM     59  C   UNL A   1      41.752  28.536  28.690  1.00  0.00     0.037 A 
ATOM     60  C   UNL A   1      42.305  32.395  33.927  1.00  0.00     0.049 A 
ATOM     61  C   UNL A   1      42.853  28.770  29.694  1.00  0.00     0.074 A 
ATOM     62  C   UNL A   1      43.347  32.457  34.834  1.00  0.00     0.029 A 
ATOM     63  N   UNL A   1      42.666  31.463  32.965  1.00  0.00    -0.354 N 
ATOM     64  N   UNL A   1      42.868  29.565  30.738  1.00  0.00    -0.248 NA
ATOM     65  C   UNL A   1      44.097  28.011  29.504  1.00  0.00     0.031 C 
ATOM     66  C   UNL A   1      44.364  31.607  34.389  1.00  0.00     0.029 A 
ATOM     67  C   UNL A   1      43.928  30.963  33.242  1.00  0.00     0.049 A 
ATOM     68  H   UNL A   1      42.109  31.195  32.200  1.00  0.00     0.167 HD
ATOM     69  C   UNL A   1      44.105  29.377  31.345  1.00  0.00     0.074 A 
ATOM     70  C   UNL A   1      44.808  28.384  30.560  1.00  0.00     0.031 C 
ATOM     71  C   UNL A   1      44.613  29.970  32.454  1.00  0.00     0.037 A 
BRANCH  58  72
ATOM     72  C   UNL A   1      40.846  34.157  35.003  1.00  0.00     0.057 A 
ATOM     73  C   UNL A   1      41.185  35.506  34.833  1.00  0.00     0.134 A 
ATOM     74  C   UNL A   1      40.265  33.786  36.223  1.00  0.00     0.134 A 
ATOM     75  F   UNL A   1      41.762  35.925  33.697  1.00  0.00    -0.206 F 
ATOM     76  C   UNL A   1      40.983  36.443  35.848  1.00  0.00     0.040 A 
ATOM     77  C   UNL A   1      40.028  34.720  37.232  1.00  0.00     0.040 A 
ATOM     78  F   UNL A   1      39.913  32.513  36.451  1.00  0.00    -0.206 F 
ATOM     79  C   UNL A   1      40.395  36.052  37.049  1.00  0.00     0.006 A 
ENDBRANCH  58  72
BRANCH  59  80
ATOM     80  C   UNL A   1      41.944  27.580  27.569  1.00  0.00     0.057 A 
ATOM     81  C   UNL A   1      42.453  27.999  26.334  1.00  0.00     0.134 A 
ATOM     82  C   UNL A   1      41.599  26.229  27.697  1.00  0.00     0.134 A 
ATOM     83  F   UNL A   1      42.778  29.285  26.139  1.00  0.00    -0.206 F 
ATOM     84  C   UNL A   1      42.594  27.115  25.262  1.00  0.00     0.040 A 
ATOM     85  C   UNL A   1      41.762  25.328  26.644  1.00  0.00     0.040 A 
ATOM     86  F   UNL A   1      41.106  25.763  28.853  1.00  0.00    -0.206 F 
ATOM     87  C   UNL A   1      42.253  25.773  25.419  1.00  0.00     0.006 A 
ENDBRANCH  59  80
BRANCH  71  88
ATOM     88  C   UNL A   1      45.975  29.531  32.914  1.00  0.00     0.057 A 
ATOM     89  C   UNL A   1      46.158  28.424  33.752  1.00  0.00     0.134 A 
ATOM     90  C   UNL A   1      47.125  30.198  32.469  1.00  0.00     0.134 A 
ATOM     91  F   UNL A   1      45.101  27.745  34.223  1.00  0.00    -0.206 F 
ATOM     92  C   UNL A   1      47.432  28.013  34.153  1.00  0.00     0.040 A 
ATOM     93  C   UNL A   1      48.404  29.779  32.836  1.00  0.00     0.040 A 
ATOM     94  F   UNL A   1      47.024  31.259  31.654  1.00  0.00    -0.206 F 
ATOM     95  C   UNL A   1      48.559  28.687  33.688  1.00  0.00     0.006 A 
ENDBRANCH  71  88
ENDBRANCH  45  46
ENDBRANCH  38  40
ENDBRANCH  37  38
ENDBRANCH  36  37
ENDBRANCH  35  36
ENDBRANCH  34  35
ENDBRANCH  33  34
ENDBRANCH  32  33
ENDBRANCH  31  32
ENDBRANCH   1  31
TORSDOF 25
ENDMDL
