MODEL 1
REMARK VINA RESULT:      -9.8      0.000      0.000
REMARK SMILES N#C/C(=C\c1ccc(-c2cc(C(=O)OCCOCCOCCOCCOC(=O)c3ccc(-c4c5nc(c(-c6c(F)cccc6F)c6ccc([nH]6)c(-c6c(F)cccc6F)c6nc(c(-c7c(F)cccc7F)c7ccc4[nH]7)C=C6)C=C5)cc3)ccc2Cl)o1)C(=O)N1CCOCC1
REMARK SMILES IDX 19 1 18 2 17 3 16 4 15 5 14 6 12 7 13 8 11 9 9 10 10 11
REMARK SMILES IDX 85 12 84 13 86 14 83 15 8 16 5 17 6 18 87 19 7 20 4 21 3 22
REMARK SMILES IDX 2 23 1 24 88 25 89 26 90 27 91 28 95 29 92 30 94 31 93 32
REMARK SMILES IDX 20 33 21 34 22 35 23 36 24 37 25 38 26 39 27 40 28 41 29 42
REMARK SMILES IDX 30 43 82 44 31 45 81 46 32 47 33 48 34 49 75 50 35 51 80 52
REMARK SMILES IDX 74 53 76 54 36 55 79 56 73 57 72 58 37 60 63 61 46 62 62 63
REMARK SMILES IDX 47 64 50 65 61 66 77 67 48 68 49 69 60 71 78 72 51 73 38 74
REMARK SMILES IDX 39 75 44 76 40 77 41 78 43 79 45 80 42 81 64 82 65 83 70 84
REMARK SMILES IDX 66 85 67 86 69 87 71 88 68 89 52 90 53 91 58 92 54 93 55 94
REMARK SMILES IDX 57 95 59 96 56 97
REMARK H PARENT 76 59 50 70
REMARK Flexibility Score: inf
ROOT
ATOM      1  C   UNL A   1      35.476  21.092  25.623  1.00  0.00     0.188 C 
ENDROOT
BRANCH   1   2
ATOM      2  C   UNL A   1      34.263  20.713  24.747  1.00  0.00     0.188 C 
BRANCH   2   3
ATOM      3  O   UNL A   1      33.917  21.720  23.812  1.00  0.00    -0.376 OA
BRANCH   3   4
ATOM      4  C   UNL A   1      32.803  22.555  24.065  1.00  0.00     0.202 C 
BRANCH   4   5
ATOM      5  C   UNL A   1      31.790  22.188  25.161  1.00  0.00     0.261 C 
BRANCH   5   6
ATOM      6  O   UNL A   1      30.804  23.177  25.480  1.00  0.00    -0.460 OA
BRANCH   6   7
ATOM      7  C   UNL A   1      31.069  24.033  26.492  1.00  0.00     0.338 C 
ATOM      8  O   UNL A   1      31.405  23.741  27.624  1.00  0.00    -0.246 OA
BRANCH   7   9
ATOM      9  C   UNL A   1      31.084  25.409  25.926  1.00  0.00     0.060 A 
ATOM     10  C   UNL A   1      32.016  27.669  25.953  1.00  0.00     0.037 A 
ATOM     11  C   UNL A   1      31.934  26.375  26.496  1.00  0.00     0.029 A 
ATOM     12  C   UNL A   1      31.230  27.971  24.822  1.00  0.00     0.052 A 
ATOM     13  C   UNL A   1      30.395  27.005  24.247  1.00  0.00     0.022 A 
ATOM     14  Cl  UNL A   1      31.227  29.544  24.097  1.00  0.00    -0.084 Cl
ATOM     15  C   UNL A   1      30.318  25.726  24.797  1.00  0.00     0.017 A 
BRANCH  10  16
ATOM     16  C   UNL A   1      32.756  28.707  26.664  1.00  0.00     0.136 A 
ATOM     17  C   UNL A   1      34.514  29.592  27.737  1.00  0.00     0.129 A 
ATOM     18  C   UNL A   1      33.516  30.561  27.631  1.00  0.00     0.051 A 
ATOM     19  O   UNL A   1      34.031  28.450  27.097  1.00  0.00    -0.457 OA
ATOM     20  C   UNL A   1      32.399  29.991  26.992  1.00  0.00     0.051 A 
BRANCH  17  21
ATOM     21  C   UNL A   1      35.818  29.690  28.355  1.00  0.00     0.072 C 
ATOM     22  C   UNL A   1      36.598  30.809  28.313  1.00  0.00     0.121 C 
BRANCH  22  23
ATOM     23  C   UNL A   1      35.810  32.054  27.938  1.00  0.00     0.105 C 
ATOM     24  N   UNL A   1      35.156  33.086  27.627  1.00  0.00    -0.192 NA
ENDBRANCH  22  23
BRANCH  22  25
ATOM     25  C   UNL A   1      37.878  30.913  29.055  1.00  0.00     0.264 C 
ATOM     26  O   UNL A   1      37.985  31.778  29.923  1.00  0.00    -0.268 OA
ATOM     27  N   UNL A   1      38.887  29.995  28.811  1.00  0.00    -0.333 N 
ATOM     28  C   UNL A   1      39.113  29.170  27.614  1.00  0.00     0.148 C 
ATOM     29  C   UNL A   1      39.893  29.765  29.851  1.00  0.00     0.148 C 
ATOM     30  C   UNL A   1      39.224  27.685  27.999  1.00  0.00     0.181 C 
ATOM     31  C   UNL A   1      39.920  28.269  30.192  1.00  0.00     0.181 C 
ATOM     32  O   UNL A   1      40.212  27.484  29.022  1.00  0.00    -0.378 OA
ENDBRANCH  22  25
ENDBRANCH  17  21
ENDBRANCH  10  16
ENDBRANCH   7   9
ENDBRANCH   6   7
ENDBRANCH   5   6
ENDBRANCH   4   5
ENDBRANCH   3   4
ENDBRANCH   2   3
ENDBRANCH   1   2
BRANCH   1  33
ATOM     33  O   UNL A   1      36.584  21.700  24.977  1.00  0.00    -0.377 OA
BRANCH  33  34
ATOM     34  C   UNL A   1      37.732  22.068  25.742  1.00  0.00     0.188 C 
BRANCH  34  35
ATOM     35  C   UNL A   1      39.087  21.323  25.637  1.00  0.00     0.188 C 
BRANCH  35  36
ATOM     36  O   UNL A   1      39.692  21.002  26.877  1.00  0.00    -0.376 OA
BRANCH  36  37
ATOM     37  C   UNL A   1      41.043  20.580  26.875  1.00  0.00     0.202 C 
BRANCH  37  38
ATOM     38  C   UNL A   1      42.072  21.575  26.323  1.00  0.00     0.261 C 
BRANCH  38  39
ATOM     39  O   UNL A   1      42.320  22.734  27.134  1.00  0.00    -0.460 OA
BRANCH  39  40
ATOM     40  C   UNL A   1      41.832  23.910  26.689  1.00  0.00     0.338 C 
ATOM     41  O   UNL A   1      40.660  24.211  26.524  1.00  0.00    -0.246 OA
BRANCH  40  42
ATOM     42  C   UNL A   1      42.960  24.857  26.604  1.00  0.00     0.060 A 
ATOM     43  C   UNL A   1      43.509  25.373  27.786  1.00  0.00     0.016 A 
ATOM     44  C   UNL A   1      43.481  25.223  25.360  1.00  0.00     0.016 A 
ATOM     45  C   UNL A   1      44.561  26.286  27.724  1.00  0.00     0.010 A 
ATOM     46  C   UNL A   1      44.521  26.152  25.300  1.00  0.00     0.010 A 
ATOM     47  C   UNL A   1      45.042  26.713  26.479  1.00  0.00    -0.014 A 
BRANCH  47  48
ATOM     48  C   UNL A   1      45.954  27.879  26.405  1.00  0.00     0.031 A 
ATOM     49  C   UNL A   1      47.427  27.628  26.244  1.00  0.00     0.074 A 
ATOM     50  C   UNL A   1      45.488  29.137  26.469  1.00  0.00     0.049 A 
ATOM     51  N   UNL A   1      48.418  28.480  26.195  1.00  0.00    -0.248 NA
ATOM     52  C   UNL A   1      47.836  26.219  26.130  1.00  0.00     0.031 C 
ATOM     53  C   UNL A   1      44.081  29.510  26.598  1.00  0.00     0.029 A 
ATOM     54  N   UNL A   1      46.158  30.335  26.448  1.00  0.00    -0.354 N 
ATOM     55  C   UNL A   1      49.567  27.712  26.060  1.00  0.00     0.074 A 
ATOM     56  C   UNL A   1      49.153  26.325  26.066  1.00  0.00     0.031 C 
ATOM     57  C   UNL A   1      43.994  30.850  26.662  1.00  0.00     0.029 A 
ATOM     58  C   UNL A   1      45.338  31.424  26.613  1.00  0.00     0.049 A 
ATOM     59  H   UNL A   1      47.132  30.406  26.327  1.00  0.00     0.167 HD
ATOM     60  C   UNL A   1      50.851  28.124  25.936  1.00  0.00     0.037 A 
ATOM     61  C   UNL A   1      45.644  32.730  26.736  1.00  0.00     0.037 A 
ATOM     62  C   UNL A   1      51.258  29.506  25.937  1.00  0.00     0.049 A 
ATOM     63  C   UNL A   1      47.082  33.167  26.656  1.00  0.00     0.074 A 
ATOM     64  C   UNL A   1      52.527  30.030  25.776  1.00  0.00     0.029 A 
ATOM     65  N   UNL A   1      50.402  30.581  26.128  1.00  0.00    -0.354 N 
ATOM     66  N   UNL A   1      48.160  32.440  26.481  1.00  0.00    -0.248 NA
ATOM     67  C   UNL A   1      47.346  34.607  26.783  1.00  0.00     0.031 C 
ATOM     68  C   UNL A   1      52.450  31.418  25.941  1.00  0.00     0.029 A 
ATOM     69  C   UNL A   1      51.121  31.765  26.132  1.00  0.00     0.049 A 
ATOM     70  H   UNL A   1      49.426  30.513  26.243  1.00  0.00     0.167 HD
ATOM     71  C   UNL A   1      49.225  33.333  26.453  1.00  0.00     0.074 A 
ATOM     72  C   UNL A   1      48.661  34.657  26.615  1.00  0.00     0.031 C 
ATOM     73  C   UNL A   1      50.550  33.078  26.304  1.00  0.00     0.037 A 
BRANCH  60  74
ATOM     74  C   UNL A   1      51.908  27.060  25.842  1.00  0.00     0.057 A 
ATOM     75  C   UNL A   1      52.401  26.599  24.614  1.00  0.00     0.134 A 
ATOM     76  C   UNL A   1      52.437  26.484  27.004  1.00  0.00     0.134 A 
ATOM     77  F   UNL A   1      51.928  27.096  23.460  1.00  0.00    -0.206 F 
ATOM     78  C   UNL A   1      53.349  25.576  24.544  1.00  0.00     0.040 A 
ATOM     79  C   UNL A   1      53.409  25.485  26.948  1.00  0.00     0.040 A 
ATOM     80  F   UNL A   1      52.016  26.880  28.215  1.00  0.00    -0.206 F 
ATOM     81  C   UNL A   1      53.860  25.019  25.715  1.00  0.00     0.006 A 
ENDBRANCH  60  74
BRANCH  61  82
ATOM     82  C   UNL A   1      44.557  33.715  26.967  1.00  0.00     0.057 A 
ATOM     83  C   UNL A   1      43.974  34.420  25.910  1.00  0.00     0.134 A 
ATOM     84  C   UNL A   1      44.066  33.963  28.256  1.00  0.00     0.134 A 
ATOM     85  F   UNL A   1      44.417  34.245  24.656  1.00  0.00    -0.206 F 
ATOM     86  C   UNL A   1      42.945  35.340  26.124  1.00  0.00     0.040 A 
ATOM     87  C   UNL A   1      43.021  34.859  28.481  1.00  0.00     0.040 A 
ATOM     88  F   UNL A   1      44.583  33.319  29.313  1.00  0.00    -0.206 F 
ATOM     89  C   UNL A   1      42.459  35.555  27.413  1.00  0.00     0.006 A 
ENDBRANCH  61  82
BRANCH  73  90
ATOM     90  C   UNL A   1      51.483  34.258  26.281  1.00  0.00     0.057 A 
ATOM     91  C   UNL A   1      52.094  34.747  27.443  1.00  0.00     0.134 A 
ATOM     92  C   UNL A   1      51.806  34.888  25.071  1.00  0.00     0.134 A 
ATOM     93  F   UNL A   1      51.824  34.198  28.637  1.00  0.00    -0.206 F 
ATOM     94  C   UNL A   1      52.970  35.835  27.406  1.00  0.00     0.040 A 
ATOM     95  C   UNL A   1      52.704  35.954  25.017  1.00  0.00     0.040 A 
ATOM     96  F   UNL A   1      51.267  34.465  23.917  1.00  0.00    -0.206 F 
ATOM     97  C   UNL A   1      53.283  36.437  26.189  1.00  0.00     0.006 A 
ENDBRANCH  73  90
ENDBRANCH  47  48
ENDBRANCH  40  42
ENDBRANCH  39  40
ENDBRANCH  38  39
ENDBRANCH  37  38
ENDBRANCH  36  37
ENDBRANCH  35  36
ENDBRANCH  34  35
ENDBRANCH  33  34
ENDBRANCH   1  33
TORSDOF 24
ENDMDL
MODEL 2
REMARK VINA RESULT:      -9.5      1.451      2.748
REMARK SMILES N#C/C(=C\c1ccc(-c2cc(C(=O)OCCOCCOCCOCCOC(=O)c3ccc(-c4c5nc(c(-c6c(F)cccc6F)c6ccc([nH]6)c(-c6c(F)cccc6F)c6nc(c(-c7c(F)cccc7F)c7ccc4[nH]7)C=C6)C=C5)cc3)ccc2Cl)o1)C(=O)N1CCOCC1
REMARK SMILES IDX 19 1 18 2 17 3 16 4 15 5 14 6 12 7 13 8 11 9 9 10 10 11
REMARK SMILES IDX 85 12 84 13 86 14 83 15 8 16 5 17 6 18 87 19 7 20 4 21 3 22
REMARK SMILES IDX 2 23 1 24 88 25 89 26 90 27 91 28 95 29 92 30 94 31 93 32
REMARK SMILES IDX 20 33 21 34 22 35 23 36 24 37 25 38 26 39 27 40 28 41 29 42
REMARK SMILES IDX 30 43 82 44 31 45 81 46 32 47 33 48 34 49 75 50 35 51 80 52
REMARK SMILES IDX 74 53 76 54 36 55 79 56 73 57 72 58 37 60 63 61 46 62 62 63
REMARK SMILES IDX 47 64 50 65 61 66 77 67 48 68 49 69 60 71 78 72 51 73 38 74
REMARK SMILES IDX 39 75 44 76 40 77 41 78 43 79 45 80 42 81 64 82 65 83 70 84
REMARK SMILES IDX 66 85 67 86 69 87 71 88 68 89 52 90 53 91 58 92 54 93 55 94
REMARK SMILES IDX 57 95 59 96 56 97
REMARK H PARENT 76 59 50 70
REMARK Flexibility Score: inf
ROOT
ATOM      1  C   UNL A   1      35.200  20.685  25.426  1.00  0.00     0.188 C 
ENDROOT
BRANCH   1   2
ATOM      2  C   UNL A   1      33.962  20.490  24.527  1.00  0.00     0.188 C 
BRANCH   2   3
ATOM      3  O   UNL A   1      33.700  21.604  23.692  1.00  0.00    -0.376 OA
BRANCH   3   4
ATOM      4  C   UNL A   1      32.672  22.513  24.041  1.00  0.00     0.202 C 
BRANCH   4   5
ATOM      5  C   UNL A   1      31.661  22.155  25.141  1.00  0.00     0.261 C 
BRANCH   5   6
ATOM      6  O   UNL A   1      30.660  23.137  25.436  1.00  0.00    -0.460 OA
BRANCH   6   7
ATOM      7  C   UNL A   1      30.886  23.982  26.466  1.00  0.00     0.338 C 
ATOM      8  O   UNL A   1      31.178  23.679  27.607  1.00  0.00    -0.246 OA
BRANCH   7   9
ATOM      9  C   UNL A   1      30.926  25.364  25.914  1.00  0.00     0.060 A 
ATOM     10  C   UNL A   1      32.063  27.523  25.766  1.00  0.00     0.037 A 
ATOM     11  C   UNL A   1      31.962  26.230  26.309  1.00  0.00     0.029 A 
ATOM     12  C   UNL A   1      31.104  27.926  24.815  1.00  0.00     0.052 A 
ATOM     13  C   UNL A   1      30.080  27.058  24.412  1.00  0.00     0.022 A 
ATOM     14  Cl  UNL A   1      31.113  29.509  24.111  1.00  0.00    -0.084 Cl
ATOM     15  C   UNL A   1      29.987  25.780  24.962  1.00  0.00     0.017 A 
BRANCH  10  16
ATOM     16  C   UNL A   1      33.028  28.468  26.321  1.00  0.00     0.136 A 
ATOM     17  C   UNL A   1      33.702  30.399  27.237  1.00  0.00     0.129 A 
ATOM     18  C   UNL A   1      34.798  29.542  27.132  1.00  0.00     0.051 A 
ATOM     19  O   UNL A   1      32.599  29.695  26.754  1.00  0.00    -0.457 OA
ATOM     20  C   UNL A   1      34.380  28.345  26.521  1.00  0.00     0.051 A 
BRANCH  17  21
ATOM     21  C   UNL A   1      33.646  31.750  27.751  1.00  0.00     0.072 C 
ATOM     22  C   UNL A   1      34.409  32.201  28.788  1.00  0.00     0.121 C 
BRANCH  22  23
ATOM     23  C   UNL A   1      35.604  31.303  29.067  1.00  0.00     0.105 C 
ATOM     24  N   UNL A   1      36.595  30.558  29.297  1.00  0.00    -0.192 NA
ENDBRANCH  22  23
BRANCH  22  25
ATOM     25  C   UNL A   1      34.410  33.622  29.213  1.00  0.00     0.264 C 
ATOM     26  O   UNL A   1      34.132  34.485  28.381  1.00  0.00    -0.268 OA
ATOM     27  N   UNL A   1      34.648  33.939  30.541  1.00  0.00    -0.333 N 
ATOM     28  C   UNL A   1      35.350  33.150  31.566  1.00  0.00     0.148 C 
ATOM     29  C   UNL A   1      34.153  35.218  31.057  1.00  0.00     0.148 C 
ATOM     30  C   UNL A   1      34.460  32.972  32.808  1.00  0.00     0.181 C 
ATOM     31  C   UNL A   1      33.258  34.948  32.273  1.00  0.00     0.181 C 
ATOM     32  O   UNL A   1      33.983  34.237  33.293  1.00  0.00    -0.378 OA
ENDBRANCH  22  25
ENDBRANCH  17  21
ENDBRANCH  10  16
ENDBRANCH   7   9
ENDBRANCH   6   7
ENDBRANCH   5   6
ENDBRANCH   4   5
ENDBRANCH   3   4
ENDBRANCH   2   3
ENDBRANCH   1   2
BRANCH   1  33
ATOM     33  O   UNL A   1      35.920  21.901  25.292  1.00  0.00    -0.377 OA
BRANCH  33  34
ATOM     34  C   UNL A   1      37.222  21.890  24.704  1.00  0.00     0.188 C 
BRANCH  34  35
ATOM     35  C   UNL A   1      38.414  21.110  25.316  1.00  0.00     0.188 C 
BRANCH  35  36
ATOM     36  O   UNL A   1      39.238  21.863  26.188  1.00  0.00    -0.376 OA
BRANCH  36  37
ATOM     37  C   UNL A   1      40.425  21.264  26.672  1.00  0.00     0.202 C 
BRANCH  37  38
ATOM     38  C   UNL A   1      41.748  21.872  26.187  1.00  0.00     0.261 C 
BRANCH  38  39
ATOM     39  O   UNL A   1      42.377  22.800  27.084  1.00  0.00    -0.460 OA
BRANCH  39  40
ATOM     40  C   UNL A   1      41.874  24.051  27.126  1.00  0.00     0.338 C 
ATOM     41  O   UNL A   1      40.735  24.381  27.418  1.00  0.00    -0.246 OA
BRANCH  40  42
ATOM     42  C   UNL A   1      42.994  24.990  26.933  1.00  0.00     0.060 A 
ATOM     43  C   UNL A   1      43.781  25.351  28.036  1.00  0.00     0.016 A 
ATOM     44  C   UNL A   1      43.275  25.501  25.663  1.00  0.00     0.016 A 
ATOM     45  C   UNL A   1      44.831  26.254  27.876  1.00  0.00     0.010 A 
ATOM     46  C   UNL A   1      44.314  26.420  25.509  1.00  0.00     0.010 A 
ATOM     47  C   UNL A   1      45.074  26.826  26.620  1.00  0.00    -0.014 A 
BRANCH  47  48
ATOM     48  C   UNL A   1      45.994  27.984  26.507  1.00  0.00     0.031 A 
ATOM     49  C   UNL A   1      47.463  27.717  26.336  1.00  0.00     0.074 A 
ATOM     50  C   UNL A   1      45.537  29.246  26.544  1.00  0.00     0.049 A 
ATOM     51  N   UNL A   1      48.459  28.561  26.255  1.00  0.00    -0.248 NA
ATOM     52  C   UNL A   1      47.861  26.303  26.253  1.00  0.00     0.031 C 
ATOM     53  C   UNL A   1      44.134  29.633  26.679  1.00  0.00     0.029 A 
ATOM     54  N   UNL A   1      46.214  30.438  26.486  1.00  0.00    -0.354 N 
ATOM     55  C   UNL A   1      49.601  27.782  26.126  1.00  0.00     0.074 A 
ATOM     56  C   UNL A   1      49.178  26.399  26.173  1.00  0.00     0.031 C 
ATOM     57  C   UNL A   1      44.057  30.975  26.710  1.00  0.00     0.029 A 
ATOM     58  C   UNL A   1      45.405  31.536  26.631  1.00  0.00     0.049 A 
ATOM     59  H   UNL A   1      47.188  30.499  26.351  1.00  0.00     0.167 HD
ATOM     60  C   UNL A   1      50.886  28.181  25.979  1.00  0.00     0.037 A 
ATOM     61  C   UNL A   1      45.721  32.843  26.718  1.00  0.00     0.037 A 
ATOM     62  C   UNL A   1      51.303  29.559  25.939  1.00  0.00     0.049 A 
ATOM     63  C   UNL A   1      47.161  33.268  26.611  1.00  0.00     0.074 A 
ATOM     64  C   UNL A   1      52.574  30.070  25.752  1.00  0.00     0.029 A 
ATOM     65  N   UNL A   1      50.456  30.645  26.113  1.00  0.00    -0.354 N 
ATOM     66  N   UNL A   1      48.232  32.528  26.443  1.00  0.00    -0.248 NA
ATOM     67  C   UNL A   1      47.436  34.709  26.698  1.00  0.00     0.031 C 
ATOM     68  C   UNL A   1      52.509  31.462  25.883  1.00  0.00     0.029 A 
ATOM     69  C   UNL A   1      51.184  31.824  26.078  1.00  0.00     0.049 A 
ATOM     70  H   UNL A   1      49.481  30.588  26.240  1.00  0.00     0.167 HD
ATOM     71  C   UNL A   1      49.303  33.413  26.381  1.00  0.00     0.074 A 
ATOM     72  C   UNL A   1      48.749  34.745  26.516  1.00  0.00     0.031 C 
ATOM     73  C   UNL A   1      50.624  33.145  26.223  1.00  0.00     0.037 A 
BRANCH  60  74
ATOM     74  C   UNL A   1      51.935  27.108  25.900  1.00  0.00     0.057 A 
ATOM     75  C   UNL A   1      52.633  26.656  27.028  1.00  0.00     0.134 A 
ATOM     76  C   UNL A   1      52.255  26.520  24.669  1.00  0.00     0.134 A 
ATOM     77  F   UNL A   1      52.389  27.186  28.238  1.00  0.00    -0.206 F 
ATOM     78  C   UNL A   1      53.638  25.693  26.930  1.00  0.00     0.040 A 
ATOM     79  C   UNL A   1      53.233  25.532  24.563  1.00  0.00     0.040 A 
ATOM     80  F   UNL A   1      51.624  26.900  23.548  1.00  0.00    -0.206 F 
ATOM     81  C   UNL A   1      53.937  25.123  25.693  1.00  0.00     0.006 A 
ENDBRANCH  60  74
BRANCH  61  82
ATOM     82  C   UNL A   1      44.643  33.842  26.936  1.00  0.00     0.057 A 
ATOM     83  C   UNL A   1      44.303  34.280  28.220  1.00  0.00     0.134 A 
ATOM     84  C   UNL A   1      43.937  34.393  25.859  1.00  0.00     0.134 A 
ATOM     85  F   UNL A   1      44.925  33.772  29.294  1.00  0.00    -0.206 F 
ATOM     86  C   UNL A   1      43.297  35.227  28.427  1.00  0.00     0.040 A 
ATOM     87  C   UNL A   1      42.948  35.358  26.048  1.00  0.00     0.040 A 
ATOM     88  F   UNL A   1      44.216  34.014  24.602  1.00  0.00    -0.206 F 
ATOM     89  C   UNL A   1      42.622  35.776  27.337  1.00  0.00     0.006 A 
ENDBRANCH  61  82
BRANCH  73  90
ATOM     90  C   UNL A   1      51.565  34.317  26.161  1.00  0.00     0.057 A 
ATOM     91  C   UNL A   1      51.940  34.908  24.947  1.00  0.00     0.134 A 
ATOM     92  C   UNL A   1      52.071  34.888  27.337  1.00  0.00     0.134 A 
ATOM     93  F   UNL A   1      51.501  34.407  23.782  1.00  0.00    -0.206 F 
ATOM     94  C   UNL A   1      52.804  36.004  24.903  1.00  0.00     0.040 A 
ATOM     95  C   UNL A   1      52.909  36.003  27.308  1.00  0.00     0.040 A 
ATOM     96  F   UNL A   1      51.744  34.381  28.536  1.00  0.00    -0.206 F 
ATOM     97  C   UNL A   1      53.285  36.560  26.087  1.00  0.00     0.006 A 
ENDBRANCH  73  90
ENDBRANCH  47  48
ENDBRANCH  40  42
ENDBRANCH  39  40
ENDBRANCH  38  39
ENDBRANCH  37  38
ENDBRANCH  36  37
ENDBRANCH  35  36
ENDBRANCH  34  35
ENDBRANCH  33  34
ENDBRANCH   1  33
TORSDOF 24
ENDMDL
MODEL 3
REMARK VINA RESULT:      -9.1      5.891     12.966
REMARK SMILES N#C/C(=C\c1ccc(-c2cc(C(=O)OCCOCCOCCOCCOC(=O)c3ccc(-c4c5nc(c(-c6c(F)cccc6F)c6ccc([nH]6)c(-c6c(F)cccc6F)c6nc(c(-c7c(F)cccc7F)c7ccc4[nH]7)C=C6)C=C5)cc3)ccc2Cl)o1)C(=O)N1CCOCC1
REMARK SMILES IDX 19 1 18 2 17 3 16 4 15 5 14 6 12 7 13 8 11 9 9 10 10 11
REMARK SMILES IDX 85 12 84 13 86 14 83 15 8 16 5 17 6 18 87 19 7 20 4 21 3 22
REMARK SMILES IDX 2 23 1 24 88 25 89 26 90 27 91 28 95 29 92 30 94 31 93 32
REMARK SMILES IDX 20 33 21 34 22 35 23 36 24 37 25 38 26 39 27 40 28 41 29 42
REMARK SMILES IDX 30 43 82 44 31 45 81 46 32 47 33 48 34 49 75 50 35 51 80 52
REMARK SMILES IDX 74 53 76 54 36 55 79 56 73 57 72 58 37 60 63 61 46 62 62 63
REMARK SMILES IDX 47 64 50 65 61 66 77 67 48 68 49 69 60 71 78 72 51 73 38 74
REMARK SMILES IDX 39 75 44 76 40 77 41 78 43 79 45 80 42 81 64 82 65 83 70 84
REMARK SMILES IDX 66 85 67 86 69 87 71 88 68 89 52 90 53 91 58 92 54 93 55 94
REMARK SMILES IDX 57 95 59 96 56 97
REMARK H PARENT 76 59 50 70
REMARK Flexibility Score: inf
ROOT
ATOM      1  C   UNL A   1      52.066  32.679  24.707  1.00  0.00     0.188 C 
ENDROOT
BRANCH   1   2
ATOM      2  C   UNL A   1      52.404  32.256  23.262  1.00  0.00     0.188 C 
BRANCH   2   3
ATOM      3  O   UNL A   1      52.881  30.925  23.171  1.00  0.00    -0.376 OA
BRANCH   3   4
ATOM      4  C   UNL A   1      52.023  29.907  22.689  1.00  0.00     0.202 C 
BRANCH   4   5
ATOM      5  C   UNL A   1      52.286  28.436  23.047  1.00  0.00     0.261 C 
BRANCH   5   6
ATOM      6  O   UNL A   1      51.330  27.480  22.574  1.00  0.00    -0.460 OA
BRANCH   6   7
ATOM      7  C   UNL A   1      50.018  27.776  22.713  1.00  0.00     0.338 C 
ATOM      8  O   UNL A   1      49.319  28.379  21.921  1.00  0.00    -0.246 OA
BRANCH   7   9
ATOM      9  C   UNL A   1      49.517  27.049  23.912  1.00  0.00     0.060 A 
ATOM     10  C   UNL A   1      47.937  25.456  24.880  1.00  0.00     0.037 A 
ATOM     11  C   UNL A   1      48.403  26.200  23.782  1.00  0.00     0.029 A 
ATOM     12  C   UNL A   1      48.616  25.580  26.109  1.00  0.00     0.052 A 
ATOM     13  C   UNL A   1      49.733  26.416  26.234  1.00  0.00     0.022 A 
ATOM     14  Cl  UNL A   1      48.102  24.738  27.534  1.00  0.00    -0.084 Cl
ATOM     15  C   UNL A   1      50.183  27.153  25.139  1.00  0.00     0.017 A 
BRANCH  10  16
ATOM     16  C   UNL A   1      46.676  24.727  24.777  1.00  0.00     0.136 A 
ATOM     17  C   UNL A   1      44.466  24.424  25.001  1.00  0.00     0.129 A 
ATOM     18  C   UNL A   1      45.015  23.301  24.382  1.00  0.00     0.051 A 
ATOM     19  O   UNL A   1      45.517  25.318  25.211  1.00  0.00    -0.457 OA
ATOM     20  C   UNL A   1      46.408  23.477  24.278  1.00  0.00     0.051 A 
BRANCH  17  21
ATOM     21  C   UNL A   1      43.091  24.685  25.364  1.00  0.00     0.072 C 
ATOM     22  C   UNL A   1      42.518  24.262  26.529  1.00  0.00     0.121 C 
BRANCH  22  23
ATOM     23  C   UNL A   1      43.548  23.874  27.577  1.00  0.00     0.105 C 
ATOM     24  N   UNL A   1      44.403  23.552  28.447  1.00  0.00    -0.192 NA
ENDBRANCH  22  23
BRANCH  22  25
ATOM     25  C   UNL A   1      41.141  24.647  26.921  1.00  0.00     0.264 C 
ATOM     26  O   UNL A   1      40.889  25.839  27.091  1.00  0.00    -0.268 OA
ATOM     27  N   UNL A   1      40.158  23.674  27.014  1.00  0.00    -0.333 N 
ATOM     28  C   UNL A   1      40.312  22.226  27.227  1.00  0.00     0.148 C 
ATOM     29  C   UNL A   1      38.756  24.078  26.882  1.00  0.00     0.148 C 
ATOM     30  C   UNL A   1      39.580  21.441  26.125  1.00  0.00     0.181 C 
ATOM     31  C   UNL A   1      38.111  23.268  25.750  1.00  0.00     0.181 C 
ATOM     32  O   UNL A   1      38.209  21.857  26.012  1.00  0.00    -0.378 OA
ENDBRANCH  22  25
ENDBRANCH  17  21
ENDBRANCH  10  16
ENDBRANCH   7   9
ENDBRANCH   6   7
ENDBRANCH   5   6
ENDBRANCH   4   5
ENDBRANCH   3   4
ENDBRANCH   2   3
ENDBRANCH   1   2
BRANCH   1  33
ATOM     33  O   UNL A   1      50.698  32.676  25.087  1.00  0.00    -0.377 OA
BRANCH  33  34
ATOM     34  C   UNL A   1      50.155  33.800  25.779  1.00  0.00     0.188 C 
BRANCH  34  35
ATOM     35  C   UNL A   1      49.422  34.960  25.056  1.00  0.00     0.188 C 
BRANCH  35  36
ATOM     36  O   UNL A   1      48.013  34.835  24.999  1.00  0.00    -0.376 OA
BRANCH  36  37
ATOM     37  C   UNL A   1      47.344  34.268  26.111  1.00  0.00     0.202 C 
BRANCH  37  38
ATOM     38  C   UNL A   1      45.824  34.107  25.989  1.00  0.00     0.261 C 
BRANCH  38  39
ATOM     39  O   UNL A   1      45.185  33.375  27.046  1.00  0.00    -0.460 OA
BRANCH  39  40
ATOM     40  C   UNL A   1      44.613  32.198  26.720  1.00  0.00     0.338 C 
ATOM     41  O   UNL A   1      43.838  31.981  25.802  1.00  0.00    -0.246 OA
BRANCH  40  42
ATOM     42  C   UNL A   1      45.230  31.155  27.561  1.00  0.00     0.060 A 
ATOM     43  C   UNL A   1      45.792  31.515  28.794  1.00  0.00     0.016 A 
ATOM     44  C   UNL A   1      45.240  29.823  27.138  1.00  0.00     0.016 A 
ATOM     45  C   UNL A   1      46.399  30.546  29.592  1.00  0.00     0.010 A 
ATOM     46  C   UNL A   1      45.865  28.858  27.929  1.00  0.00     0.010 A 
ATOM     47  C   UNL A   1      46.476  29.220  29.142  1.00  0.00    -0.014 A 
BRANCH  47  48
ATOM     48  C   UNL A   1      47.356  28.257  29.847  1.00  0.00     0.031 A 
ATOM     49  C   UNL A   1      46.748  27.360  30.888  1.00  0.00     0.074 A 
ATOM     50  C   UNL A   1      48.666  28.171  29.563  1.00  0.00     0.049 A 
ATOM     51  N   UNL A   1      47.320  26.472  31.659  1.00  0.00    -0.248 NA
ATOM     52  C   UNL A   1      45.297  27.492  31.091  1.00  0.00     0.031 C 
ATOM     53  C   UNL A   1      49.367  28.966  28.557  1.00  0.00     0.029 A 
ATOM     54  N   UNL A   1      49.643  27.378  30.112  1.00  0.00    -0.354 N 
ATOM     55  C   UNL A   1      46.302  25.949  32.447  1.00  0.00     0.074 A 
ATOM     56  C   UNL A   1      45.086  26.643  32.083  1.00  0.00     0.031 C 
ATOM     57  C   UNL A   1      50.669  28.631  28.572  1.00  0.00     0.029 A 
ATOM     58  C   UNL A   1      50.896  27.626  29.610  1.00  0.00     0.049 A 
ATOM     59  H   UNL A   1      49.462  26.697  30.799  1.00  0.00     0.167 HD
ATOM     60  C   UNL A   1      46.374  24.976  33.386  1.00  0.00     0.037 A 
ATOM     61  C   UNL A   1      52.092  27.119  29.968  1.00  0.00     0.037 A 
ATOM     62  C   UNL A   1      47.589  24.294  33.748  1.00  0.00     0.049 A 
ATOM     63  C   UNL A   1      52.162  26.080  31.055  1.00  0.00     0.074 A 
ATOM     64  C   UNL A   1      47.761  23.265  34.657  1.00  0.00     0.029 A 
ATOM     65  N   UNL A   1      48.843  24.588  33.234  1.00  0.00    -0.354 N 
ATOM     66  N   UNL A   1      51.190  25.556  31.764  1.00  0.00    -0.248 NA
ATOM     67  C   UNL A   1      53.494  25.555  31.387  1.00  0.00     0.031 C 
ATOM     68  C   UNL A   1      49.129  22.985  34.745  1.00  0.00     0.029 A 
ATOM     69  C   UNL A   1      49.802  23.789  33.837  1.00  0.00     0.049 A 
ATOM     70  H   UNL A   1      49.027  25.264  32.542  1.00  0.00     0.167 HD
ATOM     71  C   UNL A   1      51.788  24.627  32.607  1.00  0.00     0.074 A 
ATOM     72  C   UNL A   1      53.206  24.649  32.311  1.00  0.00     0.031 C 
ATOM     73  C   UNL A   1      51.213  23.826  33.540  1.00  0.00     0.037 A 
BRANCH  60  74
ATOM     74  C   UNL A   1      45.107  24.634  34.118  1.00  0.00     0.057 A 
ATOM     75  C   UNL A   1      44.227  23.639  33.671  1.00  0.00     0.134 A 
ATOM     76  C   UNL A   1      44.760  25.318  35.290  1.00  0.00     0.134 A 
ATOM     77  F   UNL A   1      44.489  22.954  32.546  1.00  0.00    -0.206 F 
ATOM     78  C   UNL A   1      43.031  23.367  34.337  1.00  0.00     0.040 A 
ATOM     79  C   UNL A   1      43.585  25.032  35.984  1.00  0.00     0.040 A 
ATOM     80  F   UNL A   1      45.558  26.280  35.779  1.00  0.00    -0.206 F 
ATOM     81  C   UNL A   1      42.709  24.062  35.501  1.00  0.00     0.006 A 
ENDBRANCH  60  74
BRANCH  61  82
ATOM     82  C   UNL A   1      53.322  27.606  29.295  1.00  0.00     0.057 A 
ATOM     83  C   UNL A   1      54.053  28.686  29.802  1.00  0.00     0.134 A 
ATOM     84  C   UNL A   1      53.806  26.990  28.134  1.00  0.00     0.134 A 
ATOM     85  F   UNL A   1      53.628  29.334  30.897  1.00  0.00    -0.206 F 
ATOM     86  C   UNL A   1      55.216  29.140  29.176  1.00  0.00     0.040 A 
ATOM     87  C   UNL A   1      54.981  27.415  27.513  1.00  0.00     0.040 A 
ATOM     88  F   UNL A   1      53.151  25.949  27.597  1.00  0.00    -0.206 F 
ATOM     89  C   UNL A   1      55.688  28.497  28.033  1.00  0.00     0.006 A 
ENDBRANCH  61  82
BRANCH  73  90
ATOM     90  C   UNL A   1      52.113  22.884  34.293  1.00  0.00     0.057 A 
ATOM     91  C   UNL A   1      52.664  23.216  35.538  1.00  0.00     0.134 A 
ATOM     92  C   UNL A   1      52.400  21.611  33.782  1.00  0.00     0.134 A 
ATOM     93  F   UNL A   1      52.439  24.421  36.083  1.00  0.00    -0.206 F 
ATOM     94  C   UNL A   1      53.487  22.327  36.233  1.00  0.00     0.040 A 
ATOM     95  C   UNL A   1      53.194  20.702  34.482  1.00  0.00     0.040 A 
ATOM     96  F   UNL A   1      51.896  21.222  32.600  1.00  0.00    -0.206 F 
ATOM     97  C   UNL A   1      53.748  21.062  35.708  1.00  0.00     0.006 A 
ENDBRANCH  73  90
ENDBRANCH  47  48
ENDBRANCH  40  42
ENDBRANCH  39  40
ENDBRANCH  38  39
ENDBRANCH  37  38
ENDBRANCH  36  37
ENDBRANCH  35  36
ENDBRANCH  34  35
ENDBRANCH  33  34
ENDBRANCH   1  33
TORSDOF 24
ENDMDL
