MODEL 1
REMARK VINA RESULT:      -9.2      0.000      0.000
REMARK SMILES CCCOC(=O)c1c(NC(=O)[C@@H]2CC=CC[C@H]2C(=O)OCCOCCOCCOCCOC(=O)c2ccc(-c3c4nc(c(-c5c(F)cccc5F)c5ccc([nH]5)c(-c5c(F)cccc5F)c5nc(c(-c6c(F)cccc6F)c6ccc3[nH]6)C=C5)C=C4)cc2)sc2c1CCCC2
REMARK SMILES IDX 24 1 23 2 22 3 21 4 20 5 18 6 19 7 17 8 12 9 13 10 14 11
REMARK SMILES IDX 16 12 15 13 10 14 9 15 11 17 8 18 7 19 91 20 89 21 90 22
REMARK SMILES IDX 92 23 95 24 93 25 94 26 5 27 6 28 4 29 3 30 2 31 1 32 25 33
REMARK SMILES IDX 26 34 27 35 28 36 29 37 30 38 31 39 32 40 33 41 34 42 35 43
REMARK SMILES IDX 36 44 88 45 37 46 87 47 38 48 39 49 40 50 81 51 41 52 86 53
REMARK SMILES IDX 80 54 82 55 42 56 85 57 79 58 78 59 43 61 69 62 52 63 68 64
REMARK SMILES IDX 53 65 56 66 67 67 83 68 54 69 55 70 66 72 84 73 57 74 44 75
REMARK SMILES IDX 45 76 50 77 46 78 47 79 49 80 51 81 48 82 70 83 71 84 76 85
REMARK SMILES IDX 72 86 73 87 75 88 77 89 74 90 58 91 59 92 64 93 60 94 61 95
REMARK SMILES IDX 63 96 65 97 62 98
REMARK H PARENT 9 16 82 60 56 71
REMARK Flexibility Score: inf
ROOT
ATOM      1  C   UNL A   1      34.678  31.036  27.969  1.00  0.00     0.188 C 
ENDROOT
BRANCH   1   2
ATOM      2  O   UNL A   1      33.298  30.874  27.640  1.00  0.00    -0.376 OA
BRANCH   2   3
ATOM      3  C   UNL A   1      32.993  30.775  26.246  1.00  0.00     0.202 C 
BRANCH   3   4
ATOM      4  C   UNL A   1      31.742  29.956  25.919  1.00  0.00     0.261 C 
BRANCH   4   5
ATOM      5  O   UNL A   1      32.072  28.576  25.627  1.00  0.00    -0.463 OA
BRANCH   5   6
ATOM      6  C   UNL A   1      31.857  27.718  26.644  1.00  0.00     0.310 C 
ATOM      7  O   UNL A   1      31.228  28.007  27.661  1.00  0.00    -0.252 OA
BRANCH   6   8
ATOM      8  C   UNL A   1      32.437  26.335  26.479  1.00  0.00     0.116 C 
ATOM      9  C   UNL A   1      31.754  25.145  25.775  1.00  0.00     0.097 C 
ATOM     10  C   UNL A   1      32.582  23.888  26.186  1.00  0.00     0.041 C 
ATOM     11  C   UNL A   1      34.061  24.067  25.969  1.00  0.00    -0.030 C 
ATOM     12  C   UNL A   1      33.821  26.541  25.823  1.00  0.00     0.043 C 
ATOM     13  C   UNL A   1      34.617  25.271  25.768  1.00  0.00    -0.030 C 
BRANCH   9  14
ATOM     14  C   UNL A   1      30.303  24.839  26.095  1.00  0.00     0.229 C 
ATOM     15  N   UNL A   1      29.264  25.185  25.281  1.00  0.00    -0.317 N 
ATOM     16  H   UNL A   1      28.411  24.740  25.485  1.00  0.00     0.170 HD
ATOM     17  O   UNL A   1      30.023  24.235  27.138  1.00  0.00    -0.274 OA
BRANCH  15  18
ATOM     18  C   UNL A   1      29.221  26.057  24.220  1.00  0.00     0.110 A 
ATOM     19  C   UNL A   1      30.053  26.579  23.248  1.00  0.00     0.098 A 
ATOM     20  C   UNL A   1      29.608  27.922  22.940  1.00  0.00    -0.017 A 
ATOM     21  S   UNL A   1      27.650  26.706  24.041  1.00  0.00    -0.122 S 
ATOM     22  C   UNL A   1      28.298  28.110  23.348  1.00  0.00     0.011 A 
ATOM     23  C   UNL A   1      30.351  29.003  22.217  1.00  0.00     0.038 C 
ATOM     24  C   UNL A   1      27.498  29.364  23.230  1.00  0.00     0.047 C 
ATOM     25  C   UNL A   1      29.712  30.384  22.471  1.00  0.00     0.005 C 
ATOM     26  C   UNL A   1      28.187  30.360  22.290  1.00  0.00     0.006 C 
BRANCH  19  27
ATOM     27  C   UNL A   1      31.096  25.833  22.559  1.00  0.00     0.341 C 
ATOM     28  O   UNL A   1      31.431  24.719  22.933  1.00  0.00    -0.246 OA
BRANCH  27  29
ATOM     29  O   UNL A   1      31.607  26.463  21.462  1.00  0.00    -0.462 OA
BRANCH  29  30
ATOM     30  C   UNL A   1      33.009  26.237  21.225  1.00  0.00     0.233 C 
BRANCH  30  31
ATOM     31  C   UNL A   1      33.928  26.775  22.325  1.00  0.00     0.038 C 
ATOM     32  C   UNL A   1      33.877  28.280  22.544  1.00  0.00     0.007 C 
ENDBRANCH  30  31
ENDBRANCH  29  30
ENDBRANCH  27  29
ENDBRANCH  19  27
ENDBRANCH  15  18
ENDBRANCH   9  14
ENDBRANCH   6   8
ENDBRANCH   5   6
ENDBRANCH   4   5
ENDBRANCH   3   4
ENDBRANCH   2   3
ENDBRANCH   1   2
BRANCH   1  33
ATOM     33  C   UNL A   1      35.024  32.371  28.614  1.00  0.00     0.188 C 
BRANCH  33  34
ATOM     34  O   UNL A   1      35.161  33.403  27.632  1.00  0.00    -0.377 OA
BRANCH  34  35
ATOM     35  C   UNL A   1      34.219  34.450  27.823  1.00  0.00     0.188 C 
BRANCH  35  36
ATOM     36  C   UNL A   1      33.704  34.621  29.259  1.00  0.00     0.188 C 
BRANCH  36  37
ATOM     37  O   UNL A   1      33.229  35.898  29.663  1.00  0.00    -0.376 OA
BRANCH  37  38
ATOM     38  C   UNL A   1      33.225  36.225  31.054  1.00  0.00     0.202 C 
BRANCH  38  39
ATOM     39  C   UNL A   1      33.327  35.065  32.041  1.00  0.00     0.261 C 
BRANCH  39  40
ATOM     40  O   UNL A   1      34.692  34.775  32.390  1.00  0.00    -0.460 OA
BRANCH  40  41
ATOM     41  C   UNL A   1      34.978  33.462  32.518  1.00  0.00     0.338 C 
ATOM     42  O   UNL A   1      34.326  32.506  32.134  1.00  0.00    -0.246 OA
BRANCH  41  43
ATOM     43  C   UNL A   1      36.259  33.303  33.208  1.00  0.00     0.060 A 
ATOM     44  C   UNL A   1      36.670  32.030  33.619  1.00  0.00     0.016 A 
ATOM     45  C   UNL A   1      36.942  34.451  33.608  1.00  0.00     0.016 A 
ATOM     46  C   UNL A   1      37.752  31.907  34.490  1.00  0.00     0.010 A 
ATOM     47  C   UNL A   1      38.014  34.327  34.483  1.00  0.00     0.010 A 
ATOM     48  C   UNL A   1      38.391  33.060  34.963  1.00  0.00    -0.014 A 
BRANCH  48  49
ATOM     49  C   UNL A   1      39.331  33.001  36.104  1.00  0.00     0.031 A 
ATOM     50  C   UNL A   1      40.794  32.815  35.812  1.00  0.00     0.074 A 
ATOM     51  C   UNL A   1      38.875  33.021  37.367  1.00  0.00     0.049 A 
ATOM     52  N   UNL A   1      41.774  32.532  36.629  1.00  0.00    -0.248 NA
ATOM     53  C   UNL A   1      41.202  32.951  34.403  1.00  0.00     0.031 C 
ATOM     54  C   UNL A   1      37.484  33.228  37.761  1.00  0.00     0.029 A 
ATOM     55  N   UNL A   1      39.540  32.825  38.549  1.00  0.00    -0.354 N 
ATOM     56  C   UNL A   1      42.909  32.431  35.833  1.00  0.00     0.074 A 
ATOM     57  C   UNL A   1      42.495  32.673  34.468  1.00  0.00     0.031 C 
ATOM     58  C   UNL A   1      37.391  33.118  39.097  1.00  0.00     0.029 A 
ATOM     59  C   UNL A   1      38.708  32.784  39.640  1.00  0.00     0.049 A 
ATOM     60  H   UNL A   1      40.518  32.723  38.610  1.00  0.00     0.167 HD
ATOM     61  C   UNL A   1      44.179  32.153  36.210  1.00  0.00     0.037 A 
ATOM     62  C   UNL A   1      38.979  32.467  40.921  1.00  0.00     0.037 A 
ATOM     63  C   UNL A   1      44.575  31.909  37.570  1.00  0.00     0.049 A 
ATOM     64  C   UNL A   1      40.387  32.091  41.304  1.00  0.00     0.074 A 
ATOM     65  C   UNL A   1      45.838  31.647  38.067  1.00  0.00     0.029 A 
ATOM     66  N   UNL A   1      43.704  31.883  38.649  1.00  0.00    -0.354 N 
ATOM     67  N   UNL A   1      41.461  32.027  40.554  1.00  0.00    -0.248 NA
ATOM     68  C   UNL A   1      40.619  31.734  42.711  1.00  0.00     0.031 C 
ATOM     69  C   UNL A   1      45.725  31.410  39.441  1.00  0.00     0.029 A 
ATOM     70  C   UNL A   1      44.399  31.584  39.807  1.00  0.00     0.049 A 
ATOM     71  H   UNL A   1      42.736  32.052  38.599  1.00  0.00     0.167 HD
ATOM     72  C   UNL A   1      42.500  31.666  41.404  1.00  0.00     0.074 A 
ATOM     73  C   UNL A   1      41.927  31.521  42.726  1.00  0.00     0.031 C 
ATOM     74  C   UNL A   1      43.813  31.475  41.119  1.00  0.00     0.037 A 
BRANCH  61  75
ATOM     75  C   UNL A   1      45.222  32.064  35.135  1.00  0.00     0.057 A 
ATOM     76  C   UNL A   1      45.513  30.861  34.478  1.00  0.00     0.134 A 
ATOM     77  C   UNL A   1      45.920  33.208  34.725  1.00  0.00     0.134 A 
ATOM     78  F   UNL A   1      44.890  29.727  34.830  1.00  0.00    -0.206 F 
ATOM     79  C   UNL A   1      46.474  30.795  33.466  1.00  0.00     0.040 A 
ATOM     80  C   UNL A   1      46.863  33.160  33.698  1.00  0.00     0.040 A 
ATOM     81  F   UNL A   1      45.688  34.394  35.309  1.00  0.00    -0.206 F 
ATOM     82  C   UNL A   1      47.146  31.949  33.069  1.00  0.00     0.006 A 
ENDBRANCH  61  75
BRANCH  62  83
ATOM     83  C   UNL A   1      37.895  32.474  41.935  1.00  0.00     0.057 A 
ATOM     84  C   UNL A   1      37.467  33.672  42.520  1.00  0.00     0.134 A 
ATOM     85  C   UNL A   1      37.278  31.292  42.362  1.00  0.00     0.134 A 
ATOM     86  F   UNL A   1      38.035  34.836  42.168  1.00  0.00    -0.206 F 
ATOM     87  C   UNL A   1      36.481  33.694  43.507  1.00  0.00     0.040 A 
ATOM     88  C   UNL A   1      36.272  31.302  43.328  1.00  0.00     0.040 A 
ATOM     89  F   UNL A   1      37.640  30.112  41.839  1.00  0.00    -0.206 F 
ATOM     90  C   UNL A   1      35.876  32.504  43.910  1.00  0.00     0.006 A 
ENDBRANCH  62  83
BRANCH  74  91
ATOM     91  C   UNL A   1      44.735  31.160  42.260  1.00  0.00     0.057 A 
ATOM     92  C   UNL A   1      45.059  29.845  42.614  1.00  0.00     0.134 A 
ATOM     93  C   UNL A   1      45.365  32.195  42.963  1.00  0.00     0.134 A 
ATOM     94  F   UNL A   1      44.481  28.809  41.988  1.00  0.00    -0.206 F 
ATOM     95  C   UNL A   1      45.970  29.572  43.637  1.00  0.00     0.040 A 
ATOM     96  C   UNL A   1      46.297  31.935  43.968  1.00  0.00     0.040 A 
ATOM     97  F   UNL A   1      45.104  33.478  42.666  1.00  0.00    -0.206 F 
ATOM     98  C   UNL A   1      46.599  30.619  44.309  1.00  0.00     0.006 A 
ENDBRANCH  74  91
ENDBRANCH  48  49
ENDBRANCH  41  43
ENDBRANCH  40  41
ENDBRANCH  39  40
ENDBRANCH  38  39
ENDBRANCH  37  38
ENDBRANCH  36  37
ENDBRANCH  35  36
ENDBRANCH  34  35
ENDBRANCH  33  34
ENDBRANCH   1  33
TORSDOF 26
ENDMDL
MODEL 2
REMARK VINA RESULT:      -8.9      6.820     10.983
REMARK SMILES CCCOC(=O)c1c(NC(=O)[C@@H]2CC=CC[C@H]2C(=O)OCCOCCOCCOCCOC(=O)c2ccc(-c3c4nc(c(-c5c(F)cccc5F)c5ccc([nH]5)c(-c5c(F)cccc5F)c5nc(c(-c6c(F)cccc6F)c6ccc3[nH]6)C=C5)C=C4)cc2)sc2c1CCCC2
REMARK SMILES IDX 24 1 23 2 22 3 21 4 20 5 18 6 19 7 17 8 12 9 13 10 14 11
REMARK SMILES IDX 16 12 15 13 10 14 9 15 11 17 8 18 7 19 91 20 89 21 90 22
REMARK SMILES IDX 92 23 95 24 93 25 94 26 5 27 6 28 4 29 3 30 2 31 1 32 25 33
REMARK SMILES IDX 26 34 27 35 28 36 29 37 30 38 31 39 32 40 33 41 34 42 35 43
REMARK SMILES IDX 36 44 88 45 37 46 87 47 38 48 39 49 40 50 81 51 41 52 86 53
REMARK SMILES IDX 80 54 82 55 42 56 85 57 79 58 78 59 43 61 69 62 52 63 68 64
REMARK SMILES IDX 53 65 56 66 67 67 83 68 54 69 55 70 66 72 84 73 57 74 44 75
REMARK SMILES IDX 45 76 50 77 46 78 47 79 49 80 51 81 48 82 70 83 71 84 76 85
REMARK SMILES IDX 72 86 73 87 75 88 77 89 74 90 58 91 59 92 64 93 60 94 61 95
REMARK SMILES IDX 63 96 65 97 62 98
REMARK H PARENT 9 16 82 60 56 71
REMARK Flexibility Score: inf
ROOT
ATOM      1  C   UNL A   1      36.440  30.396  27.628  1.00  0.00     0.188 C 
ENDROOT
BRANCH   1   2
ATOM      2  O   UNL A   1      35.579  29.268  27.483  1.00  0.00    -0.376 OA
BRANCH   2   3
ATOM      3  C   UNL A   1      34.341  29.507  26.806  1.00  0.00     0.202 C 
BRANCH   3   4
ATOM      4  C   UNL A   1      33.978  28.467  25.744  1.00  0.00     0.261 C 
BRANCH   4   5
ATOM      5  O   UNL A   1      33.011  28.988  24.799  1.00  0.00    -0.463 OA
BRANCH   5   6
ATOM      6  C   UNL A   1      32.983  28.350  23.613  1.00  0.00     0.310 C 
ATOM      7  O   UNL A   1      33.803  28.538  22.716  1.00  0.00    -0.252 OA
BRANCH   6   8
ATOM      8  C   UNL A   1      31.864  27.355  23.420  1.00  0.00     0.116 C 
ATOM      9  C   UNL A   1      32.032  25.843  23.169  1.00  0.00     0.097 C 
ATOM     10  C   UNL A   1      30.634  25.344  22.685  1.00  0.00     0.041 C 
ATOM     11  C   UNL A   1      29.515  25.778  23.593  1.00  0.00    -0.030 C 
ATOM     12  C   UNL A   1      30.937  27.532  24.643  1.00  0.00     0.043 C 
ATOM     13  C   UNL A   1      29.666  26.748  24.507  1.00  0.00    -0.030 C 
BRANCH   9  14
ATOM     14  C   UNL A   1      33.045  25.378  22.140  1.00  0.00     0.229 C 
ATOM     15  N   UNL A   1      33.672  24.168  22.194  1.00  0.00    -0.317 N 
ATOM     16  H   UNL A   1      34.125  23.898  21.364  1.00  0.00     0.170 HD
ATOM     17  O   UNL A   1      33.325  26.115  21.185  1.00  0.00    -0.274 OA
BRANCH  15  18
ATOM     18  C   UNL A   1      33.770  23.265  23.225  1.00  0.00     0.110 A 
ATOM     19  C   UNL A   1      33.067  22.211  23.775  1.00  0.00     0.098 A 
ATOM     20  C   UNL A   1      33.324  22.185  25.200  1.00  0.00    -0.017 A 
ATOM     21  S   UNL A   1      35.209  23.520  24.111  1.00  0.00    -0.122 S 
ATOM     22  C   UNL A   1      34.476  22.892  25.503  1.00  0.00     0.011 A 
ATOM     23  C   UNL A   1      32.561  21.464  26.268  1.00  0.00     0.038 C 
ATOM     24  C   UNL A   1      35.054  23.116  26.860  1.00  0.00     0.047 C 
ATOM     25  C   UNL A   1      32.889  22.029  27.665  1.00  0.00     0.005 C 
ATOM     26  C   UNL A   1      34.400  22.187  27.888  1.00  0.00     0.006 C 
BRANCH  19  27
ATOM     27  C   UNL A   1      32.324  21.219  23.012  1.00  0.00     0.341 C 
ATOM     28  O   UNL A   1      31.879  21.474  21.903  1.00  0.00    -0.246 OA
BRANCH  27  29
ATOM     29  O   UNL A   1      32.223  20.001  23.619  1.00  0.00    -0.462 OA
BRANCH  29  30
ATOM     30  C   UNL A   1      32.451  18.868  22.760  1.00  0.00     0.233 C 
BRANCH  30  31
ATOM     31  C   UNL A   1      33.275  17.747  23.401  1.00  0.00     0.038 C 
ATOM     32  C   UNL A   1      33.365  17.786  24.919  1.00  0.00     0.007 C 
ENDBRANCH  30  31
ENDBRANCH  29  30
ENDBRANCH  27  29
ENDBRANCH  19  27
ENDBRANCH  15  18
ENDBRANCH   9  14
ENDBRANCH   6   8
ENDBRANCH   5   6
ENDBRANCH   4   5
ENDBRANCH   3   4
ENDBRANCH   2   3
ENDBRANCH   1   2
BRANCH   1  33
ATOM     33  C   UNL A   1      36.026  31.374  28.720  1.00  0.00     0.188 C 
BRANCH  33  34
ATOM     34  O   UNL A   1      35.516  32.589  28.163  1.00  0.00    -0.377 OA
BRANCH  34  35
ATOM     35  C   UNL A   1      34.374  33.060  28.867  1.00  0.00     0.188 C 
BRANCH  35  36
ATOM     36  C   UNL A   1      34.496  33.064  30.396  1.00  0.00     0.188 C 
BRANCH  36  37
ATOM     37  O   UNL A   1      35.112  34.179  31.027  1.00  0.00    -0.376 OA
BRANCH  37  38
ATOM     38  C   UNL A   1      36.048  33.945  32.082  1.00  0.00     0.202 C 
BRANCH  38  39
ATOM     39  C   UNL A   1      35.724  32.822  33.063  1.00  0.00     0.261 C 
BRANCH  39  40
ATOM     40  O   UNL A   1      36.864  31.979  33.309  1.00  0.00    -0.460 OA
BRANCH  40  41
ATOM     41  C   UNL A   1      37.008  30.954  32.442  1.00  0.00     0.338 C 
ATOM     42  O   UNL A   1      36.205  30.079  32.168  1.00  0.00    -0.246 OA
BRANCH  41  43
ATOM     43  C   UNL A   1      38.328  31.023  31.814  1.00  0.00     0.060 A 
ATOM     44  C   UNL A   1      38.457  31.571  30.532  1.00  0.00     0.016 A 
ATOM     45  C   UNL A   1      39.390  30.362  32.431  1.00  0.00     0.016 A 
ATOM     46  C   UNL A   1      39.653  31.409  29.834  1.00  0.00     0.010 A 
ATOM     47  C   UNL A   1      40.578  30.194  31.730  1.00  0.00     0.010 A 
ATOM     48  C   UNL A   1      40.695  30.675  30.414  1.00  0.00    -0.014 A 
BRANCH  48  49
ATOM     49  C   UNL A   1      41.852  30.223  29.609  1.00  0.00     0.031 A 
ATOM     50  C   UNL A   1      41.865  28.802  29.119  1.00  0.00     0.074 A 
ATOM     51  C   UNL A   1      42.900  31.035  29.402  1.00  0.00     0.049 A 
ATOM     52  N   UNL A   1      42.840  28.118  28.580  1.00  0.00    -0.248 NA
ATOM     53  C   UNL A   1      40.611  28.045  29.273  1.00  0.00     0.031 C 
ATOM     54  C   UNL A   1      42.977  32.437  29.806  1.00  0.00     0.029 A 
ATOM     55  N   UNL A   1      44.119  30.777  28.831  1.00  0.00    -0.354 N 
ATOM     56  C   UNL A   1      42.328  26.846  28.355  1.00  0.00     0.074 A 
ATOM     57  C   UNL A   1      40.959  26.849  28.823  1.00  0.00     0.031 C 
ATOM     58  C   UNL A   1      44.196  32.911  29.496  1.00  0.00     0.029 A 
ATOM     59  C   UNL A   1      44.995  31.830  28.920  1.00  0.00     0.049 A 
ATOM     60  H   UNL A   1      44.344  29.920  28.401  1.00  0.00     0.167 HD
ATOM     61  C   UNL A   1      42.949  25.773  27.813  1.00  0.00     0.037 A 
ATOM     62  C   UNL A   1      46.305  31.891  28.610  1.00  0.00     0.037 A 
ATOM     63  C   UNL A   1      44.312  25.783  27.356  1.00  0.00     0.049 A 
ATOM     64  C   UNL A   1      46.993  30.662  28.076  1.00  0.00     0.074 A 
ATOM     65  C   UNL A   1      45.032  24.761  26.765  1.00  0.00     0.029 A 
ATOM     66  N   UNL A   1      45.166  26.872  27.456  1.00  0.00    -0.354 N 
ATOM     67  N   UNL A   1      46.498  29.472  27.836  1.00  0.00    -0.248 NA
ATOM     68  C   UNL A   1      48.428  30.783  27.776  1.00  0.00     0.031 C 
ATOM     69  C   UNL A   1      46.338  25.214  26.554  1.00  0.00     0.029 A 
ATOM     70  C   UNL A   1      46.414  26.537  26.960  1.00  0.00     0.049 A 
ATOM     71  H   UNL A   1      44.921  27.751  27.825  1.00  0.00     0.167 HD
ATOM     72  C   UNL A   1      47.545  28.718  27.319  1.00  0.00     0.074 A 
ATOM     73  C   UNL A   1      48.704  29.584  27.283  1.00  0.00     0.031 C 
ATOM     74  C   UNL A   1      47.547  27.426  26.906  1.00  0.00     0.037 A 
BRANCH  61  75
ATOM     75  C   UNL A   1      42.173  24.492  27.716  1.00  0.00     0.057 A 
ATOM     76  C   UNL A   1      41.259  24.252  26.681  1.00  0.00     0.134 A 
ATOM     77  C   UNL A   1      42.371  23.469  28.652  1.00  0.00     0.134 A 
ATOM     78  F   UNL A   1      41.014  25.195  25.759  1.00  0.00    -0.206 F 
ATOM     79  C   UNL A   1      40.557  23.048  26.592  1.00  0.00     0.040 A 
ATOM     80  C   UNL A   1      41.694  22.252  28.559  1.00  0.00     0.040 A 
ATOM     81  F   UNL A   1      43.234  23.630  29.667  1.00  0.00    -0.206 F 
ATOM     82  C   UNL A   1      40.779  22.042  27.529  1.00  0.00     0.006 A 
ENDBRANCH  61  75
BRANCH  62  83
ATOM     83  C   UNL A   1      47.059  33.153  28.812  1.00  0.00     0.057 A 
ATOM     84  C   UNL A   1      47.188  34.086  27.777  1.00  0.00     0.134 A 
ATOM     85  C   UNL A   1      47.686  33.450  30.028  1.00  0.00     0.134 A 
ATOM     86  F   UNL A   1      46.628  33.849  26.581  1.00  0.00    -0.206 F 
ATOM     87  C   UNL A   1      47.930  35.258  27.934  1.00  0.00     0.040 A 
ATOM     88  C   UNL A   1      48.409  34.630  30.209  1.00  0.00     0.040 A 
ATOM     89  F   UNL A   1      47.598  32.600  31.061  1.00  0.00    -0.206 F 
ATOM     90  C   UNL A   1      48.540  35.534  29.157  1.00  0.00     0.006 A 
ENDBRANCH  62  83
BRANCH  74  91
ATOM     91  C   UNL A   1      48.816  26.886  26.314  1.00  0.00     0.057 A 
ATOM     92  C   UNL A   1      49.097  26.979  24.947  1.00  0.00     0.134 A 
ATOM     93  C   UNL A   1      49.802  26.335  27.144  1.00  0.00     0.134 A 
ATOM     94  F   UNL A   1      48.191  27.486  24.097  1.00  0.00    -0.206 F 
ATOM     95  C   UNL A   1      50.312  26.531  24.423  1.00  0.00     0.040 A 
ATOM     96  C   UNL A   1      51.029  25.909  26.636  1.00  0.00     0.040 A 
ATOM     97  F   UNL A   1      49.598  26.227  28.466  1.00  0.00    -0.206 F 
ATOM     98  C   UNL A   1      51.285  26.004  25.270  1.00  0.00     0.006 A 
ENDBRANCH  74  91
ENDBRANCH  48  49
ENDBRANCH  41  43
ENDBRANCH  40  41
ENDBRANCH  39  40
ENDBRANCH  38  39
ENDBRANCH  37  38
ENDBRANCH  36  37
ENDBRANCH  35  36
ENDBRANCH  34  35
ENDBRANCH  33  34
ENDBRANCH   1  33
TORSDOF 26
ENDMDL
MODEL 3
REMARK VINA RESULT:      -8.8      5.557      8.980
REMARK SMILES CCCOC(=O)c1c(NC(=O)[C@@H]2CC=CC[C@H]2C(=O)OCCOCCOCCOCCOC(=O)c2ccc(-c3c4nc(c(-c5c(F)cccc5F)c5ccc([nH]5)c(-c5c(F)cccc5F)c5nc(c(-c6c(F)cccc6F)c6ccc3[nH]6)C=C5)C=C4)cc2)sc2c1CCCC2
REMARK SMILES IDX 24 1 23 2 22 3 21 4 20 5 18 6 19 7 17 8 12 9 13 10 14 11
REMARK SMILES IDX 16 12 15 13 10 14 9 15 11 17 8 18 7 19 91 20 89 21 90 22
REMARK SMILES IDX 92 23 95 24 93 25 94 26 5 27 6 28 4 29 3 30 2 31 1 32 25 33
REMARK SMILES IDX 26 34 27 35 28 36 29 37 30 38 31 39 32 40 33 41 34 42 35 43
REMARK SMILES IDX 36 44 88 45 37 46 87 47 38 48 39 49 40 50 81 51 41 52 86 53
REMARK SMILES IDX 80 54 82 55 42 56 85 57 79 58 78 59 43 61 69 62 52 63 68 64
REMARK SMILES IDX 53 65 56 66 67 67 83 68 54 69 55 70 66 72 84 73 57 74 44 75
REMARK SMILES IDX 45 76 50 77 46 78 47 79 49 80 51 81 48 82 70 83 71 84 76 85
REMARK SMILES IDX 72 86 73 87 75 88 77 89 74 90 58 91 59 92 64 93 60 94 61 95
REMARK SMILES IDX 63 96 65 97 62 98
REMARK H PARENT 9 16 82 60 56 71
REMARK Flexibility Score: inf
ROOT
ATOM      1  C   UNL A   1      33.996  30.800  26.906  1.00  0.00     0.188 C 
ENDROOT
BRANCH   1   2
ATOM      2  O   UNL A   1      34.425  29.448  27.068  1.00  0.00    -0.376 OA
BRANCH   2   3
ATOM      3  C   UNL A   1      33.524  28.583  27.765  1.00  0.00     0.202 C 
BRANCH   3   4
ATOM      4  C   UNL A   1      32.044  28.943  27.616  1.00  0.00     0.261 C 
BRANCH   4   5
ATOM      5  O   UNL A   1      31.539  28.583  26.306  1.00  0.00    -0.463 OA
BRANCH   5   6
ATOM      6  C   UNL A   1      31.647  27.275  26.001  1.00  0.00     0.310 C 
ATOM      7  O   UNL A   1      31.345  26.365  26.772  1.00  0.00    -0.252 OA
BRANCH   6   8
ATOM      8  C   UNL A   1      32.170  26.956  24.621  1.00  0.00     0.116 C 
ATOM      9  C   UNL A   1      31.328  26.472  23.424  1.00  0.00     0.097 C 
ATOM     10  C   UNL A   1      32.358  25.949  22.375  1.00  0.00     0.041 C 
ATOM     11  C   UNL A   1      33.457  26.938  22.096  1.00  0.00    -0.030 C 
ATOM     12  C   UNL A   1      32.950  28.213  24.174  1.00  0.00     0.043 C 
ATOM     13  C   UNL A   1      33.701  27.987  22.896  1.00  0.00    -0.030 C 
BRANCH   9  14
ATOM     14  C   UNL A   1      30.318  25.361  23.640  1.00  0.00     0.229 C 
ATOM     15  N   UNL A   1      30.633  24.155  24.196  1.00  0.00    -0.317 N 
ATOM     16  H   UNL A   1      29.862  23.617  24.485  1.00  0.00     0.170 HD
ATOM     17  O   UNL A   1      29.137  25.537  23.312  1.00  0.00    -0.274 OA
BRANCH  15  18
ATOM     18  C   UNL A   1      31.858  23.575  24.419  1.00  0.00     0.110 A 
ATOM     19  C   UNL A   1      32.738  23.330  25.456  1.00  0.00     0.098 A 
ATOM     20  C   UNL A   1      34.085  23.357  24.926  1.00  0.00    -0.017 A 
ATOM     21  S   UNL A   1      32.504  22.960  22.960  1.00  0.00    -0.122 S 
ATOM     22  C   UNL A   1      34.076  23.178  23.553  1.00  0.00     0.011 A 
ATOM     23  C   UNL A   1      35.375  23.478  25.677  1.00  0.00     0.038 C 
ATOM     24  C   UNL A   1      35.261  23.172  22.646  1.00  0.00     0.047 C 
ATOM     25  C   UNL A   1      36.528  23.894  24.741  1.00  0.00     0.005 C 
ATOM     26  C   UNL A   1      36.560  23.060  23.452  1.00  0.00     0.006 C 
BRANCH  19  27
ATOM     27  C   UNL A   1      32.347  22.961  26.808  1.00  0.00     0.341 C 
ATOM     28  O   UNL A   1      31.225  23.199  27.231  1.00  0.00    -0.246 OA
BRANCH  27  29
ATOM     29  O   UNL A   1      33.311  22.301  27.513  1.00  0.00    -0.462 OA
BRANCH  29  30
ATOM     30  C   UNL A   1      33.314  20.870  27.351  1.00  0.00     0.233 C 
BRANCH  30  31
ATOM     31  C   UNL A   1      33.016  20.397  25.926  1.00  0.00     0.038 C 
ATOM     32  C   UNL A   1      34.212  19.874  25.144  1.00  0.00     0.007 C 
ENDBRANCH  30  31
ENDBRANCH  29  30
ENDBRANCH  27  29
ENDBRANCH  19  27
ENDBRANCH  15  18
ENDBRANCH   9  14
ENDBRANCH   6   8
ENDBRANCH   5   6
ENDBRANCH   4   5
ENDBRANCH   3   4
ENDBRANCH   2   3
ENDBRANCH   1   2
BRANCH   1  33
ATOM     33  C   UNL A   1      34.304  31.709  28.089  1.00  0.00     0.188 C 
BRANCH  33  34
ATOM     34  O   UNL A   1      34.504  33.061  27.666  1.00  0.00    -0.377 OA
BRANCH  34  35
ATOM     35  C   UNL A   1      33.353  33.865  27.888  1.00  0.00     0.188 C 
BRANCH  35  36
ATOM     36  C   UNL A   1      33.536  35.020  28.881  1.00  0.00     0.188 C 
BRANCH  36  37
ATOM     37  O   UNL A   1      32.685  35.081  30.018  1.00  0.00    -0.376 OA
BRANCH  37  38
ATOM     38  C   UNL A   1      32.793  36.198  30.903  1.00  0.00     0.202 C 
BRANCH  38  39
ATOM     39  C   UNL A   1      33.291  35.919  32.318  1.00  0.00     0.261 C 
BRANCH  39  40
ATOM     40  O   UNL A   1      34.501  35.140  32.317  1.00  0.00    -0.460 OA
BRANCH  40  41
ATOM     41  C   UNL A   1      34.335  33.834  32.615  1.00  0.00     0.338 C 
ATOM     42  O   UNL A   1      33.385  33.299  33.159  1.00  0.00    -0.246 OA
BRANCH  41  43
ATOM     43  C   UNL A   1      35.502  33.075  32.165  1.00  0.00     0.060 A 
ATOM     44  C   UNL A   1      36.081  32.127  33.017  1.00  0.00     0.016 A 
ATOM     45  C   UNL A   1      36.122  33.457  30.976  1.00  0.00     0.016 A 
ATOM     46  C   UNL A   1      37.329  31.591  32.700  1.00  0.00     0.010 A 
ATOM     47  C   UNL A   1      37.370  32.928  30.666  1.00  0.00     0.010 A 
ATOM     48  C   UNL A   1      37.996  32.031  31.550  1.00  0.00    -0.014 A 
BRANCH  48  49
ATOM     49  C   UNL A   1      39.427  31.727  31.332  1.00  0.00     0.031 A 
ATOM     50  C   UNL A   1      40.447  32.722  31.810  1.00  0.00     0.074 A 
ATOM     51  C   UNL A   1      39.797  30.634  30.644  1.00  0.00     0.049 A 
ATOM     52  N   UNL A   1      41.729  32.782  31.561  1.00  0.00    -0.248 NA
ATOM     53  C   UNL A   1      39.949  33.805  32.675  1.00  0.00     0.031 C 
ATOM     54  C   UNL A   1      38.893  29.591  30.164  1.00  0.00     0.029 A 
ATOM     55  N   UNL A   1      41.034  30.246  30.199  1.00  0.00    -0.354 N 
ATOM     56  C   UNL A   1      42.185  33.921  32.214  1.00  0.00     0.074 A 
ATOM     57  C   UNL A   1      41.044  34.527  32.863  1.00  0.00     0.031 C 
ATOM     58  C   UNL A   1      39.604  28.693  29.462  1.00  0.00     0.029 A 
ATOM     59  C   UNL A   1      41.000  29.128  29.405  1.00  0.00     0.049 A 
ATOM     60  H   UNL A   1      41.865  30.724  30.427  1.00  0.00     0.167 HD
ATOM     61  C   UNL A   1      43.444  34.417  32.259  1.00  0.00     0.037 A 
ATOM     62  C   UNL A   1      41.980  28.554  28.680  1.00  0.00     0.037 A 
ATOM     63  C   UNL A   1      44.569  33.807  31.604  1.00  0.00     0.049 A 
ATOM     64  C   UNL A   1      43.356  29.166  28.688  1.00  0.00     0.074 A 
ATOM     65  C   UNL A   1      45.892  34.209  31.608  1.00  0.00     0.029 A 
ATOM     66  N   UNL A   1      44.496  32.670  30.813  1.00  0.00    -0.354 N 
ATOM     67  N   UNL A   1      43.790  30.224  29.332  1.00  0.00    -0.248 NA
ATOM     68  C   UNL A   1      44.380  28.508  27.862  1.00  0.00     0.031 C 
ATOM     69  C   UNL A   1      46.612  33.345  30.777  1.00  0.00     0.029 A 
ATOM     70  C   UNL A   1      45.747  32.370  30.304  1.00  0.00     0.049 A 
ATOM     71  H   UNL A   1      43.677  32.153  30.640  1.00  0.00     0.167 HD
ATOM     72  C   UNL A   1      45.141  30.332  29.023  1.00  0.00     0.074 A 
ATOM     73  C   UNL A   1      45.455  29.235  28.132  1.00  0.00     0.031 C 
ATOM     74  C   UNL A   1      46.043  31.255  29.442  1.00  0.00     0.037 A 
BRANCH  61  75
ATOM     75  C   UNL A   1      43.663  35.697  33.012  1.00  0.00     0.057 A 
ATOM     76  C   UNL A   1      43.694  36.942  32.370  1.00  0.00     0.134 A 
ATOM     77  C   UNL A   1      43.806  35.686  34.405  1.00  0.00     0.134 A 
ATOM     78  F   UNL A   1      43.575  37.021  31.036  1.00  0.00    -0.206 F 
ATOM     79  C   UNL A   1      43.880  38.127  33.084  1.00  0.00     0.040 A 
ATOM     80  C   UNL A   1      43.967  36.866  35.133  1.00  0.00     0.040 A 
ATOM     81  F   UNL A   1      43.782  34.529  35.085  1.00  0.00    -0.206 F 
ATOM     82  C   UNL A   1      44.010  38.091  34.471  1.00  0.00     0.006 A 
ENDBRANCH  61  75
BRANCH  62  83
ATOM     83  C   UNL A   1      41.695  27.342  27.872  1.00  0.00     0.057 A 
ATOM     84  C   UNL A   1      41.950  26.063  28.381  1.00  0.00     0.134 A 
ATOM     85  C   UNL A   1      41.187  27.427  26.570  1.00  0.00     0.134 A 
ATOM     86  F   UNL A   1      42.458  25.917  29.614  1.00  0.00    -0.206 F 
ATOM     87  C   UNL A   1      41.731  24.914  27.619  1.00  0.00     0.040 A 
ATOM     88  C   UNL A   1      40.937  26.286  25.807  1.00  0.00     0.040 A 
ATOM     89  F   UNL A   1      40.918  28.623  26.025  1.00  0.00    -0.206 F 
ATOM     90  C   UNL A   1      41.217  25.025  26.328  1.00  0.00     0.006 A 
ENDBRANCH  62  83
BRANCH  74  91
ATOM     91  C   UNL A   1      47.468  31.083  29.005  1.00  0.00     0.057 A 
ATOM     92  C   UNL A   1      48.383  30.316  29.736  1.00  0.00     0.134 A 
ATOM     93  C   UNL A   1      47.905  31.632  27.792  1.00  0.00     0.134 A 
ATOM     94  F   UNL A   1      48.032  29.773  30.911  1.00  0.00    -0.206 F 
ATOM     95  C   UNL A   1      49.688  30.112  29.281  1.00  0.00     0.040 A 
ATOM     96  C   UNL A   1      49.197  31.413  27.314  1.00  0.00     0.040 A 
ATOM     97  F   UNL A   1      47.073  32.368  27.040  1.00  0.00    -0.206 F 
ATOM     98  C   UNL A   1      50.093  30.653  28.061  1.00  0.00     0.006 A 
ENDBRANCH  74  91
ENDBRANCH  48  49
ENDBRANCH  41  43
ENDBRANCH  40  41
ENDBRANCH  39  40
ENDBRANCH  38  39
ENDBRANCH  37  38
ENDBRANCH  36  37
ENDBRANCH  35  36
ENDBRANCH  34  35
ENDBRANCH  33  34
ENDBRANCH   1  33
TORSDOF 26
ENDMDL
