MODEL 1
REMARK VINA RESULT:     -10.5      0.000      0.000
REMARK SMILES Cc1cc(-c2cc(C(=O)OCCOCCOCCOCCOC(=O)c3ccc(-c4c5nc(c(-c6c(F)cccc6F)c6ccc([nH]6)c(-c6c(F)cccc6F)c6nc(c(-c7c(F)cccc7F)c7ccc4[nH]7)C=C6)C=C5)cc3)c[nH]c2=O)ccc1Cl
REMARK SMILES IDX 17 1 16 2 15 3 14 4 13 5 12 6 11 7 10 8 8 9 9 10 7 11 5 12
REMARK SMILES IDX 6 13 81 14 80 15 82 16 79 17 4 19 1 20 2 21 3 22 85 23 84 24
REMARK SMILES IDX 86 25 83 26 18 27 19 28 20 29 21 30 22 31 23 32 24 33 25 34
REMARK SMILES IDX 26 35 78 36 27 37 77 38 28 39 29 40 30 41 71 42 31 43 76 44
REMARK SMILES IDX 70 45 72 46 32 47 75 48 69 49 68 50 33 52 59 53 42 54 58 55
REMARK SMILES IDX 43 56 46 57 57 58 73 59 44 60 45 61 56 63 74 64 47 65 34 66
REMARK SMILES IDX 35 67 40 68 36 69 37 70 39 71 41 72 38 73 60 74 61 75 66 76
REMARK SMILES IDX 62 77 63 78 65 79 67 80 64 81 48 82 49 83 54 84 50 85 51 86
REMARK SMILES IDX 53 87 55 88 52 89
REMARK H PARENT 80 18 72 51 46 62
REMARK Flexibility Score: inf
ROOT
ATOM      1  C   UNL A   1      35.290  33.830  28.342  1.00  0.00     0.188 C 
ENDROOT
BRANCH   1   2
ATOM      2  O   UNL A   1      35.595  32.650  27.596  1.00  0.00    -0.377 OA
BRANCH   2   3
ATOM      3  C   UNL A   1      34.709  31.543  27.663  1.00  0.00     0.188 C 
BRANCH   3   4
ATOM      4  C   UNL A   1      35.399  30.164  27.662  1.00  0.00     0.188 C 
BRANCH   4   5
ATOM      5  O   UNL A   1      34.637  29.164  27.010  1.00  0.00    -0.376 OA
BRANCH   5   6
ATOM      6  C   UNL A   1      33.258  29.361  26.754  1.00  0.00     0.202 C 
BRANCH   6   7
ATOM      7  C   UNL A   1      32.644  29.187  25.354  1.00  0.00     0.261 C 
BRANCH   7   8
ATOM      8  O   UNL A   1      31.347  28.592  25.274  1.00  0.00    -0.460 OA
BRANCH   8   9
ATOM      9  C   UNL A   1      31.169  27.569  24.409  1.00  0.00     0.339 C 
ATOM     10  O   UNL A   1      31.091  27.654  23.196  1.00  0.00    -0.246 OA
BRANCH   9  11
ATOM     11  C   UNL A   1      31.284  26.297  25.176  1.00  0.00     0.077 A 
ATOM     12  C   UNL A   1      32.394  24.151  25.596  1.00  0.00     0.048 A 
ATOM     13  C   UNL A   1      32.313  25.309  24.908  1.00  0.00     0.031 A 
ATOM     14  C   UNL A   1      31.303  23.855  26.599  1.00  0.00     0.255 A 
ATOM     15  N   UNL A   1      30.348  24.835  26.763  1.00  0.00    -0.328 N 
ATOM     16  O   UNL A   1      31.245  22.812  27.241  1.00  0.00    -0.269 OA
ATOM     17  C   UNL A   1      30.339  26.031  26.091  1.00  0.00     0.101 A 
ATOM     18  H   UNL A   1      29.623  24.666  27.408  1.00  0.00     0.169 HD
BRANCH  12  19
ATOM     19  C   UNL A   1      33.544  23.241  25.398  1.00  0.00    -0.012 A 
ATOM     20  C   UNL A   1      34.263  19.575  24.587  1.00  0.00     0.046 C 
ATOM     21  C   UNL A   1      34.485  21.022  24.929  1.00  0.00    -0.032 A 
ATOM     22  C   UNL A   1      33.380  21.891  25.046  1.00  0.00     0.014 A 
ATOM     23  C   UNL A   1      35.772  21.530  25.162  1.00  0.00     0.044 A 
ATOM     24  C   UNL A   1      35.950  22.869  25.506  1.00  0.00     0.021 A 
ATOM     25  Cl  UNL A   1      37.178  20.533  25.055  1.00  0.00    -0.084 Cl
ATOM     26  C   UNL A   1      34.847  23.713  25.629  1.00  0.00     0.010 A 
ENDBRANCH  12  19
ENDBRANCH   9  11
ENDBRANCH   8   9
ENDBRANCH   7   8
ENDBRANCH   6   7
ENDBRANCH   5   6
ENDBRANCH   4   5
ENDBRANCH   3   4
ENDBRANCH   2   3
ENDBRANCH   1   2
BRANCH   1  27
ATOM     27  C   UNL A   1      34.017  33.979  29.213  1.00  0.00     0.188 C 
BRANCH  27  28
ATOM     28  O   UNL A   1      34.061  35.030  30.164  1.00  0.00    -0.376 OA
BRANCH  28  29
ATOM     29  C   UNL A   1      33.714  34.739  31.506  1.00  0.00     0.202 C 
BRANCH  29  30
ATOM     30  C   UNL A   1      34.865  34.278  32.411  1.00  0.00     0.261 C 
BRANCH  30  31
ATOM     31  O   UNL A   1      35.260  32.906  32.258  1.00  0.00    -0.460 OA
BRANCH  31  32
ATOM     32  C   UNL A   1      36.229  32.456  33.082  1.00  0.00     0.338 C 
ATOM     33  O   UNL A   1      36.246  32.513  34.303  1.00  0.00    -0.246 OA
BRANCH  32  34
ATOM     34  C   UNL A   1      37.202  31.700  32.271  1.00  0.00     0.060 A 
ATOM     35  C   UNL A   1      38.224  30.999  32.922  1.00  0.00     0.016 A 
ATOM     36  C   UNL A   1      37.105  31.682  30.877  1.00  0.00     0.016 A 
ATOM     37  C   UNL A   1      39.180  30.313  32.175  1.00  0.00     0.010 A 
ATOM     38  C   UNL A   1      38.075  31.008  30.130  1.00  0.00     0.010 A 
ATOM     39  C   UNL A   1      39.138  30.352  30.775  1.00  0.00    -0.014 A 
BRANCH  39  40
ATOM     40  C   UNL A   1      40.303  29.860  30.000  1.00  0.00     0.031 A 
ATOM     41  C   UNL A   1      41.456  30.799  29.759  1.00  0.00     0.074 A 
ATOM     42  C   UNL A   1      40.363  28.592  29.559  1.00  0.00     0.049 A 
ATOM     43  N   UNL A   1      42.585  30.588  29.133  1.00  0.00    -0.248 NA
ATOM     44  C   UNL A   1      41.313  32.160  30.299  1.00  0.00     0.031 C 
ATOM     45  C   UNL A   1      39.330  27.578  29.759  1.00  0.00     0.029 A 
ATOM     46  N   UNL A   1      41.344  27.942  28.854  1.00  0.00    -0.354 N 
ATOM     47  C   UNL A   1      43.282  31.788  29.198  1.00  0.00     0.074 A 
ATOM     48  C   UNL A   1      42.436  32.732  29.894  1.00  0.00     0.031 C 
ATOM     49  C   UNL A   1      39.734  26.429  29.191  1.00  0.00     0.029 A 
ATOM     50  C   UNL A   1      41.038  26.634  28.564  1.00  0.00     0.049 A 
ATOM     51  H   UNL A   1      42.187  28.370  28.582  1.00  0.00     0.167 HD
ATOM     52  C   UNL A   1      44.519  32.076  28.727  1.00  0.00     0.037 A 
ATOM     53  C   UNL A   1      41.731  25.717  27.860  1.00  0.00     0.037 A 
ATOM     54  C   UNL A   1      45.359  31.135  28.033  1.00  0.00     0.049 A 
ATOM     55  C   UNL A   1      43.074  26.083  27.288  1.00  0.00     0.074 A 
ATOM     56  C   UNL A   1      46.640  31.320  27.543  1.00  0.00     0.029 A 
ATOM     57  N   UNL A   1      44.995  29.835  27.714  1.00  0.00    -0.354 N 
ATOM     58  N   UNL A   1      43.744  27.207  27.391  1.00  0.00    -0.248 NA
ATOM     59  C   UNL A   1      43.763  25.047  26.505  1.00  0.00     0.031 C 
ATOM     60  C   UNL A   1      47.025  30.155  26.872  1.00  0.00     0.029 A 
ATOM     61  C   UNL A   1      46.013  29.218  27.004  1.00  0.00     0.049 A 
ATOM     62  H   UNL A   1      44.140  29.412  27.958  1.00  0.00     0.167 HD
ATOM     63  C   UNL A   1      44.942  27.001  26.716  1.00  0.00     0.074 A 
ATOM     64  C   UNL A   1      44.916  25.639  26.227  1.00  0.00     0.031 C 
ATOM     65  C   UNL A   1      45.974  27.861  26.520  1.00  0.00     0.037 A 
BRANCH  52  66
ATOM     66  C   UNL A   1      45.022  33.479  28.917  1.00  0.00     0.057 A 
ATOM     67  C   UNL A   1      45.784  33.855  30.031  1.00  0.00     0.134 A 
ATOM     68  C   UNL A   1      44.756  34.462  27.956  1.00  0.00     0.134 A 
ATOM     69  F   UNL A   1      46.064  32.967  30.997  1.00  0.00    -0.206 F 
ATOM     70  C   UNL A   1      46.240  35.165  30.194  1.00  0.00     0.040 A 
ATOM     71  C   UNL A   1      45.232  35.767  28.094  1.00  0.00     0.040 A 
ATOM     72  F   UNL A   1      44.034  34.171  26.863  1.00  0.00    -0.206 F 
ATOM     73  C   UNL A   1      45.970  36.123  29.219  1.00  0.00     0.006 A 
ENDBRANCH  52  66
BRANCH  53  74
ATOM     74  C   UNL A   1      41.171  24.355  27.653  1.00  0.00     0.057 A 
ATOM     75  C   UNL A   1      41.690  23.245  28.332  1.00  0.00     0.134 A 
ATOM     76  C   UNL A   1      40.132  24.124  26.744  1.00  0.00     0.134 A 
ATOM     77  F   UNL A   1      42.704  23.397  29.196  1.00  0.00    -0.206 F 
ATOM     78  C   UNL A   1      41.212  21.955  28.098  1.00  0.00     0.040 A 
ATOM     79  C   UNL A   1      39.623  22.843  26.523  1.00  0.00     0.040 A 
ATOM     80  F   UNL A   1      39.590  25.143  26.060  1.00  0.00    -0.206 F 
ATOM     81  C   UNL A   1      40.171  21.752  27.194  1.00  0.00     0.006 A 
ENDBRANCH  53  74
BRANCH  65  82
ATOM     82  C   UNL A   1      47.173  27.337  25.777  1.00  0.00     0.057 A 
ATOM     83  C   UNL A   1      47.335  27.521  24.397  1.00  0.00     0.134 A 
ATOM     84  C   UNL A   1      48.183  26.642  26.455  1.00  0.00     0.134 A 
ATOM     85  F   UNL A   1      46.403  28.169  23.682  1.00  0.00    -0.206 F 
ATOM     86  C   UNL A   1      48.435  26.998  23.715  1.00  0.00     0.040 A 
ATOM     87  C   UNL A   1      49.304  26.145  25.789  1.00  0.00     0.040 A 
ATOM     88  F   UNL A   1      48.102  26.440  27.780  1.00  0.00    -0.206 F 
ATOM     89  C   UNL A   1      49.426  26.311  24.412  1.00  0.00     0.006 A 
ENDBRANCH  65  82
ENDBRANCH  39  40
ENDBRANCH  32  34
ENDBRANCH  31  32
ENDBRANCH  30  31
ENDBRANCH  29  30
ENDBRANCH  28  29
ENDBRANCH  27  28
ENDBRANCH   1  27
TORSDOF 21
ENDMDL
MODEL 2
REMARK VINA RESULT:     -10.2      3.383      8.743
REMARK SMILES Cc1cc(-c2cc(C(=O)OCCOCCOCCOCCOC(=O)c3ccc(-c4c5nc(c(-c6c(F)cccc6F)c6ccc([nH]6)c(-c6c(F)cccc6F)c6nc(c(-c7c(F)cccc7F)c7ccc4[nH]7)C=C6)C=C5)cc3)c[nH]c2=O)ccc1Cl
REMARK SMILES IDX 17 1 16 2 15 3 14 4 13 5 12 6 11 7 10 8 8 9 9 10 7 11 5 12
REMARK SMILES IDX 6 13 81 14 80 15 82 16 79 17 4 19 1 20 2 21 3 22 85 23 84 24
REMARK SMILES IDX 86 25 83 26 18 27 19 28 20 29 21 30 22 31 23 32 24 33 25 34
REMARK SMILES IDX 26 35 78 36 27 37 77 38 28 39 29 40 30 41 71 42 31 43 76 44
REMARK SMILES IDX 70 45 72 46 32 47 75 48 69 49 68 50 33 52 59 53 42 54 58 55
REMARK SMILES IDX 43 56 46 57 57 58 73 59 44 60 45 61 56 63 74 64 47 65 34 66
REMARK SMILES IDX 35 67 40 68 36 69 37 70 39 71 41 72 38 73 60 74 61 75 66 76
REMARK SMILES IDX 62 77 63 78 65 79 67 80 64 81 48 82 49 83 54 84 50 85 51 86
REMARK SMILES IDX 53 87 55 88 52 89
REMARK H PARENT 80 18 72 51 46 62
REMARK Flexibility Score: inf
ROOT
ATOM      1  C   UNL A   1      36.063  22.098  25.624  1.00  0.00     0.188 C 
ENDROOT
BRANCH   1   2
ATOM      2  O   UNL A   1      34.956  21.209  25.786  1.00  0.00    -0.377 OA
BRANCH   2   3
ATOM      3  C   UNL A   1      34.883  20.042  24.982  1.00  0.00     0.188 C 
BRANCH   3   4
ATOM      4  C   UNL A   1      33.494  19.374  24.939  1.00  0.00     0.188 C 
BRANCH   4   5
ATOM      5  O   UNL A   1      32.430  20.300  25.074  1.00  0.00    -0.376 OA
BRANCH   5   6
ATOM      6  C   UNL A   1      32.170  21.251  24.058  1.00  0.00     0.202 C 
BRANCH   6   7
ATOM      7  C   UNL A   1      32.066  22.760  24.346  1.00  0.00     0.261 C 
BRANCH   7   8
ATOM      8  O   UNL A   1      33.245  23.547  24.162  1.00  0.00    -0.460 OA
BRANCH   8   9
ATOM      9  C   UNL A   1      33.492  24.043  22.929  1.00  0.00     0.339 C 
ATOM     10  O   UNL A   1      33.926  23.423  21.974  1.00  0.00    -0.246 OA
BRANCH   9  11
ATOM     11  C   UNL A   1      32.957  25.433  22.881  1.00  0.00     0.077 A 
ATOM     12  C   UNL A   1      32.570  27.609  23.943  1.00  0.00     0.048 A 
ATOM     13  C   UNL A   1      33.078  26.359  23.991  1.00  0.00     0.031 A 
ATOM     14  C   UNL A   1      31.765  27.990  22.722  1.00  0.00     0.255 A 
ATOM     15  N   UNL A   1      31.674  27.035  21.733  1.00  0.00    -0.328 N 
ATOM     16  O   UNL A   1      31.213  29.078  22.593  1.00  0.00    -0.269 OA
ATOM     17  C   UNL A   1      32.263  25.798  21.792  1.00  0.00     0.101 A 
ATOM     18  H   UNL A   1      31.151  27.256  20.928  1.00  0.00     0.169 HD
BRANCH  12  19
ATOM     19  C   UNL A   1      32.846  28.572  25.033  1.00  0.00    -0.012 A 
ATOM     20  C   UNL A   1      31.400  31.775  26.535  1.00  0.00     0.046 C 
ATOM     21  C   UNL A   1      32.315  30.606  26.302  1.00  0.00    -0.032 A 
ATOM     22  C   UNL A   1      31.999  29.659  25.304  1.00  0.00     0.014 A 
ATOM     23  C   UNL A   1      33.497  30.443  27.038  1.00  0.00     0.044 A 
ATOM     24  C   UNL A   1      34.344  29.365  26.784  1.00  0.00     0.021 A 
ATOM     25  Cl  UNL A   1      33.967  31.561  28.266  1.00  0.00    -0.084 Cl
ATOM     26  C   UNL A   1      34.024  28.444  25.787  1.00  0.00     0.010 A 
ENDBRANCH  12  19
ENDBRANCH   9  11
ENDBRANCH   8   9
ENDBRANCH   7   8
ENDBRANCH   6   7
ENDBRANCH   5   6
ENDBRANCH   4   5
ENDBRANCH   3   4
ENDBRANCH   2   3
ENDBRANCH   1   2
BRANCH   1  27
ATOM     27  C   UNL A   1      37.285  21.776  24.725  1.00  0.00     0.188 C 
BRANCH  27  28
ATOM     28  O   UNL A   1      38.391  21.199  25.400  1.00  0.00    -0.376 OA
BRANCH  28  29
ATOM     29  C   UNL A   1      38.654  19.822  25.204  1.00  0.00     0.202 C 
BRANCH  29  30
ATOM     30  C   UNL A   1      39.766  19.221  26.075  1.00  0.00     0.261 C 
BRANCH  30  31
ATOM     31  O   UNL A   1      41.057  19.129  25.453  1.00  0.00    -0.460 OA
BRANCH  31  32
ATOM     32  C   UNL A   1      42.129  19.356  26.240  1.00  0.00     0.338 C 
ATOM     33  O   UNL A   1      43.035  18.576  26.496  1.00  0.00    -0.246 OA
BRANCH  32  34
ATOM     34  C   UNL A   1      42.136  20.787  26.600  1.00  0.00     0.060 A 
ATOM     35  C   UNL A   1      42.027  21.741  25.581  1.00  0.00     0.016 A 
ATOM     36  C   UNL A   1      42.249  21.184  27.935  1.00  0.00     0.016 A 
ATOM     37  C   UNL A   1      42.074  23.099  25.893  1.00  0.00     0.010 A 
ATOM     38  C   UNL A   1      42.314  22.545  28.243  1.00  0.00     0.010 A 
ATOM     39  C   UNL A   1      42.265  23.508  27.219  1.00  0.00    -0.014 A 
BRANCH  39  40
ATOM     40  C   UNL A   1      42.591  24.927  27.501  1.00  0.00     0.031 A 
ATOM     41  C   UNL A   1      43.959  25.438  27.135  1.00  0.00     0.074 A 
ATOM     42  C   UNL A   1      41.678  25.762  28.026  1.00  0.00     0.049 A 
ATOM     43  N   UNL A   1      44.461  26.639  27.263  1.00  0.00    -0.248 NA
ATOM     44  C   UNL A   1      44.884  24.459  26.543  1.00  0.00     0.031 C 
ATOM     45  C   UNL A   1      40.310  25.398  28.390  1.00  0.00     0.029 A 
ATOM     46  N   UNL A   1      41.768  27.094  28.339  1.00  0.00    -0.354 N 
ATOM     47  C   UNL A   1      45.760  26.558  26.775  1.00  0.00     0.074 A 
ATOM     48  C   UNL A   1      45.979  25.185  26.381  1.00  0.00     0.031 C 
ATOM     49  C   UNL A   1      39.686  26.485  28.875  1.00  0.00     0.029 A 
ATOM     50  C   UNL A   1      40.617  27.612  28.883  1.00  0.00     0.049 A 
ATOM     51  H   UNL A   1      42.580  27.630  28.188  1.00  0.00     0.167 HD
ATOM     52  C   UNL A   1      46.684  27.542  26.660  1.00  0.00     0.037 A 
ATOM     53  C   UNL A   1      40.356  28.850  29.344  1.00  0.00     0.037 A 
ATOM     54  C   UNL A   1      46.464  28.909  27.055  1.00  0.00     0.049 A 
ATOM     55  C   UNL A   1      41.424  29.909  29.267  1.00  0.00     0.074 A 
ATOM     56  C   UNL A   1      47.326  29.986  26.951  1.00  0.00     0.029 A 
ATOM     57  N   UNL A   1      45.303  29.384  27.647  1.00  0.00    -0.354 N 
ATOM     58  N   UNL A   1      42.634  29.834  28.766  1.00  0.00    -0.248 NA
ATOM     59  C   UNL A   1      41.084  31.230  29.816  1.00  0.00     0.031 C 
ATOM     60  C   UNL A   1      46.711  31.097  27.539  1.00  0.00     0.029 A 
ATOM     61  C   UNL A   1      45.439  30.730  27.946  1.00  0.00     0.049 A 
ATOM     62  H   UNL A   1      44.499  28.844  27.828  1.00  0.00     0.167 HD
ATOM     63  C   UNL A   1      43.186  31.103  28.909  1.00  0.00     0.074 A 
ATOM     64  C   UNL A   1      42.170  31.931  29.524  1.00  0.00     0.031 C 
ATOM     65  C   UNL A   1      44.422  31.544  28.561  1.00  0.00     0.037 A 
BRANCH  52  66
ATOM     66  C   UNL A   1      48.032  27.164  26.115  1.00  0.00     0.057 A 
ATOM     67  C   UNL A   1      49.107  26.825  26.948  1.00  0.00     0.134 A 
ATOM     68  C   UNL A   1      48.249  27.119  24.732  1.00  0.00     0.134 A 
ATOM     69  F   UNL A   1      48.973  26.861  28.283  1.00  0.00    -0.206 F 
ATOM     70  C   UNL A   1      50.355  26.481  26.425  1.00  0.00     0.040 A 
ATOM     71  C   UNL A   1      49.485  26.747  24.198  1.00  0.00     0.040 A 
ATOM     72  F   UNL A   1      47.264  27.429  23.876  1.00  0.00    -0.206 F 
ATOM     73  C   UNL A   1      50.544  26.434  25.045  1.00  0.00     0.006 A 
ENDBRANCH  52  66
BRANCH  53  74
ATOM     74  C   UNL A   1      39.023  29.167  29.923  1.00  0.00     0.057 A 
ATOM     75  C   UNL A   1      38.784  29.054  31.298  1.00  0.00     0.134 A 
ATOM     76  C   UNL A   1      37.948  29.551  29.112  1.00  0.00     0.134 A 
ATOM     77  F   UNL A   1      39.766  28.664  32.124  1.00  0.00    -0.206 F 
ATOM     78  C   UNL A   1      37.521  29.290  31.843  1.00  0.00     0.040 A 
ATOM     79  C   UNL A   1      36.687  29.820  29.647  1.00  0.00     0.040 A 
ATOM     80  F   UNL A   1      38.110  29.677  27.787  1.00  0.00    -0.206 F 
ATOM     81  C   UNL A   1      36.469  29.680  31.016  1.00  0.00     0.006 A 
ENDBRANCH  53  74
BRANCH  65  82
ATOM     82  C   UNL A   1      44.725  32.998  28.804  1.00  0.00     0.057 A 
ATOM     83  C   UNL A   1      45.330  33.447  29.986  1.00  0.00     0.134 A 
ATOM     84  C   UNL A   1      44.411  33.962  27.836  1.00  0.00     0.134 A 
ATOM     85  F   UNL A   1      45.649  32.581  30.959  1.00  0.00    -0.206 F 
ATOM     86  C   UNL A   1      45.572  34.803  30.212  1.00  0.00     0.040 A 
ATOM     87  C   UNL A   1      44.681  35.316  28.038  1.00  0.00     0.040 A 
ATOM     88  F   UNL A   1      43.844  33.603  26.674  1.00  0.00    -0.206 F 
ATOM     89  C   UNL A   1      45.252  35.742  29.235  1.00  0.00     0.006 A 
ENDBRANCH  65  82
ENDBRANCH  39  40
ENDBRANCH  32  34
ENDBRANCH  31  32
ENDBRANCH  30  31
ENDBRANCH  29  30
ENDBRANCH  28  29
ENDBRANCH  27  28
ENDBRANCH   1  27
TORSDOF 21
ENDMDL
MODEL 3
REMARK VINA RESULT:     -10.1      4.915     10.294
REMARK SMILES Cc1cc(-c2cc(C(=O)OCCOCCOCCOCCOC(=O)c3ccc(-c4c5nc(c(-c6c(F)cccc6F)c6ccc([nH]6)c(-c6c(F)cccc6F)c6nc(c(-c7c(F)cccc7F)c7ccc4[nH]7)C=C6)C=C5)cc3)c[nH]c2=O)ccc1Cl
REMARK SMILES IDX 17 1 16 2 15 3 14 4 13 5 12 6 11 7 10 8 8 9 9 10 7 11 5 12
REMARK SMILES IDX 6 13 81 14 80 15 82 16 79 17 4 19 1 20 2 21 3 22 85 23 84 24
REMARK SMILES IDX 86 25 83 26 18 27 19 28 20 29 21 30 22 31 23 32 24 33 25 34
REMARK SMILES IDX 26 35 78 36 27 37 77 38 28 39 29 40 30 41 71 42 31 43 76 44
REMARK SMILES IDX 70 45 72 46 32 47 75 48 69 49 68 50 33 52 59 53 42 54 58 55
REMARK SMILES IDX 43 56 46 57 57 58 73 59 44 60 45 61 56 63 74 64 47 65 34 66
REMARK SMILES IDX 35 67 40 68 36 69 37 70 39 71 41 72 38 73 60 74 61 75 66 76
REMARK SMILES IDX 62 77 63 78 65 79 67 80 64 81 48 82 49 83 54 84 50 85 51 86
REMARK SMILES IDX 53 87 55 88 52 89
REMARK H PARENT 80 18 72 51 46 62
REMARK Flexibility Score: inf
ROOT
ATOM      1  C   UNL A   1      41.693  21.007  26.690  1.00  0.00     0.188 C 
ENDROOT
BRANCH   1   2
ATOM      2  O   UNL A   1      40.982  21.973  25.914  1.00  0.00    -0.377 OA
BRANCH   2   3
ATOM      3  C   UNL A   1      39.922  22.699  26.518  1.00  0.00     0.188 C 
BRANCH   3   4
ATOM      4  C   UNL A   1      38.517  22.347  25.991  1.00  0.00     0.188 C 
BRANCH   4   5
ATOM      5  O   UNL A   1      38.393  20.990  25.604  1.00  0.00    -0.376 OA
BRANCH   5   6
ATOM      6  C   UNL A   1      37.216  20.526  24.969  1.00  0.00     0.202 C 
BRANCH   6   7
ATOM      7  C   UNL A   1      35.877  21.281  25.057  1.00  0.00     0.261 C 
BRANCH   7   8
ATOM      8  O   UNL A   1      35.281  21.707  23.830  1.00  0.00    -0.460 OA
BRANCH   8   9
ATOM      9  C   UNL A   1      35.586  22.941  23.370  1.00  0.00     0.339 C 
ATOM     10  O   UNL A   1      36.679  23.319  22.985  1.00  0.00    -0.246 OA
BRANCH   9  11
ATOM     11  C   UNL A   1      34.314  23.703  23.229  1.00  0.00     0.077 A 
ATOM     12  C   UNL A   1      32.864  25.574  23.870  1.00  0.00     0.048 A 
ATOM     13  C   UNL A   1      34.030  24.904  23.992  1.00  0.00     0.031 A 
ATOM     14  C   UNL A   1      31.801  24.972  22.982  1.00  0.00     0.255 A 
ATOM     15  N   UNL A   1      32.146  23.812  22.323  1.00  0.00    -0.328 N 
ATOM     16  O   UNL A   1      30.687  25.464  22.838  1.00  0.00    -0.269 OA
ATOM     17  C   UNL A   1      33.369  23.197  22.422  1.00  0.00     0.101 A 
ATOM     18  H   UNL A   1      31.470  23.396  21.741  1.00  0.00     0.169 HD
BRANCH  12  19
ATOM     19  C   UNL A   1      32.674  26.876  24.550  1.00  0.00    -0.012 A 
ATOM     20  C   UNL A   1      31.381  28.279  27.862  1.00  0.00     0.046 C 
ATOM     21  C   UNL A   1      31.943  28.222  26.469  1.00  0.00    -0.032 A 
ATOM     22  C   UNL A   1      32.183  26.971  25.862  1.00  0.00     0.014 A 
ATOM     23  C   UNL A   1      32.212  29.389  25.740  1.00  0.00     0.044 A 
ATOM     24  C   UNL A   1      32.706  29.310  24.438  1.00  0.00     0.021 A 
ATOM     25  Cl  UNL A   1      31.934  30.960  26.399  1.00  0.00    -0.084 Cl
ATOM     26  C   UNL A   1      32.928  28.066  23.848  1.00  0.00     0.010 A 
ENDBRANCH  12  19
ENDBRANCH   9  11
ENDBRANCH   8   9
ENDBRANCH   7   8
ENDBRANCH   6   7
ENDBRANCH   5   6
ENDBRANCH   4   5
ENDBRANCH   3   4
ENDBRANCH   2   3
ENDBRANCH   1   2
BRANCH   1  27
ATOM     27  C   UNL A   1      43.014  20.346  26.218  1.00  0.00     0.188 C 
BRANCH  27  28
ATOM     28  O   UNL A   1      43.534  20.851  24.998  1.00  0.00    -0.376 OA
BRANCH  28  29
ATOM     29  C   UNL A   1      44.918  21.147  24.928  1.00  0.00     0.202 C 
BRANCH  29  30
ATOM     30  C   UNL A   1      45.389  22.349  25.757  1.00  0.00     0.261 C 
BRANCH  30  31
ATOM     31  O   UNL A   1      44.349  23.212  26.241  1.00  0.00    -0.460 OA
BRANCH  31  32
ATOM     32  C   UNL A   1      44.295  24.454  25.715  1.00  0.00     0.338 C 
ATOM     33  O   UNL A   1      44.604  24.790  24.582  1.00  0.00    -0.246 OA
BRANCH  32  34
ATOM     34  C   UNL A   1      43.611  25.330  26.686  1.00  0.00     0.060 A 
ATOM     35  C   UNL A   1      44.012  26.668  26.788  1.00  0.00     0.016 A 
ATOM     36  C   UNL A   1      42.579  24.835  27.488  1.00  0.00     0.016 A 
ATOM     37  C   UNL A   1      43.410  27.503  27.727  1.00  0.00     0.010 A 
ATOM     38  C   UNL A   1      41.990  25.670  28.441  1.00  0.00     0.010 A 
ATOM     39  C   UNL A   1      42.429  26.997  28.589  1.00  0.00    -0.014 A 
BRANCH  39  40
ATOM     40  C   UNL A   1      42.000  27.807  29.756  1.00  0.00     0.031 A 
ATOM     41  C   UNL A   1      40.769  28.664  29.626  1.00  0.00     0.074 A 
ATOM     42  C   UNL A   1      42.658  27.747  30.926  1.00  0.00     0.049 A 
ATOM     43  N   UNL A   1      40.193  29.434  30.512  1.00  0.00    -0.248 NA
ATOM     44  C   UNL A   1      40.099  28.648  28.316  1.00  0.00     0.031 C 
ATOM     45  C   UNL A   1      43.841  26.929  31.191  1.00  0.00     0.029 A 
ATOM     46  N   UNL A   1      42.418  28.387  32.115  1.00  0.00    -0.354 N 
ATOM     47  C   UNL A   1      39.099  29.998  29.866  1.00  0.00     0.074 A 
ATOM     48  C   UNL A   1      39.112  29.509  28.506  1.00  0.00     0.031 C 
ATOM     49  C   UNL A   1      44.222  27.115  32.466  1.00  0.00     0.029 A 
ATOM     50  C   UNL A   1      43.329  28.085  33.098  1.00  0.00     0.049 A 
ATOM     51  H   UNL A   1      41.664  29.005  32.253  1.00  0.00     0.167 HD
ATOM     52  C   UNL A   1      38.164  30.842  30.365  1.00  0.00     0.037 A 
ATOM     53  C   UNL A   1      43.434  28.552  34.358  1.00  0.00     0.037 A 
ATOM     54  C   UNL A   1      38.154  31.329  31.719  1.00  0.00     0.049 A 
ATOM     55  C   UNL A   1      42.420  29.543  34.866  1.00  0.00     0.074 A 
ATOM     56  C   UNL A   1      37.234  32.163  32.329  1.00  0.00     0.029 A 
ATOM     57  N   UNL A   1      39.121  31.040  32.671  1.00  0.00    -0.354 N 
ATOM     58  N   UNL A   1      41.366  30.038  34.262  1.00  0.00    -0.248 NA
ATOM     59  C   UNL A   1      42.609  30.035  36.238  1.00  0.00     0.031 C 
ATOM     60  C   UNL A   1      37.678  32.431  33.629  1.00  0.00     0.029 A 
ATOM     61  C   UNL A   1      38.838  31.708  33.853  1.00  0.00     0.049 A 
ATOM     62  H   UNL A   1      39.894  30.447  32.528  1.00  0.00     0.167 HD
ATOM     63  C   UNL A   1      40.750  30.872  35.190  1.00  0.00     0.074 A 
ATOM     64  C   UNL A   1      41.538  30.797  36.403  1.00  0.00     0.031 C 
ATOM     65  C   UNL A   1      39.632  31.629  35.052  1.00  0.00     0.037 A 
BRANCH  52  66
ATOM     66  C   UNL A   1      37.093  31.320  29.426  1.00  0.00     0.057 A 
ATOM     67  C   UNL A   1      37.128  32.590  28.836  1.00  0.00     0.134 A 
ATOM     68  C   UNL A   1      36.020  30.484  29.091  1.00  0.00     0.134 A 
ATOM     69  F   UNL A   1      38.120  33.448  29.124  1.00  0.00    -0.206 F 
ATOM     70  C   UNL A   1      36.122  33.021  27.969  1.00  0.00     0.040 A 
ATOM     71  C   UNL A   1      35.024  30.893  28.202  1.00  0.00     0.040 A 
ATOM     72  F   UNL A   1      35.924  29.253  29.617  1.00  0.00    -0.206 F 
ATOM     73  C   UNL A   1      35.070  32.167  27.644  1.00  0.00     0.006 A 
ENDBRANCH  52  66
BRANCH  53  74
ATOM     74  C   UNL A   1      44.541  28.090  35.237  1.00  0.00     0.057 A 
ATOM     75  C   UNL A   1      45.722  28.831  35.366  1.00  0.00     0.134 A 
ATOM     76  C   UNL A   1      44.461  26.880  35.936  1.00  0.00     0.134 A 
ATOM     77  F   UNL A   1      45.870  29.986  34.701  1.00  0.00    -0.206 F 
ATOM     78  C   UNL A   1      46.790  28.376  36.141  1.00  0.00     0.040 A 
ATOM     79  C   UNL A   1      45.509  26.427  36.739  1.00  0.00     0.040 A 
ATOM     80  F   UNL A   1      43.358  26.121  35.855  1.00  0.00    -0.206 F 
ATOM     81  C   UNL A   1      46.683  27.171  36.834  1.00  0.00     0.006 A 
ENDBRANCH  53  74
BRANCH  65  82
ATOM     82  C   UNL A   1      39.177  32.405  36.258  1.00  0.00     0.057 A 
ATOM     83  C   UNL A   1      38.280  31.873  37.194  1.00  0.00     0.134 A 
ATOM     84  C   UNL A   1      39.649  33.705  36.488  1.00  0.00     0.134 A 
ATOM     85  F   UNL A   1      37.780  30.639  37.032  1.00  0.00    -0.206 F 
ATOM     86  C   UNL A   1      37.838  32.619  38.289  1.00  0.00     0.040 A 
ATOM     87  C   UNL A   1      39.241  34.446  37.598  1.00  0.00     0.040 A 
ATOM     88  F   UNL A   1      40.522  34.274  35.642  1.00  0.00    -0.206 F 
ATOM     89  C   UNL A   1      38.323  33.908  38.496  1.00  0.00     0.006 A 
ENDBRANCH  65  82
ENDBRANCH  39  40
ENDBRANCH  32  34
ENDBRANCH  31  32
ENDBRANCH  30  31
ENDBRANCH  29  30
ENDBRANCH  28  29
ENDBRANCH  27  28
ENDBRANCH   1  27
TORSDOF 21
ENDMDL
