MODEL 1
REMARK VINA RESULT:      -9.6      0.000      0.000
REMARK SMILES CC(=O)N[C@@H](Cc1c(OCC(C)C)ccc2ccccc12)C(=O)OCCOCCOCCOCCOC(=O)c1ccc(-c2c3nc(c(-c4c(F)cccc4F)c4ccc([nH]4)c(-c4c(F)cccc4F)c4nc(c(-c5c(F)cccc5F)c5ccc2[nH]5)C=C4)C=C3)cc1
REMARK SMILES IDX 28 1 27 2 26 3 25 4 24 5 22 6 23 7 5 8 4 9 1 10 2 11 3 12
REMARK SMILES IDX 6 14 7 15 8 16 21 17 14 18 16 19 20 20 15 21 17 22 19 23
REMARK SMILES IDX 18 24 9 25 10 26 11 27 12 28 13 29 29 30 30 31 31 32 32 33
REMARK SMILES IDX 33 34 34 35 35 36 36 37 37 38 38 39 39 40 40 41 92 42 41 43
REMARK SMILES IDX 91 44 42 45 43 46 44 47 85 48 45 49 90 50 84 51 86 52 46 53
REMARK SMILES IDX 89 54 83 55 82 56 47 58 73 59 56 60 72 61 57 62 60 63 71 64
REMARK SMILES IDX 87 65 58 66 59 67 70 69 88 70 61 71 48 72 49 73 54 74 50 75
REMARK SMILES IDX 51 76 53 77 55 78 52 79 74 80 75 81 80 82 76 83 77 84 79 85
REMARK SMILES IDX 81 86 78 87 62 88 63 89 68 90 64 91 65 92 67 93 69 94 66 95
REMARK H PARENT 4 13 86 57 60 68
REMARK Flexibility Score: inf
ROOT
ATOM      1  C   UNL A   1      34.108  33.012  27.916  1.00  0.00     0.188 C 
ENDROOT
BRANCH   1   2
ATOM      2  O   UNL A   1      33.969  31.684  28.408  1.00  0.00    -0.376 OA
BRANCH   2   3
ATOM      3  C   UNL A   1      34.383  30.588  27.608  1.00  0.00     0.202 C 
BRANCH   3   4
ATOM      4  C   UNL A   1      33.379  29.885  26.687  1.00  0.00     0.261 C 
BRANCH   4   5
ATOM      5  O   UNL A   1      33.843  28.691  26.036  1.00  0.00    -0.462 OA
BRANCH   5   6
ATOM      6  C   UNL A   1      33.448  28.493  24.751  1.00  0.00     0.329 C 
ATOM      7  O   UNL A   1      33.087  29.388  23.992  1.00  0.00    -0.250 OA
BRANCH   6   8
ATOM      8  C   UNL A   1      33.364  26.998  24.367  1.00  0.00     0.196 C 
BRANCH   8   9
ATOM      9  N   UNL A   1      33.644  26.618  22.970  1.00  0.00    -0.343 N 
ATOM     10  C   UNL A   1      31.740  25.095  22.602  1.00  0.00     0.114 C 
ATOM     11  C   UNL A   1      33.029  25.716  22.154  1.00  0.00     0.217 C 
ATOM     12  O   UNL A   1      33.503  25.475  21.044  1.00  0.00    -0.275 OA
ATOM     13  H   UNL A   1      34.400  27.096  22.558  1.00  0.00     0.164 HD
ENDBRANCH   8   9
BRANCH   8  14
ATOM     14  C   UNL A   1      34.297  26.209  25.317  1.00  0.00     0.077 C 
BRANCH  14  15
ATOM     15  C   UNL A   1      33.671  24.893  25.796  1.00  0.00     0.005 A 
ATOM     16  C   UNL A   1      34.479  23.732  25.830  1.00  0.00     0.123 A 
ATOM     17  C   UNL A   1      32.268  24.791  26.074  1.00  0.00    -0.011 A 
ATOM     18  C   UNL A   1      33.885  22.485  25.990  1.00  0.00     0.047 A 
ATOM     19  C   UNL A   1      31.719  23.513  26.343  1.00  0.00    -0.018 A 
ATOM     20  C   UNL A   1      31.362  25.881  26.075  1.00  0.00     0.009 A 
ATOM     21  C   UNL A   1      32.525  22.378  26.265  1.00  0.00     0.012 A 
ATOM     22  C   UNL A   1      30.360  23.366  26.658  1.00  0.00     0.009 A 
ATOM     23  C   UNL A   1      30.003  25.719  26.360  1.00  0.00     0.001 A 
ATOM     24  C   UNL A   1      29.506  24.464  26.671  1.00  0.00     0.001 A 
BRANCH  16  25
ATOM     25  O   UNL A   1      35.827  23.936  25.714  1.00  0.00    -0.493 OA
BRANCH  25  26
ATOM     26  C   UNL A   1      36.749  22.866  25.919  1.00  0.00     0.232 C 
BRANCH  26  27
ATOM     27  C   UNL A   1      37.213  22.203  24.612  1.00  0.00     0.020 C 
ATOM     28  C   UNL A   1      36.969  20.696  24.558  1.00  0.00     0.011 C 
ATOM     29  C   UNL A   1      36.512  22.874  23.430  1.00  0.00     0.011 C 
ENDBRANCH  26  27
ENDBRANCH  25  26
ENDBRANCH  16  25
ENDBRANCH  14  15
ENDBRANCH   8  14
ENDBRANCH   6   8
ENDBRANCH   5   6
ENDBRANCH   4   5
ENDBRANCH   3   4
ENDBRANCH   2   3
ENDBRANCH   1   2
BRANCH   1  30
ATOM     30  C   UNL A   1      33.197  34.144  28.431  1.00  0.00     0.188 C 
BRANCH  30  31
ATOM     31  O   UNL A   1      33.723  34.913  29.497  1.00  0.00    -0.377 OA
BRANCH  31  32
ATOM     32  C   UNL A   1      32.898  35.976  29.949  1.00  0.00     0.188 C 
BRANCH  32  33
ATOM     33  C   UNL A   1      32.864  36.216  31.471  1.00  0.00     0.188 C 
BRANCH  33  34
ATOM     34  O   UNL A   1      33.272  35.092  32.239  1.00  0.00    -0.376 OA
BRANCH  34  35
ATOM     35  C   UNL A   1      34.569  35.074  32.815  1.00  0.00     0.202 C 
BRANCH  35  36
ATOM     36  C   UNL A   1      35.676  34.253  32.131  1.00  0.00     0.261 C 
BRANCH  36  37
ATOM     37  O   UNL A   1      36.210  33.139  32.864  1.00  0.00    -0.460 OA
BRANCH  37  38
ATOM     38  C   UNL A   1      36.152  31.914  32.307  1.00  0.00     0.338 C 
ATOM     39  O   UNL A   1      35.161  31.222  32.146  1.00  0.00    -0.246 OA
BRANCH  38  40
ATOM     40  C   UNL A   1      37.479  31.630  31.720  1.00  0.00     0.060 A 
ATOM     41  C   UNL A   1      37.681  31.864  30.352  1.00  0.00     0.016 A 
ATOM     42  C   UNL A   1      38.521  31.147  32.515  1.00  0.00     0.016 A 
ATOM     43  C   UNL A   1      38.914  31.580  29.768  1.00  0.00     0.010 A 
ATOM     44  C   UNL A   1      39.747  30.833  31.923  1.00  0.00     0.010 A 
ATOM     45  C   UNL A   1      39.936  31.014  30.541  1.00  0.00    -0.014 A 
BRANCH  45  46
ATOM     46  C   UNL A   1      41.110  30.408  29.872  1.00  0.00     0.031 A 
ATOM     47  C   UNL A   1      42.306  31.282  29.610  1.00  0.00     0.074 A 
ATOM     48  C   UNL A   1      41.129  29.110  29.520  1.00  0.00     0.049 A 
ATOM     49  N   UNL A   1      43.418  31.007  28.979  1.00  0.00    -0.248 NA
ATOM     50  C   UNL A   1      42.231  32.658  30.130  1.00  0.00     0.031 C 
ATOM     51  C   UNL A   1      40.058  28.149  29.766  1.00  0.00     0.029 A 
ATOM     52  N   UNL A   1      42.092  28.384  28.863  1.00  0.00    -0.354 N 
ATOM     53  C   UNL A   1      44.168  32.176  29.017  1.00  0.00     0.074 A 
ATOM     54  C   UNL A   1      43.375  33.171  29.705  1.00  0.00     0.031 C 
ATOM     55  C   UNL A   1      40.415  26.959  29.251  1.00  0.00     0.029 A 
ATOM     56  C   UNL A   1      41.721  27.087  28.606  1.00  0.00     0.049 A 
ATOM     57  H   UNL A   1      42.965  28.757  28.603  1.00  0.00     0.167 HD
ATOM     58  C   UNL A   1      45.410  32.400  28.525  1.00  0.00     0.037 A 
ATOM     59  C   UNL A   1      42.353  26.127  27.902  1.00  0.00     0.037 A 
ATOM     60  C   UNL A   1      46.192  31.410  27.835  1.00  0.00     0.049 A 
ATOM     61  C   UNL A   1      43.698  26.426  27.286  1.00  0.00     0.074 A 
ATOM     62  C   UNL A   1      47.466  31.531  27.310  1.00  0.00     0.029 A 
ATOM     63  N   UNL A   1      45.767  30.119  27.564  1.00  0.00    -0.354 N 
ATOM     64  N   UNL A   1      44.410  27.526  27.344  1.00  0.00    -0.248 NA
ATOM     65  C   UNL A   1      44.325  25.348  26.507  1.00  0.00     0.031 C 
ATOM     66  C   UNL A   1      47.788  30.333  26.667  1.00  0.00     0.029 A 
ATOM     67  C   UNL A   1      46.743  29.442  26.850  1.00  0.00     0.049 A 
ATOM     68  H   UNL A   1      44.901  29.738  27.837  1.00  0.00     0.167 HD
ATOM     69  C   UNL A   1      45.581  27.261  26.640  1.00  0.00     0.074 A 
ATOM     70  C   UNL A   1      45.486  25.893  26.175  1.00  0.00     0.031 C 
ATOM     71  C   UNL A   1      46.639  28.075  26.402  1.00  0.00     0.037 A 
BRANCH  58  72
ATOM     72  C   UNL A   1      45.979  33.780  28.686  1.00  0.00     0.057 A 
ATOM     73  C   UNL A   1      45.742  34.797  27.753  1.00  0.00     0.134 A 
ATOM     74  C   UNL A   1      46.757  34.100  29.806  1.00  0.00     0.134 A 
ATOM     75  F   UNL A   1      45.019  34.553  26.649  1.00  0.00    -0.206 F 
ATOM     76  C   UNL A   1      46.277  36.076  27.915  1.00  0.00     0.040 A 
ATOM     77  C   UNL A   1      47.273  35.382  29.994  1.00  0.00     0.040 A 
ATOM     78  F   UNL A   1      47.022  33.174  30.739  1.00  0.00    -0.206 F 
ATOM     79  C   UNL A   1      47.040  36.373  29.043  1.00  0.00     0.006 A 
ENDBRANCH  58  72
BRANCH  59  80
ATOM     80  C   UNL A   1      41.719  24.796  27.717  1.00  0.00     0.057 A 
ATOM     81  C   UNL A   1      40.770  24.577  26.712  1.00  0.00     0.134 A 
ATOM     82  C   UNL A   1      42.022  23.720  28.561  1.00  0.00     0.134 A 
ATOM     83  F   UNL A   1      40.418  25.573  25.886  1.00  0.00    -0.206 F 
ATOM     84  C   UNL A   1      40.130  23.344  26.565  1.00  0.00     0.040 A 
ATOM     85  C   UNL A   1      41.410  22.474  28.408  1.00  0.00     0.040 A 
ATOM     86  F   UNL A   1      42.923  23.861  29.544  1.00  0.00    -0.206 F 
ATOM     87  C   UNL A   1      40.454  22.286  27.413  1.00  0.00     0.006 A 
ENDBRANCH  59  80
BRANCH  71  88
ATOM     88  C   UNL A   1      47.803  27.500  25.646  1.00  0.00     0.057 A 
ATOM     89  C   UNL A   1      47.919  27.618  24.254  1.00  0.00     0.134 A 
ATOM     90  C   UNL A   1      48.850  26.865  26.329  1.00  0.00     0.134 A 
ATOM     91  F   UNL A   1      46.948  28.205  23.538  1.00  0.00    -0.206 F 
ATOM     92  C   UNL A   1      49.021  27.103  23.568  1.00  0.00     0.040 A 
ATOM     93  C   UNL A   1      49.971  26.376  25.657  1.00  0.00     0.040 A 
ATOM     94  F   UNL A   1      48.809  26.729  27.662  1.00  0.00    -0.206 F 
ATOM     95  C   UNL A   1      50.055  26.488  24.272  1.00  0.00     0.006 A 
ENDBRANCH  71  88
ENDBRANCH  45  46
ENDBRANCH  38  40
ENDBRANCH  37  38
ENDBRANCH  36  37
ENDBRANCH  35  36
ENDBRANCH  34  35
ENDBRANCH  33  34
ENDBRANCH  32  33
ENDBRANCH  31  32
ENDBRANCH  30  31
ENDBRANCH   1  30
TORSDOF 26
ENDMDL
MODEL 2
REMARK VINA RESULT:      -9.5      1.324      6.069
REMARK SMILES CC(=O)N[C@@H](Cc1c(OCC(C)C)ccc2ccccc12)C(=O)OCCOCCOCCOCCOC(=O)c1ccc(-c2c3nc(c(-c4c(F)cccc4F)c4ccc([nH]4)c(-c4c(F)cccc4F)c4nc(c(-c5c(F)cccc5F)c5ccc2[nH]5)C=C4)C=C3)cc1
REMARK SMILES IDX 28 1 27 2 26 3 25 4 24 5 22 6 23 7 5 8 4 9 1 10 2 11 3 12
REMARK SMILES IDX 6 14 7 15 8 16 21 17 14 18 16 19 20 20 15 21 17 22 19 23
REMARK SMILES IDX 18 24 9 25 10 26 11 27 12 28 13 29 29 30 30 31 31 32 32 33
REMARK SMILES IDX 33 34 34 35 35 36 36 37 37 38 38 39 39 40 40 41 92 42 41 43
REMARK SMILES IDX 91 44 42 45 43 46 44 47 85 48 45 49 90 50 84 51 86 52 46 53
REMARK SMILES IDX 89 54 83 55 82 56 47 58 73 59 56 60 72 61 57 62 60 63 71 64
REMARK SMILES IDX 87 65 58 66 59 67 70 69 88 70 61 71 48 72 49 73 54 74 50 75
REMARK SMILES IDX 51 76 53 77 55 78 52 79 74 80 75 81 80 82 76 83 77 84 79 85
REMARK SMILES IDX 81 86 78 87 62 88 63 89 68 90 64 91 65 92 67 93 69 94 66 95
REMARK H PARENT 4 13 86 57 60 68
REMARK Flexibility Score: inf
ROOT
ATOM      1  C   UNL A   1      33.978  33.176  27.991  1.00  0.00     0.188 C 
ENDROOT
BRANCH   1   2
ATOM      2  O   UNL A   1      33.853  31.787  28.270  1.00  0.00    -0.376 OA
BRANCH   2   3
ATOM      3  C   UNL A   1      34.358  30.833  27.350  1.00  0.00     0.202 C 
BRANCH   3   4
ATOM      4  C   UNL A   1      33.397  29.908  26.594  1.00  0.00     0.261 C 
BRANCH   4   5
ATOM      5  O   UNL A   1      33.995  28.797  25.905  1.00  0.00    -0.462 OA
BRANCH   5   6
ATOM      6  C   UNL A   1      33.542  28.530  24.653  1.00  0.00     0.329 C 
ATOM      7  O   UNL A   1      33.222  29.387  23.835  1.00  0.00    -0.250 OA
BRANCH   6   8
ATOM      8  C   UNL A   1      33.335  27.020  24.394  1.00  0.00     0.196 C 
BRANCH   8   9
ATOM      9  N   UNL A   1      33.608  26.498  23.042  1.00  0.00    -0.343 N 
ATOM     10  C   UNL A   1      31.348  25.686  22.484  1.00  0.00     0.114 C 
ATOM     11  C   UNL A   1      32.810  25.815  22.174  1.00  0.00     0.217 C 
ATOM     12  O   UNL A   1      33.282  25.374  21.128  1.00  0.00    -0.275 OA
ATOM     13  H   UNL A   1      34.519  26.673  22.711  1.00  0.00     0.164 HD
ENDBRANCH   8   9
BRANCH   8  14
ATOM     14  C   UNL A   1      34.177  26.238  25.432  1.00  0.00     0.077 C 
BRANCH  14  15
ATOM     15  C   UNL A   1      33.573  24.869  25.767  1.00  0.00     0.005 A 
ATOM     16  C   UNL A   1      34.395  23.721  25.656  1.00  0.00     0.123 A 
ATOM     17  C   UNL A   1      32.176  24.717  26.051  1.00  0.00    -0.011 A 
ATOM     18  C   UNL A   1      33.817  22.457  25.681  1.00  0.00     0.047 A 
ATOM     19  C   UNL A   1      31.646  23.410  26.180  1.00  0.00    -0.018 A 
ATOM     20  C   UNL A   1      31.258  25.788  26.190  1.00  0.00     0.009 A 
ATOM     21  C   UNL A   1      32.464  22.301  25.962  1.00  0.00     0.012 A 
ATOM     22  C   UNL A   1      30.293  23.210  26.496  1.00  0.00     0.009 A 
ATOM     23  C   UNL A   1      29.905  25.577  26.474  1.00  0.00     0.001 A 
ATOM     24  C   UNL A   1      29.428  24.288  26.647  1.00  0.00     0.001 A 
BRANCH  16  25
ATOM     25  O   UNL A   1      35.739  23.955  25.544  1.00  0.00    -0.493 OA
BRANCH  25  26
ATOM     26  C   UNL A   1      36.688  23.037  26.086  1.00  0.00     0.232 C 
BRANCH  26  27
ATOM     27  C   UNL A   1      37.658  22.474  25.035  1.00  0.00     0.020 C 
ATOM     28  C   UNL A   1      38.210  21.090  25.376  1.00  0.00     0.011 C 
ATOM     29  C   UNL A   1      36.956  22.420  23.678  1.00  0.00     0.011 C 
ENDBRANCH  26  27
ENDBRANCH  25  26
ENDBRANCH  16  25
ENDBRANCH  14  15
ENDBRANCH   8  14
ENDBRANCH   6   8
ENDBRANCH   5   6
ENDBRANCH   4   5
ENDBRANCH   3   4
ENDBRANCH   2   3
ENDBRANCH   1   2
BRANCH   1  30
ATOM     30  C   UNL A   1      33.433  34.231  28.974  1.00  0.00     0.188 C 
BRANCH  30  31
ATOM     31  O   UNL A   1      34.306  34.590  30.029  1.00  0.00    -0.377 OA
BRANCH  31  32
ATOM     32  C   UNL A   1      33.708  35.301  31.103  1.00  0.00     0.188 C 
BRANCH  32  33
ATOM     33  C   UNL A   1      33.834  34.663  32.500  1.00  0.00     0.188 C 
BRANCH  33  34
ATOM     34  O   UNL A   1      34.001  33.252  32.475  1.00  0.00    -0.376 OA
BRANCH  34  35
ATOM     35  C   UNL A   1      35.255  32.691  32.835  1.00  0.00     0.202 C 
BRANCH  35  36
ATOM     36  C   UNL A   1      36.142  32.081  31.734  1.00  0.00     0.261 C 
BRANCH  36  37
ATOM     37  O   UNL A   1      36.722  30.795  32.002  1.00  0.00    -0.460 OA
BRANCH  37  38
ATOM     38  C   UNL A   1      36.775  29.892  31.004  1.00  0.00     0.338 C 
ATOM     39  O   UNL A   1      35.836  29.331  30.465  1.00  0.00    -0.246 OA
BRANCH  38  40
ATOM     40  C   UNL A   1      38.170  29.849  30.518  1.00  0.00     0.060 A 
ATOM     41  C   UNL A   1      38.423  30.073  29.157  1.00  0.00     0.016 A 
ATOM     42  C   UNL A   1      39.225  29.600  31.400  1.00  0.00     0.016 A 
ATOM     43  C   UNL A   1      39.727  30.012  28.668  1.00  0.00     0.010 A 
ATOM     44  C   UNL A   1      40.528  29.507  30.903  1.00  0.00     0.010 A 
ATOM     45  C   UNL A   1      40.778  29.678  29.530  1.00  0.00    -0.014 A 
BRANCH  45  46
ATOM     46  C   UNL A   1      42.092  29.286  28.967  1.00  0.00     0.031 A 
ATOM     47  C   UNL A   1      42.272  27.862  28.516  1.00  0.00     0.074 A 
ATOM     48  C   UNL A   1      43.096  30.170  28.839  1.00  0.00     0.049 A 
ATOM     49  N   UNL A   1      43.340  27.261  28.060  1.00  0.00    -0.248 NA
ATOM     50  C   UNL A   1      41.081  27.000  28.595  1.00  0.00     0.031 C 
ATOM     51  C   UNL A   1      43.028  31.587  29.188  1.00  0.00     0.029 A 
ATOM     52  N   UNL A   1      44.381  29.993  28.387  1.00  0.00    -0.354 N 
ATOM     53  C   UNL A   1      42.954  25.950  27.810  1.00  0.00     0.074 A 
ATOM     54  C   UNL A   1      41.564  25.835  28.192  1.00  0.00     0.031 C 
ATOM     55  C   UNL A   1      44.227  32.150  28.953  1.00  0.00     0.029 A 
ATOM     56  C   UNL A   1      45.154  31.125  28.476  1.00  0.00     0.049 A 
ATOM     57  H   UNL A   1      44.715  29.138  28.033  1.00  0.00     0.167 HD
ATOM     58  C   UNL A   1      43.691  24.934  27.304  1.00  0.00     0.037 A 
ATOM     59  C   UNL A   1      46.467  31.299  28.228  1.00  0.00     0.037 A 
ATOM     60  C   UNL A   1      45.076  25.052  26.933  1.00  0.00     0.049 A 
ATOM     61  C   UNL A   1      47.291  30.130  27.749  1.00  0.00     0.074 A 
ATOM     62  C   UNL A   1      45.909  24.085  26.398  1.00  0.00     0.029 A 
ATOM     63  N   UNL A   1      45.833  26.204  27.070  1.00  0.00    -0.354 N 
ATOM     64  N   UNL A   1      46.916  28.899  27.495  1.00  0.00    -0.248 NA
ATOM     65  C   UNL A   1      48.723  30.375  27.524  1.00  0.00     0.031 C 
ATOM     66  C   UNL A   1      47.187  24.636  26.269  1.00  0.00     0.029 A 
ATOM     67  C   UNL A   1      47.135  25.964  26.660  1.00  0.00     0.049 A 
ATOM     68  H   UNL A   1      45.498  27.065  27.410  1.00  0.00     0.167 HD
ATOM     69  C   UNL A   1      48.053  28.234  27.048  1.00  0.00     0.074 A 
ATOM     70  C   UNL A   1      49.130  29.203  27.055  1.00  0.00     0.031 C 
ATOM     71  C   UNL A   1      48.194  26.942  26.663  1.00  0.00     0.037 A 
BRANCH  58  72
ATOM     72  C   UNL A   1      43.020  23.599  27.158  1.00  0.00     0.057 A 
ATOM     73  C   UNL A   1      42.813  22.746  28.250  1.00  0.00     0.134 A 
ATOM     74  C   UNL A   1      42.553  23.172  25.909  1.00  0.00     0.134 A 
ATOM     75  F   UNL A   1      43.250  23.086  29.473  1.00  0.00    -0.206 F 
ATOM     76  C   UNL A   1      42.188  21.507  28.101  1.00  0.00     0.040 A 
ATOM     77  C   UNL A   1      41.901  21.949  25.752  1.00  0.00     0.040 A 
ATOM     78  F   UNL A   1      42.717  23.939  24.821  1.00  0.00    -0.206 F 
ATOM     79  C   UNL A   1      41.723  21.109  26.849  1.00  0.00     0.006 A 
ENDBRANCH  58  72
BRANCH  59  80
ATOM     80  C   UNL A   1      47.100  32.626  28.448  1.00  0.00     0.057 A 
ATOM     81  C   UNL A   1      47.151  33.585  27.429  1.00  0.00     0.134 A 
ATOM     82  C   UNL A   1      47.696  32.956  29.672  1.00  0.00     0.134 A 
ATOM     83  F   UNL A   1      46.620  33.321  26.227  1.00  0.00    -0.206 F 
ATOM     84  C   UNL A   1      47.789  34.813  27.612  1.00  0.00     0.040 A 
ATOM     85  C   UNL A   1      48.313  34.191  29.877  1.00  0.00     0.040 A 
ATOM     86  F   UNL A   1      47.682  32.083  30.690  1.00  0.00    -0.206 F 
ATOM     87  C   UNL A   1      48.369  35.120  28.841  1.00  0.00     0.006 A 
ENDBRANCH  59  80
BRANCH  71  88
ATOM     88  C   UNL A   1      49.545  26.505  26.173  1.00  0.00     0.057 A 
ATOM     89  C   UNL A   1      50.434  25.782  26.980  1.00  0.00     0.134 A 
ATOM     90  C   UNL A   1      49.941  26.769  24.854  1.00  0.00     0.134 A 
ATOM     91  F   UNL A   1      50.122  25.505  28.255  1.00  0.00    -0.206 F 
ATOM     92  C   UNL A   1      51.675  25.358  26.501  1.00  0.00     0.040 A 
ATOM     93  C   UNL A   1      51.166  26.322  24.355  1.00  0.00     0.040 A 
ATOM     94  F   UNL A   1      49.135  27.446  24.023  1.00  0.00    -0.206 F 
ATOM     95  C   UNL A   1      52.039  25.621  25.182  1.00  0.00     0.006 A 
ENDBRANCH  71  88
ENDBRANCH  45  46
ENDBRANCH  38  40
ENDBRANCH  37  38
ENDBRANCH  36  37
ENDBRANCH  35  36
ENDBRANCH  34  35
ENDBRANCH  33  34
ENDBRANCH  32  33
ENDBRANCH  31  32
ENDBRANCH  30  31
ENDBRANCH   1  30
TORSDOF 26
ENDMDL
MODEL 3
REMARK VINA RESULT:      -9.5      1.713      6.717
REMARK SMILES CC(=O)N[C@@H](Cc1c(OCC(C)C)ccc2ccccc12)C(=O)OCCOCCOCCOCCOC(=O)c1ccc(-c2c3nc(c(-c4c(F)cccc4F)c4ccc([nH]4)c(-c4c(F)cccc4F)c4nc(c(-c5c(F)cccc5F)c5ccc2[nH]5)C=C4)C=C3)cc1
REMARK SMILES IDX 28 1 27 2 26 3 25 4 24 5 22 6 23 7 5 8 4 9 1 10 2 11 3 12
REMARK SMILES IDX 6 14 7 15 8 16 21 17 14 18 16 19 20 20 15 21 17 22 19 23
REMARK SMILES IDX 18 24 9 25 10 26 11 27 12 28 13 29 29 30 30 31 31 32 32 33
REMARK SMILES IDX 33 34 34 35 35 36 36 37 37 38 38 39 39 40 40 41 92 42 41 43
REMARK SMILES IDX 91 44 42 45 43 46 44 47 85 48 45 49 90 50 84 51 86 52 46 53
REMARK SMILES IDX 89 54 83 55 82 56 47 58 73 59 56 60 72 61 57 62 60 63 71 64
REMARK SMILES IDX 87 65 58 66 59 67 70 69 88 70 61 71 48 72 49 73 54 74 50 75
REMARK SMILES IDX 51 76 53 77 55 78 52 79 74 80 75 81 80 82 76 83 77 84 79 85
REMARK SMILES IDX 81 86 78 87 62 88 63 89 68 90 64 91 65 92 67 93 69 94 66 95
REMARK H PARENT 4 13 86 57 60 68
REMARK Flexibility Score: inf
ROOT
ATOM      1  C   UNL A   1      34.569  33.981  27.999  1.00  0.00     0.188 C 
ENDROOT
BRANCH   1   2
ATOM      2  O   UNL A   1      34.874  32.626  27.695  1.00  0.00    -0.376 OA
BRANCH   2   3
ATOM      3  C   UNL A   1      33.910  31.613  27.936  1.00  0.00     0.202 C 
BRANCH   3   4
ATOM      4  C   UNL A   1      33.709  30.484  26.919  1.00  0.00     0.261 C 
BRANCH   4   5
ATOM      5  O   UNL A   1      33.645  29.151  27.454  1.00  0.00    -0.462 OA
BRANCH   5   6
ATOM      6  C   UNL A   1      32.489  28.464  27.266  1.00  0.00     0.329 C 
ATOM      7  O   UNL A   1      31.412  28.768  27.772  1.00  0.00    -0.250 OA
BRANCH   6   8
ATOM      8  C   UNL A   1      32.683  27.164  26.453  1.00  0.00     0.196 C 
BRANCH   8   9
ATOM      9  N   UNL A   1      31.484  26.412  26.039  1.00  0.00    -0.343 N 
ATOM     10  C   UNL A   1      32.122  24.184  26.882  1.00  0.00     0.114 C 
ATOM     11  C   UNL A   1      31.201  25.081  26.109  1.00  0.00     0.217 C 
ATOM     12  O   UNL A   1      30.170  24.648  25.598  1.00  0.00    -0.275 OA
ATOM     13  H   UNL A   1      30.769  26.964  25.647  1.00  0.00     0.164 HD
ENDBRANCH   8   9
BRANCH   8  14
ATOM     14  C   UNL A   1      33.539  27.503  25.208  1.00  0.00     0.077 C 
BRANCH  14  15
ATOM     15  C   UNL A   1      33.144  26.674  23.980  1.00  0.00     0.005 A 
ATOM     16  C   UNL A   1      32.095  27.144  23.155  1.00  0.00     0.123 A 
ATOM     17  C   UNL A   1      33.716  25.382  23.735  1.00  0.00    -0.011 A 
ATOM     18  C   UNL A   1      31.532  26.296  22.207  1.00  0.00     0.047 A 
ATOM     19  C   UNL A   1      33.187  24.592  22.685  1.00  0.00    -0.018 A 
ATOM     20  C   UNL A   1      34.771  24.809  24.488  1.00  0.00     0.009 A 
ATOM     21  C   UNL A   1      32.085  25.044  21.960  1.00  0.00     0.012 A 
ATOM     22  C   UNL A   1      33.738  23.338  22.381  1.00  0.00     0.009 A 
ATOM     23  C   UNL A   1      35.292  23.545  24.196  1.00  0.00     0.001 A 
ATOM     24  C   UNL A   1      34.788  22.818  23.129  1.00  0.00     0.001 A 
BRANCH  16  25
ATOM     25  O   UNL A   1      31.715  28.445  23.351  1.00  0.00    -0.493 OA
BRANCH  25  26
ATOM     26  C   UNL A   1      30.442  28.757  23.917  1.00  0.00     0.232 C 
BRANCH  26  27
ATOM     27  C   UNL A   1      29.518  29.519  22.954  1.00  0.00     0.020 C 
ATOM     28  C   UNL A   1      29.012  30.853  23.502  1.00  0.00     0.011 C 
ATOM     29  C   UNL A   1      30.252  29.758  21.633  1.00  0.00     0.011 C 
ENDBRANCH  26  27
ENDBRANCH  25  26
ENDBRANCH  16  25
ENDBRANCH  14  15
ENDBRANCH   8  14
ENDBRANCH   6   8
ENDBRANCH   5   6
ENDBRANCH   4   5
ENDBRANCH   3   4
ENDBRANCH   2   3
ENDBRANCH   1   2
BRANCH   1  30
ATOM     30  C   UNL A   1      33.568  34.334  29.116  1.00  0.00     0.188 C 
BRANCH  30  31
ATOM     31  O   UNL A   1      33.927  35.435  29.932  1.00  0.00    -0.377 OA
BRANCH  31  32
ATOM     32  C   UNL A   1      33.033  35.724  30.996  1.00  0.00     0.188 C 
BRANCH  32  33
ATOM     33  C   UNL A   1      33.591  35.554  32.422  1.00  0.00     0.188 C 
BRANCH  33  34
ATOM     34  O   UNL A   1      34.792  34.797  32.484  1.00  0.00    -0.376 OA
BRANCH  34  35
ATOM     35  C   UNL A   1      34.895  33.724  33.407  1.00  0.00     0.202 C 
BRANCH  35  36
ATOM     36  C   UNL A   1      36.207  32.922  33.475  1.00  0.00     0.261 C 
BRANCH  36  37
ATOM     37  O   UNL A   1      36.174  31.576  32.975  1.00  0.00    -0.460 OA
BRANCH  37  38
ATOM     38  C   UNL A   1      35.910  31.380  31.669  1.00  0.00     0.338 C 
ATOM     39  O   UNL A   1      34.969  31.822  31.032  1.00  0.00    -0.246 OA
BRANCH  38  40
ATOM     40  C   UNL A   1      37.082  30.704  31.075  1.00  0.00     0.060 A 
ATOM     41  C   UNL A   1      38.024  30.106  31.926  1.00  0.00     0.016 A 
ATOM     42  C   UNL A   1      37.248  30.648  29.689  1.00  0.00     0.016 A 
ATOM     43  C   UNL A   1      39.152  29.484  31.393  1.00  0.00     0.010 A 
ATOM     44  C   UNL A   1      38.395  30.052  29.158  1.00  0.00     0.010 A 
ATOM     45  C   UNL A   1      39.368  29.500  30.010  1.00  0.00    -0.014 A 
BRANCH  45  46
ATOM     46  C   UNL A   1      40.703  29.147  29.472  1.00  0.00     0.031 A 
ATOM     47  C   UNL A   1      40.920  27.741  28.985  1.00  0.00     0.074 A 
ATOM     48  C   UNL A   1      41.695  30.051  29.398  1.00  0.00     0.049 A 
ATOM     49  N   UNL A   1      42.011  27.171  28.542  1.00  0.00    -0.248 NA
ATOM     50  C   UNL A   1      39.743  26.857  29.006  1.00  0.00     0.031 C 
ATOM     51  C   UNL A   1      41.594  31.456  29.787  1.00  0.00     0.029 A 
ATOM     52  N   UNL A   1      42.995  29.909  28.977  1.00  0.00    -0.354 N 
ATOM     53  C   UNL A   1      41.654  25.862  28.243  1.00  0.00     0.074 A 
ATOM     54  C   UNL A   1      40.256  25.712  28.582  1.00  0.00     0.031 C 
ATOM     55  C   UNL A   1      42.789  32.045  29.601  1.00  0.00     0.029 A 
ATOM     56  C   UNL A   1      43.745  31.050  29.120  1.00  0.00     0.049 A 
ATOM     57  H   UNL A   1      43.353  29.070  28.607  1.00  0.00     0.167 HD
ATOM     58  C   UNL A   1      42.422  24.873  27.728  1.00  0.00     0.037 A 
ATOM     59  C   UNL A   1      45.062  31.253  28.914  1.00  0.00     0.037 A 
ATOM     60  C   UNL A   1      43.814  25.025  27.399  1.00  0.00     0.049 A 
ATOM     61  C   UNL A   1      45.919  30.112  28.424  1.00  0.00     0.074 A 
ATOM     62  C   UNL A   1      44.678  24.089  26.859  1.00  0.00     0.029 A 
ATOM     63  N   UNL A   1      44.548  26.185  27.591  1.00  0.00    -0.354 N 
ATOM     64  N   UNL A   1      45.571  28.883  28.123  1.00  0.00    -0.248 NA
ATOM     65  C   UNL A   1      47.352  30.388  28.245  1.00  0.00     0.031 C 
ATOM     66  C   UNL A   1      45.950  24.663  26.782  1.00  0.00     0.029 A 
ATOM     67  C   UNL A   1      45.864  25.979  27.209  1.00  0.00     0.049 A 
ATOM     68  H   UNL A   1      44.188  27.030  27.946  1.00  0.00     0.167 HD
ATOM     69  C   UNL A   1      46.732  28.251  27.688  1.00  0.00     0.074 A 
ATOM     70  C   UNL A   1      47.791  29.237  27.754  1.00  0.00     0.031 C 
ATOM     71  C   UNL A   1      46.906  26.974  27.270  1.00  0.00     0.037 A 
BRANCH  58  72
ATOM     72  C   UNL A   1      41.779  23.532  27.525  1.00  0.00     0.057 A 
ATOM     73  C   UNL A   1      40.847  23.299  26.505  1.00  0.00     0.134 A 
ATOM     74  C   UNL A   1      42.116  22.451  28.349  1.00  0.00     0.134 A 
ATOM     75  F   UNL A   1      40.467  24.295  25.690  1.00  0.00    -0.206 F 
ATOM     76  C   UNL A   1      40.256  22.047  26.327  1.00  0.00     0.040 A 
ATOM     77  C   UNL A   1      41.555  21.188  28.164  1.00  0.00     0.040 A 
ATOM     78  F   UNL A   1      43.002  22.604  29.345  1.00  0.00    -0.206 F 
ATOM     79  C   UNL A   1      40.616  20.985  27.154  1.00  0.00     0.006 A 
ENDBRANCH  58  72
BRANCH  59  80
ATOM     80  C   UNL A   1      45.665  32.583  29.190  1.00  0.00     0.057 A 
ATOM     81  C   UNL A   1      46.195  32.893  30.449  1.00  0.00     0.134 A 
ATOM     82  C   UNL A   1      45.697  33.586  28.214  1.00  0.00     0.134 A 
ATOM     83  F   UNL A   1      46.172  31.984  31.434  1.00  0.00    -0.206 F 
ATOM     84  C   UNL A   1      46.714  34.158  30.732  1.00  0.00     0.040 A 
ATOM     85  C   UNL A   1      46.239  34.846  28.475  1.00  0.00     0.040 A 
ATOM     86  F   UNL A   1      45.207  33.355  26.987  1.00  0.00    -0.206 F 
ATOM     87  C   UNL A   1      46.741  35.138  29.741  1.00  0.00     0.006 A 
ENDBRANCH  59  80
BRANCH  71  88
ATOM     88  C   UNL A   1      48.277  26.574  26.805  1.00  0.00     0.057 A 
ATOM     89  C   UNL A   1      49.207  25.967  27.660  1.00  0.00     0.134 A 
ATOM     90  C   UNL A   1      48.652  26.752  25.466  1.00  0.00     0.134 A 
ATOM     91  F   UNL A   1      48.916  25.776  28.956  1.00  0.00    -0.206 F 
ATOM     92  C   UNL A   1      50.468  25.575  27.205  1.00  0.00     0.040 A 
ATOM     93  C   UNL A   1      49.897  26.335  24.993  1.00  0.00     0.040 A 
ATOM     94  F   UNL A   1      47.806  27.315  24.590  1.00  0.00    -0.206 F 
ATOM     95  C   UNL A   1      50.812  25.751  25.866  1.00  0.00     0.006 A 
ENDBRANCH  71  88
ENDBRANCH  45  46
ENDBRANCH  38  40
ENDBRANCH  37  38
ENDBRANCH  36  37
ENDBRANCH  35  36
ENDBRANCH  34  35
ENDBRANCH  33  34
ENDBRANCH  32  33
ENDBRANCH  31  32
ENDBRANCH  30  31
ENDBRANCH   1  30
TORSDOF 26
ENDMDL
