MODEL 1
REMARK VINA RESULT:      -9.9      0.000      0.000
REMARK SMILES COc1cc(OC)cc(-c2ccc([C@@H](C)C(=O)OCCOCCOCCOCCOC(=O)c3ccc(-c4c5nc(c(-c6c(F)cccc6F)c6ccc([nH]6)c(-c6c(F)cccc6F)c6nc(c(-c7c(F)cccc7F)c7ccc4[nH]7)C=C6)C=C5)cc3)cc2F)c1
REMARK SMILES IDX 23 1 22 2 21 3 20 4 19 5 18 6 16 7 17 8 14 9 15 10 13 11
REMARK SMILES IDX 10 12 11 13 88 14 12 15 87 16 89 17 9 18 3 19 4 20 90 21
REMARK SMILES IDX 5 22 8 23 2 24 1 25 6 26 7 27 24 28 25 29 26 30 27 31 28 32
REMARK SMILES IDX 29 33 30 34 31 35 32 36 33 37 34 38 86 39 35 40 85 41 36 42
REMARK SMILES IDX 37 43 38 44 79 45 39 46 84 47 78 48 80 49 40 50 83 51 77 52
REMARK SMILES IDX 76 53 41 55 67 56 50 57 66 58 51 59 54 60 65 61 81 62 52 63
REMARK SMILES IDX 53 64 64 66 82 67 55 68 42 69 43 70 48 71 44 72 45 73 47 74
REMARK SMILES IDX 49 75 46 76 68 77 69 78 74 79 70 80 71 81 73 82 75 83 72 84
REMARK SMILES IDX 56 85 57 86 62 87 58 88 59 89 61 90 63 91 60 92
REMARK H PARENT 80 54 54 65
REMARK Flexibility Score: inf
ROOT
ATOM      1  C   UNL A   1      35.037  31.151  27.745  1.00  0.00     0.188 C 
ENDROOT
BRANCH   1   2
ATOM      2  C   UNL A   1      33.579  30.862  27.365  1.00  0.00     0.188 C 
BRANCH   2   3
ATOM      3  O   UNL A   1      33.154  29.543  27.060  1.00  0.00    -0.376 OA
BRANCH   3   4
ATOM      4  C   UNL A   1      33.199  29.054  25.728  1.00  0.00     0.202 C 
BRANCH   4   5
ATOM      5  C   UNL A   1      32.128  28.091  25.182  1.00  0.00     0.261 C 
BRANCH   5   6
ATOM      6  O   UNL A   1      31.136  27.612  26.115  1.00  0.00    -0.463 OA
BRANCH   6   7
ATOM      7  C   UNL A   1      30.568  26.418  25.827  1.00  0.00     0.313 C 
ATOM      8  O   UNL A   1      29.724  25.883  26.545  1.00  0.00    -0.252 OA
BRANCH   7   9
ATOM      9  C   UNL A   1      31.053  25.733  24.549  1.00  0.00     0.126 C 
ATOM     10  C   UNL A   1      29.854  25.529  23.630  1.00  0.00     0.025 C 
BRANCH   9  11
ATOM     11  C   UNL A   1      31.931  24.481  24.605  1.00  0.00    -0.031 A 
ATOM     12  C   UNL A   1      33.597  22.151  24.847  1.00  0.00     0.018 A 
ATOM     13  C   UNL A   1      32.800  22.378  23.708  1.00  0.00     0.012 A 
ATOM     14  C   UNL A   1      33.530  23.108  25.863  1.00  0.00     0.131 A 
ATOM     15  C   UNL A   1      31.985  23.523  23.586  1.00  0.00     0.005 A 
ATOM     16  C   UNL A   1      32.733  24.255  25.744  1.00  0.00     0.044 A 
ATOM     17  F   UNL A   1      34.258  22.961  26.980  1.00  0.00    -0.206 F 
BRANCH  12  18
ATOM     18  C   UNL A   1      34.557  21.028  24.899  1.00  0.00    -0.008 A 
ATOM     19  C   UNL A   1      36.810  20.096  24.984  1.00  0.00     0.123 A 
ATOM     20  C   UNL A   1      36.291  18.812  24.814  1.00  0.00     0.092 A 
ATOM     21  C   UNL A   1      35.951  21.203  25.012  1.00  0.00     0.055 A 
ATOM     22  C   UNL A   1      34.918  18.615  24.692  1.00  0.00     0.123 A 
ATOM     23  C   UNL A   1      34.063  19.716  24.754  1.00  0.00     0.055 A 
BRANCH  19  24
ATOM     24  O   UNL A   1      38.177  20.169  25.001  1.00  0.00    -0.497 OA
ATOM     25  C   UNL A   1      38.839  18.963  25.357  1.00  0.00     0.278 C 
ENDBRANCH  19  24
BRANCH  22  26
ATOM     26  O   UNL A   1      34.528  17.318  24.506  1.00  0.00    -0.497 OA
ATOM     27  C   UNL A   1      34.103  16.972  23.191  1.00  0.00     0.278 C 
ENDBRANCH  22  26
ENDBRANCH  12  18
ENDBRANCH   9  11
ENDBRANCH   7   9
ENDBRANCH   6   7
ENDBRANCH   5   6
ENDBRANCH   4   5
ENDBRANCH   3   4
ENDBRANCH   2   3
ENDBRANCH   1   2
BRANCH   1  28
ATOM     28  O   UNL A   1      35.407  32.514  27.730  1.00  0.00    -0.377 OA
BRANCH  28  29
ATOM     29  C   UNL A   1      34.413  33.453  28.105  1.00  0.00     0.188 C 
BRANCH  29  30
ATOM     30  C   UNL A   1      34.619  34.217  29.426  1.00  0.00     0.188 C 
BRANCH  30  31
ATOM     31  O   UNL A   1      34.172  33.511  30.576  1.00  0.00    -0.376 OA
BRANCH  31  32
ATOM     32  C   UNL A   1      34.346  34.100  31.857  1.00  0.00     0.202 C 
BRANCH  32  33
ATOM     33  C   UNL A   1      34.765  33.198  33.032  1.00  0.00     0.261 C 
BRANCH  33  34
ATOM     34  O   UNL A   1      35.579  32.054  32.726  1.00  0.00    -0.460 OA
BRANCH  34  35
ATOM     35  C   UNL A   1      36.741  31.900  33.389  1.00  0.00     0.338 C 
ATOM     36  O   UNL A   1      36.938  32.082  34.580  1.00  0.00    -0.246 OA
BRANCH  35  37
ATOM     37  C   UNL A   1      37.716  31.278  32.466  1.00  0.00     0.060 A 
ATOM     38  C   UNL A   1      38.764  30.514  33.000  1.00  0.00     0.016 A 
ATOM     39  C   UNL A   1      37.600  31.443  31.084  1.00  0.00     0.016 A 
ATOM     40  C   UNL A   1      39.720  29.947  32.157  1.00  0.00     0.010 A 
ATOM     41  C   UNL A   1      38.575  30.899  30.241  1.00  0.00     0.010 A 
ATOM     42  C   UNL A   1      39.659  30.180  30.777  1.00  0.00    -0.014 A 
BRANCH  42  43
ATOM     43  C   UNL A   1      40.830  29.855  29.924  1.00  0.00     0.031 A 
ATOM     44  C   UNL A   1      40.924  28.469  29.343  1.00  0.00     0.074 A 
ATOM     45  C   UNL A   1      41.779  30.766  29.647  1.00  0.00     0.049 A 
ATOM     46  N   UNL A   1      41.872  27.929  28.623  1.00  0.00    -0.248 NA
ATOM     47  C   UNL A   1      39.788  27.572  29.615  1.00  0.00     0.031 C 
ATOM     48  C   UNL A   1      41.777  32.155  30.099  1.00  0.00     0.029 A 
ATOM     49  N   UNL A   1      42.937  30.647  28.919  1.00  0.00    -0.354 N 
ATOM     50  C   UNL A   1      41.453  26.629  28.364  1.00  0.00     0.074 A 
ATOM     51  C   UNL A   1      40.181  26.452  29.031  1.00  0.00     0.031 C 
ATOM     52  C   UNL A   1      42.892  32.760  29.648  1.00  0.00     0.029 A 
ATOM     53  C   UNL A   1      43.701  31.790  28.909  1.00  0.00     0.049 A 
ATOM     54  H   UNL A   1      43.197  29.823  28.449  1.00  0.00     0.167 HD
ATOM     55  C   UNL A   1      42.066  25.671  27.629  1.00  0.00     0.037 A 
ATOM     56  C   UNL A   1      44.921  32.015  28.386  1.00  0.00     0.037 A 
ATOM     57  C   UNL A   1      43.336  25.846  26.976  1.00  0.00     0.049 A 
ATOM     58  C   UNL A   1      45.633  30.902  27.658  1.00  0.00     0.074 A 
ATOM     59  C   UNL A   1      44.039  24.939  26.203  1.00  0.00     0.029 A 
ATOM     60  N   UNL A   1      44.098  27.003  27.027  1.00  0.00    -0.354 N 
ATOM     61  N   UNL A   1      45.223  29.682  27.402  1.00  0.00    -0.248 NA
ATOM     62  C   UNL A   1      46.979  31.199  27.145  1.00  0.00     0.031 C 
ATOM     63  C   UNL A   1      45.255  25.526  25.839  1.00  0.00     0.029 A 
ATOM     64  C   UNL A   1      45.279  26.823  26.326  1.00  0.00     0.049 A 
ATOM     65  H   UNL A   1      43.839  27.831  27.493  1.00  0.00     0.167 HD
ATOM     66  C   UNL A   1      46.241  29.081  26.669  1.00  0.00     0.074 A 
ATOM     67  C   UNL A   1      47.283  30.074  26.513  1.00  0.00     0.031 C 
ATOM     68  C   UNL A   1      46.305  27.823  26.167  1.00  0.00     0.037 A 
BRANCH  55  69
ATOM     69  C   UNL A   1      41.385  24.338  27.527  1.00  0.00     0.057 A 
ATOM     70  C   UNL A   1      41.811  23.225  28.264  1.00  0.00     0.134 A 
ATOM     71  C   UNL A   1      40.273  24.167  26.691  1.00  0.00     0.134 A 
ATOM     72  F   UNL A   1      42.879  23.313  29.073  1.00  0.00    -0.206 F 
ATOM     73  C   UNL A   1      41.176  21.986  28.152  1.00  0.00     0.040 A 
ATOM     74  C   UNL A   1      39.611  22.943  26.593  1.00  0.00     0.040 A 
ATOM     75  F   UNL A   1      39.809  25.192  25.959  1.00  0.00    -0.206 F 
ATOM     76  C   UNL A   1      40.068  21.845  27.319  1.00  0.00     0.006 A 
ENDBRANCH  55  69
BRANCH  56  77
ATOM     77  C   UNL A   1      45.570  33.345  28.541  1.00  0.00     0.057 A 
ATOM     78  C   UNL A   1      46.590  33.549  29.478  1.00  0.00     0.134 A 
ATOM     79  C   UNL A   1      45.162  34.449  27.783  1.00  0.00     0.134 A 
ATOM     80  F   UNL A   1      47.007  32.538  30.253  1.00  0.00    -0.206 F 
ATOM     81  C   UNL A   1      47.165  34.806  29.671  1.00  0.00     0.040 A 
ATOM     82  C   UNL A   1      45.750  35.706  27.944  1.00  0.00     0.040 A 
ATOM     83  F   UNL A   1      44.190  34.323  26.869  1.00  0.00    -0.206 F 
ATOM     84  C   UNL A   1      46.749  35.889  28.899  1.00  0.00     0.006 A 
ENDBRANCH  56  77
BRANCH  68  85
ATOM     85  C   UNL A   1      47.518  27.459  25.357  1.00  0.00     0.057 A 
ATOM     86  C   UNL A   1      47.597  27.705  23.980  1.00  0.00     0.134 A 
ATOM     87  C   UNL A   1      48.643  26.897  25.977  1.00  0.00     0.134 A 
ATOM     88  F   UNL A   1      46.554  28.232  23.321  1.00  0.00    -0.206 F 
ATOM     89  C   UNL A   1      48.740  27.381  23.245  1.00  0.00     0.040 A 
ATOM     90  C   UNL A   1      49.801  26.599  25.259  1.00  0.00     0.040 A 
ATOM     91  F   UNL A   1      48.640  26.646  27.295  1.00  0.00    -0.206 F 
ATOM     92  C   UNL A   1      49.850  26.834  23.887  1.00  0.00     0.006 A 
ENDBRANCH  68  85
ENDBRANCH  42  43
ENDBRANCH  35  37
ENDBRANCH  34  35
ENDBRANCH  33  34
ENDBRANCH  32  33
ENDBRANCH  31  32
ENDBRANCH  30  31
ENDBRANCH  29  30
ENDBRANCH  28  29
ENDBRANCH   1  28
TORSDOF 24
ENDMDL
MODEL 2
REMARK VINA RESULT:      -9.0      1.061      2.120
REMARK SMILES COc1cc(OC)cc(-c2ccc([C@@H](C)C(=O)OCCOCCOCCOCCOC(=O)c3ccc(-c4c5nc(c(-c6c(F)cccc6F)c6ccc([nH]6)c(-c6c(F)cccc6F)c6nc(c(-c7c(F)cccc7F)c7ccc4[nH]7)C=C6)C=C5)cc3)cc2F)c1
REMARK SMILES IDX 23 1 22 2 21 3 20 4 19 5 18 6 16 7 17 8 14 9 15 10 13 11
REMARK SMILES IDX 10 12 11 13 88 14 12 15 87 16 89 17 9 18 3 19 4 20 90 21
REMARK SMILES IDX 5 22 8 23 2 24 1 25 6 26 7 27 24 28 25 29 26 30 27 31 28 32
REMARK SMILES IDX 29 33 30 34 31 35 32 36 33 37 34 38 86 39 35 40 85 41 36 42
REMARK SMILES IDX 37 43 38 44 79 45 39 46 84 47 78 48 80 49 40 50 83 51 77 52
REMARK SMILES IDX 76 53 41 55 67 56 50 57 66 58 51 59 54 60 65 61 81 62 52 63
REMARK SMILES IDX 53 64 64 66 82 67 55 68 42 69 43 70 48 71 44 72 45 73 47 74
REMARK SMILES IDX 49 75 46 76 68 77 69 78 74 79 70 80 71 81 73 82 75 83 72 84
REMARK SMILES IDX 56 85 57 86 62 87 58 88 59 89 61 90 63 91 60 92
REMARK H PARENT 80 54 54 65
REMARK Flexibility Score: inf
ROOT
ATOM      1  C   UNL A   1      35.064  30.349  27.610  1.00  0.00     0.188 C 
ENDROOT
BRANCH   1   2
ATOM      2  C   UNL A   1      33.734  29.885  27.004  1.00  0.00     0.188 C 
BRANCH   2   3
ATOM      3  O   UNL A   1      33.432  28.503  26.883  1.00  0.00    -0.376 OA
BRANCH   3   4
ATOM      4  C   UNL A   1      33.884  27.756  25.764  1.00  0.00     0.202 C 
BRANCH   4   5
ATOM      5  C   UNL A   1      33.006  26.677  25.102  1.00  0.00     0.261 C 
BRANCH   5   6
ATOM      6  O   UNL A   1      31.720  26.414  25.703  1.00  0.00    -0.463 OA
BRANCH   6   7
ATOM      7  C   UNL A   1      31.022  25.373  25.195  1.00  0.00     0.313 C 
ATOM      8  O   UNL A   1      29.929  25.017  25.633  1.00  0.00    -0.252 OA
BRANCH   7   9
ATOM      9  C   UNL A   1      31.681  24.622  24.037  1.00  0.00     0.126 C 
ATOM     10  C   UNL A   1      30.904  24.932  22.762  1.00  0.00     0.025 C 
BRANCH   9  11
ATOM     11  C   UNL A   1      32.006  23.131  24.143  1.00  0.00    -0.031 A 
ATOM     12  C   UNL A   1      32.616  20.342  24.480  1.00  0.00     0.018 A 
ATOM     13  C   UNL A   1      32.182  20.862  23.245  1.00  0.00     0.012 A 
ATOM     14  C   UNL A   1      32.723  21.245  25.540  1.00  0.00     0.131 A 
ATOM     15  C   UNL A   1      31.886  22.231  23.076  1.00  0.00     0.005 A 
ATOM     16  C   UNL A   1      32.444  22.609  25.379  1.00  0.00     0.044 A 
ATOM     17  F   UNL A   1      33.127  20.824  26.749  1.00  0.00    -0.206 F 
BRANCH  12  18
ATOM     18  C   UNL A   1      33.064  18.939  24.605  1.00  0.00    -0.008 A 
ATOM     19  C   UNL A   1      32.677  16.554  24.948  1.00  0.00     0.123 A 
ATOM     20  C   UNL A   1      34.054  16.334  25.004  1.00  0.00     0.092 A 
ATOM     21  C   UNL A   1      32.181  17.852  24.764  1.00  0.00     0.055 A 
ATOM     22  C   UNL A   1      34.946  17.393  24.858  1.00  0.00     0.123 A 
ATOM     23  C   UNL A   1      34.449  18.678  24.641  1.00  0.00     0.055 A 
BRANCH  19  24
ATOM     24  O   UNL A   1      31.903  15.452  25.196  1.00  0.00    -0.497 OA
ATOM     25  C   UNL A   1      32.338  14.645  26.283  1.00  0.00     0.278 C 
ENDBRANCH  19  24
BRANCH  22  26
ATOM     26  O   UNL A   1      36.269  17.059  24.955  1.00  0.00    -0.497 OA
ATOM     27  C   UNL A   1      36.625  16.216  26.046  1.00  0.00     0.278 C 
ENDBRANCH  22  26
ENDBRANCH  12  18
ENDBRANCH   9  11
ENDBRANCH   7   9
ENDBRANCH   6   7
ENDBRANCH   5   6
ENDBRANCH   4   5
ENDBRANCH   3   4
ENDBRANCH   2   3
ENDBRANCH   1   2
BRANCH   1  28
ATOM     28  O   UNL A   1      35.283  31.744  27.593  1.00  0.00    -0.377 OA
BRANCH  28  29
ATOM     29  C   UNL A   1      34.261  32.561  28.141  1.00  0.00     0.188 C 
BRANCH  29  30
ATOM     30  C   UNL A   1      34.638  33.474  29.322  1.00  0.00     0.188 C 
BRANCH  30  31
ATOM     31  O   UNL A   1      34.409  32.893  30.598  1.00  0.00    -0.376 OA
BRANCH  31  32
ATOM     32  C   UNL A   1      34.534  33.704  31.758  1.00  0.00     0.202 C 
BRANCH  32  33
ATOM     33  C   UNL A   1      34.752  33.016  33.118  1.00  0.00     0.261 C 
BRANCH  33  34
ATOM     34  O   UNL A   1      35.685  31.924  33.161  1.00  0.00    -0.460 OA
BRANCH  34  35
ATOM     35  C   UNL A   1      36.932  32.167  33.610  1.00  0.00     0.338 C 
ATOM     36  O   UNL A   1      37.246  32.663  34.680  1.00  0.00    -0.246 OA
BRANCH  35  37
ATOM     37  C   UNL A   1      37.887  31.546  32.664  1.00  0.00     0.060 A 
ATOM     38  C   UNL A   1      38.906  30.726  33.169  1.00  0.00     0.016 A 
ATOM     39  C   UNL A   1      37.780  31.770  31.290  1.00  0.00     0.016 A 
ATOM     40  C   UNL A   1      39.844  30.159  32.306  1.00  0.00     0.010 A 
ATOM     41  C   UNL A   1      38.738  31.224  30.427  1.00  0.00     0.010 A 
ATOM     42  C   UNL A   1      39.795  30.447  30.936  1.00  0.00    -0.014 A 
BRANCH  42  43
ATOM     43  C   UNL A   1      40.955  30.115  30.072  1.00  0.00     0.031 A 
ATOM     44  C   UNL A   1      41.020  28.738  29.467  1.00  0.00     0.074 A 
ATOM     45  C   UNL A   1      41.920  31.012  29.807  1.00  0.00     0.049 A 
ATOM     46  N   UNL A   1      41.955  28.191  28.734  1.00  0.00    -0.248 NA
ATOM     47  C   UNL A   1      39.868  27.858  29.729  1.00  0.00     0.031 C 
ATOM     48  C   UNL A   1      41.948  32.393  30.282  1.00  0.00     0.029 A 
ATOM     49  N   UNL A   1      43.074  30.883  29.072  1.00  0.00    -0.354 N 
ATOM     50  C   UNL A   1      41.509  26.905  28.454  1.00  0.00     0.074 A 
ATOM     51  C   UNL A   1      40.238  26.741  29.124  1.00  0.00     0.031 C 
ATOM     52  C   UNL A   1      43.072  32.983  29.837  1.00  0.00     0.029 A 
ATOM     53  C   UNL A   1      43.859  32.011  29.078  1.00  0.00     0.049 A 
ATOM     54  H   UNL A   1      43.315  30.062  28.587  1.00  0.00     0.167 HD
ATOM     55  C   UNL A   1      42.101  25.948  27.700  1.00  0.00     0.037 A 
ATOM     56  C   UNL A   1      45.082  32.222  28.554  1.00  0.00     0.037 A 
ATOM     57  C   UNL A   1      43.371  26.110  27.044  1.00  0.00     0.049 A 
ATOM     58  C   UNL A   1      45.769  31.108  27.803  1.00  0.00     0.074 A 
ATOM     59  C   UNL A   1      44.054  25.203  26.253  1.00  0.00     0.029 A 
ATOM     60  N   UNL A   1      44.156  27.251  27.112  1.00  0.00    -0.354 N 
ATOM     61  N   UNL A   1      45.334  29.901  27.529  1.00  0.00    -0.248 NA
ATOM     62  C   UNL A   1      47.118  31.387  27.289  1.00  0.00     0.031 C 
ATOM     63  C   UNL A   1      45.280  25.773  25.893  1.00  0.00     0.029 A 
ATOM     64  C   UNL A   1      45.331  27.060  26.402  1.00  0.00     0.049 A 
ATOM     65  H   UNL A   1      43.915  28.076  27.593  1.00  0.00     0.167 HD
ATOM     66  C   UNL A   1      46.337  29.293  26.780  1.00  0.00     0.074 A 
ATOM     67  C   UNL A   1      47.398  30.268  26.637  1.00  0.00     0.031 C 
ATOM     68  C   UNL A   1      46.375  28.043  26.256  1.00  0.00     0.037 A 
BRANCH  55  69
ATOM     69  C   UNL A   1      41.393  24.630  27.578  1.00  0.00     0.057 A 
ATOM     70  C   UNL A   1      40.314  24.442  26.705  1.00  0.00     0.134 A 
ATOM     71  C   UNL A   1      41.809  23.525  28.334  1.00  0.00     0.134 A 
ATOM     72  F   UNL A   1      39.853  25.462  25.964  1.00  0.00    -0.206 F 
ATOM     73  C   UNL A   1      39.655  23.214  26.609  1.00  0.00     0.040 A 
ATOM     74  C   UNL A   1      41.180  22.285  28.224  1.00  0.00     0.040 A 
ATOM     75  F   UNL A   1      42.839  23.633  29.187  1.00  0.00    -0.206 F 
ATOM     76  C   UNL A   1      40.094  22.129  27.366  1.00  0.00     0.006 A 
ENDBRANCH  55  69
BRANCH  56  77
ATOM     77  C   UNL A   1      45.756  33.535  28.728  1.00  0.00     0.057 A 
ATOM     78  C   UNL A   1      46.540  33.804  29.858  1.00  0.00     0.134 A 
ATOM     79  C   UNL A   1      45.605  34.565  27.792  1.00  0.00     0.134 A 
ATOM     80  F   UNL A   1      46.702  32.868  30.804  1.00  0.00    -0.206 F 
ATOM     81  C   UNL A   1      47.131  35.052  30.059  1.00  0.00     0.040 A 
ATOM     82  C   UNL A   1      46.215  35.809  27.966  1.00  0.00     0.040 A 
ATOM     83  F   UNL A   1      44.867  34.375  26.689  1.00  0.00    -0.206 F 
ATOM     84  C   UNL A   1      46.973  36.059  29.108  1.00  0.00     0.006 A 
ENDBRANCH  56  77
BRANCH  68  85
ATOM     85  C   UNL A   1      47.577  27.669  25.435  1.00  0.00     0.057 A 
ATOM     86  C   UNL A   1      48.778  27.247  26.019  1.00  0.00     0.134 A 
ATOM     87  C   UNL A   1      47.512  27.686  24.035  1.00  0.00     0.134 A 
ATOM     88  F   UNL A   1      48.913  27.216  27.353  1.00  0.00    -0.206 F 
ATOM     89  C   UNL A   1      49.879  26.882  25.240  1.00  0.00     0.040 A 
ATOM     90  C   UNL A   1      48.595  27.293  23.247  1.00  0.00     0.040 A 
ATOM     91  F   UNL A   1      46.389  28.068  23.409  1.00  0.00    -0.206 F 
ATOM     92  C   UNL A   1      49.786  26.896  23.850  1.00  0.00     0.006 A 
ENDBRANCH  68  85
ENDBRANCH  42  43
ENDBRANCH  35  37
ENDBRANCH  34  35
ENDBRANCH  33  34
ENDBRANCH  32  33
ENDBRANCH  31  32
ENDBRANCH  30  31
ENDBRANCH  29  30
ENDBRANCH  28  29
ENDBRANCH   1  28
TORSDOF 24
ENDMDL
MODEL 3
REMARK VINA RESULT:      -8.9      3.800      7.680
REMARK SMILES COc1cc(OC)cc(-c2ccc([C@@H](C)C(=O)OCCOCCOCCOCCOC(=O)c3ccc(-c4c5nc(c(-c6c(F)cccc6F)c6ccc([nH]6)c(-c6c(F)cccc6F)c6nc(c(-c7c(F)cccc7F)c7ccc4[nH]7)C=C6)C=C5)cc3)cc2F)c1
REMARK SMILES IDX 23 1 22 2 21 3 20 4 19 5 18 6 16 7 17 8 14 9 15 10 13 11
REMARK SMILES IDX 10 12 11 13 88 14 12 15 87 16 89 17 9 18 3 19 4 20 90 21
REMARK SMILES IDX 5 22 8 23 2 24 1 25 6 26 7 27 24 28 25 29 26 30 27 31 28 32
REMARK SMILES IDX 29 33 30 34 31 35 32 36 33 37 34 38 86 39 35 40 85 41 36 42
REMARK SMILES IDX 37 43 38 44 79 45 39 46 84 47 78 48 80 49 40 50 83 51 77 52
REMARK SMILES IDX 76 53 41 55 67 56 50 57 66 58 51 59 54 60 65 61 81 62 52 63
REMARK SMILES IDX 53 64 64 66 82 67 55 68 42 69 43 70 48 71 44 72 45 73 47 74
REMARK SMILES IDX 49 75 46 76 68 77 69 78 74 79 70 80 71 81 73 82 75 83 72 84
REMARK SMILES IDX 56 85 57 86 62 87 58 88 59 89 61 90 63 91 60 92
REMARK H PARENT 80 54 54 65
REMARK Flexibility Score: inf
ROOT
ATOM      1  C   UNL A   1      33.929  27.782  25.316  1.00  0.00     0.188 C 
ENDROOT
BRANCH   1   2
ATOM      2  C   UNL A   1      32.963  26.748  25.907  1.00  0.00     0.188 C 
BRANCH   2   3
ATOM      3  O   UNL A   1      31.899  26.218  25.130  1.00  0.00    -0.376 OA
BRANCH   3   4
ATOM      4  C   UNL A   1      30.956  25.326  25.703  1.00  0.00     0.202 C 
BRANCH   4   5
ATOM      5  C   UNL A   1      31.052  23.802  25.495  1.00  0.00     0.261 C 
BRANCH   5   6
ATOM      6  O   UNL A   1      30.690  23.291  24.195  1.00  0.00    -0.463 OA
BRANCH   6   7
ATOM      7  C   UNL A   1      31.470  23.675  23.160  1.00  0.00     0.313 C 
ATOM      8  O   UNL A   1      31.288  24.715  22.527  1.00  0.00    -0.252 OA
BRANCH   7   9
ATOM      9  C   UNL A   1      32.605  22.721  22.782  1.00  0.00     0.126 C 
ATOM     10  C   UNL A   1      32.047  21.302  22.754  1.00  0.00     0.025 C 
BRANCH   9  11
ATOM     11  C   UNL A   1      33.956  22.774  23.498  1.00  0.00    -0.031 A 
ATOM     12  C   UNL A   1      36.462  22.755  24.907  1.00  0.00     0.018 A 
ATOM     13  C   UNL A   1      36.242  23.592  23.795  1.00  0.00     0.012 A 
ATOM     14  C   UNL A   1      35.406  21.921  25.285  1.00  0.00     0.131 A 
ATOM     15  C   UNL A   1      35.012  23.606  23.106  1.00  0.00     0.005 A 
ATOM     16  C   UNL A   1      34.176  21.938  24.613  1.00  0.00     0.044 A 
ATOM     17  F   UNL A   1      35.540  21.093  26.332  1.00  0.00    -0.206 F 
BRANCH  12  18
ATOM     18  C   UNL A   1      37.698  22.857  25.711  1.00  0.00    -0.008 A 
ATOM     19  C   UNL A   1      39.345  24.093  27.020  1.00  0.00     0.123 A 
ATOM     20  C   UNL A   1      40.161  22.962  27.071  1.00  0.00     0.092 A 
ATOM     21  C   UNL A   1      38.125  24.048  26.331  1.00  0.00     0.055 A 
ATOM     22  C   UNL A   1      39.764  21.776  26.458  1.00  0.00     0.123 A 
ATOM     23  C   UNL A   1      38.534  21.726  25.803  1.00  0.00     0.055 A 
BRANCH  19  24
ATOM     24  O   UNL A   1      39.883  25.221  27.579  1.00  0.00    -0.497 OA
ATOM     25  C   UNL A   1      39.219  25.687  28.747  1.00  0.00     0.278 C 
ENDBRANCH  19  24
BRANCH  22  26
ATOM     26  O   UNL A   1      40.656  20.744  26.553  1.00  0.00    -0.497 OA
ATOM     27  C   UNL A   1      42.004  21.043  26.206  1.00  0.00     0.278 C 
ENDBRANCH  22  26
ENDBRANCH  12  18
ENDBRANCH   9  11
ENDBRANCH   7   9
ENDBRANCH   6   7
ENDBRANCH   5   6
ENDBRANCH   4   5
ENDBRANCH   3   4
ENDBRANCH   2   3
ENDBRANCH   1   2
BRANCH   1  28
ATOM     28  O   UNL A   1      33.320  28.876  24.664  1.00  0.00    -0.377 OA
BRANCH  28  29
ATOM     29  C   UNL A   1      32.111  29.364  25.223  1.00  0.00     0.188 C 
BRANCH  29  30
ATOM     30  C   UNL A   1      32.156  29.880  26.673  1.00  0.00     0.188 C 
BRANCH  30  31
ATOM     31  O   UNL A   1      31.173  30.864  26.966  1.00  0.00    -0.376 OA
BRANCH  31  32
ATOM     32  C   UNL A   1      31.300  32.157  26.393  1.00  0.00     0.202 C 
BRANCH  32  33
ATOM     33  C   UNL A   1      32.152  33.208  27.128  1.00  0.00     0.261 C 
BRANCH  33  34
ATOM     34  O   UNL A   1      33.532  32.885  27.369  1.00  0.00    -0.460 OA
BRANCH  34  35
ATOM     35  C   UNL A   1      34.253  33.707  28.155  1.00  0.00     0.338 C 
ATOM     36  O   UNL A   1      33.918  34.803  28.576  1.00  0.00    -0.246 OA
BRANCH  35  37
ATOM     37  C   UNL A   1      35.463  32.976  28.594  1.00  0.00     0.060 A 
ATOM     38  C   UNL A   1      35.340  31.634  28.981  1.00  0.00     0.016 A 
ATOM     39  C   UNL A   1      36.708  33.606  28.624  1.00  0.00     0.016 A 
ATOM     40  C   UNL A   1      36.456  30.930  29.437  1.00  0.00     0.010 A 
ATOM     41  C   UNL A   1      37.821  32.909  29.109  1.00  0.00     0.010 A 
ATOM     42  C   UNL A   1      37.691  31.580  29.551  1.00  0.00    -0.014 A 
BRANCH  42  43
ATOM     43  C   UNL A   1      38.788  30.943  30.323  1.00  0.00     0.031 A 
ATOM     44  C   UNL A   1      38.903  31.262  31.790  1.00  0.00     0.074 A 
ATOM     45  C   UNL A   1      39.651  30.086  29.752  1.00  0.00     0.049 A 
ATOM     46  N   UNL A   1      39.805  30.883  32.658  1.00  0.00    -0.248 NA
ATOM     47  C   UNL A   1      37.852  32.128  32.351  1.00  0.00     0.031 C 
ATOM     48  C   UNL A   1      39.616  29.651  28.357  1.00  0.00     0.029 A 
ATOM     49  N   UNL A   1      40.737  29.434  30.282  1.00  0.00    -0.354 N 
ATOM     50  C   UNL A   1      39.436  31.469  33.863  1.00  0.00     0.074 A 
ATOM     51  C   UNL A   1      38.249  32.256  33.607  1.00  0.00     0.031 C 
ATOM     52  C   UNL A   1      40.644  28.811  28.138  1.00  0.00     0.029 A 
ATOM     53  C   UNL A   1      41.429  28.680  29.366  1.00  0.00     0.049 A 
ATOM     54  H   UNL A   1      40.996  29.500  31.230  1.00  0.00     0.167 HD
ATOM     55  C   UNL A   1      40.027  31.358  35.076  1.00  0.00     0.037 A 
ATOM     56  C   UNL A   1      42.578  27.988  29.498  1.00  0.00     0.037 A 
ATOM     57  C   UNL A   1      41.214  30.584  35.326  1.00  0.00     0.049 A 
ATOM     58  C   UNL A   1      43.276  27.960  30.835  1.00  0.00     0.074 A 
ATOM     59  C   UNL A   1      41.888  30.402  36.521  1.00  0.00     0.029 A 
ATOM     60  N   UNL A   1      41.911  29.871  34.362  1.00  0.00    -0.354 N 
ATOM     61  N   UNL A   1      42.912  28.503  31.973  1.00  0.00    -0.248 NA
ATOM     62  C   UNL A   1      44.546  27.221  30.905  1.00  0.00     0.031 C 
ATOM     63  C   UNL A   1      43.027  29.630  36.267  1.00  0.00     0.029 A 
ATOM     64  C   UNL A   1      43.025  29.274  34.928  1.00  0.00     0.049 A 
ATOM     65  H   UNL A   1      41.652  29.801  33.414  1.00  0.00     0.167 HD
ATOM     66  C   UNL A   1      43.886  28.140  32.899  1.00  0.00     0.074 A 
ATOM     67  C   UNL A   1      44.849  27.324  32.191  1.00  0.00     0.031 C 
ATOM     68  C   UNL A   1      43.972  28.452  34.216  1.00  0.00     0.037 A 
BRANCH  55  69
ATOM     69  C   UNL A   1      39.416  32.122  36.215  1.00  0.00     0.057 A 
ATOM     70  C   UNL A   1      38.338  31.619  36.955  1.00  0.00     0.134 A 
ATOM     71  C   UNL A   1      39.925  33.373  36.588  1.00  0.00     0.134 A 
ATOM     72  F   UNL A   1      37.791  30.434  36.641  1.00  0.00    -0.206 F 
ATOM     73  C   UNL A   1      37.770  32.344  38.004  1.00  0.00     0.040 A 
ATOM     74  C   UNL A   1      39.387  34.093  37.655  1.00  0.00     0.040 A 
ATOM     75  F   UNL A   1      40.959  33.913  35.925  1.00  0.00    -0.206 F 
ATOM     76  C   UNL A   1      38.300  33.583  38.361  1.00  0.00     0.006 A 
ENDBRANCH  55  69
BRANCH  56  77
ATOM     77  C   UNL A   1      43.161  27.273  28.332  1.00  0.00     0.057 A 
ATOM     78  C   UNL A   1      43.040  25.885  28.198  1.00  0.00     0.134 A 
ATOM     79  C   UNL A   1      43.884  27.953  27.345  1.00  0.00     0.134 A 
ATOM     80  F   UNL A   1      42.383  25.172  29.125  1.00  0.00    -0.206 F 
ATOM     81  C   UNL A   1      43.633  25.197  27.138  1.00  0.00     0.040 A 
ATOM     82  C   UNL A   1      44.457  27.282  26.262  1.00  0.00     0.040 A 
ATOM     83  F   UNL A   1      44.039  29.284  27.413  1.00  0.00    -0.206 F 
ATOM     84  C   UNL A   1      44.340  25.897  26.162  1.00  0.00     0.006 A 
ENDBRANCH  56  77
BRANCH  68  85
ATOM     85  C   UNL A   1      45.117  27.869  34.995  1.00  0.00     0.057 A 
ATOM     86  C   UNL A   1      45.040  26.611  35.606  1.00  0.00     0.134 A 
ATOM     87  C   UNL A   1      46.333  28.559  35.092  1.00  0.00     0.134 A 
ATOM     88  F   UNL A   1      43.902  25.900  35.561  1.00  0.00    -0.206 F 
ATOM     89  C   UNL A   1      46.121  26.073  36.308  1.00  0.00     0.040 A 
ATOM     90  C   UNL A   1      47.430  28.017  35.763  1.00  0.00     0.040 A 
ATOM     91  F   UNL A   1      46.481  29.763  34.520  1.00  0.00    -0.206 F 
ATOM     92  C   UNL A   1      47.323  26.773  36.380  1.00  0.00     0.006 A 
ENDBRANCH  68  85
ENDBRANCH  42  43
ENDBRANCH  35  37
ENDBRANCH  34  35
ENDBRANCH  33  34
ENDBRANCH  32  33
ENDBRANCH  31  32
ENDBRANCH  30  31
ENDBRANCH  29  30
ENDBRANCH  28  29
ENDBRANCH   1  28
TORSDOF 24
ENDMDL
