MODEL 1
REMARK VINA RESULT:      -9.9      0.000      0.000
REMARK SMILES CC[C@@H]1CCCC[N@H+]1Cc1c(C(=O)OCCOCCOCCOCCOC(=O)c2ccc(-c3c4nc(c(-c5c(F)cccc5F)c5ccc([nH]5)c(-c5c(F)cccc5F)c5nc(c(-c6c(F)cccc6F)c6ccc3[nH]6)C=C5)C=C4)cc2)oc2ccccc12
REMARK SMILES IDX 19 1 18 2 17 3 16 4 15 5 14 6 12 7 13 8 11 9 10 10 89 11
REMARK SMILES IDX 83 12 84 13 88 14 85 15 87 16 86 17 9 18 8 19 3 20 4 21 5 22
REMARK SMILES IDX 7 23 6 25 2 26 1 27 20 28 21 29 22 30 23 31 24 32 25 33
REMARK SMILES IDX 26 34 27 35 28 36 29 37 30 38 82 39 31 40 81 41 32 42 33 43
REMARK SMILES IDX 34 44 75 45 35 46 80 47 74 48 76 49 36 50 79 51 73 52 72 53
REMARK SMILES IDX 37 55 63 56 46 57 62 58 47 59 50 60 61 61 77 62 48 63 49 64
REMARK SMILES IDX 60 66 78 67 51 68 38 69 39 70 44 71 40 72 41 73 43 74 45 75
REMARK SMILES IDX 42 76 64 77 65 78 70 79 66 80 67 81 69 82 71 83 68 84 52 85
REMARK SMILES IDX 53 86 58 87 54 88 55 89 57 90 59 91 56 92
REMARK H PARENT 8 24 76 54 50 65
REMARK Flexibility Score: inf
ROOT
ATOM      1  C   UNL A   1      35.002  31.711  27.940  1.00  0.00     0.188 C 
ENDROOT
BRANCH   1   2
ATOM      2  C   UNL A   1      33.661  31.055  27.563  1.00  0.00     0.188 C 
BRANCH   2   3
ATOM      3  O   UNL A   1      33.774  29.825  26.857  1.00  0.00    -0.376 OA
BRANCH   3   4
ATOM      4  C   UNL A   1      32.666  28.941  26.969  1.00  0.00     0.202 C 
BRANCH   4   5
ATOM      5  C   UNL A   1      33.071  27.480  26.748  1.00  0.00     0.261 C 
BRANCH   5   6
ATOM      6  O   UNL A   1      32.054  26.678  26.130  1.00  0.00    -0.457 OA
BRANCH   6   7
ATOM      7  C   UNL A   1      32.052  25.352  26.434  1.00  0.00     0.374 C 
ATOM      8  O   UNL A   1      31.222  24.808  27.148  1.00  0.00    -0.242 OA
BRANCH   7   9
ATOM      9  C   UNL A   1      33.077  24.693  25.661  1.00  0.00     0.221 A 
ATOM     10  C   UNL A   1      33.200  24.465  24.290  1.00  0.00     0.067 A 
ATOM     11  C   UNL A   1      34.487  23.848  24.123  1.00  0.00     0.030 A 
ATOM     12  O   UNL A   1      34.176  24.229  26.324  1.00  0.00    -0.448 OA
ATOM     13  C   UNL A   1      35.016  23.704  25.400  1.00  0.00     0.135 A 
ATOM     14  C   UNL A   1      35.273  23.404  23.042  1.00  0.00     0.012 A 
ATOM     15  C   UNL A   1      36.244  23.114  25.686  1.00  0.00     0.048 A 
ATOM     16  C   UNL A   1      36.508  22.789  23.295  1.00  0.00     0.001 A 
ATOM     17  C   UNL A   1      36.982  22.642  24.598  1.00  0.00     0.004 A 
BRANCH  10  18
ATOM     18  C   UNL A   1      32.233  24.903  23.224  1.00  0.00     0.304 C 
BRANCH  18  19
ATOM     19  N   UNL A   1      32.341  26.314  22.815  1.00  0.00    -0.329 N 
ATOM     20  C   UNL A   1      31.381  27.245  23.443  1.00  0.00     0.184 C 
ATOM     21  C   UNL A   1      31.631  28.711  23.016  1.00  0.00     0.065 C 
ATOM     22  C   UNL A   1      33.085  29.126  23.162  1.00  0.00     0.012 C 
ATOM     23  C   UNL A   1      33.743  26.755  22.827  1.00  0.00     0.262 C 
ATOM     24  H   UNL A   1      32.026  26.352  21.845  1.00  0.00     0.348 HD
ATOM     25  C   UNL A   1      33.949  28.184  22.349  1.00  0.00     0.062 C 
BRANCH  20  26
ATOM     26  C   UNL A   1      29.920  26.868  23.069  1.00  0.00     0.061 C 
ATOM     27  C   UNL A   1      29.073  26.408  24.251  1.00  0.00     0.010 C 
ENDBRANCH  20  26
ENDBRANCH  18  19
ENDBRANCH  10  18
ENDBRANCH   7   9
ENDBRANCH   6   7
ENDBRANCH   5   6
ENDBRANCH   4   5
ENDBRANCH   3   4
ENDBRANCH   2   3
ENDBRANCH   1   2
BRANCH   1  28
ATOM     28  O   UNL A   1      35.267  33.068  27.622  1.00  0.00    -0.377 OA
BRANCH  28  29
ATOM     29  C   UNL A   1      34.539  34.096  28.272  1.00  0.00     0.188 C 
BRANCH  29  30
ATOM     30  C   UNL A   1      34.869  34.396  29.744  1.00  0.00     0.188 C 
BRANCH  30  31
ATOM     31  O   UNL A   1      33.945  33.832  30.673  1.00  0.00    -0.376 OA
BRANCH  31  32
ATOM     32  C   UNL A   1      34.420  32.709  31.405  1.00  0.00     0.202 C 
BRANCH  32  33
ATOM     33  C   UNL A   1      34.745  33.025  32.868  1.00  0.00     0.261 C 
BRANCH  33  34
ATOM     34  O   UNL A   1      36.110  32.784  33.245  1.00  0.00    -0.460 OA
BRANCH  34  35
ATOM     35  C   UNL A   1      37.051  33.612  32.744  1.00  0.00     0.338 C 
ATOM     36  O   UNL A   1      37.172  34.807  32.936  1.00  0.00    -0.246 OA
BRANCH  35  37
ATOM     37  C   UNL A   1      38.042  32.774  32.045  1.00  0.00     0.060 A 
ATOM     38  C   UNL A   1      38.950  32.023  32.803  1.00  0.00     0.016 A 
ATOM     39  C   UNL A   1      38.048  32.707  30.650  1.00  0.00     0.016 A 
ATOM     40  C   UNL A   1      39.884  31.213  32.159  1.00  0.00     0.010 A 
ATOM     41  C   UNL A   1      38.999  31.915  30.007  1.00  0.00     0.010 A 
ATOM     42  C   UNL A   1      39.935  31.185  30.759  1.00  0.00    -0.014 A 
BRANCH  42  43
ATOM     43  C   UNL A   1      41.084  30.562  30.068  1.00  0.00     0.031 A 
ATOM     44  C   UNL A   1      42.281  31.421  29.772  1.00  0.00     0.074 A 
ATOM     45  C   UNL A   1      41.059  29.273  29.688  1.00  0.00     0.049 A 
ATOM     46  N   UNL A   1      43.375  31.125  29.122  1.00  0.00    -0.248 NA
ATOM     47  C   UNL A   1      42.231  32.803  30.277  1.00  0.00     0.031 C 
ATOM     48  C   UNL A   1      39.967  28.335  29.937  1.00  0.00     0.029 A 
ATOM     49  N   UNL A   1      41.984  28.539  28.989  1.00  0.00    -0.354 N 
ATOM     50  C   UNL A   1      44.143  32.280  29.141  1.00  0.00     0.074 A 
ATOM     51  C   UNL A   1      43.383  33.290  29.843  1.00  0.00     0.031 C 
ATOM     52  C   UNL A   1      40.277  27.150  29.382  1.00  0.00     0.029 A 
ATOM     53  C   UNL A   1      41.576  27.257  28.718  1.00  0.00     0.049 A 
ATOM     54  H   UNL A   1      42.858  28.898  28.711  1.00  0.00     0.167 HD
ATOM     55  C   UNL A   1      45.377  32.482  28.623  1.00  0.00     0.037 A 
ATOM     56  C   UNL A   1      42.176  26.293  27.993  1.00  0.00     0.037 A 
ATOM     57  C   UNL A   1      46.126  31.487  27.907  1.00  0.00     0.049 A 
ATOM     58  C   UNL A   1      43.514  26.567  27.358  1.00  0.00     0.074 A 
ATOM     59  C   UNL A   1      47.392  31.590  27.359  1.00  0.00     0.029 A 
ATOM     60  N   UNL A   1      45.668  30.209  27.630  1.00  0.00    -0.354 N 
ATOM     61  N   UNL A   1      44.252  27.650  27.413  1.00  0.00    -0.248 NA
ATOM     62  C   UNL A   1      44.101  25.484  26.552  1.00  0.00     0.031 C 
ATOM     63  C   UNL A   1      47.683  30.384  26.712  1.00  0.00     0.029 A 
ATOM     64  C   UNL A   1      46.615  29.519  26.893  1.00  0.00     0.049 A 
ATOM     65  H   UNL A   1      44.798  29.846  27.913  1.00  0.00     0.167 HD
ATOM     66  C   UNL A   1      45.395  27.372  26.674  1.00  0.00     0.074 A 
ATOM     67  C   UNL A   1      45.259  26.015  26.186  1.00  0.00     0.031 C 
ATOM     68  C   UNL A   1      46.463  28.167  26.422  1.00  0.00     0.037 A 
BRANCH  55  69
ATOM     69  C   UNL A   1      45.975  33.843  28.799  1.00  0.00     0.057 A 
ATOM     70  C   UNL A   1      46.821  34.142  29.875  1.00  0.00     0.134 A 
ATOM     71  C   UNL A   1      45.710  34.865  27.878  1.00  0.00     0.134 A 
ATOM     72  F   UNL A   1      47.096  33.211  30.801  1.00  0.00    -0.206 F 
ATOM     73  C   UNL A   1      47.369  35.415  30.039  1.00  0.00     0.040 A 
ATOM     74  C   UNL A   1      46.268  36.135  28.021  1.00  0.00     0.040 A 
ATOM     75  F   UNL A   1      44.905  34.643  26.828  1.00  0.00    -0.206 F 
ATOM     76  C   UNL A   1      47.097  36.414  29.106  1.00  0.00     0.006 A 
ENDBRANCH  55  69
BRANCH  56  77
ATOM     77  C   UNL A   1      41.514  24.978  27.810  1.00  0.00     0.057 A 
ATOM     78  C   UNL A   1      41.923  23.854  28.538  1.00  0.00     0.134 A 
ATOM     79  C   UNL A   1      40.482  24.805  26.880  1.00  0.00     0.134 A 
ATOM     80  F   UNL A   1      42.925  23.952  29.423  1.00  0.00    -0.206 F 
ATOM     81  C   UNL A   1      41.337  22.602  28.339  1.00  0.00     0.040 A 
ATOM     82  C   UNL A   1      39.874  23.563  26.685  1.00  0.00     0.040 A 
ATOM     83  F   UNL A   1      40.051  25.841  26.148  1.00  0.00    -0.206 F 
ATOM     84  C   UNL A   1      40.306  22.456  27.412  1.00  0.00     0.006 A 
ENDBRANCH  56  77
BRANCH  68  85
ATOM     85  C   UNL A   1      47.580  27.586  25.607  1.00  0.00     0.057 A 
ATOM     86  C   UNL A   1      48.662  26.928  26.203  1.00  0.00     0.134 A 
ATOM     87  C   UNL A   1      47.542  27.637  24.208  1.00  0.00     0.134 A 
ATOM     88  F   UNL A   1      48.761  26.855  27.540  1.00  0.00    -0.206 F 
ATOM     89  C   UNL A   1      49.675  26.352  25.437  1.00  0.00     0.040 A 
ATOM     90  C   UNL A   1      48.538  27.046  23.430  1.00  0.00     0.040 A 
ATOM     91  F   UNL A   1      46.527  28.246  23.576  1.00  0.00    -0.206 F 
ATOM     92  C   UNL A   1      49.611  26.404  24.045  1.00  0.00     0.006 A 
ENDBRANCH  68  85
ENDBRANCH  42  43
ENDBRANCH  35  37
ENDBRANCH  34  35
ENDBRANCH  33  34
ENDBRANCH  32  33
ENDBRANCH  31  32
ENDBRANCH  30  31
ENDBRANCH  29  30
ENDBRANCH  28  29
ENDBRANCH   1  28
TORSDOF 23
ENDMDL
MODEL 2
REMARK VINA RESULT:      -9.5      4.180      6.918
REMARK SMILES CC[C@@H]1CCCC[N@H+]1Cc1c(C(=O)OCCOCCOCCOCCOC(=O)c2ccc(-c3c4nc(c(-c5c(F)cccc5F)c5ccc([nH]5)c(-c5c(F)cccc5F)c5nc(c(-c6c(F)cccc6F)c6ccc3[nH]6)C=C5)C=C4)cc2)oc2ccccc12
REMARK SMILES IDX 19 1 18 2 17 3 16 4 15 5 14 6 12 7 13 8 11 9 10 10 89 11
REMARK SMILES IDX 83 12 84 13 88 14 85 15 87 16 86 17 9 18 8 19 3 20 4 21 5 22
REMARK SMILES IDX 7 23 6 25 2 26 1 27 20 28 21 29 22 30 23 31 24 32 25 33
REMARK SMILES IDX 26 34 27 35 28 36 29 37 30 38 82 39 31 40 81 41 32 42 33 43
REMARK SMILES IDX 34 44 75 45 35 46 80 47 74 48 76 49 36 50 79 51 73 52 72 53
REMARK SMILES IDX 37 55 63 56 46 57 62 58 47 59 50 60 61 61 77 62 48 63 49 64
REMARK SMILES IDX 60 66 78 67 51 68 38 69 39 70 44 71 40 72 41 73 43 74 45 75
REMARK SMILES IDX 42 76 64 77 65 78 70 79 66 80 67 81 69 82 71 83 68 84 52 85
REMARK SMILES IDX 53 86 58 87 54 88 55 89 57 90 59 91 56 92
REMARK H PARENT 8 24 76 54 50 65
REMARK Flexibility Score: inf
ROOT
ATOM      1  C   UNL A   1      33.450  28.037  22.735  1.00  0.00     0.188 C 
ENDROOT
BRANCH   1   2
ATOM      2  C   UNL A   1      33.716  26.577  23.141  1.00  0.00     0.188 C 
BRANCH   2   3
ATOM      3  O   UNL A   1      33.703  25.645  22.066  1.00  0.00    -0.376 OA
BRANCH   3   4
ATOM      4  C   UNL A   1      32.633  24.709  22.070  1.00  0.00     0.202 C 
BRANCH   4   5
ATOM      5  C   UNL A   1      33.083  23.319  21.608  1.00  0.00     0.261 C 
BRANCH   5   6
ATOM      6  O   UNL A   1      32.929  22.293  22.599  1.00  0.00    -0.457 OA
BRANCH   6   7
ATOM      7  C   UNL A   1      32.120  21.248  22.277  1.00  0.00     0.374 C 
ATOM      8  O   UNL A   1      31.380  21.221  21.303  1.00  0.00    -0.242 OA
BRANCH   7   9
ATOM      9  C   UNL A   1      32.399  20.149  23.169  1.00  0.00     0.221 A 
ATOM     10  C   UNL A   1      32.440  20.073  24.562  1.00  0.00     0.067 A 
ATOM     11  C   UNL A   1      32.673  18.686  24.858  1.00  0.00     0.030 A 
ATOM     12  O   UNL A   1      32.625  18.921  22.616  1.00  0.00    -0.448 OA
ATOM     13  C   UNL A   1      32.808  18.045  23.632  1.00  0.00     0.135 A 
ATOM     14  C   UNL A   1      32.776  17.895  26.018  1.00  0.00     0.012 A 
ATOM     15  C   UNL A   1      33.079  16.689  23.474  1.00  0.00     0.048 A 
ATOM     16  C   UNL A   1      33.067  16.528  25.897  1.00  0.00     0.001 A 
ATOM     17  C   UNL A   1      33.221  15.937  24.643  1.00  0.00     0.004 A 
BRANCH  10  18
ATOM     18  C   UNL A   1      32.162  21.196  25.522  1.00  0.00     0.304 C 
BRANCH  18  19
ATOM     19  N   UNL A   1      33.057  22.362  25.408  1.00  0.00    -0.329 N 
ATOM     20  C   UNL A   1      32.704  23.531  26.238  1.00  0.00     0.184 C 
ATOM     21  C   UNL A   1      33.749  24.666  26.114  1.00  0.00     0.065 C 
ATOM     22  C   UNL A   1      35.174  24.176  26.305  1.00  0.00     0.012 C 
ATOM     23  C   UNL A   1      34.466  21.945  25.475  1.00  0.00     0.262 C 
ATOM     24  H   UNL A   1      32.905  22.745  24.476  1.00  0.00     0.348 HD
ATOM     25  C   UNL A   1      35.458  23.084  25.294  1.00  0.00     0.062 C 
BRANCH  20  26
ATOM     26  C   UNL A   1      31.314  24.098  25.832  1.00  0.00     0.061 C 
ATOM     27  C   UNL A   1      31.250  25.620  25.794  1.00  0.00     0.010 C 
ENDBRANCH  20  26
ENDBRANCH  18  19
ENDBRANCH  10  18
ENDBRANCH   7   9
ENDBRANCH   6   7
ENDBRANCH   5   6
ENDBRANCH   4   5
ENDBRANCH   3   4
ENDBRANCH   2   3
ENDBRANCH   1   2
BRANCH   1  28
ATOM     28  O   UNL A   1      33.318  29.057  23.714  1.00  0.00    -0.377 OA
BRANCH  28  29
ATOM     29  C   UNL A   1      33.670  28.786  25.059  1.00  0.00     0.188 C 
BRANCH  29  30
ATOM     30  C   UNL A   1      32.809  29.407  26.172  1.00  0.00     0.188 C 
BRANCH  30  31
ATOM     31  O   UNL A   1      32.238  30.668  25.829  1.00  0.00    -0.376 OA
BRANCH  31  32
ATOM     32  C   UNL A   1      31.626  31.376  26.901  1.00  0.00     0.202 C 
BRANCH  32  33
ATOM     33  C   UNL A   1      31.731  32.898  26.768  1.00  0.00     0.261 C 
BRANCH  33  34
ATOM     34  O   UNL A   1      33.045  33.431  26.996  1.00  0.00    -0.460 OA
BRANCH  34  35
ATOM     35  C   UNL A   1      33.239  34.154  28.120  1.00  0.00     0.338 C 
ATOM     36  O   UNL A   1      32.541  35.046  28.563  1.00  0.00    -0.246 OA
BRANCH  35  37
ATOM     37  C   UNL A   1      34.374  33.547  28.839  1.00  0.00     0.060 A 
ATOM     38  C   UNL A   1      35.678  33.837  28.413  1.00  0.00     0.016 A 
ATOM     39  C   UNL A   1      34.149  32.728  29.948  1.00  0.00     0.016 A 
ATOM     40  C   UNL A   1      36.764  33.285  29.090  1.00  0.00     0.010 A 
ATOM     41  C   UNL A   1      35.237  32.158  30.609  1.00  0.00     0.010 A 
ATOM     42  C   UNL A   1      36.546  32.415  30.167  1.00  0.00    -0.014 A 
BRANCH  42  43
ATOM     43  C   UNL A   1      37.660  31.609  30.710  1.00  0.00     0.031 A 
ATOM     44  C   UNL A   1      38.110  31.883  32.117  1.00  0.00     0.074 A 
ATOM     45  C   UNL A   1      38.278  30.675  29.966  1.00  0.00     0.049 A 
ATOM     46  N   UNL A   1      39.102  31.361  32.788  1.00  0.00    -0.248 NA
ATOM     47  C   UNL A   1      37.334  32.887  32.864  1.00  0.00     0.031 C 
ATOM     48  C   UNL A   1      37.919  30.304  28.599  1.00  0.00     0.029 A 
ATOM     49  N   UNL A   1      39.356  29.880  30.262  1.00  0.00    -0.354 N 
ATOM     50  C   UNL A   1      39.069  31.970  34.035  1.00  0.00     0.074 A 
ATOM     51  C   UNL A   1      37.978  32.918  34.021  1.00  0.00     0.031 C 
ATOM     52  C   UNL A   1      38.777  29.363  28.166  1.00  0.00     0.029 A 
ATOM     53  C   UNL A   1      39.757  29.088  29.215  1.00  0.00     0.049 A 
ATOM     54  H   UNL A   1      39.799  29.878  31.142  1.00  0.00     0.167 HD
ATOM     55  C   UNL A   1      39.874  31.754  35.101  1.00  0.00     0.037 A 
ATOM     56  C   UNL A   1      40.813  28.256  29.115  1.00  0.00     0.037 A 
ATOM     57  C   UNL A   1      40.972  30.827  35.111  1.00  0.00     0.049 A 
ATOM     58  C   UNL A   1      41.744  28.093  30.288  1.00  0.00     0.074 A 
ATOM     59  C   UNL A   1      41.836  30.526  36.148  1.00  0.00     0.029 A 
ATOM     60  N   UNL A   1      41.363  30.063  34.023  1.00  0.00    -0.354 N 
ATOM     61  N   UNL A   1      41.683  28.644  31.477  1.00  0.00    -0.248 NA
ATOM     62  C   UNL A   1      42.895  27.196  30.102  1.00  0.00     0.031 C 
ATOM     63  C   UNL A   1      42.778  29.606  35.673  1.00  0.00     0.029 A 
ATOM     64  C   UNL A   1      42.475  29.307  34.355  1.00  0.00     0.049 A 
ATOM     65  H   UNL A   1      40.917  30.058  33.146  1.00  0.00     0.167 HD
ATOM     66  C   UNL A   1      42.768  28.144  32.185  1.00  0.00     0.074 A 
ATOM     67  C   UNL A   1      43.468  27.238  31.296  1.00  0.00     0.031 C 
ATOM     68  C   UNL A   1      43.152  28.408  33.458  1.00  0.00     0.037 A 
BRANCH  55  69
ATOM     69  C   UNL A   1      39.602  32.559  36.334  1.00  0.00     0.057 A 
ATOM     70  C   UNL A   1      38.632  32.170  37.267  1.00  0.00     0.134 A 
ATOM     71  C   UNL A   1      40.322  33.730  36.596  1.00  0.00     0.134 A 
ATOM     72  F   UNL A   1      37.894  31.068  37.060  1.00  0.00    -0.206 F 
ATOM     73  C   UNL A   1      38.375  32.928  38.409  1.00  0.00     0.040 A 
ATOM     74  C   UNL A   1      40.089  34.485  37.745  1.00  0.00     0.040 A 
ATOM     75  F   UNL A   1      41.262  34.158  35.739  1.00  0.00    -0.206 F 
ATOM     76  C   UNL A   1      39.110  34.087  38.654  1.00  0.00     0.006 A 
ENDBRANCH  55  69
BRANCH  56  77
ATOM     77  C   UNL A   1      41.064  27.521  27.851  1.00  0.00     0.057 A 
ATOM     78  C   UNL A   1      40.536  26.242  27.641  1.00  0.00     0.134 A 
ATOM     79  C   UNL A   1      41.863  28.065  26.838  1.00  0.00     0.134 A 
ATOM     80  F   UNL A   1      39.786  25.658  28.586  1.00  0.00    -0.206 F 
ATOM     81  C   UNL A   1      40.806  25.523  26.474  1.00  0.00     0.040 A 
ATOM     82  C   UNL A   1      42.124  27.366  25.658  1.00  0.00     0.040 A 
ATOM     83  F   UNL A   1      42.402  29.284  26.982  1.00  0.00    -0.206 F 
ATOM     84  C   UNL A   1      41.599  26.088  25.476  1.00  0.00     0.006 A 
ENDBRANCH  56  77
BRANCH  68  85
ATOM     85  C   UNL A   1      44.365  27.693  33.977  1.00  0.00     0.057 A 
ATOM     86  C   UNL A   1      44.278  26.419  34.551  1.00  0.00     0.134 A 
ATOM     87  C   UNL A   1      45.637  28.263  33.847  1.00  0.00     0.134 A 
ATOM     88  F   UNL A   1      43.086  25.825  34.712  1.00  0.00    -0.206 F 
ATOM     89  C   UNL A   1      45.416  25.742  34.991  1.00  0.00     0.040 A 
ATOM     90  C   UNL A   1      46.784  27.586  34.265  1.00  0.00     0.040 A 
ATOM     91  F   UNL A   1      45.787  29.478  33.298  1.00  0.00    -0.206 F 
ATOM     92  C   UNL A   1      46.674  26.323  34.842  1.00  0.00     0.006 A 
ENDBRANCH  68  85
ENDBRANCH  42  43
ENDBRANCH  35  37
ENDBRANCH  34  35
ENDBRANCH  33  34
ENDBRANCH  32  33
ENDBRANCH  31  32
ENDBRANCH  30  31
ENDBRANCH  29  30
ENDBRANCH  28  29
ENDBRANCH   1  28
TORSDOF 23
ENDMDL
MODEL 3
REMARK VINA RESULT:      -9.4      1.451      6.529
REMARK SMILES CC[C@@H]1CCCC[N@H+]1Cc1c(C(=O)OCCOCCOCCOCCOC(=O)c2ccc(-c3c4nc(c(-c5c(F)cccc5F)c5ccc([nH]5)c(-c5c(F)cccc5F)c5nc(c(-c6c(F)cccc6F)c6ccc3[nH]6)C=C5)C=C4)cc2)oc2ccccc12
REMARK SMILES IDX 19 1 18 2 17 3 16 4 15 5 14 6 12 7 13 8 11 9 10 10 89 11
REMARK SMILES IDX 83 12 84 13 88 14 85 15 87 16 86 17 9 18 8 19 3 20 4 21 5 22
REMARK SMILES IDX 7 23 6 25 2 26 1 27 20 28 21 29 22 30 23 31 24 32 25 33
REMARK SMILES IDX 26 34 27 35 28 36 29 37 30 38 82 39 31 40 81 41 32 42 33 43
REMARK SMILES IDX 34 44 75 45 35 46 80 47 74 48 76 49 36 50 79 51 73 52 72 53
REMARK SMILES IDX 37 55 63 56 46 57 62 58 47 59 50 60 61 61 77 62 48 63 49 64
REMARK SMILES IDX 60 66 78 67 51 68 38 69 39 70 44 71 40 72 41 73 43 74 45 75
REMARK SMILES IDX 42 76 64 77 65 78 70 79 66 80 67 81 69 82 71 83 68 84 52 85
REMARK SMILES IDX 53 86 58 87 54 88 55 89 57 90 59 91 56 92
REMARK H PARENT 8 24 76 54 50 65
REMARK Flexibility Score: inf
ROOT
ATOM      1  C   UNL A   1      34.307  32.526  28.800  1.00  0.00     0.188 C 
ENDROOT
BRANCH   1   2
ATOM      2  C   UNL A   1      35.083  31.962  27.597  1.00  0.00     0.188 C 
BRANCH   2   3
ATOM      3  O   UNL A   1      35.811  30.769  27.860  1.00  0.00    -0.376 OA
BRANCH   3   4
ATOM      4  C   UNL A   1      35.030  29.599  28.064  1.00  0.00     0.202 C 
BRANCH   4   5
ATOM      5  C   UNL A   1      34.301  29.164  26.788  1.00  0.00     0.261 C 
BRANCH   5   6
ATOM      6  O   UNL A   1      33.150  28.340  27.022  1.00  0.00    -0.457 OA
BRANCH   6   7
ATOM      7  C   UNL A   1      32.419  27.986  25.931  1.00  0.00     0.374 C 
ATOM      8  O   UNL A   1      32.218  28.714  24.968  1.00  0.00    -0.242 OA
BRANCH   7   9
ATOM      9  C   UNL A   1      32.066  26.592  26.036  1.00  0.00     0.221 A 
ATOM     10  C   UNL A   1      32.822  25.430  25.875  1.00  0.00     0.067 A 
ATOM     11  C   UNL A   1      31.932  24.351  26.207  1.00  0.00     0.030 A 
ATOM     12  O   UNL A   1      30.788  26.284  26.403  1.00  0.00    -0.448 OA
ATOM     13  C   UNL A   1      30.703  24.935  26.488  1.00  0.00     0.135 A 
ATOM     14  C   UNL A   1      32.024  22.950  26.312  1.00  0.00     0.012 A 
ATOM     15  C   UNL A   1      29.551  24.229  26.824  1.00  0.00     0.048 A 
ATOM     16  C   UNL A   1      30.878  22.206  26.631  1.00  0.00     0.001 A 
ATOM     17  C   UNL A   1      29.659  22.838  26.876  1.00  0.00     0.004 A 
BRANCH  10  18
ATOM     18  C   UNL A   1      34.289  25.361  25.552  1.00  0.00     0.304 C 
BRANCH  18  19
ATOM     19  N   UNL A   1      34.773  24.049  25.086  1.00  0.00    -0.329 N 
ATOM     20  C   UNL A   1      35.151  23.968  23.661  1.00  0.00     0.184 C 
ATOM     21  C   UNL A   1      35.727  22.580  23.292  1.00  0.00     0.065 C 
ATOM     22  C   UNL A   1      36.812  22.120  24.250  1.00  0.00     0.012 C 
ATOM     23  C   UNL A   1      35.752  23.490  26.030  1.00  0.00     0.262 C 
ATOM     24  H   UNL A   1      33.963  23.429  25.097  1.00  0.00     0.348 HD
ATOM     25  C   UNL A   1      36.251  22.102  25.657  1.00  0.00     0.062 C 
BRANCH  20  26
ATOM     26  C   UNL A   1      33.926  24.250  22.747  1.00  0.00     0.061 C 
ATOM     27  C   UNL A   1      33.121  23.008  22.383  1.00  0.00     0.010 C 
ENDBRANCH  20  26
ENDBRANCH  18  19
ENDBRANCH  10  18
ENDBRANCH   7   9
ENDBRANCH   6   7
ENDBRANCH   5   6
ENDBRANCH   4   5
ENDBRANCH   3   4
ENDBRANCH   2   3
ENDBRANCH   1   2
BRANCH   1  28
ATOM     28  O   UNL A   1      34.983  33.167  29.872  1.00  0.00    -0.377 OA
BRANCH  28  29
ATOM     29  C   UNL A   1      34.727  34.533  30.145  1.00  0.00     0.188 C 
BRANCH  29  30
ATOM     30  C   UNL A   1      33.443  34.890  30.912  1.00  0.00     0.188 C 
BRANCH  30  31
ATOM     31  O   UNL A   1      33.581  34.841  32.330  1.00  0.00    -0.376 OA
BRANCH  31  32
ATOM     32  C   UNL A   1      34.874  34.494  32.810  1.00  0.00     0.202 C 
BRANCH  32  33
ATOM     33  C   UNL A   1      34.954  33.079  33.390  1.00  0.00     0.261 C 
BRANCH  33  34
ATOM     34  O   UNL A   1      35.924  32.226  32.761  1.00  0.00    -0.460 OA
BRANCH  34  35
ATOM     35  C   UNL A   1      37.024  31.903  33.473  1.00  0.00     0.338 C 
ATOM     36  O   UNL A   1      37.162  31.918  34.682  1.00  0.00    -0.246 OA
BRANCH  35  37
ATOM     37  C   UNL A   1      38.008  31.344  32.528  1.00  0.00     0.060 A 
ATOM     38  C   UNL A   1      39.109  30.639  33.033  1.00  0.00     0.016 A 
ATOM     39  C   UNL A   1      37.820  31.486  31.151  1.00  0.00     0.016 A 
ATOM     40  C   UNL A   1      40.040  30.090  32.153  1.00  0.00     0.010 A 
ATOM     41  C   UNL A   1      38.766  30.957  30.274  1.00  0.00     0.010 A 
ATOM     42  C   UNL A   1      39.891  30.279  30.772  1.00  0.00    -0.014 A 
BRANCH  42  43
ATOM     43  C   UNL A   1      41.001  29.953  29.852  1.00  0.00     0.031 A 
ATOM     44  C   UNL A   1      41.054  28.569  29.271  1.00  0.00     0.074 A 
ATOM     45  C   UNL A   1      41.957  30.853  29.559  1.00  0.00     0.049 A 
ATOM     46  N   UNL A   1      41.959  28.026  28.501  1.00  0.00    -0.248 NA
ATOM     47  C   UNL A   1      39.933  27.677  29.612  1.00  0.00     0.031 C 
ATOM     48  C   UNL A   1      42.002  32.231  30.043  1.00  0.00     0.029 A 
ATOM     49  N   UNL A   1      43.087  30.725  28.792  1.00  0.00    -0.354 N 
ATOM     50  C   UNL A   1      41.516  26.732  28.262  1.00  0.00     0.074 A 
ATOM     51  C   UNL A   1      40.278  26.561  28.989  1.00  0.00     0.031 C 
ATOM     52  C   UNL A   1      43.118  32.818  29.573  1.00  0.00     0.029 A 
ATOM     53  C   UNL A   1      43.873  31.849  28.781  1.00  0.00     0.049 A 
ATOM     54  H   UNL A   1      43.311  29.904  28.295  1.00  0.00     0.167 HD
ATOM     55  C   UNL A   1      42.089  25.771  27.500  1.00  0.00     0.037 A 
ATOM     56  C   UNL A   1      45.078  32.057  28.214  1.00  0.00     0.037 A 
ATOM     57  C   UNL A   1      43.329  25.932  26.794  1.00  0.00     0.049 A 
ATOM     58  C   UNL A   1      45.734  30.945  27.437  1.00  0.00     0.074 A 
ATOM     59  C   UNL A   1      43.983  25.023  25.982  1.00  0.00     0.029 A 
ATOM     60  N   UNL A   1      44.110  27.077  26.829  1.00  0.00    -0.354 N 
ATOM     61  N   UNL A   1      45.291  29.737  27.185  1.00  0.00    -0.248 NA
ATOM     62  C   UNL A   1      47.063  31.225  26.872  1.00  0.00     0.031 C 
ATOM     63  C   UNL A   1      45.183  25.605  25.558  1.00  0.00     0.029 A 
ATOM     64  C   UNL A   1      45.255  26.888  26.074  1.00  0.00     0.049 A 
ATOM     65  H   UNL A   1      43.884  27.900  27.318  1.00  0.00     0.167 HD
ATOM     66  C   UNL A   1      46.271  29.124  26.414  1.00  0.00     0.074 A 
ATOM     67  C   UNL A   1      47.330  30.096  26.233  1.00  0.00     0.031 C 
ATOM     68  C   UNL A   1      46.293  27.870  25.901  1.00  0.00     0.037 A 
BRANCH  55  69
ATOM     69  C   UNL A   1      41.380  24.455  27.418  1.00  0.00     0.057 A 
ATOM     70  C   UNL A   1      41.789  23.351  28.178  1.00  0.00     0.134 A 
ATOM     71  C   UNL A   1      40.272  24.291  26.578  1.00  0.00     0.134 A 
ATOM     72  F   UNL A   1      42.857  23.441  28.985  1.00  0.00    -0.206 F 
ATOM     73  C   UNL A   1      41.131  22.124  28.090  1.00  0.00     0.040 A 
ATOM     74  C   UNL A   1      39.594  23.075  26.498  1.00  0.00     0.040 A 
ATOM     75  F   UNL A   1      39.834  25.310  25.822  1.00  0.00    -0.206 F 
ATOM     76  C   UNL A   1      40.026  21.986  27.252  1.00  0.00     0.006 A 
ENDBRANCH  55  69
BRANCH  56  77
ATOM     77  C   UNL A   1      45.759  33.366  28.370  1.00  0.00     0.057 A 
ATOM     78  C   UNL A   1      45.646  34.361  27.392  1.00  0.00     0.134 A 
ATOM     79  C   UNL A   1      46.564  33.640  29.482  1.00  0.00     0.134 A 
ATOM     80  F   UNL A   1      44.911  34.145  26.292  1.00  0.00    -0.206 F 
ATOM     81  C   UNL A   1      46.320  35.578  27.508  1.00  0.00     0.040 A 
ATOM     82  C   UNL A   1      47.227  34.861  29.620  1.00  0.00     0.040 A 
ATOM     83  F   UNL A   1      46.717  32.725  30.449  1.00  0.00    -0.206 F 
ATOM     84  C   UNL A   1      47.111  35.832  28.628  1.00  0.00     0.006 A 
ENDBRANCH  56  77
BRANCH  68  85
ATOM     85  C   UNL A   1      47.483  27.483  25.073  1.00  0.00     0.057 A 
ATOM     86  C   UNL A   1      47.560  27.786  23.709  1.00  0.00     0.134 A 
ATOM     87  C   UNL A   1      48.586  26.852  25.662  1.00  0.00     0.134 A 
ATOM     88  F   UNL A   1      46.532  28.381  23.084  1.00  0.00    -0.206 F 
ATOM     89  C   UNL A   1      48.689  27.462  22.954  1.00  0.00     0.040 A 
ATOM     90  C   UNL A   1      49.728  26.542  24.923  1.00  0.00     0.040 A 
ATOM     91  F   UNL A   1      48.576  26.543  26.967  1.00  0.00    -0.206 F 
ATOM     92  C   UNL A   1      49.780  26.844  23.564  1.00  0.00     0.006 A 
ENDBRANCH  68  85
ENDBRANCH  42  43
ENDBRANCH  35  37
ENDBRANCH  34  35
ENDBRANCH  33  34
ENDBRANCH  32  33
ENDBRANCH  31  32
ENDBRANCH  30  31
ENDBRANCH  29  30
ENDBRANCH  28  29
ENDBRANCH   1  28
TORSDOF 23
ENDMDL
