MODEL 1
REMARK VINA RESULT:     -10.5      0.000      0.000
REMARK SMILES C/C(=C(\C#N)C(=O)OCCOCCOCCOCCOC(=O)c1ccc(-c2c3nc(c(-c4c(F)cccc4F)c4ccc([nH]4)c(-c4c(F)cccc4F)c4nc(c(-c5c(F)cccc5F)c5ccc2[nH]5)C=C4)C=C3)cc1)c1cccc2ccccc12
REMARK SMILES IDX 15 1 14 2 13 3 12 4 11 5 10 6 9 7 8 8 6 9 7 10 3 11 1 12
REMARK SMILES IDX 2 13 77 14 78 15 86 16 79 17 81 18 85 19 80 20 82 21 84 22
REMARK SMILES IDX 83 23 4 24 5 25 16 26 17 27 18 28 19 29 20 30 21 31 22 32
REMARK SMILES IDX 23 33 24 34 76 35 25 36 75 37 26 38 27 39 28 40 69 41 29 42
REMARK SMILES IDX 74 43 68 44 70 45 30 46 73 47 67 48 66 49 31 51 57 52 40 53
REMARK SMILES IDX 56 54 41 55 44 56 55 57 71 58 42 59 43 60 54 62 72 63 45 64
REMARK SMILES IDX 32 65 33 66 38 67 34 68 35 69 37 70 39 71 36 72 58 73 59 74
REMARK SMILES IDX 64 75 60 76 61 77 63 78 65 79 62 80 46 81 47 82 52 83 48 84
REMARK SMILES IDX 49 85 51 86 53 87 50 88
REMARK H PARENT 70 50 44 61
REMARK Flexibility Score: inf
ROOT
ATOM      1  C   UNL A   1      41.913  19.637  27.102  1.00  0.00     0.188 C 
ENDROOT
BRANCH   1   2
ATOM      2  O   UNL A   1      41.241  20.884  27.190  1.00  0.00    -0.377 OA
BRANCH   2   3
ATOM      3  C   UNL A   1      40.046  21.008  26.453  1.00  0.00     0.188 C 
BRANCH   3   4
ATOM      4  C   UNL A   1      39.293  22.362  26.498  1.00  0.00     0.188 C 
BRANCH   4   5
ATOM      5  O   UNL A   1      38.038  22.341  25.839  1.00  0.00    -0.376 OA
BRANCH   5   6
ATOM      6  C   UNL A   1      37.449  23.594  25.552  1.00  0.00     0.202 C 
BRANCH   6   7
ATOM      7  C   UNL A   1      35.918  23.651  25.431  1.00  0.00     0.261 C 
BRANCH   7   8
ATOM      8  O   UNL A   1      35.307  22.544  24.754  1.00  0.00    -0.459 OA
BRANCH   8   9
ATOM      9  C   UNL A   1      34.503  22.838  23.707  1.00  0.00     0.349 C 
ATOM     10  O   UNL A   1      34.869  23.343  22.657  1.00  0.00    -0.245 OA
BRANCH   9  11
ATOM     11  C   UNL A   1      33.100  22.430  24.029  1.00  0.00     0.140 C 
ATOM     12  C   UNL A   1      31.019  23.092  25.332  1.00  0.00     0.047 C 
ATOM     13  C   UNL A   1      32.187  23.397  24.423  1.00  0.00    -0.018 C 
BRANCH  13  14
ATOM     14  C   UNL A   1      32.236  24.847  23.969  1.00  0.00    -0.013 A 
ATOM     15  C   UNL A   1      31.592  25.108  22.756  1.00  0.00     0.009 A 
ATOM     16  C   UNL A   1      32.825  25.986  24.605  1.00  0.00    -0.011 A 
ATOM     17  C   UNL A   1      31.903  26.229  21.990  1.00  0.00     0.001 A 
ATOM     18  C   UNL A   1      33.234  27.075  23.779  1.00  0.00    -0.018 A 
ATOM     19  C   UNL A   1      32.921  26.221  25.999  1.00  0.00     0.009 A 
ATOM     20  C   UNL A   1      32.850  27.127  22.445  1.00  0.00     0.009 A 
ATOM     21  C   UNL A   1      33.909  28.186  24.298  1.00  0.00     0.009 A 
ATOM     22  C   UNL A   1      33.392  27.443  26.512  1.00  0.00     0.001 A 
ATOM     23  C   UNL A   1      33.941  28.398  25.667  1.00  0.00     0.001 A 
ENDBRANCH  13  14
BRANCH  11  24
ATOM     24  C   UNL A   1      32.989  21.016  24.576  1.00  0.00     0.107 C 
ATOM     25  N   UNL A   1      32.898  19.843  25.029  1.00  0.00    -0.192 NA
ENDBRANCH  11  24
ENDBRANCH   9  11
ENDBRANCH   8   9
ENDBRANCH   7   8
ENDBRANCH   6   7
ENDBRANCH   5   6
ENDBRANCH   4   5
ENDBRANCH   3   4
ENDBRANCH   2   3
ENDBRANCH   1   2
BRANCH   1  26
ATOM     26  C   UNL A   1      42.575  19.220  25.760  1.00  0.00     0.188 C 
BRANCH  26  27
ATOM     27  O   UNL A   1      43.292  20.234  25.069  1.00  0.00    -0.376 OA
BRANCH  27  28
ATOM     28  C   UNL A   1      44.690  20.358  25.267  1.00  0.00     0.202 C 
BRANCH  28  29
ATOM     29  C   UNL A   1      45.254  21.701  25.756  1.00  0.00     0.261 C 
BRANCH  29  30
ATOM     30  O   UNL A   1      44.304  22.641  26.272  1.00  0.00    -0.460 OA
BRANCH  30  31
ATOM     31  C   UNL A   1      43.955  23.680  25.475  1.00  0.00     0.338 C 
ATOM     32  O   UNL A   1      43.993  23.729  24.270  1.00  0.00    -0.246 OA
BRANCH  31  33
ATOM     33  C   UNL A   1      43.299  24.678  26.352  1.00  0.00     0.060 A 
ATOM     34  C   UNL A   1      43.733  26.013  26.316  1.00  0.00     0.016 A 
ATOM     35  C   UNL A   1      42.207  24.307  27.138  1.00  0.00     0.016 A 
ATOM     36  C   UNL A   1      43.075  26.981  27.073  1.00  0.00     0.010 A 
ATOM     37  C   UNL A   1      41.584  25.266  27.935  1.00  0.00     0.010 A 
ATOM     38  C   UNL A   1      42.035  26.598  27.925  1.00  0.00    -0.014 A 
BRANCH  38  39
ATOM     39  C   UNL A   1      41.596  27.518  28.996  1.00  0.00     0.031 A 
ATOM     40  C   UNL A   1      42.332  27.448  30.305  1.00  0.00     0.074 A 
ATOM     41  C   UNL A   1      40.589  28.388  28.820  1.00  0.00     0.049 A 
ATOM     42  N   UNL A   1      42.088  28.062  31.432  1.00  0.00    -0.248 NA
ATOM     43  C   UNL A   1      43.504  26.554  30.345  1.00  0.00     0.031 C 
ATOM     44  C   UNL A   1      39.843  28.587  27.581  1.00  0.00     0.029 A 
ATOM     45  N   UNL A   1      40.011  29.260  29.709  1.00  0.00    -0.354 N 
ATOM     46  C   UNL A   1      43.068  27.624  32.314  1.00  0.00     0.074 A 
ATOM     47  C   UNL A   1      43.890  26.670  31.605  1.00  0.00     0.031 C 
ATOM     48  C   UNL A   1      38.889  29.511  27.793  1.00  0.00     0.029 A 
ATOM     49  C   UNL A   1      38.933  29.936  29.192  1.00  0.00     0.049 A 
ATOM     50  H   UNL A   1      40.338  29.389  30.629  1.00  0.00     0.167 HD
ATOM     51  C   UNL A   1      43.268  27.989  33.600  1.00  0.00     0.037 A 
ATOM     52  C   UNL A   1      38.067  30.773  29.797  1.00  0.00     0.037 A 
ATOM     53  C   UNL A   1      42.436  28.927  34.303  1.00  0.00     0.049 A 
ATOM     54  C   UNL A   1      38.247  31.084  31.263  1.00  0.00     0.074 A 
ATOM     55  C   UNL A   1      42.547  29.364  35.610  1.00  0.00     0.029 A 
ATOM     56  N   UNL A   1      41.332  29.564  33.757  1.00  0.00    -0.354 N 
ATOM     57  N   UNL A   1      39.181  30.679  32.090  1.00  0.00    -0.248 NA
ATOM     58  C   UNL A   1      37.249  31.970  31.880  1.00  0.00     0.031 C 
ATOM     59  C   UNL A   1      41.478  30.226  35.872  1.00  0.00     0.029 A 
ATOM     60  C   UNL A   1      40.739  30.374  34.709  1.00  0.00     0.049 A 
ATOM     61  H   UNL A   1      41.019  29.458  32.830  1.00  0.00     0.167 HD
ATOM     62  C   UNL A   1      38.906  31.290  33.309  1.00  0.00     0.074 A 
ATOM     63  C   UNL A   1      37.723  32.099  33.111  1.00  0.00     0.031 C 
ATOM     64  C   UNL A   1      39.573  31.192  34.486  1.00  0.00     0.037 A 
BRANCH  51  65
ATOM     65  C   UNL A   1      44.409  27.348  34.331  1.00  0.00     0.057 A 
ATOM     66  C   UNL A   1      44.289  26.090  34.935  1.00  0.00     0.134 A 
ATOM     67  C   UNL A   1      45.651  27.989  34.415  1.00  0.00     0.134 A 
ATOM     68  F   UNL A   1      43.119  25.432  34.911  1.00  0.00    -0.206 F 
ATOM     69  C   UNL A   1      45.357  25.501  35.612  1.00  0.00     0.040 A 
ATOM     70  C   UNL A   1      46.736  27.398  35.063  1.00  0.00     0.040 A 
ATOM     71  F   UNL A   1      45.833  29.198  33.860  1.00  0.00    -0.206 F 
ATOM     72  C   UNL A   1      46.588  26.152  35.670  1.00  0.00     0.006 A 
ENDBRANCH  51  65
BRANCH  52  73
ATOM     73  C   UNL A   1      36.935  31.364  29.037  1.00  0.00     0.057 A 
ATOM     74  C   UNL A   1      36.948  32.708  28.646  1.00  0.00     0.134 A 
ATOM     75  C   UNL A   1      35.792  30.617  28.729  1.00  0.00     0.134 A 
ATOM     76  F   UNL A   1      38.003  33.485  28.934  1.00  0.00    -0.206 F 
ATOM     77  C   UNL A   1      35.858  33.295  27.999  1.00  0.00     0.040 A 
ATOM     78  C   UNL A   1      34.707  31.182  28.055  1.00  0.00     0.040 A 
ATOM     79  F   UNL A   1      35.712  29.325  29.079  1.00  0.00    -0.206 F 
ATOM     80  C   UNL A   1      34.733  32.528  27.699  1.00  0.00     0.006 A 
ENDBRANCH  52  73
BRANCH  64  81
ATOM     81  C   UNL A   1      39.082  32.025  35.635  1.00  0.00     0.057 A 
ATOM     82  C   UNL A   1      38.235  31.507  36.623  1.00  0.00     0.134 A 
ATOM     83  C   UNL A   1      39.515  33.349  35.786  1.00  0.00     0.134 A 
ATOM     84  F   UNL A   1      37.775  30.249  36.534  1.00  0.00    -0.206 F 
ATOM     85  C   UNL A   1      37.818  32.283  37.705  1.00  0.00     0.040 A 
ATOM     86  C   UNL A   1      39.131  34.125  36.880  1.00  0.00     0.040 A 
ATOM     87  F   UNL A   1      40.339  33.904  34.883  1.00  0.00    -0.206 F 
ATOM     88  C   UNL A   1      38.275  33.593  37.841  1.00  0.00     0.006 A 
ENDBRANCH  64  81
ENDBRANCH  38  39
ENDBRANCH  31  33
ENDBRANCH  30  31
ENDBRANCH  29  30
ENDBRANCH  28  29
ENDBRANCH  27  28
ENDBRANCH  26  27
ENDBRANCH   1  26
TORSDOF 22
ENDMDL
MODEL 2
REMARK VINA RESULT:     -10.2      5.036     10.235
REMARK SMILES C/C(=C(\C#N)C(=O)OCCOCCOCCOCCOC(=O)c1ccc(-c2c3nc(c(-c4c(F)cccc4F)c4ccc([nH]4)c(-c4c(F)cccc4F)c4nc(c(-c5c(F)cccc5F)c5ccc2[nH]5)C=C4)C=C3)cc1)c1cccc2ccccc12
REMARK SMILES IDX 15 1 14 2 13 3 12 4 11 5 10 6 9 7 8 8 6 9 7 10 3 11 1 12
REMARK SMILES IDX 2 13 77 14 78 15 86 16 79 17 81 18 85 19 80 20 82 21 84 22
REMARK SMILES IDX 83 23 4 24 5 25 16 26 17 27 18 28 19 29 20 30 21 31 22 32
REMARK SMILES IDX 23 33 24 34 76 35 25 36 75 37 26 38 27 39 28 40 69 41 29 42
REMARK SMILES IDX 74 43 68 44 70 45 30 46 73 47 67 48 66 49 31 51 57 52 40 53
REMARK SMILES IDX 56 54 41 55 44 56 55 57 71 58 42 59 43 60 54 62 72 63 45 64
REMARK SMILES IDX 32 65 33 66 38 67 34 68 35 69 37 70 39 71 36 72 58 73 59 74
REMARK SMILES IDX 64 75 60 76 61 77 63 78 65 79 62 80 46 81 47 82 52 83 48 84
REMARK SMILES IDX 49 85 51 86 53 87 50 88
REMARK H PARENT 70 50 44 61
REMARK Flexibility Score: inf
ROOT
ATOM      1  C   UNL A   1      33.689  34.966  29.029  1.00  0.00     0.188 C 
ENDROOT
BRANCH   1   2
ATOM      2  O   UNL A   1      32.576  34.389  28.363  1.00  0.00    -0.377 OA
BRANCH   2   3
ATOM      3  C   UNL A   1      32.808  33.175  27.685  1.00  0.00     0.188 C 
BRANCH   3   4
ATOM      4  C   UNL A   1      34.112  32.398  27.996  1.00  0.00     0.188 C 
BRANCH   4   5
ATOM      5  O   UNL A   1      33.928  30.998  28.118  1.00  0.00    -0.376 OA
BRANCH   5   6
ATOM      6  C   UNL A   1      33.898  30.253  26.917  1.00  0.00     0.202 C 
BRANCH   6   7
ATOM      7  C   UNL A   1      34.054  28.727  27.019  1.00  0.00     0.261 C 
BRANCH   7   8
ATOM      8  O   UNL A   1      33.272  27.960  26.093  1.00  0.00    -0.459 OA
BRANCH   8   9
ATOM      9  C   UNL A   1      32.005  27.663  26.465  1.00  0.00     0.349 C 
ATOM     10  O   UNL A   1      31.592  27.656  27.613  1.00  0.00    -0.245 OA
BRANCH   9  11
ATOM     11  C   UNL A   1      31.189  27.363  25.247  1.00  0.00     0.140 C 
ATOM     12  C   UNL A   1      31.143  26.025  23.086  1.00  0.00     0.047 C 
ATOM     13  C   UNL A   1      31.397  26.172  24.569  1.00  0.00    -0.018 C 
BRANCH  13  14
ATOM     14  C   UNL A   1      31.868  24.888  25.231  1.00  0.00    -0.013 A 
ATOM     15  C   UNL A   1      30.849  24.004  25.598  1.00  0.00     0.009 A 
ATOM     16  C   UNL A   1      33.197  24.440  25.518  1.00  0.00    -0.011 A 
ATOM     17  C   UNL A   1      31.042  23.031  26.576  1.00  0.00     0.001 A 
ATOM     18  C   UNL A   1      33.375  23.526  26.598  1.00  0.00    -0.018 A 
ATOM     19  C   UNL A   1      34.360  24.694  24.749  1.00  0.00     0.009 A 
ATOM     20  C   UNL A   1      32.277  22.909  27.185  1.00  0.00     0.009 A 
ATOM     21  C   UNL A   1      34.645  23.111  27.017  1.00  0.00     0.009 A 
ATOM     22  C   UNL A   1      35.592  24.084  25.047  1.00  0.00     0.001 A 
ATOM     23  C   UNL A   1      35.749  23.344  26.212  1.00  0.00     0.001 A 
ENDBRANCH  13  14
BRANCH  11  24
ATOM     24  C   UNL A   1      30.759  28.606  24.483  1.00  0.00     0.107 C 
ATOM     25  N   UNL A   1      30.403  29.636  23.851  1.00  0.00    -0.192 NA
ENDBRANCH  11  24
ENDBRANCH   9  11
ENDBRANCH   8   9
ENDBRANCH   7   8
ENDBRANCH   6   7
ENDBRANCH   5   6
ENDBRANCH   4   5
ENDBRANCH   3   4
ENDBRANCH   2   3
ENDBRANCH   1   2
BRANCH   1  26
ATOM     26  C   UNL A   1      33.446  35.985  30.178  1.00  0.00     0.188 C 
BRANCH  26  27
ATOM     27  O   UNL A   1      32.780  35.487  31.330  1.00  0.00    -0.376 OA
BRANCH  27  28
ATOM     28  C   UNL A   1      33.522  34.791  32.318  1.00  0.00     0.202 C 
BRANCH  28  29
ATOM     29  C   UNL A   1      35.057  34.819  32.249  1.00  0.00     0.261 C 
BRANCH  29  30
ATOM     30  O   UNL A   1      35.692  33.655  31.705  1.00  0.00    -0.460 OA
BRANCH  30  31
ATOM     31  C   UNL A   1      36.055  32.677  32.570  1.00  0.00     0.338 C 
ATOM     32  O   UNL A   1      35.530  32.388  33.617  1.00  0.00    -0.246 OA
BRANCH  31  33
ATOM     33  C   UNL A   1      37.089  31.871  31.880  1.00  0.00     0.060 A 
ATOM     34  C   UNL A   1      37.959  31.075  32.642  1.00  0.00     0.016 A 
ATOM     35  C   UNL A   1      37.137  31.841  30.486  1.00  0.00     0.016 A 
ATOM     36  C   UNL A   1      38.885  30.248  32.008  1.00  0.00     0.010 A 
ATOM     37  C   UNL A   1      38.099  31.054  29.854  1.00  0.00     0.010 A 
ATOM     38  C   UNL A   1      38.991  30.279  30.614  1.00  0.00    -0.014 A 
BRANCH  38  39
ATOM     39  C   UNL A   1      40.197  29.719  29.965  1.00  0.00     0.031 A 
ATOM     40  C   UNL A   1      41.362  30.646  29.765  1.00  0.00     0.074 A 
ATOM     41  C   UNL A   1      40.263  28.437  29.570  1.00  0.00     0.049 A 
ATOM     42  N   UNL A   1      42.490  30.445  29.136  1.00  0.00    -0.248 NA
ATOM     43  C   UNL A   1      41.231  31.992  30.354  1.00  0.00     0.031 C 
ATOM     44  C   UNL A   1      39.222  27.432  29.765  1.00  0.00     0.029 A 
ATOM     45  N   UNL A   1      41.260  27.770  28.903  1.00  0.00    -0.354 N 
ATOM     46  C   UNL A   1      43.196  31.636  29.247  1.00  0.00     0.074 A 
ATOM     47  C   UNL A   1      42.361  32.565  29.973  1.00  0.00     0.031 C 
ATOM     48  C   UNL A   1      39.627  26.276  29.209  1.00  0.00     0.029 A 
ATOM     49  C   UNL A   1      40.935  26.474  28.586  1.00  0.00     0.049 A 
ATOM     50  H   UNL A   1      42.125  28.181  28.674  1.00  0.00     0.167 HD
ATOM     51  C   UNL A   1      44.434  31.926  28.788  1.00  0.00     0.037 A 
ATOM     52  C   UNL A   1      41.610  25.570  27.849  1.00  0.00     0.037 A 
ATOM     53  C   UNL A   1      45.252  31.001  28.053  1.00  0.00     0.049 A 
ATOM     54  C   UNL A   1      42.945  25.953  27.257  1.00  0.00     0.074 A 
ATOM     55  C   UNL A   1      46.520  31.195  27.537  1.00  0.00     0.029 A 
ATOM     56  N   UNL A   1      44.875  29.709  27.721  1.00  0.00    -0.354 N 
ATOM     57  N   UNL A   1      43.615  27.074  27.374  1.00  0.00    -0.248 NA
ATOM     58  C   UNL A   1      43.616  24.942  26.426  1.00  0.00     0.031 C 
ATOM     59  C   UNL A   1      46.889  30.038  26.847  1.00  0.00     0.029 A 
ATOM     60  C   UNL A   1      45.878  29.101  26.987  1.00  0.00     0.049 A 
ATOM     61  H   UNL A   1      44.022  29.286  27.972  1.00  0.00     0.167 HD
ATOM     62  C   UNL A   1      44.800  26.889  26.669  1.00  0.00     0.074 A 
ATOM     63  C   UNL A   1      44.760  25.545  26.134  1.00  0.00     0.031 C 
ATOM     64  C   UNL A   1      45.829  27.752  26.482  1.00  0.00     0.037 A 
BRANCH  51  65
ATOM     65  C   UNL A   1      44.958  33.308  29.043  1.00  0.00     0.057 A 
ATOM     66  C   UNL A   1      45.729  33.611  30.173  1.00  0.00     0.134 A 
ATOM     67  C   UNL A   1      44.707  34.344  28.135  1.00  0.00     0.134 A 
ATOM     68  F   UNL A   1      45.989  32.669  31.092  1.00  0.00    -0.206 F 
ATOM     69  C   UNL A   1      46.215  34.900  30.400  1.00  0.00     0.040 A 
ATOM     70  C   UNL A   1      45.210  35.629  28.336  1.00  0.00     0.040 A 
ATOM     71  F   UNL A   1      43.972  34.122  27.034  1.00  0.00    -0.206 F 
ATOM     72  C   UNL A   1      45.963  35.911  29.475  1.00  0.00     0.006 A 
ENDBRANCH  51  65
BRANCH  52  73
ATOM     73  C   UNL A   1      41.038  24.221  27.601  1.00  0.00     0.057 A 
ATOM     74  C   UNL A   1      41.540  23.089  28.256  1.00  0.00     0.134 A 
ATOM     75  C   UNL A   1      40.013  24.022  26.669  1.00  0.00     0.134 A 
ATOM     76  F   UNL A   1      42.540  23.209  29.141  1.00  0.00    -0.206 F 
ATOM     77  C   UNL A   1      41.062  21.808  27.974  1.00  0.00     0.040 A 
ATOM     78  C   UNL A   1      39.504  22.749  26.400  1.00  0.00     0.040 A 
ATOM     79  F   UNL A   1      39.490  25.062  26.003  1.00  0.00    -0.206 F 
ATOM     80  C   UNL A   1      40.038  21.637  27.045  1.00  0.00     0.006 A 
ENDBRANCH  52  73
BRANCH  64  81
ATOM     81  C   UNL A   1      47.025  27.254  25.721  1.00  0.00     0.057 A 
ATOM     82  C   UNL A   1      47.187  27.490  24.350  1.00  0.00     0.134 A 
ATOM     83  C   UNL A   1      48.059  26.582  26.387  1.00  0.00     0.134 A 
ATOM     84  F   UNL A   1      46.230  28.119  23.650  1.00  0.00    -0.206 F 
ATOM     85  C   UNL A   1      48.323  27.053  23.666  1.00  0.00     0.040 A 
ATOM     86  C   UNL A   1      49.213  26.170  25.720  1.00  0.00     0.040 A 
ATOM     87  F   UNL A   1      47.974  26.336  27.704  1.00  0.00    -0.206 F 
ATOM     88  C   UNL A   1      49.344  26.401  24.354  1.00  0.00     0.006 A 
ENDBRANCH  64  81
ENDBRANCH  38  39
ENDBRANCH  31  33
ENDBRANCH  30  31
ENDBRANCH  29  30
ENDBRANCH  28  29
ENDBRANCH  27  28
ENDBRANCH  26  27
ENDBRANCH   1  26
TORSDOF 22
ENDMDL
MODEL 3
REMARK VINA RESULT:     -10.0      3.997      7.067
REMARK SMILES C/C(=C(\C#N)C(=O)OCCOCCOCCOCCOC(=O)c1ccc(-c2c3nc(c(-c4c(F)cccc4F)c4ccc([nH]4)c(-c4c(F)cccc4F)c4nc(c(-c5c(F)cccc5F)c5ccc2[nH]5)C=C4)C=C3)cc1)c1cccc2ccccc12
REMARK SMILES IDX 15 1 14 2 13 3 12 4 11 5 10 6 9 7 8 8 6 9 7 10 3 11 1 12
REMARK SMILES IDX 2 13 77 14 78 15 86 16 79 17 81 18 85 19 80 20 82 21 84 22
REMARK SMILES IDX 83 23 4 24 5 25 16 26 17 27 18 28 19 29 20 30 21 31 22 32
REMARK SMILES IDX 23 33 24 34 76 35 25 36 75 37 26 38 27 39 28 40 69 41 29 42
REMARK SMILES IDX 74 43 68 44 70 45 30 46 73 47 67 48 66 49 31 51 57 52 40 53
REMARK SMILES IDX 56 54 41 55 44 56 55 57 71 58 42 59 43 60 54 62 72 63 45 64
REMARK SMILES IDX 32 65 33 66 38 67 34 68 35 69 37 70 39 71 36 72 58 73 59 74
REMARK SMILES IDX 64 75 60 76 61 77 63 78 65 79 62 80 46 81 47 82 52 83 48 84
REMARK SMILES IDX 49 85 51 86 53 87 50 88
REMARK H PARENT 70 50 44 61
REMARK Flexibility Score: inf
ROOT
ATOM      1  C   UNL A   1      43.378  18.775  25.390  1.00  0.00     0.188 C 
ENDROOT
BRANCH   1   2
ATOM      2  O   UNL A   1      43.871  19.611  24.354  1.00  0.00    -0.377 OA
BRANCH   2   3
ATOM      3  C   UNL A   1      45.193  20.081  24.500  1.00  0.00     0.188 C 
BRANCH   3   4
ATOM      4  C   UNL A   1      45.512  21.012  25.697  1.00  0.00     0.188 C 
BRANCH   4   5
ATOM      5  O   UNL A   1      46.402  22.069  25.377  1.00  0.00    -0.376 OA
BRANCH   5   6
ATOM      6  C   UNL A   1      45.974  22.984  24.389  1.00  0.00     0.202 C 
BRANCH   6   7
ATOM      7  C   UNL A   1      46.850  24.222  24.135  1.00  0.00     0.261 C 
BRANCH   7   8
ATOM      8  O   UNL A   1      46.442  25.419  24.811  1.00  0.00    -0.459 OA
BRANCH   8   9
ATOM      9  C   UNL A   1      47.075  25.712  25.970  1.00  0.00     0.349 C 
ATOM     10  O   UNL A   1      48.011  25.084  26.439  1.00  0.00    -0.245 OA
BRANCH   9  11
ATOM     11  C   UNL A   1      46.461  26.935  26.576  1.00  0.00     0.140 C 
ATOM     12  C   UNL A   1      44.311  27.887  27.542  1.00  0.00     0.047 C 
ATOM     13  C   UNL A   1      45.351  26.800  27.395  1.00  0.00    -0.018 C 
BRANCH  13  14
ATOM     14  C   UNL A   1      45.069  25.576  28.251  1.00  0.00    -0.013 A 
ATOM     15  C   UNL A   1      44.660  24.442  27.543  1.00  0.00     0.009 A 
ATOM     16  C   UNL A   1      45.179  25.404  29.667  1.00  0.00    -0.011 A 
ATOM     17  C   UNL A   1      43.956  23.410  28.158  1.00  0.00     0.001 A 
ATOM     18  C   UNL A   1      44.362  24.411  30.285  1.00  0.00    -0.018 A 
ATOM     19  C   UNL A   1      46.125  26.019  30.524  1.00  0.00     0.009 A 
ATOM     20  C   UNL A   1      43.673  23.486  29.510  1.00  0.00     0.009 A 
ATOM     21  C   UNL A   1      44.325  24.239  31.674  1.00  0.00     0.009 A 
ATOM     22  C   UNL A   1      46.233  25.668  31.882  1.00  0.00     0.001 A 
ATOM     23  C   UNL A   1      45.296  24.827  32.469  1.00  0.00     0.001 A 
ENDBRANCH  13  14
BRANCH  11  24
ATOM     24  C   UNL A   1      46.628  28.183  25.724  1.00  0.00     0.107 C 
ATOM     25  N   UNL A   1      46.767  29.218  25.018  1.00  0.00    -0.192 NA
ENDBRANCH  11  24
ENDBRANCH   9  11
ENDBRANCH   8   9
ENDBRANCH   7   8
ENDBRANCH   6   7
ENDBRANCH   5   6
ENDBRANCH   4   5
ENDBRANCH   3   4
ENDBRANCH   2   3
ENDBRANCH   1   2
BRANCH   1  26
ATOM     26  C   UNL A   1      42.107  19.203  26.175  1.00  0.00     0.188 C 
BRANCH  26  27
ATOM     27  O   UNL A   1      42.232  20.357  26.994  1.00  0.00    -0.376 OA
BRANCH  27  28
ATOM     28  C   UNL A   1      41.067  21.068  27.381  1.00  0.00     0.202 C 
BRANCH  28  29
ATOM     29  C   UNL A   1      40.229  21.764  26.298  1.00  0.00     0.261 C 
BRANCH  29  30
ATOM     30  O   UNL A   1      39.983  23.163  26.483  1.00  0.00    -0.460 OA
BRANCH  30  31
ATOM     31  C   UNL A   1      41.025  24.011  26.311  1.00  0.00     0.338 C 
ATOM     32  O   UNL A   1      41.918  23.927  25.504  1.00  0.00    -0.246 OA
BRANCH  31  33
ATOM     33  C   UNL A   1      40.744  25.196  27.156  1.00  0.00     0.060 A 
ATOM     34  C   UNL A   1      41.262  26.446  26.779  1.00  0.00     0.016 A 
ATOM     35  C   UNL A   1      39.903  25.081  28.264  1.00  0.00     0.016 A 
ATOM     36  C   UNL A   1      40.942  27.585  27.515  1.00  0.00     0.010 A 
ATOM     37  C   UNL A   1      39.626  26.212  29.029  1.00  0.00     0.010 A 
ATOM     38  C   UNL A   1      40.168  27.460  28.673  1.00  0.00    -0.014 A 
BRANCH  38  39
ATOM     39  C   UNL A   1      40.144  28.566  29.655  1.00  0.00     0.031 A 
ATOM     40  C   UNL A   1      41.179  28.538  30.744  1.00  0.00     0.074 A 
ATOM     41  C   UNL A   1      39.246  29.561  29.585  1.00  0.00     0.049 A 
ATOM     42  N   UNL A   1      41.317  29.319  31.782  1.00  0.00    -0.248 NA
ATOM     43  C   UNL A   1      42.196  27.474  30.649  1.00  0.00     0.031 C 
ATOM     44  C   UNL A   1      38.237  29.725  28.542  1.00  0.00     0.029 A 
ATOM     45  N   UNL A   1      39.036  30.620  30.432  1.00  0.00    -0.354 N 
ATOM     46  C   UNL A   1      42.427  28.838  32.465  1.00  0.00     0.074 A 
ATOM     47  C   UNL A   1      42.907  27.681  31.745  1.00  0.00     0.031 C 
ATOM     48  C   UNL A   1      37.498  30.814  28.823  1.00  0.00     0.029 A 
ATOM     49  C   UNL A   1      37.957  31.396  30.084  1.00  0.00     0.049 A 
ATOM     50  H   UNL A   1      39.604  30.807  31.214  1.00  0.00     0.167 HD
ATOM     51  C   UNL A   1      42.998  29.323  33.590  1.00  0.00     0.037 A 
ATOM     52  C   UNL A   1      37.393  32.433  30.733  1.00  0.00     0.037 A 
ATOM     53  C   UNL A   1      42.506  30.465  34.310  1.00  0.00     0.049 A 
ATOM     54  C   UNL A   1      37.986  32.890  32.044  1.00  0.00     0.074 A 
ATOM     55  C   UNL A   1      43.007  31.037  35.464  1.00  0.00     0.029 A 
ATOM     56  N   UNL A   1      41.389  31.203  33.945  1.00  0.00    -0.354 N 
ATOM     57  N   UNL A   1      39.042  32.442  32.680  1.00  0.00    -0.248 NA
ATOM     58  C   UNL A   1      37.304  33.998  32.729  1.00  0.00     0.031 C 
ATOM     59  C   UNL A   1      42.162  32.089  35.829  1.00  0.00     0.029 A 
ATOM     60  C   UNL A   1      41.173  32.212  34.867  1.00  0.00     0.049 A 
ATOM     61  H   UNL A   1      40.835  31.035  33.149  1.00  0.00     0.167 HD
ATOM     62  C   UNL A   1      39.173  33.237  33.814  1.00  0.00     0.074 A 
ATOM     63  C   UNL A   1      38.094  34.199  33.774  1.00  0.00     0.031 C 
ATOM     64  C   UNL A   1      40.104  33.177  34.798  1.00  0.00     0.037 A 
BRANCH  51  65
ATOM     65  C   UNL A   1      44.198  28.598  34.123  1.00  0.00     0.057 A 
ATOM     66  C   UNL A   1      45.503  28.969  33.776  1.00  0.00     0.134 A 
ATOM     67  C   UNL A   1      44.046  27.527  35.013  1.00  0.00     0.134 A 
ATOM     68  F   UNL A   1      45.718  29.972  32.912  1.00  0.00    -0.206 F 
ATOM     69  C   UNL A   1      46.613  28.289  34.279  1.00  0.00     0.040 A 
ATOM     70  C   UNL A   1      45.148  26.858  35.545  1.00  0.00     0.040 A 
ATOM     71  F   UNL A   1      42.822  27.118  35.384  1.00  0.00    -0.206 F 
ATOM     72  C   UNL A   1      46.437  27.235  35.174  1.00  0.00     0.006 A 
ENDBRANCH  51  65
BRANCH  52  73
ATOM     73  C   UNL A   1      36.188  33.104  30.179  1.00  0.00     0.057 A 
ATOM     74  C   UNL A   1      36.294  34.050  29.152  1.00  0.00     0.134 A 
ATOM     75  C   UNL A   1      34.911  32.856  30.695  1.00  0.00     0.134 A 
ATOM     76  F   UNL A   1      37.492  34.351  28.632  1.00  0.00    -0.206 F 
ATOM     77  C   UNL A   1      35.178  34.743  28.676  1.00  0.00     0.040 A 
ATOM     78  C   UNL A   1      33.782  33.519  30.208  1.00  0.00     0.040 A 
ATOM     79  F   UNL A   1      34.740  31.966  31.683  1.00  0.00    -0.206 F 
ATOM     80  C   UNL A   1      33.916  34.474  29.204  1.00  0.00     0.006 A 
ENDBRANCH  52  73
BRANCH  64  81
ATOM     81  C   UNL A   1      40.039  34.216  35.881  1.00  0.00     0.057 A 
ATOM     82  C   UNL A   1      40.648  35.469  35.750  1.00  0.00     0.134 A 
ATOM     83  C   UNL A   1      39.302  33.975  37.049  1.00  0.00     0.134 A 
ATOM     84  F   UNL A   1      41.377  35.761  34.661  1.00  0.00    -0.206 F 
ATOM     85  C   UNL A   1      40.546  36.437  36.751  1.00  0.00     0.040 A 
ATOM     86  C   UNL A   1      39.166  34.946  38.042  1.00  0.00     0.040 A 
ATOM     87  F   UNL A   1      38.681  32.800  37.233  1.00  0.00    -0.206 F 
ATOM     88  C   UNL A   1      39.794  36.180  37.896  1.00  0.00     0.006 A 
ENDBRANCH  64  81
ENDBRANCH  38  39
ENDBRANCH  31  33
ENDBRANCH  30  31
ENDBRANCH  29  30
ENDBRANCH  28  29
ENDBRANCH  27  28
ENDBRANCH  26  27
ENDBRANCH   1  26
TORSDOF 22
ENDMDL
