MODEL 1
REMARK VINA RESULT:      -9.3      0.000      0.000
REMARK SMILES [NH3+][C@@H](Cc1cn(-c2nc(Cl)nc(N3CCOCC3)n2)c2ccccc12)C(=O)OCCOCCOCCOCCOC(=O)c1ccc(-c2c3nc(c(-c4c(F)cccc4F)c4ccc([nH]4)c(-c4c(F)cccc4F)c4nc(c(-c5c(F)cccc5F)c5ccc2[nH]5)C=C4)C=C3)cc1
REMARK SMILES IDX 33 1 32 2 31 3 30 4 29 5 28 6 26 7 27 8 2 9 1 10 3 14 4 15
REMARK SMILES IDX 5 16 25 17 6 18 20 19 24 20 21 21 23 22 22 23 7 24 8 25
REMARK SMILES IDX 19 26 9 27 12 28 10 29 11 30 13 31 14 32 18 33 15 34 17 35
REMARK SMILES IDX 16 36 34 37 35 38 36 39 37 40 38 41 39 42 40 43 41 44 42 45
REMARK SMILES IDX 43 46 44 47 96 48 45 49 95 50 46 51 47 52 48 53 89 54 49 55
REMARK SMILES IDX 94 56 88 57 90 58 50 59 93 60 87 61 86 62 51 64 77 65 60 66
REMARK SMILES IDX 76 67 61 68 64 69 75 70 91 71 62 72 63 73 74 75 92 76 65 77
REMARK SMILES IDX 52 78 53 79 58 80 54 81 55 82 57 83 59 84 56 85 78 86 79 87
REMARK SMILES IDX 84 88 80 89 81 90 83 91 85 92 82 93 66 94 67 95 72 96 68 97
REMARK SMILES IDX 69 98 71 99 73 100 70 101
REMARK H PARENT 1 11 1 12 1 13 90 63 64 74
REMARK Flexibility Score: inf
ROOT
ATOM      1  C   UNL A   1      38.710  28.060  28.871  1.00  0.00     0.188 C 
ENDROOT
BRANCH   1   2
ATOM      2  C   UNL A   1      39.442  27.067  27.965  1.00  0.00     0.188 C 
BRANCH   2   3
ATOM      3  O   UNL A   1      39.346  25.664  28.184  1.00  0.00    -0.376 OA
BRANCH   3   4
ATOM      4  C   UNL A   1      40.485  24.818  28.300  1.00  0.00     0.202 C 
BRANCH   4   5
ATOM      5  C   UNL A   1      40.947  23.810  27.237  1.00  0.00     0.261 C 
BRANCH   5   6
ATOM      6  O   UNL A   1      40.002  23.509  26.216  1.00  0.00    -0.459 OA
BRANCH   6   7
ATOM      7  C   UNL A   1      39.405  22.289  26.277  1.00  0.00     0.365 C 
ATOM      8  O   UNL A   1      39.994  21.222  26.421  1.00  0.00    -0.245 OA
BRANCH   7   9
ATOM      9  C   UNL A   1      37.881  22.401  26.116  1.00  0.00     0.296 C 
BRANCH   9  10
ATOM     10  N   UNL A   1      37.337  23.639  26.704  1.00  0.00    -0.346 N 
ATOM     11  H   UNL A   1      36.795  23.411  27.537  1.00  0.00     0.345 HD
ATOM     12  H   UNL A   1      36.735  24.103  26.023  1.00  0.00     0.345 HD
ATOM     13  H   UNL A   1      38.105  24.260  26.958  1.00  0.00     0.345 HD
ENDBRANCH   9  10
BRANCH   9  14
ATOM     14  C   UNL A   1      37.454  22.243  24.658  1.00  0.00     0.115 C 
BRANCH  14  15
ATOM     15  C   UNL A   1      36.000  22.477  24.365  1.00  0.00    -0.015 A 
ATOM     16  C   UNL A   1      35.529  23.641  23.802  1.00  0.00     0.099 A 
ATOM     17  C   UNL A   1      34.857  21.623  24.524  1.00  0.00     0.004 A 
ATOM     18  N   UNL A   1      34.169  23.550  23.597  1.00  0.00    -0.285 N 
ATOM     19  C   UNL A   1      33.721  22.335  24.094  1.00  0.00     0.056 A 
ATOM     20  C   UNL A   1      34.673  20.294  24.969  1.00  0.00     0.010 A 
ATOM     21  C   UNL A   1      32.435  21.757  24.108  1.00  0.00     0.027 A 
ATOM     22  C   UNL A   1      33.395  19.722  24.990  1.00  0.00     0.001 A 
ATOM     23  C   UNL A   1      32.292  20.446  24.562  1.00  0.00     0.002 A 
BRANCH  18  24
ATOM     24  C   UNL A   1      33.439  24.519  22.850  1.00  0.00     0.240 A 
ATOM     25  N   UNL A   1      33.356  24.449  21.530  1.00  0.00    -0.181 NA
ATOM     26  N   UNL A   1      32.958  25.525  23.578  1.00  0.00    -0.176 NA
ATOM     27  C   UNL A   1      32.667  25.461  21.012  1.00  0.00     0.228 A 
ATOM     28  C   UNL A   1      32.392  26.527  22.930  1.00  0.00     0.231 A 
ATOM     29  Cl  UNL A   1      32.515  25.456  19.310  1.00  0.00    -0.041 Cl
ATOM     30  N   UNL A   1      32.164  26.524  21.632  1.00  0.00    -0.182 NA
BRANCH  28  31
ATOM     31  N   UNL A   1      32.160  27.632  23.687  1.00  0.00    -0.336 N 
ATOM     32  C   UNL A   1      33.055  27.856  24.819  1.00  0.00     0.148 C 
ATOM     33  C   UNL A   1      31.508  28.809  23.153  1.00  0.00     0.148 C 
ATOM     34  C   UNL A   1      32.284  28.600  25.917  1.00  0.00     0.181 C 
ATOM     35  C   UNL A   1      30.765  29.483  24.323  1.00  0.00     0.181 C 
ATOM     36  O   UNL A   1      31.662  29.795  25.408  1.00  0.00    -0.378 OA
ENDBRANCH  28  31
ENDBRANCH  18  24
ENDBRANCH  14  15
ENDBRANCH   9  14
ENDBRANCH   7   9
ENDBRANCH   6   7
ENDBRANCH   5   6
ENDBRANCH   4   5
ENDBRANCH   3   4
ENDBRANCH   2   3
ENDBRANCH   1   2
BRANCH   1  37
ATOM     37  O   UNL A   1      38.004  29.046  28.155  1.00  0.00    -0.377 OA
BRANCH  37  38
ATOM     38  C   UNL A   1      36.715  29.378  28.650  1.00  0.00     0.188 C 
BRANCH  38  39
ATOM     39  C   UNL A   1      35.543  29.588  27.662  1.00  0.00     0.188 C 
BRANCH  39  40
ATOM     40  O   UNL A   1      34.850  30.819  27.817  1.00  0.00    -0.376 OA
BRANCH  40  41
ATOM     41  C   UNL A   1      35.594  31.980  28.167  1.00  0.00     0.202 C 
BRANCH  41  42
ATOM     42  C   UNL A   1      34.853  33.098  28.918  1.00  0.00     0.261 C 
BRANCH  42  43
ATOM     43  O   UNL A   1      34.486  32.737  30.260  1.00  0.00    -0.460 OA
BRANCH  43  44
ATOM     44  C   UNL A   1      34.389  33.725  31.190  1.00  0.00     0.338 C 
ATOM     45  O   UNL A   1      33.420  34.379  31.455  1.00  0.00    -0.246 OA
BRANCH  44  46
ATOM     46  C   UNL A   1      35.580  33.531  32.068  1.00  0.00     0.060 A 
ATOM     47  C   UNL A   1      36.719  34.337  31.966  1.00  0.00     0.016 A 
ATOM     48  C   UNL A   1      35.634  32.308  32.752  1.00  0.00     0.016 A 
ATOM     49  C   UNL A   1      37.936  33.859  32.455  1.00  0.00     0.010 A 
ATOM     50  C   UNL A   1      36.858  31.819  33.205  1.00  0.00     0.010 A 
ATOM     51  C   UNL A   1      38.019  32.574  33.025  1.00  0.00    -0.014 A 
BRANCH  51  52
ATOM     52  C   UNL A   1      39.279  32.178  33.671  1.00  0.00     0.031 A 
ATOM     53  C   UNL A   1      39.618  33.054  34.829  1.00  0.00     0.074 A 
ATOM     54  C   UNL A   1      39.994  31.051  33.462  1.00  0.00     0.049 A 
ATOM     55  N   UNL A   1      40.699  33.731  35.042  1.00  0.00    -0.248 NA
ATOM     56  C   UNL A   1      38.556  33.281  35.824  1.00  0.00     0.031 C 
ATOM     57  C   UNL A   1      39.656  29.915  32.604  1.00  0.00     0.029 A 
ATOM     58  N   UNL A   1      41.149  30.634  34.078  1.00  0.00    -0.354 N 
ATOM     59  C   UNL A   1      40.519  34.341  36.281  1.00  0.00     0.074 A 
ATOM     60  C   UNL A   1      39.140  34.151  36.643  1.00  0.00     0.031 C 
ATOM     61  C   UNL A   1      40.471  28.874  32.895  1.00  0.00     0.029 A 
ATOM     62  C   UNL A   1      41.440  29.284  33.900  1.00  0.00     0.049 A 
ATOM     63  H   UNL A   1      41.725  31.239  34.600  1.00  0.00     0.167 HD
ATOM     64  C   UNL A   1      41.564  34.774  37.032  1.00  0.00     0.037 A 
ATOM     65  C   UNL A   1      42.354  28.531  34.571  1.00  0.00     0.037 A 
ATOM     66  C   UNL A   1      42.745  34.979  36.242  1.00  0.00     0.049 A 
ATOM     67  C   UNL A   1      43.308  29.444  35.243  1.00  0.00     0.074 A 
ATOM     68  C   UNL A   1      43.042  35.745  35.130  1.00  0.00     0.029 A 
ATOM     69  N   UNL A   1      43.779  34.085  36.361  1.00  0.00    -0.354 N 
ATOM     70  N   UNL A   1      44.233  30.123  34.631  1.00  0.00    -0.248 NA
ATOM     71  C   UNL A   1      42.987  29.894  36.589  1.00  0.00     0.031 C 
ATOM     72  C   UNL A   1      43.947  34.951  34.369  1.00  0.00     0.029 A 
ATOM     73  C   UNL A   1      44.189  33.785  35.090  1.00  0.00     0.049 A 
ATOM     74  H   UNL A   1      44.153  33.728  37.200  1.00  0.00     0.167 HD
ATOM     75  C   UNL A   1      44.282  31.327  35.313  1.00  0.00     0.074 A 
ATOM     76  C   UNL A   1      43.581  31.089  36.570  1.00  0.00     0.031 C 
ATOM     77  C   UNL A   1      44.629  32.479  34.673  1.00  0.00     0.037 A 
BRANCH  64  78
ATOM     78  C   UNL A   1      41.596  34.665  38.536  1.00  0.00     0.057 A 
ATOM     79  C   UNL A   1      41.535  35.776  39.404  1.00  0.00     0.134 A 
ATOM     80  C   UNL A   1      41.374  33.417  39.141  1.00  0.00     0.134 A 
ATOM     81  F   UNL A   1      41.641  37.037  38.969  1.00  0.00    -0.206 F 
ATOM     82  C   UNL A   1      41.257  35.656  40.767  1.00  0.00     0.040 A 
ATOM     83  C   UNL A   1      41.040  33.292  40.493  1.00  0.00     0.040 A 
ATOM     84  F   UNL A   1      41.389  32.288  38.416  1.00  0.00    -0.206 F 
ATOM     85  C   UNL A   1      40.971  34.415  41.309  1.00  0.00     0.006 A 
ENDBRANCH  64  78
BRANCH  65  86
ATOM     86  C   UNL A   1      42.367  27.075  34.855  1.00  0.00     0.057 A 
ATOM     87  C   UNL A   1      41.793  26.553  36.026  1.00  0.00     0.134 A 
ATOM     88  C   UNL A   1      43.166  26.183  34.119  1.00  0.00     0.134 A 
ATOM     89  F   UNL A   1      41.088  27.332  36.857  1.00  0.00    -0.206 F 
ATOM     90  C   UNL A   1      41.995  25.232  36.441  1.00  0.00     0.040 A 
ATOM     91  C   UNL A   1      43.387  24.860  34.529  1.00  0.00     0.040 A 
ATOM     92  F   UNL A   1      43.803  26.590  33.010  1.00  0.00    -0.206 F 
ATOM     93  C   UNL A   1      42.806  24.383  35.698  1.00  0.00     0.006 A 
ENDBRANCH  65  86
BRANCH  77  94
ATOM     94  C   UNL A   1      45.247  32.371  33.308  1.00  0.00     0.057 A 
ATOM     95  C   UNL A   1      46.631  32.534  33.184  1.00  0.00     0.134 A 
ATOM     96  C   UNL A   1      44.510  32.254  32.120  1.00  0.00     0.134 A 
ATOM     97  F   UNL A   1      47.393  32.708  34.275  1.00  0.00    -0.206 F 
ATOM     98  C   UNL A   1      47.260  32.566  31.938  1.00  0.00     0.040 A 
ATOM     99  C   UNL A   1      45.132  32.247  30.868  1.00  0.00     0.040 A 
ATOM    100  F   UNL A   1      43.171  32.200  32.133  1.00  0.00    -0.206 F 
ATOM    101  C   UNL A   1      46.511  32.410  30.774  1.00  0.00     0.006 A 
ENDBRANCH  77  94
ENDBRANCH  51  52
ENDBRANCH  44  46
ENDBRANCH  43  44
ENDBRANCH  42  43
ENDBRANCH  41  42
ENDBRANCH  40  41
ENDBRANCH  39  40
ENDBRANCH  38  39
ENDBRANCH  37  38
ENDBRANCH   1  37
TORSDOF 25
ENDMDL
MODEL 2
REMARK VINA RESULT:      -9.1      5.249     10.813
REMARK SMILES [NH3+][C@@H](Cc1cn(-c2nc(Cl)nc(N3CCOCC3)n2)c2ccccc12)C(=O)OCCOCCOCCOCCOC(=O)c1ccc(-c2c3nc(c(-c4c(F)cccc4F)c4ccc([nH]4)c(-c4c(F)cccc4F)c4nc(c(-c5c(F)cccc5F)c5ccc2[nH]5)C=C4)C=C3)cc1
REMARK SMILES IDX 33 1 32 2 31 3 30 4 29 5 28 6 26 7 27 8 2 9 1 10 3 14 4 15
REMARK SMILES IDX 5 16 25 17 6 18 20 19 24 20 21 21 23 22 22 23 7 24 8 25
REMARK SMILES IDX 19 26 9 27 12 28 10 29 11 30 13 31 14 32 18 33 15 34 17 35
REMARK SMILES IDX 16 36 34 37 35 38 36 39 37 40 38 41 39 42 40 43 41 44 42 45
REMARK SMILES IDX 43 46 44 47 96 48 45 49 95 50 46 51 47 52 48 53 89 54 49 55
REMARK SMILES IDX 94 56 88 57 90 58 50 59 93 60 87 61 86 62 51 64 77 65 60 66
REMARK SMILES IDX 76 67 61 68 64 69 75 70 91 71 62 72 63 73 74 75 92 76 65 77
REMARK SMILES IDX 52 78 53 79 58 80 54 81 55 82 57 83 59 84 56 85 78 86 79 87
REMARK SMILES IDX 84 88 80 89 81 90 83 91 85 92 82 93 66 94 67 95 72 96 68 97
REMARK SMILES IDX 69 98 71 99 73 100 70 101
REMARK H PARENT 1 11 1 12 1 13 90 63 64 74
REMARK Flexibility Score: inf
ROOT
ATOM      1  C   UNL A   1      45.686  31.894  36.770  1.00  0.00     0.188 C 
ENDROOT
BRANCH   1   2
ATOM      2  C   UNL A   1      45.146  30.745  37.625  1.00  0.00     0.188 C 
BRANCH   2   3
ATOM      3  O   UNL A   1      43.825  30.249  37.438  1.00  0.00    -0.376 OA
BRANCH   3   4
ATOM      4  C   UNL A   1      43.094  30.430  36.229  1.00  0.00     0.202 C 
BRANCH   4   5
ATOM      5  C   UNL A   1      41.832  29.647  35.836  1.00  0.00     0.261 C 
BRANCH   5   6
ATOM      6  O   UNL A   1      40.595  30.217  36.250  1.00  0.00    -0.459 OA
BRANCH   6   7
ATOM      7  C   UNL A   1      40.118  31.250  35.505  1.00  0.00     0.365 C 
ATOM      8  O   UNL A   1      40.282  32.438  35.761  1.00  0.00    -0.245 OA
BRANCH   7   9
ATOM      9  C   UNL A   1      39.315  30.746  34.297  1.00  0.00     0.296 C 
BRANCH   9  10
ATOM     10  N   UNL A   1      38.091  30.021  34.689  1.00  0.00    -0.346 N 
ATOM     11  H   UNL A   1      37.457  29.969  33.893  1.00  0.00     0.345 HD
ATOM     12  H   UNL A   1      37.635  30.514  35.456  1.00  0.00     0.345 HD
ATOM     13  H   UNL A   1      38.338  29.077  34.989  1.00  0.00     0.345 HD
ENDBRANCH   9  10
BRANCH   9  14
ATOM     14  C   UNL A   1      39.002  31.874  33.316  1.00  0.00     0.115 C 
BRANCH  14  15
ATOM     15  C   UNL A   1      38.404  31.462  32.001  1.00  0.00    -0.015 A 
ATOM     16  C   UNL A   1      37.132  31.816  31.615  1.00  0.00     0.099 A 
ATOM     17  C   UNL A   1      38.961  30.725  30.902  1.00  0.00     0.004 A 
ATOM     18  N   UNL A   1      36.877  31.350  30.343  1.00  0.00    -0.285 N 
ATOM     19  C   UNL A   1      37.971  30.617  29.908  1.00  0.00     0.056 A 
ATOM     20  C   UNL A   1      40.227  30.154  30.638  1.00  0.00     0.010 A 
ATOM     21  C   UNL A   1      38.217  29.959  28.686  1.00  0.00     0.027 A 
ATOM     22  C   UNL A   1      40.470  29.494  29.428  1.00  0.00     0.001 A 
ATOM     23  C   UNL A   1      39.477  29.400  28.465  1.00  0.00     0.002 A 
BRANCH  18  24
ATOM     24  C   UNL A   1      35.720  31.729  29.604  1.00  0.00     0.240 A 
ATOM     25  N   UNL A   1      35.276  30.993  28.597  1.00  0.00    -0.181 NA
ATOM     26  N   UNL A   1      35.213  32.911  29.947  1.00  0.00    -0.176 NA
ATOM     27  C   UNL A   1      34.212  31.529  28.009  1.00  0.00     0.228 A 
ATOM     28  C   UNL A   1      34.225  33.386  29.209  1.00  0.00     0.231 A 
ATOM     29  Cl  UNL A   1      33.575  30.647  26.690  1.00  0.00    -0.041 Cl
ATOM     30  N   UNL A   1      33.637  32.703  28.248  1.00  0.00    -0.182 NA
BRANCH  28  31
ATOM     31  N   UNL A   1      33.927  34.693  29.435  1.00  0.00    -0.336 N 
ATOM     32  C   UNL A   1      33.749  35.098  30.826  1.00  0.00     0.148 C 
ATOM     33  C   UNL A   1      34.314  35.741  28.515  1.00  0.00     0.148 C 
ATOM     34  C   UNL A   1      32.752  36.265  30.876  1.00  0.00     0.181 C 
ATOM     35  C   UNL A   1      33.259  36.859  28.636  1.00  0.00     0.181 C 
ATOM     36  O   UNL A   1      33.146  37.333  29.994  1.00  0.00    -0.378 OA
ENDBRANCH  28  31
ENDBRANCH  18  24
ENDBRANCH  14  15
ENDBRANCH   9  14
ENDBRANCH   7   9
ENDBRANCH   6   7
ENDBRANCH   5   6
ENDBRANCH   4   5
ENDBRANCH   3   4
ENDBRANCH   2   3
ENDBRANCH   1   2
BRANCH   1  37
ATOM     37  O   UNL A   1      45.080  33.132  37.060  1.00  0.00    -0.377 OA
BRANCH  37  38
ATOM     38  C   UNL A   1      44.772  33.956  35.946  1.00  0.00     0.188 C 
BRANCH  38  39
ATOM     39  C   UNL A   1      43.376  34.616  35.841  1.00  0.00     0.188 C 
BRANCH  39  40
ATOM     40  O   UNL A   1      43.399  36.023  35.638  1.00  0.00    -0.376 OA
BRANCH  40  41
ATOM     41  C   UNL A   1      43.727  36.519  34.347  1.00  0.00     0.202 C 
BRANCH  41  42
ATOM     42  C   UNL A   1      42.917  35.984  33.155  1.00  0.00     0.261 C 
BRANCH  42  43
ATOM     43  O   UNL A   1      43.728  35.342  32.156  1.00  0.00    -0.460 OA
BRANCH  43  44
ATOM     44  C   UNL A   1      43.211  35.187  30.908  1.00  0.00     0.338 C 
ATOM     45  O   UNL A   1      42.766  36.043  30.196  1.00  0.00    -0.246 OA
BRANCH  44  46
ATOM     46  C   UNL A   1      43.692  33.845  30.467  1.00  0.00     0.060 A 
ATOM     47  C   UNL A   1      43.198  33.217  29.318  1.00  0.00     0.016 A 
ATOM     48  C   UNL A   1      44.400  33.110  31.429  1.00  0.00     0.016 A 
ATOM     49  C   UNL A   1      43.320  31.832  29.195  1.00  0.00     0.010 A 
ATOM     50  C   UNL A   1      44.485  31.724  31.321  1.00  0.00     0.010 A 
ATOM     51  C   UNL A   1      43.914  31.076  30.223  1.00  0.00    -0.014 A 
BRANCH  51  52
ATOM     52  C   UNL A   1      44.166  29.647  29.981  1.00  0.00     0.031 A 
ATOM     53  C   UNL A   1      45.096  29.426  28.837  1.00  0.00     0.074 A 
ATOM     54  C   UNL A   1      43.828  28.604  30.771  1.00  0.00     0.049 A 
ATOM     55  N   UNL A   1      44.916  28.711  27.775  1.00  0.00    -0.248 NA
ATOM     56  C   UNL A   1      46.351  30.196  28.843  1.00  0.00     0.031 C 
ATOM     57  C   UNL A   1      43.200  28.641  32.092  1.00  0.00     0.029 A 
ATOM     58  N   UNL A   1      44.085  27.267  30.593  1.00  0.00    -0.354 N 
ATOM     59  C   UNL A   1      46.103  28.812  27.052  1.00  0.00     0.074 A 
ATOM     60  C   UNL A   1      46.886  29.844  27.677  1.00  0.00     0.031 C 
ATOM     61  C   UNL A   1      43.300  27.421  32.671  1.00  0.00     0.029 A 
ATOM     62  C   UNL A   1      43.924  26.493  31.740  1.00  0.00     0.049 A 
ATOM     63  H   UNL A   1      44.359  26.886  29.728  1.00  0.00     0.167 HD
ATOM     64  C   UNL A   1      46.461  27.891  26.120  1.00  0.00     0.037 A 
ATOM     65  C   UNL A   1      44.332  25.212  31.946  1.00  0.00     0.037 A 
ATOM     66  C   UNL A   1      45.332  27.146  25.639  1.00  0.00     0.049 A 
ATOM     67  C   UNL A   1      44.610  24.592  30.630  1.00  0.00     0.074 A 
ATOM     68  C   UNL A   1      44.130  27.487  25.047  1.00  0.00     0.029 A 
ATOM     69  N   UNL A   1      45.191  25.839  26.035  1.00  0.00    -0.354 N 
ATOM     70  N   UNL A   1      43.695  24.223  29.783  1.00  0.00    -0.248 NA
ATOM     71  C   UNL A   1      45.953  24.720  30.085  1.00  0.00     0.031 C 
ATOM     72  C   UNL A   1      43.187  26.557  25.569  1.00  0.00     0.029 A 
ATOM     73  C   UNL A   1      43.879  25.677  26.395  1.00  0.00     0.049 A 
ATOM     74  H   UNL A   1      45.896  25.152  26.055  1.00  0.00     0.167 HD
ATOM     75  C   UNL A   1      44.240  24.512  28.542  1.00  0.00     0.074 A 
ATOM     76  C   UNL A   1      45.665  24.706  28.783  1.00  0.00     0.031 C 
ATOM     77  C   UNL A   1      43.442  24.852  27.492  1.00  0.00     0.037 A 
BRANCH  64  78
ATOM     78  C   UNL A   1      47.885  27.438  25.918  1.00  0.00     0.057 A 
ATOM     79  C   UNL A   1      48.661  26.819  26.920  1.00  0.00     0.134 A 
ATOM     80  C   UNL A   1      48.396  27.335  24.613  1.00  0.00     0.134 A 
ATOM     81  F   UNL A   1      48.269  26.756  28.199  1.00  0.00    -0.206 F 
ATOM     82  C   UNL A   1      49.846  26.133  26.645  1.00  0.00     0.040 A 
ATOM     83  C   UNL A   1      49.551  26.603  24.320  1.00  0.00     0.040 A 
ATOM     84  F   UNL A   1      47.739  27.868  23.572  1.00  0.00    -0.206 F 
ATOM     85  C   UNL A   1      50.276  25.991  25.336  1.00  0.00     0.006 A 
ENDBRANCH  64  78
BRANCH  65  86
ATOM     86  C   UNL A   1      44.703  24.520  33.206  1.00  0.00     0.057 A 
ATOM     87  C   UNL A   1      44.005  23.383  33.649  1.00  0.00     0.134 A 
ATOM     88  C   UNL A   1      45.577  25.100  34.140  1.00  0.00     0.134 A 
ATOM     89  F   UNL A   1      43.077  22.799  32.881  1.00  0.00    -0.206 F 
ATOM     90  C   UNL A   1      44.165  22.855  34.935  1.00  0.00     0.040 A 
ATOM     91  C   UNL A   1      45.738  24.587  35.437  1.00  0.00     0.040 A 
ATOM     92  F   UNL A   1      46.256  26.218  33.841  1.00  0.00    -0.206 F 
ATOM     93  C   UNL A   1      45.025  23.464  35.839  1.00  0.00     0.006 A 
ENDBRANCH  65  86
BRANCH  77  94
ATOM     94  C   UNL A   1      41.965  24.612  27.618  1.00  0.00     0.057 A 
ATOM     95  C   UNL A   1      41.411  23.496  26.982  1.00  0.00     0.134 A 
ATOM     96  C   UNL A   1      41.072  25.513  28.217  1.00  0.00     0.134 A 
ATOM     97  F   UNL A   1      42.200  22.621  26.339  1.00  0.00    -0.206 F 
ATOM     98  C   UNL A   1      40.033  23.272  26.955  1.00  0.00     0.040 A 
ATOM     99  C   UNL A   1      39.693  25.281  28.229  1.00  0.00     0.040 A 
ATOM    100  F   UNL A   1      41.500  26.662  28.757  1.00  0.00    -0.206 F 
ATOM    101  C   UNL A   1      39.169  24.161  27.590  1.00  0.00     0.006 A 
ENDBRANCH  77  94
ENDBRANCH  51  52
ENDBRANCH  44  46
ENDBRANCH  43  44
ENDBRANCH  42  43
ENDBRANCH  41  42
ENDBRANCH  40  41
ENDBRANCH  39  40
ENDBRANCH  38  39
ENDBRANCH  37  38
ENDBRANCH   1  37
TORSDOF 25
ENDMDL
MODEL 3
REMARK VINA RESULT:      -9.0      3.586      6.828
REMARK SMILES [NH3+][C@@H](Cc1cn(-c2nc(Cl)nc(N3CCOCC3)n2)c2ccccc12)C(=O)OCCOCCOCCOCCOC(=O)c1ccc(-c2c3nc(c(-c4c(F)cccc4F)c4ccc([nH]4)c(-c4c(F)cccc4F)c4nc(c(-c5c(F)cccc5F)c5ccc2[nH]5)C=C4)C=C3)cc1
REMARK SMILES IDX 33 1 32 2 31 3 30 4 29 5 28 6 26 7 27 8 2 9 1 10 3 14 4 15
REMARK SMILES IDX 5 16 25 17 6 18 20 19 24 20 21 21 23 22 22 23 7 24 8 25
REMARK SMILES IDX 19 26 9 27 12 28 10 29 11 30 13 31 14 32 18 33 15 34 17 35
REMARK SMILES IDX 16 36 34 37 35 38 36 39 37 40 38 41 39 42 40 43 41 44 42 45
REMARK SMILES IDX 43 46 44 47 96 48 45 49 95 50 46 51 47 52 48 53 89 54 49 55
REMARK SMILES IDX 94 56 88 57 90 58 50 59 93 60 87 61 86 62 51 64 77 65 60 66
REMARK SMILES IDX 76 67 61 68 64 69 75 70 91 71 62 72 63 73 74 75 92 76 65 77
REMARK SMILES IDX 52 78 53 79 58 80 54 81 55 82 57 83 59 84 56 85 78 86 79 87
REMARK SMILES IDX 84 88 80 89 81 90 83 91 85 92 82 93 66 94 67 95 72 96 68 97
REMARK SMILES IDX 69 98 71 99 73 100 70 101
REMARK H PARENT 1 11 1 12 1 13 90 63 64 74
REMARK Flexibility Score: inf
ROOT
ATOM      1  C   UNL A   1      39.696  29.318  28.853  1.00  0.00     0.188 C 
ENDROOT
BRANCH   1   2
ATOM      2  C   UNL A   1      38.864  28.349  28.007  1.00  0.00     0.188 C 
BRANCH   2   3
ATOM      3  O   UNL A   1      38.902  26.948  28.248  1.00  0.00    -0.376 OA
BRANCH   3   4
ATOM      4  C   UNL A   1      39.976  26.116  27.821  1.00  0.00     0.202 C 
BRANCH   4   5
ATOM      5  C   UNL A   1      39.887  24.597  27.610  1.00  0.00     0.261 C 
BRANCH   5   6
ATOM      6  O   UNL A   1      39.153  24.172  26.466  1.00  0.00    -0.459 OA
BRANCH   6   7
ATOM      7  C   UNL A   1      39.105  22.833  26.235  1.00  0.00     0.365 C 
ATOM      8  O   UNL A   1      40.082  22.099  26.135  1.00  0.00    -0.245 OA
BRANCH   7   9
ATOM      9  C   UNL A   1      37.657  22.342  26.085  1.00  0.00     0.296 C 
BRANCH   9  10
ATOM     10  N   UNL A   1      36.686  23.212  26.774  1.00  0.00    -0.346 N 
ATOM     11  H   UNL A   1      36.682  22.996  27.770  1.00  0.00     0.345 HD
ATOM     12  H   UNL A   1      35.755  23.056  26.388  1.00  0.00     0.345 HD
ATOM     13  H   UNL A   1      36.951  24.189  26.639  1.00  0.00     0.345 HD
ENDBRANCH   9  10
BRANCH   9  14
ATOM     14  C   UNL A   1      37.278  22.139  24.619  1.00  0.00     0.115 C 
BRANCH  14  15
ATOM     15  C   UNL A   1      35.836  22.370  24.270  1.00  0.00    -0.015 A 
ATOM     16  C   UNL A   1      35.373  23.562  23.760  1.00  0.00     0.099 A 
ATOM     17  C   UNL A   1      34.702  21.491  24.316  1.00  0.00     0.004 A 
ATOM     18  N   UNL A   1      34.027  23.465  23.481  1.00  0.00    -0.285 N 
ATOM     19  C   UNL A   1      33.577  22.214  23.877  1.00  0.00     0.056 A 
ATOM     20  C   UNL A   1      34.519  20.134  24.666  1.00  0.00     0.010 A 
ATOM     21  C   UNL A   1      32.302  21.618  23.789  1.00  0.00     0.027 A 
ATOM     22  C   UNL A   1      33.252  19.544  24.586  1.00  0.00     0.001 A 
ATOM     23  C   UNL A   1      32.159  20.279  24.151  1.00  0.00     0.002 A 
BRANCH  18  24
ATOM     24  C   UNL A   1      33.318  24.470  22.763  1.00  0.00     0.240 A 
ATOM     25  N   UNL A   1      33.271  24.464  21.439  1.00  0.00    -0.181 NA
ATOM     26  N   UNL A   1      32.816  25.439  23.525  1.00  0.00    -0.176 NA
ATOM     27  C   UNL A   1      32.597  25.501  20.952  1.00  0.00     0.228 A 
ATOM     28  C   UNL A   1      32.268  26.472  22.911  1.00  0.00     0.231 A 
ATOM     29  Cl  UNL A   1      32.493  25.579  19.248  1.00  0.00    -0.041 Cl
ATOM     30  N   UNL A   1      32.076  26.533  21.608  1.00  0.00    -0.182 NA
BRANCH  28  31
ATOM     31  N   UNL A   1      32.014  27.540  23.714  1.00  0.00    -0.336 N 
ATOM     32  C   UNL A   1      30.624  27.978  23.809  1.00  0.00     0.148 C 
ATOM     33  C   UNL A   1      32.862  27.877  24.837  1.00  0.00     0.148 C 
ATOM     34  C   UNL A   1      30.602  29.489  24.076  1.00  0.00     0.181 C 
ATOM     35  C   UNL A   1      32.774  29.405  25.025  1.00  0.00     0.181 C 
ATOM     36  O   UNL A   1      31.412  29.836  25.216  1.00  0.00    -0.378 OA
ENDBRANCH  28  31
ENDBRANCH  18  24
ENDBRANCH  14  15
ENDBRANCH   9  14
ENDBRANCH   7   9
ENDBRANCH   6   7
ENDBRANCH   5   6
ENDBRANCH   4   5
ENDBRANCH   3   4
ENDBRANCH   2   3
ENDBRANCH   1   2
BRANCH   1  37
ATOM     37  O   UNL A   1      39.020  30.519  29.144  1.00  0.00    -0.377 OA
BRANCH  37  38
ATOM     38  C   UNL A   1      37.620  30.414  29.355  1.00  0.00     0.188 C 
BRANCH  38  39
ATOM     39  C   UNL A   1      36.712  31.642  29.107  1.00  0.00     0.188 C 
BRANCH  39  40
ATOM     40  O   UNL A   1      36.051  32.134  30.266  1.00  0.00    -0.376 OA
BRANCH  40  41
ATOM     41  C   UNL A   1      36.838  32.516  31.388  1.00  0.00     0.202 C 
BRANCH  41  42
ATOM     42  C   UNL A   1      36.295  32.173  32.784  1.00  0.00     0.261 C 
BRANCH  42  43
ATOM     43  O   UNL A   1      36.949  31.043  33.388  1.00  0.00    -0.460 OA
BRANCH  43  44
ATOM     44  C   UNL A   1      37.830  31.273  34.399  1.00  0.00     0.338 C 
ATOM     45  O   UNL A   1      37.580  31.674  35.501  1.00  0.00    -0.246 OA
BRANCH  44  46
ATOM     46  C   UNL A   1      39.065  30.540  33.994  1.00  0.00     0.060 A 
ATOM     47  C   UNL A   1      40.346  31.038  34.256  1.00  0.00     0.016 A 
ATOM     48  C   UNL A   1      38.879  29.517  33.052  1.00  0.00     0.016 A 
ATOM     49  C   UNL A   1      41.421  30.584  33.491  1.00  0.00     0.010 A 
ATOM     50  C   UNL A   1      39.949  29.095  32.266  1.00  0.00     0.010 A 
ATOM     51  C   UNL A   1      41.215  29.652  32.456  1.00  0.00    -0.014 A 
BRANCH  51  52
ATOM     52  C   UNL A   1      42.394  29.082  31.786  1.00  0.00     0.031 A 
ATOM     53  C   UNL A   1      42.820  29.893  30.609  1.00  0.00     0.074 A 
ATOM     54  C   UNL A   1      43.195  28.088  32.230  1.00  0.00     0.049 A 
ATOM     55  N   UNL A   1      42.987  29.515  29.385  1.00  0.00    -0.248 NA
ATOM     56  C   UNL A   1      42.974  31.342  30.822  1.00  0.00     0.031 C 
ATOM     57  C   UNL A   1      43.134  27.387  33.512  1.00  0.00     0.029 A 
ATOM     58  N   UNL A   1      44.324  27.563  31.649  1.00  0.00    -0.354 N 
ATOM     59  C   UNL A   1      43.426  30.647  28.702  1.00  0.00     0.074 A 
ATOM     60  C   UNL A   1      43.260  31.763  29.593  1.00  0.00     0.031 C 
ATOM     61  C   UNL A   1      44.274  26.679  33.691  1.00  0.00     0.029 A 
ATOM     62  C   UNL A   1      45.114  26.806  32.510  1.00  0.00     0.049 A 
ATOM     63  H   UNL A   1      44.554  27.709  30.703  1.00  0.00     0.167 HD
ATOM     64  C   UNL A   1      44.103  30.565  27.527  1.00  0.00     0.037 A 
ATOM     65  C   UNL A   1      46.388  26.373  32.309  1.00  0.00     0.037 A 
ATOM     66  C   UNL A   1      43.881  29.309  26.866  1.00  0.00     0.049 A 
ATOM     67  C   UNL A   1      46.688  26.459  30.861  1.00  0.00     0.074 A 
ATOM     68  C   UNL A   1      42.758  28.631  26.432  1.00  0.00     0.029 A 
ATOM     69  N   UNL A   1      44.899  28.387  26.850  1.00  0.00    -0.354 N 
ATOM     70  N   UNL A   1      46.212  25.650  29.961  1.00  0.00    -0.248 NA
ATOM     71  C   UNL A   1      47.244  27.704  30.352  1.00  0.00     0.031 C 
ATOM     72  C   UNL A   1      43.045  27.256  26.667  1.00  0.00     0.029 A 
ATOM     73  C   UNL A   1      44.340  27.179  27.171  1.00  0.00     0.049 A 
ATOM     74  H   UNL A   1      45.846  28.562  26.646  1.00  0.00     0.167 HD
ATOM     75  C   UNL A   1      45.995  26.456  28.856  1.00  0.00     0.074 A 
ATOM     76  C   UNL A   1      46.751  27.677  29.113  1.00  0.00     0.031 C 
ATOM     77  C   UNL A   1      44.993  26.178  27.975  1.00  0.00     0.037 A 
BRANCH  64  78
ATOM     78  C   UNL A   1      45.239  31.488  27.167  1.00  0.00     0.057 A 
ATOM     79  C   UNL A   1      45.126  32.547  26.241  1.00  0.00     0.134 A 
ATOM     80  C   UNL A   1      46.384  31.521  27.980  1.00  0.00     0.134 A 
ATOM     81  F   UNL A   1      44.054  32.704  25.454  1.00  0.00    -0.206 F 
ATOM     82  C   UNL A   1      46.070  33.571  26.144  1.00  0.00     0.040 A 
ATOM     83  C   UNL A   1      47.305  32.572  27.929  1.00  0.00     0.040 A 
ATOM     84  F   UNL A   1      46.594  30.578  28.911  1.00  0.00    -0.206 F 
ATOM     85  C   UNL A   1      47.146  33.606  27.015  1.00  0.00     0.006 A 
ENDBRANCH  64  78
BRANCH  65  86
ATOM     86  C   UNL A   1      47.459  26.072  33.291  1.00  0.00     0.057 A 
ATOM     87  C   UNL A   1      47.513  24.838  33.960  1.00  0.00     0.134 A 
ATOM     88  C   UNL A   1      48.306  27.075  33.794  1.00  0.00     0.134 A 
ATOM     89  F   UNL A   1      46.687  23.837  33.631  1.00  0.00    -0.206 F 
ATOM     90  C   UNL A   1      48.353  24.611  35.056  1.00  0.00     0.040 A 
ATOM     91  C   UNL A   1      49.145  26.865  34.899  1.00  0.00     0.040 A 
ATOM     92  F   UNL A   1      48.299  28.307  33.263  1.00  0.00    -0.206 F 
ATOM     93  C   UNL A   1      49.164  25.630  35.538  1.00  0.00     0.006 A 
ENDBRANCH  65  86
BRANCH  77  94
ATOM     94  C   UNL A   1      44.336  24.830  28.053  1.00  0.00     0.057 A 
ATOM     95  C   UNL A   1      44.563  23.913  27.022  1.00  0.00     0.134 A 
ATOM     96  C   UNL A   1      43.390  24.474  29.027  1.00  0.00     0.134 A 
ATOM     97  F   UNL A   1      45.412  24.210  26.025  1.00  0.00    -0.206 F 
ATOM     98  C   UNL A   1      43.895  22.688  26.965  1.00  0.00     0.040 A 
ATOM     99  C   UNL A   1      42.742  23.236  29.001  1.00  0.00     0.040 A 
ATOM    100  F   UNL A   1      43.029  25.330  29.993  1.00  0.00    -0.206 F 
ATOM    101  C   UNL A   1      42.989  22.341  27.964  1.00  0.00     0.006 A 
ENDBRANCH  77  94
ENDBRANCH  51  52
ENDBRANCH  44  46
ENDBRANCH  43  44
ENDBRANCH  42  43
ENDBRANCH  41  42
ENDBRANCH  40  41
ENDBRANCH  39  40
ENDBRANCH  38  39
ENDBRANCH  37  38
ENDBRANCH   1  37
TORSDOF 25
ENDMDL
