MODEL 1
REMARK VINA RESULT:     -10.2      0.000      0.000
REMARK SMILES O=Cc1c(OCc2ccc(C(=O)OCCOCCOCCOCCOC(=O)c3ccc(-c4c5nc(c(-c6c(F)cccc6F)c6ccc([nH]6)c(-c6c(F)cccc6F)c6nc(c(-c7c(F)cccc7F)c7ccc4[nH]7)C=C6)C=C5)cc3)cc2)ccc2ccccc12
REMARK SMILES IDX 18 1 17 2 16 3 15 4 14 5 13 6 11 7 12 8 10 9 7 10 8 11 83 12
REMARK SMILES IDX 9 13 82 14 6 15 5 16 4 17 3 18 91 19 84 20 86 21 90 22 85 23
REMARK SMILES IDX 87 24 89 25 88 26 2 27 1 28 19 29 20 30 21 31 22 32 23 33
REMARK SMILES IDX 24 34 25 35 26 36 27 37 28 38 29 39 81 40 30 41 80 42 31 43
REMARK SMILES IDX 32 44 33 45 74 46 34 47 79 48 73 49 75 50 35 51 78 52 72 53
REMARK SMILES IDX 71 54 36 56 62 57 45 58 61 59 46 60 49 61 60 62 76 63 47 64
REMARK SMILES IDX 48 65 59 67 77 68 50 69 37 70 38 71 43 72 39 73 40 74 42 75
REMARK SMILES IDX 44 76 41 77 63 78 64 79 69 80 65 81 66 82 68 83 70 84 67 85
REMARK SMILES IDX 51 86 52 87 57 88 53 89 54 90 56 91 58 92 55 93
REMARK H PARENT 75 55 49 66
REMARK Flexibility Score: inf
ROOT
ATOM      1  C   UNL A   1      34.189  34.760  28.962  1.00  0.00     0.188 C 
ENDROOT
BRANCH   1   2
ATOM      2  C   UNL A   1      35.475  34.047  28.495  1.00  0.00     0.188 C 
BRANCH   2   3
ATOM      3  O   UNL A   1      35.243  33.030  27.536  1.00  0.00    -0.376 OA
BRANCH   3   4
ATOM      4  C   UNL A   1      34.886  31.731  27.966  1.00  0.00     0.202 C 
BRANCH   4   5
ATOM      5  C   UNL A   1      33.536  31.133  27.540  1.00  0.00     0.261 C 
BRANCH   5   6
ATOM      6  O   UNL A   1      33.565  30.269  26.402  1.00  0.00    -0.460 OA
BRANCH   6   7
ATOM      7  C   UNL A   1      32.387  30.043  25.784  1.00  0.00     0.338 C 
ATOM      8  O   UNL A   1      31.435  30.802  25.737  1.00  0.00    -0.246 OA
BRANCH   7   9
ATOM      9  C   UNL A   1      32.509  28.796  24.992  1.00  0.00     0.060 A 
ATOM     10  C   UNL A   1      32.564  26.387  23.589  1.00  0.00    -0.011 A 
ATOM     11  C   UNL A   1      31.549  27.320  23.337  1.00  0.00     0.008 A 
ATOM     12  C   UNL A   1      33.640  26.743  24.419  1.00  0.00     0.008 A 
ATOM     13  C   UNL A   1      31.512  28.514  24.051  1.00  0.00     0.016 A 
ATOM     14  C   UNL A   1      33.604  27.937  25.136  1.00  0.00     0.016 A 
BRANCH  10  15
ATOM     15  C   UNL A   1      32.405  24.953  23.124  1.00  0.00     0.265 C 
BRANCH  15  16
ATOM     16  O   UNL A   1      32.723  23.994  24.150  1.00  0.00    -0.488 OA
BRANCH  16  17
ATOM     17  C   UNL A   1      33.918  23.316  24.133  1.00  0.00     0.130 A 
ATOM     18  C   UNL A   1      33.895  21.940  24.434  1.00  0.00     0.064 A 
ATOM     19  C   UNL A   1      35.097  21.180  24.574  1.00  0.00    -0.004 A 
ATOM     20  C   UNL A   1      35.152  23.916  23.898  1.00  0.00     0.048 A 
ATOM     21  C   UNL A   1      36.331  21.857  24.423  1.00  0.00    -0.017 A 
ATOM     22  C   UNL A   1      35.159  19.786  24.837  1.00  0.00     0.009 A 
ATOM     23  C   UNL A   1      36.342  23.211  24.083  1.00  0.00     0.012 A 
ATOM     24  C   UNL A   1      37.547  21.175  24.585  1.00  0.00     0.009 A 
ATOM     25  C   UNL A   1      36.377  19.113  24.972  1.00  0.00     0.001 A 
ATOM     26  C   UNL A   1      37.571  19.810  24.859  1.00  0.00     0.001 A 
BRANCH  18  27
ATOM     27  C   UNL A   1      32.591  21.266  24.641  1.00  0.00     0.264 C 
ATOM     28  O   UNL A   1      31.764  21.629  25.467  1.00  0.00    -0.298 OA
ENDBRANCH  18  27
ENDBRANCH  16  17
ENDBRANCH  15  16
ENDBRANCH  10  15
ENDBRANCH   7   9
ENDBRANCH   6   7
ENDBRANCH   5   6
ENDBRANCH   4   5
ENDBRANCH   3   4
ENDBRANCH   2   3
ENDBRANCH   1   2
BRANCH   1  29
ATOM     29  O   UNL A   1      34.240  35.500  30.172  1.00  0.00    -0.377 OA
BRANCH  29  30
ATOM     30  C   UNL A   1      33.055  35.667  30.950  1.00  0.00     0.188 C 
BRANCH  30  31
ATOM     31  C   UNL A   1      33.036  35.489  32.489  1.00  0.00     0.188 C 
BRANCH  31  32
ATOM     32  O   UNL A   1      32.792  34.166  32.935  1.00  0.00    -0.376 OA
BRANCH  32  33
ATOM     33  C   UNL A   1      33.853  33.234  32.870  1.00  0.00     0.202 C 
BRANCH  33  34
ATOM     34  C   UNL A   1      34.965  33.368  33.920  1.00  0.00     0.261 C 
BRANCH  34  35
ATOM     35  O   UNL A   1      36.261  32.888  33.533  1.00  0.00    -0.460 OA
BRANCH  35  36
ATOM     36  C   UNL A   1      36.947  33.620  32.632  1.00  0.00     0.338 C 
ATOM     37  O   UNL A   1      36.933  34.834  32.500  1.00  0.00    -0.246 OA
BRANCH  36  38
ATOM     38  C   UNL A   1      37.877  32.711  31.932  1.00  0.00     0.060 A 
ATOM     39  C   UNL A   1      38.810  31.978  32.678  1.00  0.00     0.016 A 
ATOM     40  C   UNL A   1      37.817  32.579  30.544  1.00  0.00     0.016 A 
ATOM     41  C   UNL A   1      39.717  31.141  32.029  1.00  0.00     0.010 A 
ATOM     42  C   UNL A   1      38.740  31.757  29.893  1.00  0.00     0.010 A 
ATOM     43  C   UNL A   1      39.718  31.067  30.629  1.00  0.00    -0.014 A 
BRANCH  43  44
ATOM     44  C   UNL A   1      40.872  30.453  29.929  1.00  0.00     0.031 A 
ATOM     45  C   UNL A   1      42.071  31.318  29.650  1.00  0.00     0.074 A 
ATOM     46  C   UNL A   1      40.872  29.159  29.565  1.00  0.00     0.049 A 
ATOM     47  N   UNL A   1      43.175  31.033  29.009  1.00  0.00    -0.248 NA
ATOM     48  C   UNL A   1      42.012  32.696  30.165  1.00  0.00     0.031 C 
ATOM     49  C   UNL A   1      39.792  28.208  29.817  1.00  0.00     0.029 A 
ATOM     50  N   UNL A   1      41.819  28.426  28.893  1.00  0.00    -0.354 N 
ATOM     51  C   UNL A   1      43.935  32.195  29.034  1.00  0.00     0.074 A 
ATOM     52  C   UNL A   1      43.154  33.200  29.722  1.00  0.00     0.031 C 
ATOM     53  C   UNL A   1      40.133  27.017  29.294  1.00  0.00     0.029 A 
ATOM     54  C   UNL A   1      41.438  27.132  28.642  1.00  0.00     0.049 A 
ATOM     55  H   UNL A   1      42.690  28.794  28.618  1.00  0.00     0.167 HD
ATOM     56  C   UNL A   1      45.177  32.406  28.538  1.00  0.00     0.037 A 
ATOM     57  C   UNL A   1      42.061  26.162  27.944  1.00  0.00     0.037 A 
ATOM     58  C   UNL A   1      45.949  31.406  27.850  1.00  0.00     0.049 A 
ATOM     59  C   UNL A   1      43.410  26.444  27.330  1.00  0.00     0.074 A 
ATOM     60  C   UNL A   1      47.222  31.515  27.319  1.00  0.00     0.029 A 
ATOM     61  N   UNL A   1      45.515  30.116  27.588  1.00  0.00    -0.354 N 
ATOM     62  N   UNL A   1      44.132  27.539  27.378  1.00  0.00    -0.248 NA
ATOM     63  C   UNL A   1      44.032  25.352  26.567  1.00  0.00     0.031 C 
ATOM     64  C   UNL A   1      47.534  30.311  26.683  1.00  0.00     0.029 A 
ATOM     65  C   UNL A   1      46.484  29.427  26.878  1.00  0.00     0.049 A 
ATOM     66  H   UNL A   1      44.646  29.744  27.865  1.00  0.00     0.167 HD
ATOM     67  C   UNL A   1      45.306  27.254  26.688  1.00  0.00     0.074 A 
ATOM     68  C   UNL A   1      45.202  25.882  26.240  1.00  0.00     0.031 C 
ATOM     69  C   UNL A   1      46.373  28.055  26.449  1.00  0.00     0.037 A 
BRANCH  56  70
ATOM     70  C   UNL A   1      45.758  33.782  28.694  1.00  0.00     0.057 A 
ATOM     71  C   UNL A   1      45.643  34.757  27.693  1.00  0.00     0.134 A 
ATOM     72  C   UNL A   1      46.425  34.142  29.872  1.00  0.00     0.134 A 
ATOM     73  F   UNL A   1      45.033  34.473  26.533  1.00  0.00    -0.206 F 
ATOM     74  C   UNL A   1      46.195  36.030  27.848  1.00  0.00     0.040 A 
ATOM     75  C   UNL A   1      46.952  35.422  30.051  1.00  0.00     0.040 A 
ATOM     76  F   UNL A   1      46.568  33.259  30.871  1.00  0.00    -0.206 F 
ATOM     77  C   UNL A   1      46.845  36.367  29.034  1.00  0.00     0.006 A 
ENDBRANCH  56  70
BRANCH  57  78
ATOM     78  C   UNL A   1      41.420  24.833  27.771  1.00  0.00     0.057 A 
ATOM     79  C   UNL A   1      41.871  23.710  28.475  1.00  0.00     0.134 A 
ATOM     80  C   UNL A   1      40.363  24.646  26.871  1.00  0.00     0.134 A 
ATOM     81  F   UNL A   1      42.896  23.818  29.332  1.00  0.00    -0.206 F 
ATOM     82  C   UNL A   1      41.312  22.447  28.273  1.00  0.00     0.040 A 
ATOM     83  C   UNL A   1      39.775  23.394  26.682  1.00  0.00     0.040 A 
ATOM     84  F   UNL A   1      39.882  25.680  26.165  1.00  0.00    -0.206 F 
ATOM     85  C   UNL A   1      40.256  22.288  27.378  1.00  0.00     0.006 A 
ENDBRANCH  57  78
BRANCH  69  86
ATOM     86  C   UNL A   1      47.541  27.455  25.716  1.00  0.00     0.057 A 
ATOM     87  C   UNL A   1      48.602  26.832  26.385  1.00  0.00     0.134 A 
ATOM     88  C   UNL A   1      47.581  27.467  24.316  1.00  0.00     0.134 A 
ATOM     89  F   UNL A   1      48.633  26.792  27.726  1.00  0.00    -0.206 F 
ATOM     90  C   UNL A   1      49.676  26.270  25.689  1.00  0.00     0.040 A 
ATOM     91  C   UNL A   1      48.632  26.880  23.607  1.00  0.00     0.040 A 
ATOM     92  F   UNL A   1      46.592  28.035  23.610  1.00  0.00    -0.206 F 
ATOM     93  C   UNL A   1      49.687  26.288  24.295  1.00  0.00     0.006 A 
ENDBRANCH  69  86
ENDBRANCH  43  44
ENDBRANCH  36  38
ENDBRANCH  35  36
ENDBRANCH  34  35
ENDBRANCH  33  34
ENDBRANCH  32  33
ENDBRANCH  31  32
ENDBRANCH  30  31
ENDBRANCH  29  30
ENDBRANCH   1  29
TORSDOF 24
ENDMDL
MODEL 2
REMARK VINA RESULT:      -9.0     11.210     16.302
REMARK SMILES O=Cc1c(OCc2ccc(C(=O)OCCOCCOCCOCCOC(=O)c3ccc(-c4c5nc(c(-c6c(F)cccc6F)c6ccc([nH]6)c(-c6c(F)cccc6F)c6nc(c(-c7c(F)cccc7F)c7ccc4[nH]7)C=C6)C=C5)cc3)cc2)ccc2ccccc12
REMARK SMILES IDX 18 1 17 2 16 3 15 4 14 5 13 6 11 7 12 8 10 9 7 10 8 11 83 12
REMARK SMILES IDX 9 13 82 14 6 15 5 16 4 17 3 18 91 19 84 20 86 21 90 22 85 23
REMARK SMILES IDX 87 24 89 25 88 26 2 27 1 28 19 29 20 30 21 31 22 32 23 33
REMARK SMILES IDX 24 34 25 35 26 36 27 37 28 38 29 39 81 40 30 41 80 42 31 43
REMARK SMILES IDX 32 44 33 45 74 46 34 47 79 48 73 49 75 50 35 51 78 52 72 53
REMARK SMILES IDX 71 54 36 56 62 57 45 58 61 59 46 60 49 61 60 62 76 63 47 64
REMARK SMILES IDX 48 65 59 67 77 68 50 69 37 70 38 71 43 72 39 73 40 74 42 75
REMARK SMILES IDX 44 76 41 77 63 78 64 79 69 80 65 81 66 82 68 83 70 84 67 85
REMARK SMILES IDX 51 86 52 87 57 88 53 89 54 90 56 91 58 92 55 93
REMARK H PARENT 75 55 49 66
REMARK Flexibility Score: inf
ROOT
ATOM      1  C   UNL A   1      50.218  20.209  40.649  1.00  0.00     0.188 C 
ENDROOT
BRANCH   1   2
ATOM      2  C   UNL A   1      49.996  19.228  41.820  1.00  0.00     0.188 C 
BRANCH   2   3
ATOM      3  O   UNL A   1      48.830  19.504  42.577  1.00  0.00    -0.376 OA
BRANCH   3   4
ATOM      4  C   UNL A   1      48.241  18.479  43.353  1.00  0.00     0.202 C 
BRANCH   4   5
ATOM      5  C   UNL A   1      47.066  17.671  42.781  1.00  0.00     0.261 C 
BRANCH   5   6
ATOM      6  O   UNL A   1      47.072  17.475  41.365  1.00  0.00    -0.460 OA
BRANCH   6   7
ATOM      7  C   UNL A   1      46.138  18.145  40.658  1.00  0.00     0.338 C 
ATOM      8  O   UNL A   1      46.270  19.235  40.131  1.00  0.00    -0.246 OA
BRANCH   7   9
ATOM      9  C   UNL A   1      44.977  17.246  40.453  1.00  0.00     0.060 A 
ATOM     10  C   UNL A   1      42.835  15.473  40.248  1.00  0.00    -0.011 A 
ATOM     11  C   UNL A   1      42.829  16.464  41.239  1.00  0.00     0.008 A 
ATOM     12  C   UNL A   1      43.834  15.487  39.260  1.00  0.00     0.008 A 
ATOM     13  C   UNL A   1      43.907  17.337  41.352  1.00  0.00     0.016 A 
ATOM     14  C   UNL A   1      44.915  16.360  39.372  1.00  0.00     0.016 A 
BRANCH  10  15
ATOM     15  C   UNL A   1      41.888  14.294  40.353  1.00  0.00     0.265 C 
BRANCH  15  16
ATOM     16  O   UNL A   1      41.407  14.081  41.694  1.00  0.00    -0.488 OA
BRANCH  16  17
ATOM     17  C   UNL A   1      41.899  13.055  42.463  1.00  0.00     0.130 A 
ATOM     18  C   UNL A   1      42.589  13.392  43.644  1.00  0.00     0.064 A 
ATOM     19  C   UNL A   1      43.250  12.405  44.438  1.00  0.00    -0.004 A 
ATOM     20  C   UNL A   1      41.810  11.709  42.116  1.00  0.00     0.048 A 
ATOM     21  C   UNL A   1      43.215  11.062  43.990  1.00  0.00    -0.017 A 
ATOM     22  C   UNL A   1      43.931  12.656  45.657  1.00  0.00     0.009 A 
ATOM     23  C   UNL A   1      42.493  10.732  42.842  1.00  0.00     0.012 A 
ATOM     24  C   UNL A   1      43.877  10.051  44.704  1.00  0.00     0.009 A 
ATOM     25  C   UNL A   1      44.567  11.636  46.372  1.00  0.00     0.001 A 
ATOM     26  C   UNL A   1      44.550  10.335  45.889  1.00  0.00     0.001 A 
BRANCH  18  27
ATOM     27  C   UNL A   1      42.656  14.812  44.062  1.00  0.00     0.264 C 
ATOM     28  O   UNL A   1      43.423  15.230  44.921  1.00  0.00    -0.298 OA
ENDBRANCH  18  27
ENDBRANCH  16  17
ENDBRANCH  15  16
ENDBRANCH  10  15
ENDBRANCH   7   9
ENDBRANCH   6   7
ENDBRANCH   5   6
ENDBRANCH   4   5
ENDBRANCH   3   4
ENDBRANCH   2   3
ENDBRANCH   1   2
BRANCH   1  29
ATOM     29  O   UNL A   1      49.275  20.203  39.588  1.00  0.00    -0.377 OA
BRANCH  29  30
ATOM     30  C   UNL A   1      49.581  20.877  38.368  1.00  0.00     0.188 C 
BRANCH  30  31
ATOM     31  C   UNL A   1      50.617  22.026  38.286  1.00  0.00     0.188 C 
BRANCH  31  32
ATOM     32  O   UNL A   1      50.562  22.799  37.100  1.00  0.00    -0.376 OA
BRANCH  32  33
ATOM     33  C   UNL A   1      49.334  23.415  36.762  1.00  0.00     0.202 C 
BRANCH  33  34
ATOM     34  C   UNL A   1      49.335  24.945  36.634  1.00  0.00     0.261 C 
BRANCH  34  35
ATOM     35  O   UNL A   1      48.233  25.518  35.914  1.00  0.00    -0.460 OA
BRANCH  35  36
ATOM     36  C   UNL A   1      47.173  25.934  36.636  1.00  0.00     0.338 C 
ATOM     37  O   UNL A   1      47.103  26.051  37.850  1.00  0.00    -0.246 OA
BRANCH  36  38
ATOM     38  C   UNL A   1      46.145  26.408  35.689  1.00  0.00     0.060 A 
ATOM     39  C   UNL A   1      46.351  27.610  34.998  1.00  0.00     0.016 A 
ATOM     40  C   UNL A   1      44.985  25.660  35.480  1.00  0.00     0.016 A 
ATOM     41  C   UNL A   1      45.375  28.088  34.125  1.00  0.00     0.010 A 
ATOM     42  C   UNL A   1      43.998  26.151  34.622  1.00  0.00     0.010 A 
ATOM     43  C   UNL A   1      44.172  27.385  33.972  1.00  0.00    -0.014 A 
BRANCH  43  44
ATOM     44  C   UNL A   1      43.016  28.044  33.319  1.00  0.00     0.031 A 
ATOM     45  C   UNL A   1      42.761  27.746  31.866  1.00  0.00     0.074 A 
ATOM     46  C   UNL A   1      42.197  28.869  33.995  1.00  0.00     0.049 A 
ATOM     47  N   UNL A   1      41.852  28.235  31.061  1.00  0.00    -0.248 NA
ATOM     48  C   UNL A   1      43.658  26.764  31.237  1.00  0.00     0.031 C 
ATOM     49  C   UNL A   1      42.311  29.202  35.412  1.00  0.00     0.029 A 
ATOM     50  N   UNL A   1      41.107  29.585  33.565  1.00  0.00    -0.354 N 
ATOM     51  C   UNL A   1      42.076  27.629  29.832  1.00  0.00     0.074 A 
ATOM     52  C   UNL A   1      43.225  26.764  29.985  1.00  0.00     0.031 C 
ATOM     53  C   UNL A   1      41.334  30.069  35.733  1.00  0.00     0.029 A 
ATOM     54  C   UNL A   1      40.550  30.377  34.538  1.00  0.00     0.049 A 
ATOM     55  H   UNL A   1      40.757  29.534  32.646  1.00  0.00     0.167 HD
ATOM     56  C   UNL A   1      41.381  27.771  28.679  1.00  0.00     0.037 A 
ATOM     57  C   UNL A   1      39.541  31.266  34.461  1.00  0.00     0.037 A 
ATOM     58  C   UNL A   1      40.241  28.635  28.528  1.00  0.00     0.049 A 
ATOM     59  C   UNL A   1      38.831  31.468  33.146  1.00  0.00     0.074 A 
ATOM     60  C   UNL A   1      39.459  28.842  27.405  1.00  0.00     0.029 A 
ATOM     61  N   UNL A   1      39.727  29.446  29.528  1.00  0.00    -0.354 N 
ATOM     62  N   UNL A   1      39.033  30.874  31.993  1.00  0.00    -0.248 NA
ATOM     63  C   UNL A   1      37.749  32.463  33.122  1.00  0.00     0.031 C 
ATOM     64  C   UNL A   1      38.510  29.823  27.708  1.00  0.00     0.029 A 
ATOM     65  C   UNL A   1      38.655  30.175  29.041  1.00  0.00     0.049 A 
ATOM     66  H   UNL A   1      40.072  29.496  30.449  1.00  0.00     0.167 HD
ATOM     67  C   UNL A   1      38.082  31.394  31.122  1.00  0.00     0.074 A 
ATOM     68  C   UNL A   1      37.297  32.343  31.882  1.00  0.00     0.031 C 
ATOM     69  C   UNL A   1      37.874  31.109  29.813  1.00  0.00     0.037 A 
BRANCH  56  70
ATOM     70  C   UNL A   1      41.859  26.997  27.484  1.00  0.00     0.057 A 
ATOM     71  C   UNL A   1      42.743  27.547  26.545  1.00  0.00     0.134 A 
ATOM     72  C   UNL A   1      41.445  25.674  27.281  1.00  0.00     0.134 A 
ATOM     73  F   UNL A   1      43.165  28.815  26.669  1.00  0.00    -0.206 F 
ATOM     74  C   UNL A   1      43.174  26.819  25.435  1.00  0.00     0.040 A 
ATOM     75  C   UNL A   1      41.895  24.926  26.193  1.00  0.00     0.040 A 
ATOM     76  F   UNL A   1      40.602  25.085  28.142  1.00  0.00    -0.206 F 
ATOM     77  C   UNL A   1      42.756  25.501  25.261  1.00  0.00     0.006 A 
ENDBRANCH  56  70
BRANCH  57  78
ATOM     78  C   UNL A   1      39.140  32.049  35.659  1.00  0.00     0.057 A 
ATOM     79  C   UNL A   1      38.256  31.523  36.609  1.00  0.00     0.134 A 
ATOM     80  C   UNL A   1      39.602  33.355  35.865  1.00  0.00     0.134 A 
ATOM     81  F   UNL A   1      37.758  30.288  36.457  1.00  0.00    -0.206 F 
ATOM     82  C   UNL A   1      37.828  32.274  37.706  1.00  0.00     0.040 A 
ATOM     83  C   UNL A   1      39.206  34.106  36.973  1.00  0.00     0.040 A 
ATOM     84  F   UNL A   1      40.450  33.919  34.993  1.00  0.00    -0.206 F 
ATOM     85  C   UNL A   1      38.309  33.569  37.893  1.00  0.00     0.006 A 
ENDBRANCH  57  78
BRANCH  69  86
ATOM     86  C   UNL A   1      36.720  31.789  29.129  1.00  0.00     0.057 A 
ATOM     87  C   UNL A   1      35.513  31.129  28.867  1.00  0.00     0.134 A 
ATOM     88  C   UNL A   1      36.809  33.139  28.764  1.00  0.00     0.134 A 
ATOM     89  F   UNL A   1      35.362  29.833  29.182  1.00  0.00    -0.206 F 
ATOM     90  C   UNL A   1      34.447  31.778  28.239  1.00  0.00     0.040 A 
ATOM     91  C   UNL A   1      35.739  33.808  28.166  1.00  0.00     0.040 A 
ATOM     92  F   UNL A   1      37.931  33.836  28.997  1.00  0.00    -0.206 F 
ATOM     93  C   UNL A   1      34.557  33.124  27.894  1.00  0.00     0.006 A 
ENDBRANCH  69  86
ENDBRANCH  43  44
ENDBRANCH  36  38
ENDBRANCH  35  36
ENDBRANCH  34  35
ENDBRANCH  33  34
ENDBRANCH  32  33
ENDBRANCH  31  32
ENDBRANCH  30  31
ENDBRANCH  29  30
ENDBRANCH   1  29
TORSDOF 24
ENDMDL
MODEL 3
REMARK VINA RESULT:      -8.9      5.383     11.717
REMARK SMILES O=Cc1c(OCc2ccc(C(=O)OCCOCCOCCOCCOC(=O)c3ccc(-c4c5nc(c(-c6c(F)cccc6F)c6ccc([nH]6)c(-c6c(F)cccc6F)c6nc(c(-c7c(F)cccc7F)c7ccc4[nH]7)C=C6)C=C5)cc3)cc2)ccc2ccccc12
REMARK SMILES IDX 18 1 17 2 16 3 15 4 14 5 13 6 11 7 12 8 10 9 7 10 8 11 83 12
REMARK SMILES IDX 9 13 82 14 6 15 5 16 4 17 3 18 91 19 84 20 86 21 90 22 85 23
REMARK SMILES IDX 87 24 89 25 88 26 2 27 1 28 19 29 20 30 21 31 22 32 23 33
REMARK SMILES IDX 24 34 25 35 26 36 27 37 28 38 29 39 81 40 30 41 80 42 31 43
REMARK SMILES IDX 32 44 33 45 74 46 34 47 79 48 73 49 75 50 35 51 78 52 72 53
REMARK SMILES IDX 71 54 36 56 62 57 45 58 61 59 46 60 49 61 60 62 76 63 47 64
REMARK SMILES IDX 48 65 59 67 77 68 50 69 37 70 38 71 43 72 39 73 40 74 42 75
REMARK SMILES IDX 44 76 41 77 63 78 64 79 69 80 65 81 66 82 68 83 70 84 67 85
REMARK SMILES IDX 51 86 52 87 57 88 53 89 54 90 56 91 58 92 55 93
REMARK H PARENT 75 55 49 66
REMARK Flexibility Score: inf
ROOT
ATOM      1  C   UNL A   1      50.250  26.152  28.283  1.00  0.00     0.188 C 
ENDROOT
BRANCH   1   2
ATOM      2  C   UNL A   1      49.837  27.433  27.527  1.00  0.00     0.188 C 
BRANCH   2   3
ATOM      3  O   UNL A   1      48.564  27.342  26.911  1.00  0.00    -0.376 OA
BRANCH   3   4
ATOM      4  C   UNL A   1      48.090  26.085  26.467  1.00  0.00     0.202 C 
BRANCH   4   5
ATOM      5  C   UNL A   1      46.579  25.809  26.442  1.00  0.00     0.261 C 
BRANCH   5   6
ATOM      6  O   UNL A   1      45.903  26.140  25.227  1.00  0.00    -0.460 OA
BRANCH   6   7
ATOM      7  C   UNL A   1      45.332  27.361  25.167  1.00  0.00     0.338 C 
ATOM      8  O   UNL A   1      45.821  28.368  24.684  1.00  0.00    -0.246 OA
BRANCH   7   9
ATOM      9  C   UNL A   1      43.922  27.238  25.605  1.00  0.00     0.060 A 
ATOM     10  C   UNL A   1      41.337  26.997  26.622  1.00  0.00    -0.011 A 
ATOM     11  C   UNL A   1      42.097  28.139  26.908  1.00  0.00     0.008 A 
ATOM     12  C   UNL A   1      41.815  26.064  25.688  1.00  0.00     0.008 A 
ATOM     13  C   UNL A   1      43.393  28.250  26.415  1.00  0.00     0.016 A 
ATOM     14  C   UNL A   1      43.114  26.172  25.194  1.00  0.00     0.016 A 
BRANCH  10  15
ATOM     15  C   UNL A   1      40.106  26.682  27.449  1.00  0.00     0.265 C 
BRANCH  15  16
ATOM     16  O   UNL A   1      40.141  25.361  28.023  1.00  0.00    -0.488 OA
BRANCH  16  17
ATOM     17  C   UNL A   1      39.513  24.308  27.404  1.00  0.00     0.130 A 
ATOM     18  C   UNL A   1      40.204  23.082  27.332  1.00  0.00     0.064 A 
ATOM     19  C   UNL A   1      39.691  21.971  26.594  1.00  0.00    -0.004 A 
ATOM     20  C   UNL A   1      38.265  24.395  26.792  1.00  0.00     0.048 A 
ATOM     21  C   UNL A   1      38.466  22.141  25.907  1.00  0.00    -0.017 A 
ATOM     22  C   UNL A   1      40.304  20.694  26.505  1.00  0.00     0.009 A 
ATOM     23  C   UNL A   1      37.768  23.345  26.019  1.00  0.00     0.012 A 
ATOM     24  C   UNL A   1      37.928  21.101  25.133  1.00  0.00     0.009 A 
ATOM     25  C   UNL A   1      39.746  19.658  25.750  1.00  0.00     0.001 A 
ATOM     26  C   UNL A   1      38.564  19.865  25.054  1.00  0.00     0.001 A 
BRANCH  18  27
ATOM     27  C   UNL A   1      41.511  22.947  28.017  1.00  0.00     0.264 C 
ATOM     28  O   UNL A   1      42.583  23.218  27.490  1.00  0.00    -0.298 OA
ENDBRANCH  18  27
ENDBRANCH  16  17
ENDBRANCH  15  16
ENDBRANCH  10  15
ENDBRANCH   7   9
ENDBRANCH   6   7
ENDBRANCH   5   6
ENDBRANCH   4   5
ENDBRANCH   3   4
ENDBRANCH   2   3
ENDBRANCH   1   2
BRANCH   1  29
ATOM     29  O   UNL A   1      51.412  25.465  27.843  1.00  0.00    -0.377 OA
BRANCH  29  30
ATOM     30  C   UNL A   1      51.661  25.320  26.446  1.00  0.00     0.188 C 
BRANCH  30  31
ATOM     31  C   UNL A   1      52.886  25.961  25.746  1.00  0.00     0.188 C 
BRANCH  31  32
ATOM     32  O   UNL A   1      52.573  26.912  24.744  1.00  0.00    -0.376 OA
BRANCH  32  33
ATOM     33  C   UNL A   1      53.126  28.209  24.859  1.00  0.00     0.202 C 
BRANCH  33  34
ATOM     34  C   UNL A   1      53.125  28.845  26.256  1.00  0.00     0.261 C 
BRANCH  34  35
ATOM     35  O   UNL A   1      52.254  29.972  26.435  1.00  0.00    -0.460 OA
BRANCH  35  36
ATOM     36  C   UNL A   1      52.263  30.574  27.641  1.00  0.00     0.338 C 
ATOM     37  O   UNL A   1      53.238  30.870  28.315  1.00  0.00    -0.246 OA
BRANCH  36  38
ATOM     38  C   UNL A   1      50.879  30.992  27.944  1.00  0.00     0.060 A 
ATOM     39  C   UNL A   1      50.555  31.398  29.245  1.00  0.00     0.016 A 
ATOM     40  C   UNL A   1      49.910  30.990  26.939  1.00  0.00     0.016 A 
ATOM     41  C   UNL A   1      49.245  31.764  29.554  1.00  0.00     0.010 A 
ATOM     42  C   UNL A   1      48.594  31.335  27.255  1.00  0.00     0.010 A 
ATOM     43  C   UNL A   1      48.249  31.685  28.572  1.00  0.00    -0.014 A 
BRANCH  43  44
ATOM     44  C   UNL A   1      46.822  31.748  28.968  1.00  0.00     0.031 A 
ATOM     45  C   UNL A   1      46.180  30.494  29.500  1.00  0.00     0.074 A 
ATOM     46  C   UNL A   1      46.112  32.887  28.881  1.00  0.00     0.049 A 
ATOM     47  N   UNL A   1      44.941  30.280  29.859  1.00  0.00    -0.248 NA
ATOM     48  C   UNL A   1      47.061  29.323  29.640  1.00  0.00     0.031 C 
ATOM     49  C   UNL A   1      46.630  34.174  28.426  1.00  0.00     0.029 A 
ATOM     50  N   UNL A   1      44.794  33.134  29.168  1.00  0.00    -0.354 N 
ATOM     51  C   UNL A   1      44.892  28.950  30.257  1.00  0.00     0.074 A 
ATOM     52  C   UNL A   1      46.214  28.397  30.063  1.00  0.00     0.031 C 
ATOM     53  C   UNL A   1      45.632  35.076  28.453  1.00  0.00     0.029 A 
ATOM     54  C   UNL A   1      44.402  34.420  28.894  1.00  0.00     0.049 A 
ATOM     55  H   UNL A   1      44.185  32.453  29.537  1.00  0.00     0.167 HD
ATOM     56  C   UNL A   1      43.842  28.252  30.752  1.00  0.00     0.037 A 
ATOM     57  C   UNL A   1      43.183  34.992  28.967  1.00  0.00     0.037 A 
ATOM     58  C   UNL A   1      42.527  28.804  30.940  1.00  0.00     0.049 A 
ATOM     59  C   UNL A   1      42.010  34.174  29.444  1.00  0.00     0.074 A 
ATOM     60  C   UNL A   1      41.397  28.184  31.444  1.00  0.00     0.029 A 
ATOM     61  N   UNL A   1      42.162  30.102  30.620  1.00  0.00    -0.354 N 
ATOM     62  N   UNL A   1      41.975  32.923  29.841  1.00  0.00    -0.248 NA
ATOM     63  C   UNL A   1      40.705  34.849  29.487  1.00  0.00     0.031 C 
ATOM     64  C   UNL A   1      40.334  29.090  31.373  1.00  0.00     0.029 A 
ATOM     65  C   UNL A   1      40.818  30.296  30.891  1.00  0.00     0.049 A 
ATOM     66  H   UNL A   1      42.768  30.787  30.255  1.00  0.00     0.167 HD
ATOM     67  C   UNL A   1      40.659  32.676  30.215  1.00  0.00     0.074 A 
ATOM     68  C   UNL A   1      39.929  33.908  30.007  1.00  0.00     0.031 C 
ATOM     69  C   UNL A   1      40.105  31.533  30.690  1.00  0.00     0.037 A 
BRANCH  56  70
ATOM     70  C   UNL A   1      44.070  26.807  31.089  1.00  0.00     0.057 A 
ATOM     71  C   UNL A   1      43.931  25.789  30.136  1.00  0.00     0.134 A 
ATOM     72  C   UNL A   1      44.455  26.431  32.382  1.00  0.00     0.134 A 
ATOM     73  F   UNL A   1      43.548  26.077  28.883  1.00  0.00    -0.206 F 
ATOM     74  C   UNL A   1      44.139  24.448  30.465  1.00  0.00     0.040 A 
ATOM     75  C   UNL A   1      44.697  25.097  32.714  1.00  0.00     0.040 A 
ATOM     76  F   UNL A   1      44.609  27.355  33.342  1.00  0.00    -0.206 F 
ATOM     77  C   UNL A   1      44.532  24.101  31.756  1.00  0.00     0.006 A 
ENDBRANCH  56  70
BRANCH  57  78
ATOM     78  C   UNL A   1      42.998  36.412  28.570  1.00  0.00     0.057 A 
ATOM     79  C   UNL A   1      43.253  37.457  29.465  1.00  0.00     0.134 A 
ATOM     80  C   UNL A   1      42.526  36.756  27.297  1.00  0.00     0.134 A 
ATOM     81  F   UNL A   1      43.682  37.193  30.707  1.00  0.00    -0.206 F 
ATOM     82  C   UNL A   1      43.024  38.791  29.118  1.00  0.00     0.040 A 
ATOM     83  C   UNL A   1      42.321  38.087  26.927  1.00  0.00     0.040 A 
ATOM     84  F   UNL A   1      42.261  35.803  26.391  1.00  0.00    -0.206 F 
ATOM     85  C   UNL A   1      42.562  39.108  27.842  1.00  0.00     0.006 A 
ENDBRANCH  57  78
BRANCH  69  86
ATOM     86  C   UNL A   1      38.651  31.573  31.073  1.00  0.00     0.057 A 
ATOM     87  C   UNL A   1      37.637  31.169  30.196  1.00  0.00     0.134 A 
ATOM     88  C   UNL A   1      38.268  31.985  32.356  1.00  0.00     0.134 A 
ATOM     89  F   UNL A   1      37.933  30.770  28.949  1.00  0.00    -0.206 F 
ATOM     90  C   UNL A   1      36.291  31.203  30.570  1.00  0.00     0.040 A 
ATOM     91  C   UNL A   1      36.929  31.992  32.753  1.00  0.00     0.040 A 
ATOM     92  F   UNL A   1      39.188  32.373  33.251  1.00  0.00    -0.206 F 
ATOM     93  C   UNL A   1      35.936  31.609  31.855  1.00  0.00     0.006 A 
ENDBRANCH  69  86
ENDBRANCH  43  44
ENDBRANCH  36  38
ENDBRANCH  35  36
ENDBRANCH  34  35
ENDBRANCH  33  34
ENDBRANCH  32  33
ENDBRANCH  31  32
ENDBRANCH  30  31
ENDBRANCH  29  30
ENDBRANCH   1  29
TORSDOF 24
ENDMDL
