MODEL 1
REMARK VINA RESULT:      -8.2      0.000      0.000
REMARK SMILES O=C(COc1cc(-c2ccncc2)nc(Nc2ccccc2Br)n1)OCCOCCOCCOCCOC(=O)c1ccc(-c2c3nc(c(-c4c(F)cccc4F)c4ccc([nH]4)c(-c4c(F)cccc4F)c4nc(c(-c5c(F)cccc5F)c5ccc2[nH]5)C=C4)C=C3)cc1
REMARK SMILES IDX 30 1 29 2 28 3 27 4 26 5 25 6 2 7 1 8 3 9 4 10 5 11 6 12
REMARK SMILES IDX 24 13 7 14 15 15 14 16 8 17 9 18 13 19 10 20 12 21 11 22
REMARK SMILES IDX 16 23 17 25 18 26 22 27 19 28 21 29 23 30 20 31 31 32 32 33
REMARK SMILES IDX 33 34 34 35 35 36 36 37 37 38 38 39 39 40 40 41 41 42 93 43
REMARK SMILES IDX 42 44 92 45 43 46 44 47 45 48 86 49 46 50 91 51 85 52 87 53
REMARK SMILES IDX 47 54 90 55 84 56 83 57 48 59 74 60 57 61 73 62 58 63 61 64
REMARK SMILES IDX 72 65 88 66 59 67 60 68 71 70 89 71 62 72 49 73 50 74 55 75
REMARK SMILES IDX 51 76 52 77 54 78 56 79 53 80 75 81 76 82 81 83 77 84 78 85
REMARK SMILES IDX 80 86 82 87 79 88 63 89 64 90 69 91 65 92 66 93 68 94 70 95
REMARK SMILES IDX 67 96
REMARK H PARENT 16 24 87 58 61 69
REMARK Flexibility Score: inf
ROOT
ATOM      1  C   UNL A   1      32.531  35.807  29.951  1.00  0.00     0.188 C 
ENDROOT
BRANCH   1   2
ATOM      2  C   UNL A   1      33.852  35.584  29.196  1.00  0.00     0.188 C 
BRANCH   2   3
ATOM      3  O   UNL A   1      34.212  34.238  28.937  1.00  0.00    -0.376 OA
BRANCH   3   4
ATOM      4  C   UNL A   1      35.509  33.732  28.710  1.00  0.00     0.202 C 
BRANCH   4   5
ATOM      5  C   UNL A   1      36.758  34.484  29.173  1.00  0.00     0.261 C 
BRANCH   5   6
ATOM      6  O   UNL A   1      37.171  34.303  30.541  1.00  0.00    -0.461 OA
BRANCH   6   7
ATOM      7  C   UNL A   1      38.438  34.369  31.009  1.00  0.00     0.344 C 
ATOM      8  O   UNL A   1      39.313  34.890  30.322  1.00  0.00    -0.248 OA
BRANCH   7   9
ATOM      9  C   UNL A   1      38.736  33.766  32.374  1.00  0.00     0.353 C 
BRANCH   9  10
ATOM     10  O   UNL A   1      39.012  34.771  33.353  1.00  0.00    -0.466 OA
BRANCH  10  11
ATOM     11  C   UNL A   1      40.180  34.410  33.953  1.00  0.00     0.219 A 
ATOM     12  C   UNL A   1      40.920  33.395  33.431  1.00  0.00     0.097 A 
ATOM     13  N   UNL A   1      40.317  34.896  35.168  1.00  0.00    -0.177 NA
ATOM     14  C   UNL A   1      41.685  32.717  34.348  1.00  0.00     0.080 A 
ATOM     15  C   UNL A   1      41.196  34.299  35.965  1.00  0.00     0.231 A 
ATOM     16  N   UNL A   1      41.867  33.182  35.615  1.00  0.00    -0.212 NA
BRANCH  14  17
ATOM     17  C   UNL A   1      42.098  31.340  34.000  1.00  0.00     0.004 A 
ATOM     18  C   UNL A   1      43.385  31.071  33.497  1.00  0.00     0.030 A 
ATOM     19  C   UNL A   1      41.170  30.294  33.961  1.00  0.00     0.030 A 
ATOM     20  C   UNL A   1      43.669  29.821  32.968  1.00  0.00     0.111 A 
ATOM     21  C   UNL A   1      41.550  29.073  33.420  1.00  0.00     0.111 A 
ATOM     22  N   UNL A   1      42.779  28.814  32.923  1.00  0.00    -0.265 NA
ENDBRANCH  14  17
BRANCH  15  23
ATOM     23  N   UNL A   1      41.398  34.918  37.204  1.00  0.00    -0.323 N 
ATOM     24  H   UNL A   1      42.280  35.309  37.401  1.00  0.00     0.170 HD
BRANCH  23  25
ATOM     25  C   UNL A   1      40.377  35.000  38.182  1.00  0.00     0.055 A 
ATOM     26  C   UNL A   1      39.407  33.986  38.236  1.00  0.00     0.027 A 
ATOM     27  C   UNL A   1      40.419  35.923  39.250  1.00  0.00     0.041 A 
ATOM     28  C   UNL A   1      38.516  33.893  39.313  1.00  0.00     0.002 A 
ATOM     29  C   UNL A   1      39.520  35.837  40.322  1.00  0.00     0.018 A 
ATOM     30  Br  UNL A   1      41.685  37.347  39.299  1.00  0.00    -0.049 Br
ATOM     31  C   UNL A   1      38.573  34.817  40.355  1.00  0.00     0.001 A 
ENDBRANCH  23  25
ENDBRANCH  15  23
ENDBRANCH  10  11
ENDBRANCH   9  10
ENDBRANCH   7   9
ENDBRANCH   6   7
ENDBRANCH   5   6
ENDBRANCH   4   5
ENDBRANCH   3   4
ENDBRANCH   2   3
ENDBRANCH   1   2
BRANCH   1  32
ATOM     32  O   UNL A   1      32.536  36.858  30.910  1.00  0.00    -0.377 OA
BRANCH  32  33
ATOM     33  C   UNL A   1      32.682  36.435  32.253  1.00  0.00     0.188 C 
BRANCH  33  34
ATOM     34  C   UNL A   1      34.067  36.722  32.871  1.00  0.00     0.188 C 
BRANCH  34  35
ATOM     35  O   UNL A   1      34.576  35.963  33.953  1.00  0.00    -0.376 OA
BRANCH  35  36
ATOM     36  C   UNL A   1      35.450  34.863  33.774  1.00  0.00     0.202 C 
BRANCH  36  37
ATOM     37  C   UNL A   1      35.049  33.389  33.934  1.00  0.00     0.261 C 
BRANCH  37  38
ATOM     38  O   UNL A   1      35.859  32.412  33.290  1.00  0.00    -0.460 OA
BRANCH  38  39
ATOM     39  C   UNL A   1      35.368  31.910  32.139  1.00  0.00     0.338 C 
ATOM     40  O   UNL A   1      34.336  32.220  31.567  1.00  0.00    -0.246 OA
BRANCH  39  41
ATOM     41  C   UNL A   1      36.412  31.045  31.561  1.00  0.00     0.060 A 
ATOM     42  C   UNL A   1      37.274  30.353  32.426  1.00  0.00     0.016 A 
ATOM     43  C   UNL A   1      36.514  30.895  30.177  1.00  0.00     0.016 A 
ATOM     44  C   UNL A   1      38.262  29.524  31.909  1.00  0.00     0.010 A 
ATOM     45  C   UNL A   1      37.537  30.108  29.657  1.00  0.00     0.010 A 
ATOM     46  C   UNL A   1      38.435  29.459  30.523  1.00  0.00    -0.014 A 
BRANCH  46  47
ATOM     47  C   UNL A   1      39.725  28.993  29.981  1.00  0.00     0.031 A 
ATOM     48  C   UNL A   1      40.830  30.005  29.889  1.00  0.00     0.074 A 
ATOM     49  C   UNL A   1      39.902  27.731  29.561  1.00  0.00     0.049 A 
ATOM     50  N   UNL A   1      41.997  29.914  29.311  1.00  0.00    -0.248 NA
ATOM     51  C   UNL A   1      40.569  31.307  30.527  1.00  0.00     0.031 C 
ATOM     52  C   UNL A   1      38.919  26.657  29.661  1.00  0.00     0.029 A 
ATOM     53  N   UNL A   1      40.977  27.156  28.936  1.00  0.00    -0.354 N 
ATOM     54  C   UNL A   1      42.596  31.153  29.493  1.00  0.00     0.074 A 
ATOM     55  C   UNL A   1      41.660  31.985  30.213  1.00  0.00     0.031 C 
ATOM     56  C   UNL A   1      39.425  25.554  29.083  1.00  0.00     0.029 A 
ATOM     57  C   UNL A   1      40.746  25.865  28.536  1.00  0.00     0.049 A 
ATOM     58  H   UNL A   1      41.831  27.623  28.789  1.00  0.00     0.167 HD
ATOM     59  C   UNL A   1      43.820  31.561  29.089  1.00  0.00     0.037 A 
ATOM     60  C   UNL A   1      41.502  25.050  27.776  1.00  0.00     0.037 A 
ATOM     61  C   UNL A   1      44.734  30.726  28.358  1.00  0.00     0.049 A 
ATOM     62  C   UNL A   1      42.830  25.548  27.263  1.00  0.00     0.074 A 
ATOM     63  C   UNL A   1      46.003  31.028  27.904  1.00  0.00     0.029 A 
ATOM     64  N   UNL A   1      44.461  29.424  27.962  1.00  0.00    -0.354 N 
ATOM     65  N   UNL A   1      43.402  26.716  27.442  1.00  0.00    -0.248 NA
ATOM     66  C   UNL A   1      43.616  24.617  26.443  1.00  0.00     0.031 C 
ATOM     67  C   UNL A   1      46.475  29.930  27.178  1.00  0.00     0.029 A 
ATOM     68  C   UNL A   1      45.529  28.917  27.244  1.00  0.00     0.049 A 
ATOM     69  H   UNL A   1      43.630  28.934  28.162  1.00  0.00     0.167 HD
ATOM     70  C   UNL A   1      44.630  26.645  26.792  1.00  0.00     0.074 A 
ATOM     71  C   UNL A   1      44.716  25.320  26.214  1.00  0.00     0.031 C 
ATOM     72  C   UNL A   1      45.601  27.587  26.692  1.00  0.00     0.037 A 
BRANCH  59  73
ATOM     73  C   UNL A   1      44.202  32.982  29.385  1.00  0.00     0.057 A 
ATOM     74  C   UNL A   1      44.902  33.343  30.544  1.00  0.00     0.134 A 
ATOM     75  C   UNL A   1      43.847  34.008  28.501  1.00  0.00     0.134 A 
ATOM     76  F   UNL A   1      45.252  32.412  31.445  1.00  0.00    -0.206 F 
ATOM     77  C   UNL A   1      45.200  34.677  30.831  1.00  0.00     0.040 A 
ATOM     78  C   UNL A   1      44.170  35.341  28.759  1.00  0.00     0.040 A 
ATOM     79  F   UNL A   1      43.174  33.734  27.373  1.00  0.00    -0.206 F 
ATOM     80  C   UNL A   1      44.840  35.679  29.933  1.00  0.00     0.006 A 
ENDBRANCH  59  73
BRANCH  60  81
ATOM     81  C   UNL A   1      41.013  23.690  27.440  1.00  0.00     0.057 A 
ATOM     82  C   UNL A   1      39.986  23.500  26.509  1.00  0.00     0.134 A 
ATOM     83  C   UNL A   1      41.566  22.548  28.034  1.00  0.00     0.134 A 
ATOM     84  F   UNL A   1      39.404  24.554  25.921  1.00  0.00    -0.206 F 
ATOM     85  C   UNL A   1      39.517  22.224  26.190  1.00  0.00     0.040 A 
ATOM     86  C   UNL A   1      41.124  21.266  27.705  1.00  0.00     0.040 A 
ATOM     87  F   UNL A   1      42.556  22.663  28.931  1.00  0.00    -0.206 F 
ATOM     88  C   UNL A   1      40.092  21.101  26.783  1.00  0.00     0.006 A 
ENDBRANCH  60  81
BRANCH  72  89
ATOM     89  C   UNL A   1      46.872  27.206  25.990  1.00  0.00     0.057 A 
ATOM     90  C   UNL A   1      47.088  27.471  24.633  1.00  0.00     0.134 A 
ATOM     91  C   UNL A   1      47.929  26.632  26.712  1.00  0.00     0.134 A 
ATOM     92  F   UNL A   1      46.115  28.010  23.883  1.00  0.00    -0.206 F 
ATOM     93  C   UNL A   1      48.302  27.165  24.015  1.00  0.00     0.040 A 
ATOM     94  C   UNL A   1      49.156  26.350  26.113  1.00  0.00     0.040 A 
ATOM     95  F   UNL A   1      47.794  26.362  28.020  1.00  0.00    -0.206 F 
ATOM     96  C   UNL A   1      49.344  26.613  24.758  1.00  0.00     0.006 A 
ENDBRANCH  72  89
ENDBRANCH  46  47
ENDBRANCH  39  41
ENDBRANCH  38  39
ENDBRANCH  37  38
ENDBRANCH  36  37
ENDBRANCH  35  36
ENDBRANCH  34  35
ENDBRANCH  33  34
ENDBRANCH  32  33
ENDBRANCH   1  32
TORSDOF 25
ENDMDL
MODEL 2
REMARK VINA RESULT:      -7.9      5.456      9.225
REMARK SMILES O=C(COc1cc(-c2ccncc2)nc(Nc2ccccc2Br)n1)OCCOCCOCCOCCOC(=O)c1ccc(-c2c3nc(c(-c4c(F)cccc4F)c4ccc([nH]4)c(-c4c(F)cccc4F)c4nc(c(-c5c(F)cccc5F)c5ccc2[nH]5)C=C4)C=C3)cc1
REMARK SMILES IDX 30 1 29 2 28 3 27 4 26 5 25 6 2 7 1 8 3 9 4 10 5 11 6 12
REMARK SMILES IDX 24 13 7 14 15 15 14 16 8 17 9 18 13 19 10 20 12 21 11 22
REMARK SMILES IDX 16 23 17 25 18 26 22 27 19 28 21 29 23 30 20 31 31 32 32 33
REMARK SMILES IDX 33 34 34 35 35 36 36 37 37 38 38 39 39 40 40 41 41 42 93 43
REMARK SMILES IDX 42 44 92 45 43 46 44 47 45 48 86 49 46 50 91 51 85 52 87 53
REMARK SMILES IDX 47 54 90 55 84 56 83 57 48 59 74 60 57 61 73 62 58 63 61 64
REMARK SMILES IDX 72 65 88 66 59 67 60 68 71 70 89 71 62 72 49 73 50 74 55 75
REMARK SMILES IDX 51 76 52 77 54 78 56 79 53 80 75 81 76 82 81 83 77 84 78 85
REMARK SMILES IDX 80 86 82 87 79 88 63 89 64 90 69 91 65 92 66 93 68 94 70 95
REMARK SMILES IDX 67 96
REMARK H PARENT 16 24 87 58 61 69
REMARK Flexibility Score: inf
ROOT
ATOM      1  C   UNL A   1      32.780  35.456  29.747  1.00  0.00     0.188 C 
ENDROOT
BRANCH   1   2
ATOM      2  C   UNL A   1      33.715  34.820  28.706  1.00  0.00     0.188 C 
BRANCH   2   3
ATOM      3  O   UNL A   1      34.657  33.881  29.194  1.00  0.00    -0.376 OA
BRANCH   3   4
ATOM      4  C   UNL A   1      35.934  33.600  28.661  1.00  0.00     0.202 C 
BRANCH   4   5
ATOM      5  C   UNL A   1      36.325  32.193  28.211  1.00  0.00     0.261 C 
BRANCH   5   6
ATOM      6  O   UNL A   1      35.262  31.301  27.823  1.00  0.00    -0.461 OA
BRANCH   6   7
ATOM      7  C   UNL A   1      35.268  29.953  27.935  1.00  0.00     0.344 C 
ATOM      8  O   UNL A   1      35.819  29.426  28.897  1.00  0.00    -0.248 OA
BRANCH   7   9
ATOM      9  C   UNL A   1      34.602  29.136  26.838  1.00  0.00     0.353 C 
BRANCH   9  10
ATOM     10  O   UNL A   1      33.211  29.440  26.715  1.00  0.00    -0.466 OA
BRANCH  10  11
ATOM     11  C   UNL A   1      32.831  29.003  25.482  1.00  0.00     0.219 A 
ATOM     12  C   UNL A   1      31.890  29.692  24.783  1.00  0.00     0.097 A 
ATOM     13  N   UNL A   1      33.210  27.770  25.224  1.00  0.00    -0.177 NA
ATOM     14  C   UNL A   1      31.155  28.928  23.911  1.00  0.00     0.080 A 
ATOM     15  C   UNL A   1      32.569  27.128  24.253  1.00  0.00     0.231 A 
ATOM     16  N   UNL A   1      31.508  27.650  23.601  1.00  0.00    -0.212 NA
BRANCH  14  17
ATOM     17  C   UNL A   1      29.827  29.444  23.511  1.00  0.00     0.004 A 
ATOM     18  C   UNL A   1      29.478  30.792  23.712  1.00  0.00     0.030 A 
ATOM     19  C   UNL A   1      28.804  28.575  23.114  1.00  0.00     0.030 A 
ATOM     20  C   UNL A   1      28.162  31.195  23.542  1.00  0.00     0.111 A 
ATOM     21  C   UNL A   1      27.516  29.073  22.962  1.00  0.00     0.111 A 
ATOM     22  N   UNL A   1      27.174  30.363  23.167  1.00  0.00    -0.265 NA
ENDBRANCH  14  17
BRANCH  15  23
ATOM     23  N   UNL A   1      33.080  25.867  23.929  1.00  0.00    -0.323 N 
ATOM     24  H   UNL A   1      33.733  25.791  23.197  1.00  0.00     0.170 HD
BRANCH  23  25
ATOM     25  C   UNL A   1      32.687  24.694  24.621  1.00  0.00     0.055 A 
ATOM     26  C   UNL A   1      31.470  24.697  25.323  1.00  0.00     0.027 A 
ATOM     27  C   UNL A   1      33.341  23.454  24.448  1.00  0.00     0.041 A 
ATOM     28  C   UNL A   1      30.925  23.510  25.830  1.00  0.00     0.002 A 
ATOM     29  C   UNL A   1      32.800  22.269  24.966  1.00  0.00     0.018 A 
ATOM     30  Br  UNL A   1      34.998  23.312  23.517  1.00  0.00    -0.049 Br
ATOM     31  C   UNL A   1      31.589  22.298  25.651  1.00  0.00     0.001 A 
ENDBRANCH  23  25
ENDBRANCH  15  23
ENDBRANCH  10  11
ENDBRANCH   9  10
ENDBRANCH   7   9
ENDBRANCH   6   7
ENDBRANCH   5   6
ENDBRANCH   4   5
ENDBRANCH   3   4
ENDBRANCH   2   3
ENDBRANCH   1   2
BRANCH   1  32
ATOM     32  O   UNL A   1      33.276  36.622  30.395  1.00  0.00    -0.377 OA
BRANCH  32  33
ATOM     33  C   UNL A   1      33.067  36.657  31.795  1.00  0.00     0.188 C 
BRANCH  33  34
ATOM     34  C   UNL A   1      34.360  36.705  32.637  1.00  0.00     0.188 C 
BRANCH  34  35
ATOM     35  O   UNL A   1      34.529  35.909  33.797  1.00  0.00    -0.376 OA
BRANCH  35  36
ATOM     36  C   UNL A   1      35.426  34.815  33.850  1.00  0.00     0.202 C 
BRANCH  36  37
ATOM     37  C   UNL A   1      35.045  33.354  33.563  1.00  0.00     0.261 C 
BRANCH  37  38
ATOM     38  O   UNL A   1      36.086  32.384  33.592  1.00  0.00    -0.460 OA
BRANCH  38  39
ATOM     39  C   UNL A   1      36.202  31.616  32.490  1.00  0.00     0.338 C 
ATOM     40  O   UNL A   1      35.444  31.557  31.536  1.00  0.00    -0.246 OA
BRANCH  39  41
ATOM     41  C   UNL A   1      37.536  30.991  32.534  1.00  0.00     0.060 A 
ATOM     42  C   UNL A   1      38.498  31.509  33.414  1.00  0.00     0.016 A 
ATOM     43  C   UNL A   1      37.818  29.880  31.736  1.00  0.00     0.016 A 
ATOM     44  C   UNL A   1      39.762  30.935  33.482  1.00  0.00     0.010 A 
ATOM     45  C   UNL A   1      39.100  29.338  31.764  1.00  0.00     0.010 A 
ATOM     46  C   UNL A   1      40.081  29.893  32.605  1.00  0.00    -0.014 A 
BRANCH  46  47
ATOM     47  C   UNL A   1      41.498  29.597  32.324  1.00  0.00     0.031 A 
ATOM     48  C   UNL A   1      42.192  30.476  31.324  1.00  0.00     0.074 A 
ATOM     49  C   UNL A   1      42.138  28.575  32.911  1.00  0.00     0.049 A 
ATOM     50  N   UNL A   1      43.369  30.346  30.775  1.00  0.00    -0.248 NA
ATOM     51  C   UNL A   1      41.438  31.660  30.871  1.00  0.00     0.031 C 
ATOM     52  C   UNL A   1      41.578  27.701  33.938  1.00  0.00     0.029 A 
ATOM     53  N   UNL A   1      43.400  28.088  32.695  1.00  0.00    -0.354 N 
ATOM     54  C   UNL A   1      43.485  31.413  29.894  1.00  0.00     0.074 A 
ATOM     55  C   UNL A   1      42.256  32.168  29.964  1.00  0.00     0.031 C 
ATOM     56  C   UNL A   1      42.487  26.757  34.241  1.00  0.00     0.029 A 
ATOM     57  C   UNL A   1      43.667  26.940  33.396  1.00  0.00     0.049 A 
ATOM     58  H   UNL A   1      44.051  28.520  32.097  1.00  0.00     0.167 HD
ATOM     59  C   UNL A   1      44.527  31.731  29.094  1.00  0.00     0.037 A 
ATOM     60  C   UNL A   1      44.726  26.112  33.322  1.00  0.00     0.037 A 
ATOM     61  C   UNL A   1      45.738  30.960  29.024  1.00  0.00     0.049 A 
ATOM     62  C   UNL A   1      45.845  26.436  32.365  1.00  0.00     0.074 A 
ATOM     63  C   UNL A   1      46.864  31.190  28.257  1.00  0.00     0.029 A 
ATOM     64  N   UNL A   1      45.969  29.795  29.743  1.00  0.00    -0.354 N 
ATOM     65  N   UNL A   1      45.961  27.449  31.538  1.00  0.00    -0.248 NA
ATOM     66  C   UNL A   1      46.979  25.503  32.328  1.00  0.00     0.031 C 
ATOM     67  C   UNL A   1      47.752  30.131  28.465  1.00  0.00     0.029 A 
ATOM     68  C   UNL A   1      47.211  29.279  29.417  1.00  0.00     0.049 A 
ATOM     69  H   UNL A   1      45.342  29.395  30.389  1.00  0.00     0.167 HD
ATOM     70  C   UNL A   1      47.195  27.296  30.915  1.00  0.00     0.074 A 
ATOM     71  C   UNL A   1      47.787  26.092  31.458  1.00  0.00     0.031 C 
ATOM     72  C   UNL A   1      47.788  28.087  29.985  1.00  0.00     0.037 A 
BRANCH  59  73
ATOM     73  C   UNL A   1      44.367  32.927  28.201  1.00  0.00     0.057 A 
ATOM     74  C   UNL A   1      44.516  34.238  28.673  1.00  0.00     0.134 A 
ATOM     75  C   UNL A   1      44.040  32.761  26.850  1.00  0.00     0.134 A 
ATOM     76  F   UNL A   1      44.806  34.468  29.963  1.00  0.00    -0.206 F 
ATOM     77  C   UNL A   1      44.309  35.341  27.842  1.00  0.00     0.040 A 
ATOM     78  C   UNL A   1      43.865  33.855  26.001  1.00  0.00     0.040 A 
ATOM     79  F   UNL A   1      43.880  31.534  26.332  1.00  0.00    -0.206 F 
ATOM     80  C   UNL A   1      43.989  35.150  26.500  1.00  0.00     0.006 A 
ENDBRANCH  59  73
BRANCH  60  81
ATOM     81  C   UNL A   1      44.770  24.892  34.165  1.00  0.00     0.057 A 
ATOM     82  C   UNL A   1      45.264  24.933  35.473  1.00  0.00     0.134 A 
ATOM     83  C   UNL A   1      44.311  23.657  33.688  1.00  0.00     0.134 A 
ATOM     84  F   UNL A   1      45.736  26.081  35.981  1.00  0.00    -0.206 F 
ATOM     85  C   UNL A   1      45.312  23.790  36.274  1.00  0.00     0.040 A 
ATOM     86  C   UNL A   1      44.329  22.512  34.485  1.00  0.00     0.040 A 
ATOM     87  F   UNL A   1      43.821  23.552  32.444  1.00  0.00    -0.206 F 
ATOM     88  C   UNL A   1      44.837  22.576  35.782  1.00  0.00     0.006 A 
ENDBRANCH  60  81
BRANCH  72  89
ATOM     89  C   UNL A   1      49.175  27.720  29.541  1.00  0.00     0.057 A 
ATOM     90  C   UNL A   1      50.319  28.158  30.218  1.00  0.00     0.134 A 
ATOM     91  C   UNL A   1      49.359  26.848  28.459  1.00  0.00     0.134 A 
ATOM     92  F   UNL A   1      50.213  29.000  31.257  1.00  0.00    -0.206 F 
ATOM     93  C   UNL A   1      51.597  27.754  29.826  1.00  0.00     0.040 A 
ATOM     94  C   UNL A   1      50.628  26.414  28.076  1.00  0.00     0.040 A 
ATOM     95  F   UNL A   1      48.305  26.381  27.772  1.00  0.00    -0.206 F 
ATOM     96  C   UNL A   1      51.753  26.871  28.759  1.00  0.00     0.006 A 
ENDBRANCH  72  89
ENDBRANCH  46  47
ENDBRANCH  39  41
ENDBRANCH  38  39
ENDBRANCH  37  38
ENDBRANCH  36  37
ENDBRANCH  35  36
ENDBRANCH  34  35
ENDBRANCH  33  34
ENDBRANCH  32  33
ENDBRANCH   1  32
TORSDOF 25
ENDMDL
MODEL 3
REMARK VINA RESULT:      -7.7      4.998     10.377
REMARK SMILES O=C(COc1cc(-c2ccncc2)nc(Nc2ccccc2Br)n1)OCCOCCOCCOCCOC(=O)c1ccc(-c2c3nc(c(-c4c(F)cccc4F)c4ccc([nH]4)c(-c4c(F)cccc4F)c4nc(c(-c5c(F)cccc5F)c5ccc2[nH]5)C=C4)C=C3)cc1
REMARK SMILES IDX 30 1 29 2 28 3 27 4 26 5 25 6 2 7 1 8 3 9 4 10 5 11 6 12
REMARK SMILES IDX 24 13 7 14 15 15 14 16 8 17 9 18 13 19 10 20 12 21 11 22
REMARK SMILES IDX 16 23 17 25 18 26 22 27 19 28 21 29 23 30 20 31 31 32 32 33
REMARK SMILES IDX 33 34 34 35 35 36 36 37 37 38 38 39 39 40 40 41 41 42 93 43
REMARK SMILES IDX 42 44 92 45 43 46 44 47 45 48 86 49 46 50 91 51 85 52 87 53
REMARK SMILES IDX 47 54 90 55 84 56 83 57 48 59 74 60 57 61 73 62 58 63 61 64
REMARK SMILES IDX 72 65 88 66 59 67 60 68 71 70 89 71 62 72 49 73 50 74 55 75
REMARK SMILES IDX 51 76 52 77 54 78 56 79 53 80 75 81 76 82 81 83 77 84 78 85
REMARK SMILES IDX 80 86 82 87 79 88 63 89 64 90 69 91 65 92 66 93 68 94 70 95
REMARK SMILES IDX 67 96
REMARK H PARENT 16 24 87 58 61 69
REMARK Flexibility Score: inf
ROOT
ATOM      1  C   UNL A   1      32.943  35.251  29.281  1.00  0.00     0.188 C 
ENDROOT
BRANCH   1   2
ATOM      2  C   UNL A   1      34.286  35.007  28.575  1.00  0.00     0.188 C 
BRANCH   2   3
ATOM      3  O   UNL A   1      35.095  33.968  29.096  1.00  0.00    -0.376 OA
BRANCH   3   4
ATOM      4  C   UNL A   1      36.340  33.527  28.599  1.00  0.00     0.202 C 
BRANCH   4   5
ATOM      5  C   UNL A   1      36.522  32.124  28.018  1.00  0.00     0.261 C 
BRANCH   5   6
ATOM      6  O   UNL A   1      35.334  31.409  27.628  1.00  0.00    -0.461 OA
BRANCH   6   7
ATOM      7  C   UNL A   1      35.137  30.074  27.720  1.00  0.00     0.344 C 
ATOM      8  O   UNL A   1      35.292  29.511  28.800  1.00  0.00    -0.248 OA
BRANCH   7   9
ATOM      9  C   UNL A   1      34.750  29.313  26.460  1.00  0.00     0.353 C 
BRANCH   9  10
ATOM     10  O   UNL A   1      33.335  29.138  26.357  1.00  0.00    -0.466 OA
BRANCH  10  11
ATOM     11  C   UNL A   1      33.105  28.603  25.125  1.00  0.00     0.219 A 
ATOM     12  C   UNL A   1      32.203  29.188  24.294  1.00  0.00     0.097 A 
ATOM     13  N   UNL A   1      33.574  27.381  24.990  1.00  0.00    -0.177 NA
ATOM     14  C   UNL A   1      31.602  28.329  23.408  1.00  0.00     0.080 A 
ATOM     15  C   UNL A   1      33.069  26.643  24.007  1.00  0.00     0.231 A 
ATOM     16  N   UNL A   1      32.053  27.057  23.222  1.00  0.00    -0.212 NA
BRANCH  14  17
ATOM     17  C   UNL A   1      30.294  28.737  22.847  1.00  0.00     0.004 A 
ATOM     18  C   UNL A   1      30.177  29.876  22.030  1.00  0.00     0.030 A 
ATOM     19  C   UNL A   1      29.106  28.135  23.273  1.00  0.00     0.030 A 
ATOM     20  C   UNL A   1      28.920  30.364  21.707  1.00  0.00     0.111 A 
ATOM     21  C   UNL A   1      27.892  28.693  22.891  1.00  0.00     0.111 A 
ATOM     22  N   UNL A   1      27.774  29.793  22.118  1.00  0.00    -0.265 NA
ENDBRANCH  14  17
BRANCH  15  23
ATOM     23  N   UNL A   1      33.677  25.396  23.821  1.00  0.00    -0.323 N 
ATOM     24  H   UNL A   1      34.233  25.253  23.021  1.00  0.00     0.170 HD
BRANCH  23  25
ATOM     25  C   UNL A   1      33.519  24.334  24.745  1.00  0.00     0.055 A 
ATOM     26  C   UNL A   1      34.495  24.150  25.739  1.00  0.00     0.027 A 
ATOM     27  C   UNL A   1      32.319  23.600  24.863  1.00  0.00     0.041 A 
ATOM     28  C   UNL A   1      34.282  23.271  26.808  1.00  0.00     0.002 A 
ATOM     29  C   UNL A   1      32.111  22.712  25.927  1.00  0.00     0.018 A 
ATOM     30  Br  UNL A   1      30.915  23.756  23.583  1.00  0.00    -0.049 Br
ATOM     31  C   UNL A   1      33.091  22.553  26.903  1.00  0.00     0.001 A 
ENDBRANCH  23  25
ENDBRANCH  15  23
ENDBRANCH  10  11
ENDBRANCH   9  10
ENDBRANCH   7   9
ENDBRANCH   6   7
ENDBRANCH   5   6
ENDBRANCH   4   5
ENDBRANCH   3   4
ENDBRANCH   2   3
ENDBRANCH   1   2
BRANCH   1  32
ATOM     32  O   UNL A   1      32.976  36.156  30.379  1.00  0.00    -0.377 OA
BRANCH  32  33
ATOM     33  C   UNL A   1      32.988  35.542  31.654  1.00  0.00     0.188 C 
BRANCH  33  34
ATOM     34  C   UNL A   1      34.278  35.779  32.470  1.00  0.00     0.188 C 
BRANCH  34  35
ATOM     35  O   UNL A   1      34.698  34.885  33.484  1.00  0.00    -0.376 OA
BRANCH  35  36
ATOM     36  C   UNL A   1      35.856  34.080  33.365  1.00  0.00     0.202 C 
BRANCH  36  37
ATOM     37  C   UNL A   1      35.849  32.557  33.158  1.00  0.00     0.261 C 
BRANCH  37  38
ATOM     38  O   UNL A   1      37.080  31.863  33.327  1.00  0.00    -0.460 OA
BRANCH  38  39
ATOM     39  C   UNL A   1      37.205  30.716  32.632  1.00  0.00     0.338 C 
ATOM     40  O   UNL A   1      36.361  29.853  32.452  1.00  0.00    -0.246 OA
BRANCH  39  41
ATOM     41  C   UNL A   1      38.503  30.768  31.936  1.00  0.00     0.060 A 
ATOM     42  C   UNL A   1      38.531  31.133  30.581  1.00  0.00     0.016 A 
ATOM     43  C   UNL A   1      39.684  30.492  32.628  1.00  0.00     0.016 A 
ATOM     44  C   UNL A   1      39.741  31.198  29.901  1.00  0.00     0.010 A 
ATOM     45  C   UNL A   1      40.891  30.505  31.935  1.00  0.00     0.010 A 
ATOM     46  C   UNL A   1      40.912  30.816  30.563  1.00  0.00    -0.014 A 
BRANCH  46  47
ATOM     47  C   UNL A   1      42.091  30.424  29.770  1.00  0.00     0.031 A 
ATOM     48  C   UNL A   1      42.124  29.016  29.249  1.00  0.00     0.074 A 
ATOM     49  C   UNL A   1      43.105  31.272  29.543  1.00  0.00     0.049 A 
ATOM     50  N   UNL A   1      43.096  28.364  28.670  1.00  0.00    -0.248 NA
ATOM     51  C   UNL A   1      40.887  28.233  29.423  1.00  0.00     0.031 C 
ATOM     52  C   UNL A   1      43.147  32.673  29.948  1.00  0.00     0.029 A 
ATOM     53  N   UNL A   1      44.313  31.054  28.932  1.00  0.00    -0.354 N 
ATOM     54  C   UNL A   1      42.597  27.089  28.437  1.00  0.00     0.074 A 
ATOM     55  C   UNL A   1      41.248  27.051  28.953  1.00  0.00     0.031 C 
ATOM     56  C   UNL A   1      44.341  33.185  29.604  1.00  0.00     0.029 A 
ATOM     57  C   UNL A   1      45.157  32.133  28.998  1.00  0.00     0.049 A 
ATOM     58  H   UNL A   1      44.550  30.208  28.490  1.00  0.00     0.167 HD
ATOM     59  C   UNL A   1      43.214  26.042  27.846  1.00  0.00     0.037 A 
ATOM     60  C   UNL A   1      46.453  32.236  28.647  1.00  0.00     0.037 A 
ATOM     61  C   UNL A   1      44.563  26.091  27.352  1.00  0.00     0.049 A 
ATOM     62  C   UNL A   1      47.152  31.033  28.064  1.00  0.00     0.074 A 
ATOM     63  C   UNL A   1      45.289  25.096  26.728  1.00  0.00     0.029 A 
ATOM     64  N   UNL A   1      45.392  27.200  27.445  1.00  0.00    -0.354 N 
ATOM     65  N   UNL A   1      46.680  29.831  27.834  1.00  0.00    -0.248 NA
ATOM     66  C   UNL A   1      48.564  31.202  27.694  1.00  0.00     0.031 C 
ATOM     67  C   UNL A   1      46.580  25.582  26.498  1.00  0.00     0.029 A 
ATOM     68  C   UNL A   1      46.634  26.905  26.912  1.00  0.00     0.049 A 
ATOM     69  H   UNL A   1      45.134  28.069  27.831  1.00  0.00     0.167 HD
ATOM     70  C   UNL A   1      47.721  29.113  27.256  1.00  0.00     0.074 A 
ATOM     71  C   UNL A   1      48.850  30.016  27.174  1.00  0.00     0.031 C 
ATOM     72  C   UNL A   1      47.739  27.827  26.824  1.00  0.00     0.037 A 
BRANCH  59  73
ATOM     73  C   UNL A   1      42.449  24.753  27.761  1.00  0.00     0.057 A 
ATOM     74  C   UNL A   1      41.540  24.490  26.728  1.00  0.00     0.134 A 
ATOM     75  C   UNL A   1      42.613  23.768  28.742  1.00  0.00     0.134 A 
ATOM     76  F   UNL A   1      41.317  25.402  25.768  1.00  0.00    -0.206 F 
ATOM     77  C   UNL A   1      40.795  23.309  26.694  1.00  0.00     0.040 A 
ATOM     78  C   UNL A   1      41.900  22.569  28.700  1.00  0.00     0.040 A 
ATOM     79  F   UNL A   1      43.465  23.955  29.761  1.00  0.00    -0.206 F 
ATOM     80  C   UNL A   1      40.980  22.343  27.679  1.00  0.00     0.006 A 
ENDBRANCH  59  73
BRANCH  60  81
ATOM     81  C   UNL A   1      47.174  33.515  28.853  1.00  0.00     0.057 A 
ATOM     82  C   UNL A   1      47.834  33.788  30.056  1.00  0.00     0.134 A 
ATOM     83  C   UNL A   1      47.229  34.493  27.851  1.00  0.00     0.134 A 
ATOM     84  F   UNL A   1      47.801  32.900  31.060  1.00  0.00    -0.206 F 
ATOM     85  C   UNL A   1      48.513  34.991  30.261  1.00  0.00     0.040 A 
ATOM     86  C   UNL A   1      47.925  35.688  28.034  1.00  0.00     0.040 A 
ATOM     87  F   UNL A   1      46.620  34.291  26.673  1.00  0.00    -0.206 F 
ATOM     88  C   UNL A   1      48.565  35.943  29.245  1.00  0.00     0.006 A 
ENDBRANCH  60  81
BRANCH  72  89
ATOM     89  C   UNL A   1      48.992  27.332  26.160  1.00  0.00     0.057 A 
ATOM     90  C   UNL A   1      50.060  26.789  26.885  1.00  0.00     0.134 A 
ATOM     91  C   UNL A   1      49.092  27.329  24.762  1.00  0.00     0.134 A 
ATOM     92  F   UNL A   1      50.031  26.769  28.226  1.00  0.00    -0.206 F 
ATOM     93  C   UNL A   1      51.189  26.277  26.243  1.00  0.00     0.040 A 
ATOM     94  C   UNL A   1      50.201  26.793  24.109  1.00  0.00     0.040 A 
ATOM     95  F   UNL A   1      48.100  27.824  24.006  1.00  0.00    -0.206 F 
ATOM     96  C   UNL A   1      51.257  26.268  24.851  1.00  0.00     0.006 A 
ENDBRANCH  72  89
ENDBRANCH  46  47
ENDBRANCH  39  41
ENDBRANCH  38  39
ENDBRANCH  37  38
ENDBRANCH  36  37
ENDBRANCH  35  36
ENDBRANCH  34  35
ENDBRANCH  33  34
ENDBRANCH  32  33
ENDBRANCH   1  32
TORSDOF 25
ENDMDL
