MODEL 1
REMARK VINA RESULT:      -9.5      0.000      0.000
REMARK SMILES C[C@H](CNS(=O)(=O)c1ccc(C(=O)OCCOCCOCCOCCOC(=O)c2ccc(-c3c4nc(c(-c5c(F)cccc5F)c5ccc([nH]5)c(-c5c(F)cccc5F)c5nc(c(-c6c(F)cccc6F)c6ccc3[nH]6)C=C5)C=C4)cc2)o1)c1ccccc1
REMARK SMILES IDX 18 1 17 2 16 3 15 4 14 5 12 6 13 7 11 8 8 9 9 10 83 11 10 12
REMARK SMILES IDX 5 13 6 14 7 15 4 16 3 18 2 19 1 20 84 21 85 22 89 23 86 24
REMARK SMILES IDX 88 25 87 26 19 27 20 28 21 29 22 30 23 31 24 32 25 33 26 34
REMARK SMILES IDX 27 35 28 36 29 37 30 38 82 39 31 40 81 41 32 42 33 43 34 44
REMARK SMILES IDX 75 45 35 46 80 47 74 48 76 49 36 50 79 51 73 52 72 53 37 55
REMARK SMILES IDX 63 56 46 57 62 58 47 59 50 60 61 61 77 62 48 63 49 64 60 66
REMARK SMILES IDX 78 67 51 68 38 69 39 70 44 71 40 72 41 73 43 74 45 75 42 76
REMARK SMILES IDX 64 77 65 78 70 79 66 80 67 81 69 82 71 83 68 84 52 85 53 86
REMARK SMILES IDX 58 87 54 88 55 89 57 90 59 91 56 92
REMARK H PARENT 4 17 76 54 50 65
REMARK Flexibility Score: inf
ROOT
ATOM      1  C   UNL A   1      40.215  19.869  26.229  1.00  0.00     0.188 C 
ENDROOT
BRANCH   1   2
ATOM      2  O   UNL A   1      39.300  19.197  25.367  1.00  0.00    -0.376 OA
BRANCH   2   3
ATOM      3  C   UNL A   1      38.142  19.909  24.953  1.00  0.00     0.202 C 
BRANCH   3   4
ATOM      4  C   UNL A   1      37.809  21.233  25.663  1.00  0.00     0.261 C 
BRANCH   4   5
ATOM      5  O   UNL A   1      36.947  22.138  24.955  1.00  0.00    -0.457 OA
BRANCH   5   6
ATOM      6  C   UNL A   1      36.976  23.451  25.294  1.00  0.00     0.374 C 
ATOM      7  O   UNL A   1      37.968  24.040  25.708  1.00  0.00    -0.242 OA
BRANCH   6   8
ATOM      8  C   UNL A   1      35.704  24.043  24.934  1.00  0.00     0.213 A 
ATOM      9  C   UNL A   1      33.870  24.270  23.676  1.00  0.00     0.234 A 
ATOM     10  C   UNL A   1      33.683  25.012  24.836  1.00  0.00     0.065 A 
ATOM     11  O   UNL A   1      35.120  23.683  23.751  1.00  0.00    -0.436 OA
ATOM     12  C   UNL A   1      34.843  24.871  25.631  1.00  0.00     0.060 A 
BRANCH   9  13
ATOM     13  S   UNL A   1      32.798  24.032  22.258  1.00  0.00     0.274 S 
ATOM     14  O   UNL A   1      33.631  23.504  21.203  1.00  0.00    -0.204 OA
ATOM     15  O   UNL A   1      32.085  25.282  22.107  1.00  0.00    -0.204 OA
BRANCH  13  16
ATOM     16  N   UNL A   1      31.624  22.863  22.616  1.00  0.00    -0.208 NA
ATOM     17  H   UNL A   1      31.228  23.093  23.528  1.00  0.00     0.141 HD
BRANCH  16  18
ATOM     18  C   UNL A   1      32.074  21.451  22.668  1.00  0.00     0.107 C 
BRANCH  18  19
ATOM     19  C   UNL A   1      32.527  21.005  24.084  1.00  0.00     0.031 C 
ATOM     20  C   UNL A   1      31.697  21.570  25.243  1.00  0.00     0.014 C 
BRANCH  19  21
ATOM     21  C   UNL A   1      32.669  19.493  24.210  1.00  0.00    -0.044 A 
ATOM     22  C   UNL A   1      32.850  18.923  25.482  1.00  0.00     0.004 A 
ATOM     23  C   UNL A   1      32.625  18.640  23.098  1.00  0.00     0.004 A 
ATOM     24  C   UNL A   1      32.999  17.542  25.636  1.00  0.00     0.000 A 
ATOM     25  C   UNL A   1      32.773  17.259  23.254  1.00  0.00     0.000 A 
ATOM     26  C   UNL A   1      32.963  16.711  24.520  1.00  0.00     0.000 A 
ENDBRANCH  19  21
ENDBRANCH  18  19
ENDBRANCH  16  18
ENDBRANCH  13  16
ENDBRANCH   9  13
ENDBRANCH   6   8
ENDBRANCH   5   6
ENDBRANCH   4   5
ENDBRANCH   3   4
ENDBRANCH   2   3
ENDBRANCH   1   2
BRANCH   1  27
ATOM     27  C   UNL A   1      41.653  19.345  26.085  1.00  0.00     0.188 C 
BRANCH  27  28
ATOM     28  O   UNL A   1      42.565  20.365  25.706  1.00  0.00    -0.377 OA
BRANCH  28  29
ATOM     29  C   UNL A   1      42.107  21.715  25.800  1.00  0.00     0.188 C 
BRANCH  29  30
ATOM     30  C   UNL A   1      43.091  22.906  25.721  1.00  0.00     0.188 C 
BRANCH  30  31
ATOM     31  O   UNL A   1      44.296  22.714  26.461  1.00  0.00    -0.376 OA
BRANCH  31  32
ATOM     32  C   UNL A   1      45.496  22.596  25.705  1.00  0.00     0.202 C 
BRANCH  32  33
ATOM     33  C   UNL A   1      45.999  23.932  25.145  1.00  0.00     0.261 C 
BRANCH  33  34
ATOM     34  O   UNL A   1      46.041  25.005  26.098  1.00  0.00    -0.460 OA
BRANCH  34  35
ATOM     35  C   UNL A   1      45.703  26.235  25.651  1.00  0.00     0.338 C 
ATOM     36  O   UNL A   1      45.958  26.724  24.567  1.00  0.00    -0.246 OA
BRANCH  35  37
ATOM     37  C   UNL A   1      44.800  26.842  26.646  1.00  0.00     0.060 A 
ATOM     38  C   UNL A   1      44.800  28.235  26.794  1.00  0.00     0.016 A 
ATOM     39  C   UNL A   1      43.972  26.041  27.434  1.00  0.00     0.016 A 
ATOM     40  C   UNL A   1      43.997  28.828  27.770  1.00  0.00     0.010 A 
ATOM     41  C   UNL A   1      43.180  26.634  28.418  1.00  0.00     0.010 A 
ATOM     42  C   UNL A   1      43.217  28.025  28.613  1.00  0.00    -0.014 A 
BRANCH  42  43
ATOM     43  C   UNL A   1      42.593  28.609  29.823  1.00  0.00     0.031 A 
ATOM     44  C   UNL A   1      41.246  29.262  29.684  1.00  0.00     0.074 A 
ATOM     45  C   UNL A   1      43.207  28.568  31.017  1.00  0.00     0.049 A 
ATOM     46  N   UNL A   1      40.528  29.887  30.581  1.00  0.00    -0.248 NA
ATOM     47  C   UNL A   1      40.627  29.204  28.348  1.00  0.00     0.031 C 
ATOM     48  C   UNL A   1      44.498  27.938  31.285  1.00  0.00     0.029 A 
ATOM     49  N   UNL A   1      42.821  29.082  32.230  1.00  0.00    -0.354 N 
ATOM     50  C   UNL A   1      39.377  30.296  29.920  1.00  0.00     0.074 A 
ATOM     51  C   UNL A   1      39.504  29.879  28.541  1.00  0.00     0.031 C 
ATOM     52  C   UNL A   1      44.805  28.114  32.583  1.00  0.00     0.029 A 
ATOM     53  C   UNL A   1      43.745  28.891  33.227  1.00  0.00     0.049 A 
ATOM     54  H   UNL A   1      41.962  29.542  32.371  1.00  0.00     0.167 HD
ATOM     55  C   UNL A   1      38.303  30.952  30.420  1.00  0.00     0.037 A 
ATOM     56  C   UNL A   1      43.742  29.315  34.505  1.00  0.00     0.037 A 
ATOM     57  C   UNL A   1      38.180  31.378  31.787  1.00  0.00     0.049 A 
ATOM     58  C   UNL A   1      42.570  30.113  35.019  1.00  0.00     0.074 A 
ATOM     59  C   UNL A   1      37.127  32.040  32.393  1.00  0.00     0.029 A 
ATOM     60  N   UNL A   1      39.150  31.191  32.760  1.00  0.00    -0.354 N 
ATOM     61  N   UNL A   1      41.473  30.468  34.395  1.00  0.00    -0.248 NA
ATOM     62  C   UNL A   1      42.640  30.568  36.415  1.00  0.00     0.031 C 
ATOM     63  C   UNL A   1      37.478  32.293  33.723  1.00  0.00     0.029 A 
ATOM     64  C   UNL A   1      38.730  31.746  33.957  1.00  0.00     0.049 A 
ATOM     65  H   UNL A   1      40.009  30.731  32.621  1.00  0.00     0.167 HD
ATOM     66  C   UNL A   1      40.709  31.160  35.330  1.00  0.00     0.074 A 
ATOM     67  C   UNL A   1      41.465  31.166  36.564  1.00  0.00     0.031 C 
ATOM     68  C   UNL A   1      39.491  31.735  35.180  1.00  0.00     0.037 A 
BRANCH  55  69
ATOM     69  C   UNL A   1      37.189  31.270  29.467  1.00  0.00     0.057 A 
ATOM     70  C   UNL A   1      37.080  32.523  28.851  1.00  0.00     0.134 A 
ATOM     71  C   UNL A   1      36.224  30.307  29.151  1.00  0.00     0.134 A 
ATOM     72  F   UNL A   1      37.963  33.496  29.127  1.00  0.00    -0.206 F 
ATOM     73  C   UNL A   1      36.037  32.814  27.971  1.00  0.00     0.040 A 
ATOM     74  C   UNL A   1      35.189  30.578  28.255  1.00  0.00     0.040 A 
ATOM     75  F   UNL A   1      36.271  29.086  29.707  1.00  0.00    -0.206 F 
ATOM     76  C   UNL A   1      35.091  31.837  27.666  1.00  0.00     0.006 A 
ENDBRANCH  55  69
BRANCH  56  77
ATOM     77  C   UNL A   1      44.888  29.008  35.396  1.00  0.00     0.057 A 
ATOM     78  C   UNL A   1      45.957  29.901  35.535  1.00  0.00     0.134 A 
ATOM     79  C   UNL A   1      44.958  27.803  36.105  1.00  0.00     0.134 A 
ATOM     80  F   UNL A   1      45.959  31.061  34.862  1.00  0.00    -0.206 F 
ATOM     81  C   UNL A   1      47.063  29.600  36.333  1.00  0.00     0.040 A 
ATOM     82  C   UNL A   1      46.046  27.498  36.924  1.00  0.00     0.040 A 
ATOM     83  F   UNL A   1      43.967  26.904  36.012  1.00  0.00    -0.206 F 
ATOM     84  C   UNL A   1      47.107  28.397  37.034  1.00  0.00     0.006 A 
ENDBRANCH  56  77
BRANCH  68  85
ATOM     85  C   UNL A   1      38.880  32.384  36.388  1.00  0.00     0.057 A 
ATOM     86  C   UNL A   1      38.058  31.675  37.274  1.00  0.00     0.134 A 
ATOM     87  C   UNL A   1      39.158  33.723  36.694  1.00  0.00     0.134 A 
ATOM     88  F   UNL A   1      37.744  30.394  37.031  1.00  0.00    -0.206 F 
ATOM     89  C   UNL A   1      37.519  32.282  38.410  1.00  0.00     0.040 A 
ATOM     90  C   UNL A   1      38.647  34.332  37.841  1.00  0.00     0.040 A 
ATOM     91  F   UNL A   1      39.947  34.454  35.892  1.00  0.00    -0.206 F 
ATOM     92  C   UNL A   1      37.819  33.612  38.699  1.00  0.00     0.006 A 
ENDBRANCH  68  85
ENDBRANCH  42  43
ENDBRANCH  35  37
ENDBRANCH  34  35
ENDBRANCH  33  34
ENDBRANCH  32  33
ENDBRANCH  31  32
ENDBRANCH  30  31
ENDBRANCH  29  30
ENDBRANCH  28  29
ENDBRANCH  27  28
ENDBRANCH   1  27
TORSDOF 25
ENDMDL
MODEL 2
REMARK VINA RESULT:      -9.3      2.177      6.902
REMARK SMILES C[C@H](CNS(=O)(=O)c1ccc(C(=O)OCCOCCOCCOCCOC(=O)c2ccc(-c3c4nc(c(-c5c(F)cccc5F)c5ccc([nH]5)c(-c5c(F)cccc5F)c5nc(c(-c6c(F)cccc6F)c6ccc3[nH]6)C=C5)C=C4)cc2)o1)c1ccccc1
REMARK SMILES IDX 18 1 17 2 16 3 15 4 14 5 12 6 13 7 11 8 8 9 9 10 83 11 10 12
REMARK SMILES IDX 5 13 6 14 7 15 4 16 3 18 2 19 1 20 84 21 85 22 89 23 86 24
REMARK SMILES IDX 88 25 87 26 19 27 20 28 21 29 22 30 23 31 24 32 25 33 26 34
REMARK SMILES IDX 27 35 28 36 29 37 30 38 82 39 31 40 81 41 32 42 33 43 34 44
REMARK SMILES IDX 75 45 35 46 80 47 74 48 76 49 36 50 79 51 73 52 72 53 37 55
REMARK SMILES IDX 63 56 46 57 62 58 47 59 50 60 61 61 77 62 48 63 49 64 60 66
REMARK SMILES IDX 78 67 51 68 38 69 39 70 44 71 40 72 41 73 43 74 45 75 42 76
REMARK SMILES IDX 64 77 65 78 70 79 66 80 67 81 69 82 71 83 68 84 52 85 53 86
REMARK SMILES IDX 58 87 54 88 55 89 57 90 59 91 56 92
REMARK H PARENT 4 17 76 54 50 65
REMARK Flexibility Score: inf
ROOT
ATOM      1  C   UNL A   1      41.353  20.705  27.306  1.00  0.00     0.188 C 
ENDROOT
BRANCH   1   2
ATOM      2  O   UNL A   1      40.134  20.276  26.705  1.00  0.00    -0.376 OA
BRANCH   2   3
ATOM      3  C   UNL A   1      39.629  21.044  25.621  1.00  0.00     0.202 C 
BRANCH   3   4
ATOM      4  C   UNL A   1      38.413  21.952  25.876  1.00  0.00     0.261 C 
BRANCH   4   5
ATOM      5  O   UNL A   1      37.331  21.850  24.937  1.00  0.00    -0.457 OA
BRANCH   5   6
ATOM      6  C   UNL A   1      36.324  20.982  25.207  1.00  0.00     0.374 C 
ATOM      7  O   UNL A   1      36.386  19.771  25.033  1.00  0.00    -0.242 OA
BRANCH   6   8
ATOM      8  C   UNL A   1      35.260  21.709  25.868  1.00  0.00     0.213 A 
ATOM      9  C   UNL A   1      33.737  23.336  26.043  1.00  0.00     0.234 A 
ATOM     10  C   UNL A   1      33.494  22.416  27.057  1.00  0.00     0.065 A 
ATOM     11  O   UNL A   1      34.828  22.887  25.323  1.00  0.00    -0.436 OA
ATOM     12  C   UNL A   1      34.459  21.389  26.948  1.00  0.00     0.060 A 
BRANCH   9  13
ATOM     13  S   UNL A   1      32.893  24.863  25.628  1.00  0.00     0.274 S 
ATOM     14  O   UNL A   1      31.780  24.973  26.542  1.00  0.00    -0.204 OA
ATOM     15  O   UNL A   1      32.696  24.811  24.196  1.00  0.00    -0.204 OA
BRANCH  13  16
ATOM     16  N   UNL A   1      33.920  26.182  25.913  1.00  0.00    -0.208 NA
ATOM     17  H   UNL A   1      34.272  26.098  26.867  1.00  0.00     0.141 HD
BRANCH  16  18
ATOM     18  C   UNL A   1      33.333  27.536  25.769  1.00  0.00     0.107 C 
BRANCH  18  19
ATOM     19  C   UNL A   1      31.825  27.590  26.134  1.00  0.00     0.031 C 
ATOM     20  C   UNL A   1      31.494  28.333  27.433  1.00  0.00     0.014 C 
BRANCH  19  21
ATOM     21  C   UNL A   1      30.959  28.097  24.987  1.00  0.00    -0.044 A 
ATOM     22  C   UNL A   1      30.068  27.211  24.354  1.00  0.00     0.004 A 
ATOM     23  C   UNL A   1      31.013  29.422  24.535  1.00  0.00     0.004 A 
ATOM     24  C   UNL A   1      29.269  27.635  23.291  1.00  0.00     0.000 A 
ATOM     25  C   UNL A   1      30.211  29.845  23.471  1.00  0.00     0.000 A 
ATOM     26  C   UNL A   1      29.343  28.953  22.847  1.00  0.00     0.000 A 
ENDBRANCH  19  21
ENDBRANCH  18  19
ENDBRANCH  16  18
ENDBRANCH  13  16
ENDBRANCH   9  13
ENDBRANCH   6   8
ENDBRANCH   5   6
ENDBRANCH   4   5
ENDBRANCH   3   4
ENDBRANCH   2   3
ENDBRANCH   1   2
BRANCH   1  27
ATOM     27  C   UNL A   1      42.325  19.540  27.560  1.00  0.00     0.188 C 
BRANCH  27  28
ATOM     28  O   UNL A   1      42.664  18.850  26.367  1.00  0.00    -0.377 OA
BRANCH  28  29
ATOM     29  C   UNL A   1      43.365  19.587  25.365  1.00  0.00     0.188 C 
BRANCH  29  30
ATOM     30  C   UNL A   1      44.907  19.544  25.263  1.00  0.00     0.188 C 
BRANCH  30  31
ATOM     31  O   UNL A   1      45.461  20.541  24.406  1.00  0.00    -0.376 OA
BRANCH  31  32
ATOM     32  C   UNL A   1      44.538  21.401  23.747  1.00  0.00     0.202 C 
BRANCH  32  33
ATOM     33  C   UNL A   1      44.839  22.891  23.947  1.00  0.00     0.261 C 
BRANCH  33  34
ATOM     34  O   UNL A   1      44.072  23.524  24.983  1.00  0.00    -0.460 OA
BRANCH  34  35
ATOM     35  C   UNL A   1      44.620  23.556  26.218  1.00  0.00     0.338 C 
ATOM     36  O   UNL A   1      45.624  22.982  26.597  1.00  0.00    -0.246 OA
BRANCH  35  37
ATOM     37  C   UNL A   1      43.890  24.564  27.009  1.00  0.00     0.060 A 
ATOM     38  C   UNL A   1      44.335  25.891  26.986  1.00  0.00     0.016 A 
ATOM     39  C   UNL A   1      42.782  24.196  27.776  1.00  0.00     0.016 A 
ATOM     40  C   UNL A   1      43.696  26.851  27.773  1.00  0.00     0.010 A 
ATOM     41  C   UNL A   1      42.153  25.153  28.572  1.00  0.00     0.010 A 
ATOM     42  C   UNL A   1      42.629  26.474  28.601  1.00  0.00    -0.014 A 
BRANCH  42  43
ATOM     43  C   UNL A   1      42.136  27.406  29.642  1.00  0.00     0.031 A 
ATOM     44  C   UNL A   1      42.820  27.403  30.981  1.00  0.00     0.074 A 
ATOM     45  C   UNL A   1      41.104  28.233  29.408  1.00  0.00     0.049 A 
ATOM     46  N   UNL A   1      42.536  28.085  32.061  1.00  0.00    -0.248 NA
ATOM     47  C   UNL A   1      43.979  26.505  31.120  1.00  0.00     0.031 C 
ATOM     48  C   UNL A   1      40.380  28.351  28.145  1.00  0.00     0.029 A 
ATOM     49  N   UNL A   1      40.480  29.128  30.241  1.00  0.00    -0.354 N 
ATOM     50  C   UNL A   1      43.479  27.699  33.005  1.00  0.00     0.074 A 
ATOM     51  C   UNL A   1      44.322  26.701  32.385  1.00  0.00     0.031 C 
ATOM     52  C   UNL A   1      39.399  29.259  28.290  1.00  0.00     0.029 A 
ATOM     53  C   UNL A   1      39.410  29.764  29.662  1.00  0.00     0.049 A 
ATOM     54  H   UNL A   1      40.773  29.298  31.166  1.00  0.00     0.167 HD
ATOM     55  C   UNL A   1      43.635  28.144  34.274  1.00  0.00     0.037 A 
ATOM     56  C   UNL A   1      38.531  30.637  30.191  1.00  0.00     0.037 A 
ATOM     57  C   UNL A   1      42.791  29.127  34.897  1.00  0.00     0.049 A 
ATOM     58  C   UNL A   1      38.678  31.059  31.630  1.00  0.00     0.074 A 
ATOM     59  C   UNL A   1      42.875  29.651  36.174  1.00  0.00     0.029 A 
ATOM     60  N   UNL A   1      41.700  29.728  34.286  1.00  0.00    -0.354 N 
ATOM     61  N   UNL A   1      39.590  30.712  32.506  1.00  0.00    -0.248 NA
ATOM     62  C   UNL A   1      37.671  31.994  32.153  1.00  0.00     0.031 C 
ATOM     63  C   UNL A   1      41.806  30.538  36.352  1.00  0.00     0.029 A 
ATOM     64  C   UNL A   1      41.087  30.600  35.169  1.00  0.00     0.049 A 
ATOM     65  H   UNL A   1      41.406  29.559  33.362  1.00  0.00     0.167 HD
ATOM     66  C   UNL A   1      39.285  31.408  33.671  1.00  0.00     0.074 A 
ATOM     67  C   UNL A   1      38.109  32.204  33.387  1.00  0.00     0.031 C 
ATOM     68  C   UNL A   1      39.923  31.392  34.867  1.00  0.00     0.037 A 
BRANCH  55  69
ATOM     69  C   UNL A   1      44.750  27.544  35.078  1.00  0.00     0.057 A 
ATOM     70  C   UNL A   1      46.041  28.087  35.069  1.00  0.00     0.134 A 
ATOM     71  C   UNL A   1      44.527  26.420  35.881  1.00  0.00     0.134 A 
ATOM     72  F   UNL A   1      46.325  29.154  34.304  1.00  0.00    -0.206 F 
ATOM     73  C   UNL A   1      47.076  27.520  35.813  1.00  0.00     0.040 A 
ATOM     74  C   UNL A   1      45.548  25.857  36.648  1.00  0.00     0.040 A 
ATOM     75  F   UNL A   1      43.312  25.851  35.934  1.00  0.00    -0.206 F 
ATOM     76  C   UNL A   1      46.829  26.405  36.611  1.00  0.00     0.006 A 
ENDBRANCH  55  69
BRANCH  56  77
ATOM     77  C   UNL A   1      37.421  31.171  29.362  1.00  0.00     0.057 A 
ATOM     78  C   UNL A   1      37.491  32.448  28.793  1.00  0.00     0.134 A 
ATOM     79  C   UNL A   1      36.253  30.431  29.145  1.00  0.00     0.134 A 
ATOM     80  F   UNL A   1      38.574  33.215  28.988  1.00  0.00    -0.206 F 
ATOM     81  C   UNL A   1      36.433  32.978  28.053  1.00  0.00     0.040 A 
ATOM     82  C   UNL A   1      35.196  30.939  28.386  1.00  0.00     0.040 A 
ATOM     83  F   UNL A   1      36.122  29.201  29.664  1.00  0.00    -0.206 F 
ATOM     84  C   UNL A   1      35.282  32.220  27.844  1.00  0.00     0.006 A 
ENDBRANCH  56  77
BRANCH  68  85
ATOM     85  C   UNL A   1      39.390  32.289  35.946  1.00  0.00     0.057 A 
ATOM     86  C   UNL A   1      39.829  33.612  36.094  1.00  0.00     0.134 A 
ATOM     87  C   UNL A   1      38.389  31.839  36.816  1.00  0.00     0.134 A 
ATOM     88  F   UNL A   1      40.793  34.100  35.300  1.00  0.00    -0.206 F 
ATOM     89  C   UNL A   1      39.306  34.447  37.083  1.00  0.00     0.040 A 
ATOM     90  C   UNL A   1      37.839  32.672  37.792  1.00  0.00     0.040 A 
ATOM     91  F   UNL A   1      37.917  30.587  36.721  1.00  0.00    -0.206 F 
ATOM     92  C   UNL A   1      38.302  33.978  37.931  1.00  0.00     0.006 A 
ENDBRANCH  68  85
ENDBRANCH  42  43
ENDBRANCH  35  37
ENDBRANCH  34  35
ENDBRANCH  33  34
ENDBRANCH  32  33
ENDBRANCH  31  32
ENDBRANCH  30  31
ENDBRANCH  29  30
ENDBRANCH  28  29
ENDBRANCH  27  28
ENDBRANCH   1  27
TORSDOF 25
ENDMDL
MODEL 3
REMARK VINA RESULT:      -9.1      5.834     10.959
REMARK SMILES C[C@H](CNS(=O)(=O)c1ccc(C(=O)OCCOCCOCCOCCOC(=O)c2ccc(-c3c4nc(c(-c5c(F)cccc5F)c5ccc([nH]5)c(-c5c(F)cccc5F)c5nc(c(-c6c(F)cccc6F)c6ccc3[nH]6)C=C5)C=C4)cc2)o1)c1ccccc1
REMARK SMILES IDX 18 1 17 2 16 3 15 4 14 5 12 6 13 7 11 8 8 9 9 10 83 11 10 12
REMARK SMILES IDX 5 13 6 14 7 15 4 16 3 18 2 19 1 20 84 21 85 22 89 23 86 24
REMARK SMILES IDX 88 25 87 26 19 27 20 28 21 29 22 30 23 31 24 32 25 33 26 34
REMARK SMILES IDX 27 35 28 36 29 37 30 38 82 39 31 40 81 41 32 42 33 43 34 44
REMARK SMILES IDX 75 45 35 46 80 47 74 48 76 49 36 50 79 51 73 52 72 53 37 55
REMARK SMILES IDX 63 56 46 57 62 58 47 59 50 60 61 61 77 62 48 63 49 64 60 66
REMARK SMILES IDX 78 67 51 68 38 69 39 70 44 71 40 72 41 73 43 74 45 75 42 76
REMARK SMILES IDX 64 77 65 78 70 79 66 80 67 81 69 82 71 83 68 84 52 85 53 86
REMARK SMILES IDX 58 87 54 88 55 89 57 90 59 91 56 92
REMARK H PARENT 4 17 76 54 50 65
REMARK Flexibility Score: inf
ROOT
ATOM      1  C   UNL A   1      35.683  29.867  28.064  1.00  0.00     0.188 C 
ENDROOT
BRANCH   1   2
ATOM      2  O   UNL A   1      34.523  30.694  28.002  1.00  0.00    -0.376 OA
BRANCH   2   3
ATOM      3  C   UNL A   1      33.687  30.571  26.859  1.00  0.00     0.202 C 
BRANCH   3   4
ATOM      4  C   UNL A   1      32.177  30.376  27.081  1.00  0.00     0.261 C 
BRANCH   4   5
ATOM      5  O   UNL A   1      31.708  29.019  27.128  1.00  0.00    -0.457 OA
BRANCH   5   6
ATOM      6  C   UNL A   1      31.568  28.346  25.958  1.00  0.00     0.374 C 
ATOM      7  O   UNL A   1      31.213  28.855  24.901  1.00  0.00    -0.242 OA
BRANCH   6   8
ATOM      8  C   UNL A   1      32.055  26.995  26.147  1.00  0.00     0.213 A 
ATOM      9  C   UNL A   1      31.824  24.802  26.513  1.00  0.00     0.234 A 
ATOM     10  C   UNL A   1      33.144  25.034  26.145  1.00  0.00     0.065 A 
ATOM     11  O   UNL A   1      31.168  26.019  26.511  1.00  0.00    -0.436 OA
ATOM     12  C   UNL A   1      33.291  26.421  25.917  1.00  0.00     0.060 A 
BRANCH   9  13
ATOM     13  S   UNL A   1      30.985  23.277  26.947  1.00  0.00     0.274 S 
ATOM     14  O   UNL A   1      29.664  23.653  27.391  1.00  0.00    -0.204 OA
ATOM     15  O   UNL A   1      31.904  22.571  27.813  1.00  0.00    -0.204 OA
BRANCH  13  16
ATOM     16  N   UNL A   1      30.803  22.309  25.566  1.00  0.00    -0.208 NA
ATOM     17  H   UNL A   1      30.644  21.352  25.880  1.00  0.00     0.141 HD
BRANCH  16  18
ATOM     18  C   UNL A   1      31.936  22.283  24.609  1.00  0.00     0.107 C 
BRANCH  18  19
ATOM     19  C   UNL A   1      32.964  21.160  24.908  1.00  0.00     0.031 C 
ATOM     20  C   UNL A   1      32.620  19.787  24.320  1.00  0.00     0.014 C 
BRANCH  19  21
ATOM     21  C   UNL A   1      34.392  21.557  24.552  1.00  0.00    -0.044 A 
ATOM     22  C   UNL A   1      35.463  20.806  25.069  1.00  0.00     0.004 A 
ATOM     23  C   UNL A   1      34.683  22.648  23.722  1.00  0.00     0.004 A 
ATOM     24  C   UNL A   1      36.785  21.148  24.776  1.00  0.00     0.000 A 
ATOM     25  C   UNL A   1      36.006  22.988  23.430  1.00  0.00     0.000 A 
ATOM     26  C   UNL A   1      37.057  22.241  23.959  1.00  0.00     0.000 A 
ENDBRANCH  19  21
ENDBRANCH  18  19
ENDBRANCH  16  18
ENDBRANCH  13  16
ENDBRANCH   9  13
ENDBRANCH   6   8
ENDBRANCH   5   6
ENDBRANCH   4   5
ENDBRANCH   3   4
ENDBRANCH   2   3
ENDBRANCH   1   2
BRANCH   1  27
ATOM     27  C   UNL A   1      36.661  30.309  29.165  1.00  0.00     0.188 C 
BRANCH  27  28
ATOM     28  O   UNL A   1      37.978  29.825  28.945  1.00  0.00    -0.377 OA
BRANCH  28  29
ATOM     29  C   UNL A   1      38.664  29.271  30.068  1.00  0.00     0.188 C 
BRANCH  29  30
ATOM     30  C   UNL A   1      39.758  28.193  29.891  1.00  0.00     0.188 C 
BRANCH  30  31
ATOM     31  O   UNL A   1      39.274  26.951  29.379  1.00  0.00    -0.376 OA
BRANCH  31  32
ATOM     32  C   UNL A   1      39.583  26.658  28.021  1.00  0.00     0.202 C 
BRANCH  32  33
ATOM     33  C   UNL A   1      39.683  25.156  27.727  1.00  0.00     0.261 C 
BRANCH  33  34
ATOM     34  O   UNL A   1      40.836  24.510  28.290  1.00  0.00    -0.460 OA
BRANCH  34  35
ATOM     35  C   UNL A   1      41.682  23.906  27.427  1.00  0.00     0.338 C 
ATOM     36  O   UNL A   1      41.489  22.884  26.794  1.00  0.00    -0.246 OA
BRANCH  35  37
ATOM     37  C   UNL A   1      42.840  24.798  27.233  1.00  0.00     0.060 A 
ATOM     38  C   UNL A   1      43.552  25.233  28.357  1.00  0.00     0.016 A 
ATOM     39  C   UNL A   1      43.209  25.211  25.951  1.00  0.00     0.016 A 
ATOM     40  C   UNL A   1      44.615  26.124  28.204  1.00  0.00     0.010 A 
ATOM     41  C   UNL A   1      44.263  26.112  25.799  1.00  0.00     0.010 A 
ATOM     42  C   UNL A   1      44.945  26.600  26.926  1.00  0.00    -0.014 A 
BRANCH  42  43
ATOM     43  C   UNL A   1      45.867  27.750  26.782  1.00  0.00     0.031 A 
ATOM     44  C   UNL A   1      47.337  27.469  26.630  1.00  0.00     0.074 A 
ATOM     45  C   UNL A   1      45.416  29.014  26.788  1.00  0.00     0.049 A 
ATOM     46  N   UNL A   1      48.339  28.305  26.543  1.00  0.00    -0.248 NA
ATOM     47  C   UNL A   1      47.728  26.050  26.574  1.00  0.00     0.031 C 
ATOM     48  C   UNL A   1      44.015  29.414  26.897  1.00  0.00     0.029 A 
ATOM     49  N   UNL A   1      46.102  30.201  26.711  1.00  0.00    -0.354 N 
ATOM     50  C   UNL A   1      49.475  27.516  26.422  1.00  0.00     0.074 A 
ATOM     51  C   UNL A   1      49.046  26.136  26.480  1.00  0.00     0.031 C 
ATOM     52  C   UNL A   1      43.945  30.757  26.893  1.00  0.00     0.029 A 
ATOM     53  C   UNL A   1      45.297  31.309  26.808  1.00  0.00     0.049 A 
ATOM     54  H   UNL A   1      47.078  30.252  26.595  1.00  0.00     0.167 HD
ATOM     55  C   UNL A   1      50.762  27.906  26.266  1.00  0.00     0.037 A 
ATOM     56  C   UNL A   1      45.621  32.616  26.845  1.00  0.00     0.037 A 
ATOM     57  C   UNL A   1      51.193  29.277  26.220  1.00  0.00     0.049 A 
ATOM     58  C   UNL A   1      47.069  33.024  26.749  1.00  0.00     0.074 A 
ATOM     59  C   UNL A   1      52.473  29.774  26.054  1.00  0.00     0.029 A 
ATOM     60  N   UNL A   1      50.350  30.371  26.350  1.00  0.00    -0.354 N 
ATOM     61  N   UNL A   1      48.134  32.272  26.605  1.00  0.00    -0.248 NA
ATOM     62  C   UNL A   1      47.358  34.463  26.822  1.00  0.00     0.031 C 
ATOM     63  C   UNL A   1      52.411  31.170  26.128  1.00  0.00     0.029 A 
ATOM     64  C   UNL A   1      51.086  31.542  26.293  1.00  0.00     0.049 A 
ATOM     65  H   UNL A   1      49.374  30.322  26.466  1.00  0.00     0.167 HD
ATOM     66  C   UNL A   1      49.213  33.147  26.538  1.00  0.00     0.074 A 
ATOM     67  C   UNL A   1      48.673  34.486  26.649  1.00  0.00     0.031 C 
ATOM     68  C   UNL A   1      50.532  32.868  26.395  1.00  0.00     0.037 A 
BRANCH  55  69
ATOM     69  C   UNL A   1      51.798  26.826  26.161  1.00  0.00     0.057 A 
ATOM     70  C   UNL A   1      52.110  26.221  24.937  1.00  0.00     0.134 A 
ATOM     71  C   UNL A   1      52.500  26.397  27.293  1.00  0.00     0.134 A 
ATOM     72  F   UNL A   1      51.460  26.574  23.818  1.00  0.00    -0.206 F 
ATOM     73  C   UNL A   1      53.069  25.211  24.847  1.00  0.00     0.040 A 
ATOM     74  C   UNL A   1      53.477  25.405  27.213  1.00  0.00     0.040 A 
ATOM     75  F   UNL A   1      52.247  26.936  28.496  1.00  0.00    -0.206 F 
ATOM     76  C   UNL A   1      53.761  24.805  25.987  1.00  0.00     0.006 A 
ENDBRANCH  55  69
BRANCH  56  77
ATOM     77  C   UNL A   1      44.560  33.643  26.991  1.00  0.00     0.057 A 
ATOM     78  C   UNL A   1      43.902  34.168  25.871  1.00  0.00     0.134 A 
ATOM     79  C   UNL A   1      44.201  34.148  28.245  1.00  0.00     0.134 A 
ATOM     80  F   UNL A   1      44.222  33.743  24.640  1.00  0.00    -0.206 F 
ATOM     81  C   UNL A   1      42.937  35.169  25.993  1.00  0.00     0.040 A 
ATOM     82  C   UNL A   1      43.220  35.132  28.385  1.00  0.00     0.040 A 
ATOM     83  F   UNL A   1      44.795  33.688  29.356  1.00  0.00    -0.206 F 
ATOM     84  C   UNL A   1      42.590  35.650  27.254  1.00  0.00     0.006 A 
ENDBRANCH  56  77
BRANCH  68  85
ATOM     85  C   UNL A   1      51.479  34.029  26.310  1.00  0.00     0.057 A 
ATOM     86  C   UNL A   1      51.873  34.574  25.081  1.00  0.00     0.134 A 
ATOM     87  C   UNL A   1      51.964  34.639  27.474  1.00  0.00     0.134 A 
ATOM     88  F   UNL A   1      51.453  34.029  23.930  1.00  0.00    -0.206 F 
ATOM     89  C   UNL A   1      52.732  35.673  25.014  1.00  0.00     0.040 A 
ATOM     90  C   UNL A   1      52.801  35.754  27.420  1.00  0.00     0.040 A 
ATOM     91  F   UNL A   1      51.616  34.172  28.682  1.00  0.00    -0.206 F 
ATOM     92  C   UNL A   1      53.192  36.270  26.187  1.00  0.00     0.006 A 
ENDBRANCH  68  85
ENDBRANCH  42  43
ENDBRANCH  35  37
ENDBRANCH  34  35
ENDBRANCH  33  34
ENDBRANCH  32  33
ENDBRANCH  31  32
ENDBRANCH  30  31
ENDBRANCH  29  30
ENDBRANCH  28  29
ENDBRANCH  27  28
ENDBRANCH   1  27
TORSDOF 25
ENDMDL
