MODEL 1
REMARK VINA RESULT:      -8.6      0.000      0.000
REMARK SMILES Cc1ccc(S(=O)(=O)n2cc(C(=O)C(=O)NCC(=O)N[C@H](Cc3c[nH]c4ccccc34)C(=O)OCCOCCOCCOCCOC(=O)c3ccc(-c4c5nc(c(-c6c(F)cccc6F)c6ccc([nH]6)c(-c6c(F)cccc6F)c6nc(c(-c7c(F)cccc7F)c7ccc4[nH]7)C=C6)C=C5)cc3)c3ccccc32)cc1
REMARK SMILES IDX 38 1 37 2 36 3 35 4 34 5 32 6 33 7 21 8 20 9 18 10 19 11
REMARK SMILES IDX 17 13 16 14 14 15 15 16 12 18 13 19 11 20 9 21 10 22 108 23
REMARK SMILES IDX 103 24 107 25 104 26 106 27 105 28 6 29 7 30 8 31 5 32 1 33
REMARK SMILES IDX 2 34 3 35 110 36 4 37 109 38 22 39 23 40 24 41 31 42 25 43
REMARK SMILES IDX 26 44 30 45 27 47 29 48 28 49 39 50 40 51 41 52 42 53 43 54
REMARK SMILES IDX 44 55 45 56 46 57 47 58 48 59 49 60 50 61 102 62 51 63
REMARK SMILES IDX 101 64 52 65 53 66 54 67 95 68 55 69 100 70 94 71 96 72
REMARK SMILES IDX 56 73 99 74 93 75 92 76 57 78 83 79 66 80 82 81 67 82 70 83
REMARK SMILES IDX 81 84 97 85 68 86 69 87 80 89 98 90 71 91 58 92 59 93 64 94
REMARK SMILES IDX 60 95 61 96 63 97 65 98 62 99 84 100 85 101 90 102 86 103
REMARK SMILES IDX 87 104 89 105 91 106 88 107 72 108 73 109 78 110 74 111
REMARK SMILES IDX 75 112 77 113 79 114 76 115
REMARK H PARENT 20 12 16 17 25 46 96 77 70 88
REMARK Flexibility Score: inf
ROOT
ATOM      1  C   UNL A   1      33.384  35.273  32.100  1.00  0.00     0.188 C 
ENDROOT
BRANCH   1   2
ATOM      2  O   UNL A   1      32.794  35.759  30.897  1.00  0.00    -0.376 OA
BRANCH   2   3
ATOM      3  C   UNL A   1      33.404  35.663  29.628  1.00  0.00     0.202 C 
BRANCH   3   4
ATOM      4  C   UNL A   1      33.986  34.369  29.124  1.00  0.00     0.261 C 
BRANCH   4   5
ATOM      5  O   UNL A   1      35.408  34.576  29.002  1.00  0.00    -0.462 OA
BRANCH   5   6
ATOM      6  C   UNL A   1      35.939  33.396  28.708  1.00  0.00     0.329 C 
ATOM      7  O   UNL A   1      36.030  33.028  27.549  1.00  0.00    -0.250 OA
BRANCH   6   8
ATOM      8  C   UNL A   1      36.184  32.367  29.727  1.00  0.00     0.196 C 
BRANCH   8   9
ATOM      9  N   UNL A   1      37.620  32.649  29.953  1.00  0.00    -0.341 N 
ATOM     10  C   UNL A   1      38.687  31.746  29.877  1.00  0.00     0.240 C 
ATOM     11  O   UNL A   1      39.694  32.057  30.529  1.00  0.00    -0.273 OA
ATOM     12  H   UNL A   1      37.850  33.579  30.183  1.00  0.00     0.164 HD
BRANCH  10  13
ATOM     13  C   UNL A   1      38.699  30.377  29.046  1.00  0.00     0.216 C 
BRANCH  13  14
ATOM     14  N   UNL A   1      38.358  29.048  29.649  1.00  0.00    -0.340 N 
ATOM     15  C   UNL A   1      39.124  27.961  30.127  1.00  0.00     0.292 C 
ATOM     16  O   UNL A   1      38.638  26.920  30.561  1.00  0.00    -0.265 OA
ATOM     17  H   UNL A   1      37.387  28.899  29.730  1.00  0.00     0.164 HD
BRANCH  15  18
ATOM     18  C   UNL A   1      40.625  28.025  30.066  1.00  0.00     0.252 C 
ATOM     19  O   UNL A   1      41.137  28.392  31.129  1.00  0.00    -0.283 OA
BRANCH  18  20
ATOM     20  C   UNL A   1      41.543  27.872  28.899  1.00  0.00     0.054 A 
ATOM     21  N   UNL A   1      43.456  27.608  27.734  1.00  0.00    -0.240 N 
ATOM     22  C   UNL A   1      42.498  28.580  28.136  1.00  0.00     0.117 A 
ATOM     23  C   UNL A   1      43.015  26.371  28.266  1.00  0.00     0.065 A 
ATOM     24  C   UNL A   1      41.656  26.561  28.399  1.00  0.00     0.012 A 
ATOM     25  C   UNL A   1      43.560  25.072  28.212  1.00  0.00     0.028 A 
ATOM     26  C   UNL A   1      40.778  25.475  28.327  1.00  0.00     0.011 A 
ATOM     27  C   UNL A   1      42.662  24.024  27.992  1.00  0.00     0.002 A 
ATOM     28  C   UNL A   1      41.289  24.225  28.019  1.00  0.00     0.001 A 
BRANCH  21  29
ATOM     29  S   UNL A   1      44.225  27.282  26.237  1.00  0.00     0.268 S 
ATOM     30  O   UNL A   1      44.176  28.615  25.647  1.00  0.00    -0.201 OA
ATOM     31  O   UNL A   1      43.366  26.198  25.761  1.00  0.00    -0.201 OA
BRANCH  29  32
ATOM     32  C   UNL A   1      45.726  26.692  25.591  1.00  0.00     0.088 A 
ATOM     33  C   UNL A   1      49.073  26.319  22.893  1.00  0.00     0.044 C 
ATOM     34  C   UNL A   1      47.941  26.399  23.871  1.00  0.00    -0.051 A 
ATOM     35  C   UNL A   1      47.378  27.650  24.026  1.00  0.00     0.005 A 
ATOM     36  C   UNL A   1      47.405  25.303  24.592  1.00  0.00     0.005 A 
ATOM     37  C   UNL A   1      46.311  27.781  24.877  1.00  0.00     0.022 A 
ATOM     38  C   UNL A   1      46.277  25.434  25.452  1.00  0.00     0.022 A 
ENDBRANCH  29  32
ENDBRANCH  21  29
ENDBRANCH  18  20
ENDBRANCH  15  18
ENDBRANCH  13  14
ENDBRANCH  10  13
ENDBRANCH   8   9
BRANCH   8  39
ATOM     39  C   UNL A   1      35.554  30.925  29.577  1.00  0.00     0.074 C 
BRANCH  39  40
ATOM     40  C   UNL A   1      35.111  30.280  28.290  1.00  0.00    -0.020 A 
ATOM     41  C   UNL A   1      35.621  29.643  27.250  1.00  0.00     0.087 A 
ATOM     42  C   UNL A   1      34.231  30.357  27.227  1.00  0.00     0.003 A 
ATOM     43  N   UNL A   1      34.705  28.252  26.315  1.00  0.00    -0.361 N 
ATOM     44  C   UNL A   1      33.686  28.756  26.116  1.00  0.00     0.046 A 
ATOM     45  C   UNL A   1      32.924  31.610  27.196  1.00  0.00     0.010 A 
ATOM     46  H   UNL A   1      35.017  27.350  26.070  1.00  0.00     0.166 HD
ATOM     47  C   UNL A   1      32.158  28.696  25.296  1.00  0.00     0.026 A 
ATOM     48  C   UNL A   1      31.519  31.362  26.297  1.00  0.00     0.001 A 
ATOM     49  C   UNL A   1      31.180  29.999  25.419  1.00  0.00     0.002 A 
ENDBRANCH  39  40
ENDBRANCH   8  39
ENDBRANCH   6   8
ENDBRANCH   5   6
ENDBRANCH   4   5
ENDBRANCH   3   4
ENDBRANCH   2   3
ENDBRANCH   1   2
BRANCH   1  50
ATOM     50  C   UNL A   1      34.661  34.471  32.279  1.00  0.00     0.188 C 
BRANCH  50  51
ATOM     51  O   UNL A   1      34.988  34.317  33.615  1.00  0.00    -0.377 OA
BRANCH  51  52
ATOM     52  C   UNL A   1      35.880  33.249  33.819  1.00  0.00     0.188 C 
BRANCH  52  53
ATOM     53  C   UNL A   1      36.516  33.530  35.083  1.00  0.00     0.188 C 
BRANCH  53  54
ATOM     54  O   UNL A   1      37.795  32.945  34.976  1.00  0.00    -0.376 OA
BRANCH  54  55
ATOM     55  C   UNL A   1      37.953  32.171  36.127  1.00  0.00     0.202 C 
BRANCH  55  56
ATOM     56  C   UNL A   1      39.459  32.014  36.332  1.00  0.00     0.261 C 
BRANCH  56  57
ATOM     57  O   UNL A   1      40.287  31.655  35.076  1.00  0.00    -0.460 OA
BRANCH  57  58
ATOM     58  C   UNL A   1      41.489  31.415  34.428  1.00  0.00     0.338 C 
ATOM     59  O   UNL A   1      42.062  32.441  34.036  1.00  0.00    -0.246 OA
BRANCH  58  60
ATOM     60  C   UNL A   1      42.282  30.113  34.012  1.00  0.00     0.060 A 
ATOM     61  C   UNL A   1      41.812  28.816  34.362  1.00  0.00     0.016 A 
ATOM     62  C   UNL A   1      43.481  30.057  33.327  1.00  0.00     0.016 A 
ATOM     63  C   UNL A   1      42.615  27.586  34.286  1.00  0.00     0.010 A 
ATOM     64  C   UNL A   1      44.311  28.873  33.376  1.00  0.00     0.010 A 
ATOM     65  C   UNL A   1      43.960  27.592  33.897  1.00  0.00    -0.014 A 
BRANCH  65  66
ATOM     66  C   UNL A   1      45.047  26.382  34.002  1.00  0.00     0.031 A 
ATOM     67  C   UNL A   1      45.887  26.176  32.549  1.00  0.00     0.074 A 
ATOM     68  C   UNL A   1      45.683  26.018  35.206  1.00  0.00     0.049 A 
ATOM     69  N   UNL A   1      47.152  25.960  32.269  1.00  0.00    -0.248 NA
ATOM     70  C   UNL A   1      45.159  26.370  31.270  1.00  0.00     0.031 C 
ATOM     71  C   UNL A   1      45.276  25.566  36.605  1.00  0.00     0.029 A 
ATOM     72  N   UNL A   1      46.860  26.668  35.581  1.00  0.00    -0.354 N 
ATOM     73  C   UNL A   1      47.422  26.184  30.848  1.00  0.00     0.074 A 
ATOM     74  C   UNL A   1      46.113  26.483  30.327  1.00  0.00     0.031 C 
ATOM     75  C   UNL A   1      46.206  25.889  37.554  1.00  0.00     0.029 A 
ATOM     76  C   UNL A   1      47.248  26.652  36.926  1.00  0.00     0.049 A 
ATOM     77  H   UNL A   1      47.410  27.131  34.908  1.00  0.00     0.167 HD
ATOM     78  C   UNL A   1      48.689  26.117  30.240  1.00  0.00     0.037 A 
ATOM     79  C   UNL A   1      48.151  27.462  37.566  1.00  0.00     0.037 A 
ATOM     80  C   UNL A   1      49.710  25.793  31.224  1.00  0.00     0.049 A 
ATOM     81  C   UNL A   1      49.367  26.599  36.992  1.00  0.00     0.074 A 
ATOM     82  C   UNL A   1      51.028  26.129  31.485  1.00  0.00     0.029 A 
ATOM     83  N   UNL A   1      49.392  24.884  32.192  1.00  0.00    -0.354 N 
ATOM     84  N   UNL A   1      49.775  26.394  35.752  1.00  0.00    -0.248 NA
ATOM     85  C   UNL A   1      49.689  25.413  37.834  1.00  0.00     0.031 C 
ATOM     86  C   UNL A   1      51.334  25.727  32.805  1.00  0.00     0.029 A 
ATOM     87  C   UNL A   1      50.251  25.009  33.245  1.00  0.00     0.049 A 
ATOM     88  H   UNL A   1      48.654  24.235  32.139  1.00  0.00     0.167 HD
ATOM     89  C   UNL A   1      49.929  24.989  35.591  1.00  0.00     0.074 A 
ATOM     90  C   UNL A   1      49.884  24.452  36.924  1.00  0.00     0.031 C 
ATOM     91  C   UNL A   1      49.951  24.271  34.419  1.00  0.00     0.037 A 
BRANCH  78  92
ATOM     92  C   UNL A   1      49.259  26.362  28.761  1.00  0.00     0.057 A 
ATOM     93  C   UNL A   1      49.968  25.316  28.073  1.00  0.00     0.134 A 
ATOM     94  C   UNL A   1      49.242  27.542  28.001  1.00  0.00     0.134 A 
ATOM     95  F   UNL A   1      49.913  24.039  28.482  1.00  0.00    -0.206 F 
ATOM     96  C   UNL A   1      50.712  25.461  26.883  1.00  0.00     0.040 A 
ATOM     97  C   UNL A   1      49.899  27.670  26.733  1.00  0.00     0.040 A 
ATOM     98  F   UNL A   1      48.579  28.627  28.418  1.00  0.00    -0.206 F 
ATOM     99  C   UNL A   1      50.672  26.647  26.191  1.00  0.00     0.006 A 
ENDBRANCH  78  92
BRANCH  79 100
ATOM    100  C   UNL A   1      47.689  29.005  37.540  1.00  0.00     0.057 A 
ATOM    101  C   UNL A   1      47.288  30.378  36.145  1.00  0.00     0.134 A 
ATOM    102  C   UNL A   1      47.984  29.765  39.354  1.00  0.00     0.134 A 
ATOM    103  F   UNL A   1      47.215  29.932  34.875  1.00  0.00    -0.206 F 
ATOM    104  C   UNL A   1      47.062  32.358  36.324  1.00  0.00     0.040 A 
ATOM    105  C   UNL A   1      47.697  31.656  39.614  1.00  0.00     0.040 A 
ATOM    106  F   UNL A   1      49.134  29.450  39.964  1.00  0.00    -0.206 F 
ATOM    107  C   UNL A   1      47.224  33.014  38.321  1.00  0.00     0.006 A 
ENDBRANCH  79 100
BRANCH  91 108
ATOM    108  C   UNL A   1      49.772  22.759  34.217  1.00  0.00     0.057 A 
ATOM    109  C   UNL A   1      48.564  22.085  34.409  1.00  0.00     0.134 A 
ATOM    110  C   UNL A   1      50.814  21.942  33.692  1.00  0.00     0.134 A 
ATOM    111  F   UNL A   1      47.423  22.758  34.619  1.00  0.00    -0.206 F 
ATOM    112  C   UNL A   1      48.473  20.685  34.357  1.00  0.00     0.040 A 
ATOM    113  C   UNL A   1      50.716  20.553  33.564  1.00  0.00     0.040 A 
ATOM    114  F   UNL A   1      51.975  22.455  33.256  1.00  0.00    -0.206 F 
ATOM    115  C   UNL A   1      49.565  19.911  33.976  1.00  0.00     0.006 A 
ENDBRANCH  91 108
ENDBRANCH  65  66
ENDBRANCH  58  60
ENDBRANCH  57  58
ENDBRANCH  56  57
ENDBRANCH  55  56
ENDBRANCH  54  55
ENDBRANCH  53  54
ENDBRANCH  52  53
ENDBRANCH  51  52
ENDBRANCH  50  51
ENDBRANCH   1  50
TORSDOF 29
ENDMDL
MODEL 2
REMARK VINA RESULT:      -8.5      7.233     11.928
REMARK SMILES Cc1ccc(S(=O)(=O)n2cc(C(=O)C(=O)NCC(=O)N[C@H](Cc3c[nH]c4ccccc34)C(=O)OCCOCCOCCOCCOC(=O)c3ccc(-c4c5nc(c(-c6c(F)cccc6F)c6ccc([nH]6)c(-c6c(F)cccc6F)c6nc(c(-c7c(F)cccc7F)c7ccc4[nH]7)C=C6)C=C5)cc3)c3ccccc32)cc1
REMARK SMILES IDX 38 1 37 2 36 3 35 4 34 5 32 6 33 7 21 8 20 9 18 10 19 11
REMARK SMILES IDX 17 13 16 14 14 15 15 16 12 18 13 19 11 20 9 21 10 22 108 23
REMARK SMILES IDX 103 24 107 25 104 26 106 27 105 28 6 29 7 30 8 31 5 32 1 33
REMARK SMILES IDX 2 34 3 35 110 36 4 37 109 38 22 39 23 40 24 41 31 42 25 43
REMARK SMILES IDX 26 44 30 45 27 47 29 48 28 49 39 50 40 51 41 52 42 53 43 54
REMARK SMILES IDX 44 55 45 56 46 57 47 58 48 59 49 60 50 61 102 62 51 63
REMARK SMILES IDX 101 64 52 65 53 66 54 67 95 68 55 69 100 70 94 71 96 72
REMARK SMILES IDX 56 73 99 74 93 75 92 76 57 78 83 79 66 80 82 81 67 82 70 83
REMARK SMILES IDX 81 84 97 85 68 86 69 87 80 89 98 90 71 91 58 92 59 93 64 94
REMARK SMILES IDX 60 95 61 96 63 97 65 98 62 99 84 100 85 101 90 102 86 103
REMARK SMILES IDX 87 104 89 105 91 106 88 107 72 108 73 109 78 110 74 111
REMARK SMILES IDX 75 112 77 113 79 114 76 115
REMARK H PARENT 20 12 16 17 25 46 96 77 70 88
REMARK Flexibility Score: inf
ROOT
ATOM      1  C   UNL A   1      37.267  32.537  29.767  1.00  0.00     0.188 C 
ENDROOT
BRANCH   1   2
ATOM      2  O   UNL A   1      36.156  31.964  29.083  1.00  0.00    -0.376 OA
BRANCH   2   3
ATOM      3  C   UNL A   1      35.890  30.578  29.037  1.00  0.00     0.202 C 
BRANCH   3   4
ATOM      4  C   UNL A   1      35.354  29.915  27.795  1.00  0.00     0.261 C 
BRANCH   4   5
ATOM      5  O   UNL A   1      33.942  30.206  27.750  1.00  0.00    -0.462 OA
BRANCH   5   6
ATOM      6  C   UNL A   1      33.407  29.348  26.890  1.00  0.00     0.329 C 
ATOM      7  O   UNL A   1      33.841  28.214  26.793  1.00  0.00    -0.250 OA
BRANCH   6   8
ATOM      8  C   UNL A   1      32.478  29.770  25.833  1.00  0.00     0.196 C 
BRANCH   8   9
ATOM      9  N   UNL A   1      33.449  29.804  24.717  1.00  0.00    -0.341 N 
ATOM     10  C   UNL A   1      33.344  29.163  23.477  1.00  0.00     0.240 C 
ATOM     11  O   UNL A   1      34.418  28.942  22.899  1.00  0.00    -0.273 OA
ATOM     12  H   UNL A   1      34.263  30.340  24.863  1.00  0.00     0.164 HD
BRANCH  10  13
ATOM     13  C   UNL A   1      31.982  28.695  22.776  1.00  0.00     0.216 C 
BRANCH  13  14
ATOM     14  N   UNL A   1      31.922  27.626  21.727  1.00  0.00    -0.340 N 
ATOM     15  C   UNL A   1      31.592  26.253  21.744  1.00  0.00     0.292 C 
ATOM     16  O   UNL A   1      31.642  25.525  20.756  1.00  0.00    -0.265 OA
ATOM     17  H   UNL A   1      32.166  27.953  20.830  1.00  0.00     0.164 HD
BRANCH  15  18
ATOM     18  C   UNL A   1      31.206  25.595  23.040  1.00  0.00     0.252 C 
ATOM     19  O   UNL A   1      30.558  26.338  23.785  1.00  0.00    -0.283 OA
BRANCH  18  20
ATOM     20  C   UNL A   1      31.619  24.277  23.605  1.00  0.00     0.054 A 
ATOM     21  N   UNL A   1      32.451  22.182  23.695  1.00  0.00    -0.240 N 
ATOM     22  C   UNL A   1      31.234  22.919  23.651  1.00  0.00     0.117 A 
ATOM     23  C   UNL A   1      33.496  23.140  23.686  1.00  0.00     0.065 A 
ATOM     24  C   UNL A   1      32.889  24.261  24.211  1.00  0.00     0.012 A 
ATOM     25  C   UNL A   1      34.899  23.007  23.699  1.00  0.00     0.028 A 
ATOM     26  C   UNL A   1      33.640  25.215  24.905  1.00  0.00     0.011 A 
ATOM     27  C   UNL A   1      35.605  23.889  24.521  1.00  0.00     0.002 A 
ATOM     28  C   UNL A   1      34.981  24.963  25.141  1.00  0.00     0.001 A 
BRANCH  21  29
ATOM     29  S   UNL A   1      32.975  20.856  24.645  1.00  0.00     0.268 S 
ATOM     30  O   UNL A   1      31.692  20.196  24.865  1.00  0.00    -0.201 OA
ATOM     31  O   UNL A   1      33.658  21.584  25.713  1.00  0.00    -0.201 OA
BRANCH  29  32
ATOM     32  C   UNL A   1      34.042  19.485  24.579  1.00  0.00     0.088 A 
ATOM     33  C   UNL A   1      35.464  15.462  25.219  1.00  0.00     0.044 C 
ATOM     34  C   UNL A   1      35.030  16.872  24.961  1.00  0.00    -0.051 A 
ATOM     35  C   UNL A   1      33.672  17.053  24.787  1.00  0.00     0.005 A 
ATOM     36  C   UNL A   1      35.890  17.998  24.923  1.00  0.00     0.005 A 
ATOM     37  C   UNL A   1      33.206  18.327  24.587  1.00  0.00     0.022 A 
ATOM     38  C   UNL A   1      35.402  19.325  24.747  1.00  0.00     0.022 A 
ENDBRANCH  29  32
ENDBRANCH  21  29
ENDBRANCH  18  20
ENDBRANCH  15  18
ENDBRANCH  13  14
ENDBRANCH  10  13
ENDBRANCH   8   9
BRANCH   8  39
ATOM     39  C   UNL A   1      31.385  30.876  26.121  1.00  0.00     0.074 C 
BRANCH  39  40
ATOM     40  C   UNL A   1      30.506  31.542  25.096  1.00  0.00    -0.020 A 
ATOM     41  C   UNL A   1      29.854  32.677  24.906  1.00  0.00     0.087 A 
ATOM     42  C   UNL A   1      29.508  31.349  24.159  1.00  0.00     0.003 A 
ATOM     43  N   UNL A   1      29.614  33.479  23.189  1.00  0.00    -0.361 N 
ATOM     44  C   UNL A   1      29.206  32.584  22.585  1.00  0.00     0.046 A 
ATOM     45  C   UNL A   1      28.920  29.682  23.765  1.00  0.00     0.010 A 
ATOM     46  H   UNL A   1      29.792  34.403  22.899  1.00  0.00     0.166 HD
ATOM     47  C   UNL A   1      28.481  32.020  21.113  1.00  0.00     0.026 A 
ATOM     48  C   UNL A   1      28.208  29.355  22.272  1.00  0.00     0.001 A 
ATOM     49  C   UNL A   1      28.012  30.457  21.050  1.00  0.00     0.002 A 
ENDBRANCH  39  40
ENDBRANCH   8  39
ENDBRANCH   6   8
ENDBRANCH   5   6
ENDBRANCH   4   5
ENDBRANCH   3   4
ENDBRANCH   2   3
ENDBRANCH   1   2
BRANCH   1  50
ATOM     50  C   UNL A   1      37.525  32.622  31.261  1.00  0.00     0.188 C 
BRANCH  50  51
ATOM     51  O   UNL A   1      38.558  31.790  31.652  1.00  0.00    -0.377 OA
BRANCH  51  52
ATOM     52  C   UNL A   1      38.116  30.767  32.509  1.00  0.00     0.188 C 
BRANCH  52  53
ATOM     53  C   UNL A   1      38.844  29.592  32.096  1.00  0.00     0.188 C 
BRANCH  53  54
ATOM     54  O   UNL A   1      39.114  28.899  33.295  1.00  0.00    -0.376 OA
BRANCH  54  55
ATOM     55  C   UNL A   1      40.235  28.110  33.030  1.00  0.00     0.202 C 
BRANCH  55  56
ATOM     56  C   UNL A   1      41.338  28.611  33.960  1.00  0.00     0.261 C 
BRANCH  56  57
ATOM     57  O   UNL A   1      41.319  30.121  34.294  1.00  0.00    -0.460 OA
BRANCH  57  58
ATOM     58  C   UNL A   1      41.931  31.290  34.719  1.00  0.00     0.338 C 
ATOM     59  O   UNL A   1      42.128  31.339  35.940  1.00  0.00    -0.246 OA
BRANCH  58  60
ATOM     60  C   UNL A   1      42.389  32.623  34.004  1.00  0.00     0.060 A 
ATOM     61  C   UNL A   1      41.457  33.649  33.682  1.00  0.00     0.016 A 
ATOM     62  C   UNL A   1      43.668  32.942  33.588  1.00  0.00     0.016 A 
ATOM     63  C   UNL A   1      41.727  34.769  32.767  1.00  0.00     0.010 A 
ATOM     64  C   UNL A   1      43.892  33.965  32.589  1.00  0.00     0.010 A 
ATOM     65  C   UNL A   1      42.941  34.899  32.080  1.00  0.00    -0.014 A 
BRANCH  65  66
ATOM     66  C   UNL A   1      43.306  35.915  30.859  1.00  0.00     0.031 A 
ATOM     67  C   UNL A   1      44.004  37.345  31.430  1.00  0.00     0.074 A 
ATOM     68  C   UNL A   1      43.636  35.474  29.561  1.00  0.00     0.049 A 
ATOM     69  N   UNL A   1      45.020  38.071  31.022  1.00  0.00    -0.248 NA
ATOM     70  C   UNL A   1      43.515  37.916  32.709  1.00  0.00     0.031 C 
ATOM     71  C   UNL A   1      43.002  34.627  28.462  1.00  0.00     0.029 A 
ATOM     72  N   UNL A   1      44.964  35.162  29.263  1.00  0.00    -0.354 N 
ATOM     73  C   UNL A   1      45.425  39.033  32.047  1.00  0.00     0.074 A 
ATOM     74  C   UNL A   1      44.445  38.816  33.080  1.00  0.00     0.031 C 
ATOM     75  C   UNL A   1      43.932  34.031  27.655  1.00  0.00     0.029 A 
ATOM     76  C   UNL A   1      45.238  34.327  28.173  1.00  0.00     0.049 A 
ATOM     77  H   UNL A   1      45.696  35.525  29.811  1.00  0.00     0.167 HD
ATOM     78  C   UNL A   1      46.528  39.902  31.957  1.00  0.00     0.037 A 
ATOM     79  C   UNL A   1      46.392  33.640  27.891  1.00  0.00     0.037 A 
ATOM     80  C   UNL A   1      47.224  39.713  30.694  1.00  0.00     0.049 A 
ATOM     81  C   UNL A   1      47.065  34.966  27.307  1.00  0.00     0.074 A 
ATOM     82  C   UNL A   1      48.528  39.722  30.230  1.00  0.00     0.029 A 
ATOM     83  N   UNL A   1      46.467  39.489  29.580  1.00  0.00    -0.354 N 
ATOM     84  N   UNL A   1      47.377  36.109  27.891  1.00  0.00    -0.248 NA
ATOM     85  C   UNL A   1      46.740  35.201  25.873  1.00  0.00     0.031 C 
ATOM     86  C   UNL A   1      48.547  39.121  28.950  1.00  0.00     0.029 A 
ATOM     87  C   UNL A   1      47.234  38.919  28.606  1.00  0.00     0.049 A 
ATOM     88  H   UNL A   1      45.511  39.704  29.493  1.00  0.00     0.167 HD
ATOM     89  C   UNL A   1      46.842  37.150  27.082  1.00  0.00     0.074 A 
ATOM     90  C   UNL A   1      46.487  36.515  25.841  1.00  0.00     0.031 C 
ATOM     91  C   UNL A   1      46.567  38.446  27.447  1.00  0.00     0.037 A 
BRANCH  78  92
ATOM     92  C   UNL A   1      47.207  40.985  32.924  1.00  0.00     0.057 A 
ATOM     93  C   UNL A   1      47.844  40.571  34.147  1.00  0.00     0.134 A 
ATOM     94  C   UNL A   1      47.219  42.384  32.801  1.00  0.00     0.134 A 
ATOM     95  F   UNL A   1      48.168  39.289  34.373  1.00  0.00    -0.206 F 
ATOM     96  C   UNL A   1      48.272  41.420  35.189  1.00  0.00     0.040 A 
ATOM     97  C   UNL A   1      47.756  43.257  33.803  1.00  0.00     0.040 A 
ATOM     98  F   UNL A   1      46.740  42.988  31.707  1.00  0.00    -0.206 F 
ATOM     99  C   UNL A   1      48.243  42.783  35.018  1.00  0.00     0.006 A 
ENDBRANCH  78  92
BRANCH  79 100
ATOM    100  C   UNL A   1      46.730  32.552  29.030  1.00  0.00     0.057 A 
ATOM    101  C   UNL A   1      45.910  30.865  29.718  1.00  0.00     0.134 A 
ATOM    102  C   UNL A   1      48.080  33.348  30.255  1.00  0.00     0.134 A 
ATOM    103  F   UNL A   1      44.894  30.359  28.992  1.00  0.00    -0.206 F 
ATOM    104  C   UNL A   1      46.305  29.838  31.389  1.00  0.00     0.040 A 
ATOM    105  C   UNL A   1      48.570  32.365  31.842  1.00  0.00     0.040 A 
ATOM    106  F   UNL A   1      47.891  34.623  30.620  1.00  0.00    -0.206 F 
ATOM    107  C   UNL A   1      47.874  30.690  32.512  1.00  0.00     0.006 A 
ENDBRANCH  79 100
BRANCH  91 108
ATOM    108  C   UNL A   1      45.690  39.481  26.724  1.00  0.00     0.057 A 
ATOM    109  C   UNL A   1      46.196  40.491  25.903  1.00  0.00     0.134 A 
ATOM    110  C   UNL A   1      44.268  39.406  26.744  1.00  0.00     0.134 A 
ATOM    111  F   UNL A   1      47.489  40.515  25.551  1.00  0.00    -0.206 F 
ATOM    112  C   UNL A   1      45.378  41.506  25.378  1.00  0.00     0.040 A 
ATOM    113  C   UNL A   1      43.437  40.369  26.164  1.00  0.00     0.040 A 
ATOM    114  F   UNL A   1      43.613  38.381  27.311  1.00  0.00    -0.206 F 
ATOM    115  C   UNL A   1      43.997  41.469  25.546  1.00  0.00     0.006 A 
ENDBRANCH  91 108
ENDBRANCH  65  66
ENDBRANCH  58  60
ENDBRANCH  57  58
ENDBRANCH  56  57
ENDBRANCH  55  56
ENDBRANCH  54  55
ENDBRANCH  53  54
ENDBRANCH  52  53
ENDBRANCH  51  52
ENDBRANCH  50  51
ENDBRANCH   1  50
TORSDOF 29
ENDMDL
MODEL 3
REMARK VINA RESULT:      -8.4      8.457     12.013
REMARK SMILES Cc1ccc(S(=O)(=O)n2cc(C(=O)C(=O)NCC(=O)N[C@H](Cc3c[nH]c4ccccc34)C(=O)OCCOCCOCCOCCOC(=O)c3ccc(-c4c5nc(c(-c6c(F)cccc6F)c6ccc([nH]6)c(-c6c(F)cccc6F)c6nc(c(-c7c(F)cccc7F)c7ccc4[nH]7)C=C6)C=C5)cc3)c3ccccc32)cc1
REMARK SMILES IDX 38 1 37 2 36 3 35 4 34 5 32 6 33 7 21 8 20 9 18 10 19 11
REMARK SMILES IDX 17 13 16 14 14 15 15 16 12 18 13 19 11 20 9 21 10 22 108 23
REMARK SMILES IDX 103 24 107 25 104 26 106 27 105 28 6 29 7 30 8 31 5 32 1 33
REMARK SMILES IDX 2 34 3 35 110 36 4 37 109 38 22 39 23 40 24 41 31 42 25 43
REMARK SMILES IDX 26 44 30 45 27 47 29 48 28 49 39 50 40 51 41 52 42 53 43 54
REMARK SMILES IDX 44 55 45 56 46 57 47 58 48 59 49 60 50 61 102 62 51 63
REMARK SMILES IDX 101 64 52 65 53 66 54 67 95 68 55 69 100 70 94 71 96 72
REMARK SMILES IDX 56 73 99 74 93 75 92 76 57 78 83 79 66 80 82 81 67 82 70 83
REMARK SMILES IDX 81 84 97 85 68 86 69 87 80 89 98 90 71 91 58 92 59 93 64 94
REMARK SMILES IDX 60 95 61 96 63 97 65 98 62 99 84 100 85 101 90 102 86 103
REMARK SMILES IDX 87 104 89 105 91 106 88 107 72 108 73 109 78 110 74 111
REMARK SMILES IDX 75 112 77 113 79 114 76 115
REMARK H PARENT 20 12 16 17 25 46 96 77 70 88
REMARK Flexibility Score: inf
ROOT
ATOM      1  C   UNL A   1      43.018  36.510  33.026  1.00  0.00     0.188 C 
ENDROOT
BRANCH   1   2
ATOM      2  O   UNL A   1      42.724  35.315  32.306  1.00  0.00    -0.376 OA
BRANCH   2   3
ATOM      3  C   UNL A   1      43.102  35.093  30.964  1.00  0.00     0.202 C 
BRANCH   3   4
ATOM      4  C   UNL A   1      43.272  36.229  29.991  1.00  0.00     0.261 C 
BRANCH   4   5
ATOM      5  O   UNL A   1      44.691  36.386  29.784  1.00  0.00    -0.462 OA
BRANCH   5   6
ATOM      6  C   UNL A   1      44.929  37.692  29.764  1.00  0.00     0.329 C 
ATOM      7  O   UNL A   1      44.982  38.329  30.801  1.00  0.00    -0.250 OA
BRANCH   6   8
ATOM      8  C   UNL A   1      44.862  38.485  28.529  1.00  0.00     0.196 C 
BRANCH   8   9
ATOM      9  N   UNL A   1      45.974  37.826  27.809  1.00  0.00    -0.341 N 
ATOM     10  C   UNL A   1      47.347  37.976  28.042  1.00  0.00     0.240 C 
ATOM     11  O   UNL A   1      48.081  37.719  27.076  1.00  0.00    -0.273 OA
ATOM     12  H   UNL A   1      45.719  37.210  27.084  1.00  0.00     0.164 HD
BRANCH  10  13
ATOM     13  C   UNL A   1      48.018  38.452  29.415  1.00  0.00     0.216 C 
BRANCH  13  14
ATOM     14  N   UNL A   1      47.783  39.803  30.019  1.00  0.00    -0.340 N 
ATOM     15  C   UNL A   1      47.938  41.127  29.551  1.00  0.00     0.292 C 
ATOM     16  O   UNL A   1      47.717  42.124  30.234  1.00  0.00    -0.265 OA
ATOM     17  H   UNL A   1      47.446  39.759  30.943  1.00  0.00     0.164 HD
BRANCH  15  18
ATOM     18  C   UNL A   1      48.453  41.370  28.159  1.00  0.00     0.252 C 
ATOM     19  O   UNL A   1      49.682  41.492  28.113  1.00  0.00    -0.283 OA
BRANCH  18  20
ATOM     20  C   UNL A   1      47.707  41.640  26.896  1.00  0.00     0.054 A 
ATOM     21  N   UNL A   1      45.979  41.811  25.456  1.00  0.00    -0.240 N 
ATOM     22  C   UNL A   1      47.079  40.983  25.814  1.00  0.00     0.117 A 
ATOM     23  C   UNL A   1      46.016  42.924  26.333  1.00  0.00     0.065 A 
ATOM     24  C   UNL A   1      47.345  42.985  26.694  1.00  0.00     0.012 A 
ATOM     25  C   UNL A   1      45.179  44.050  26.465  1.00  0.00     0.028 A 
ATOM     26  C   UNL A   1      47.927  44.206  27.051  1.00  0.00     0.011 A 
ATOM     27  C   UNL A   1      45.811  45.279  26.676  1.00  0.00     0.002 A 
ATOM     28  C   UNL A   1      47.172  45.362  26.937  1.00  0.00     0.001 A 
BRANCH  21  29
ATOM     29  S   UNL A   1      45.380  42.363  23.948  1.00  0.00     0.268 S 
ATOM     30  O   UNL A   1      43.966  42.045  24.120  1.00  0.00    -0.201 OA
ATOM     31  O   UNL A   1      46.239  41.586  23.054  1.00  0.00    -0.201 OA
BRANCH  29  32
ATOM     32  C   UNL A   1      45.278  43.803  22.981  1.00  0.00     0.088 A 
ATOM     33  C   UNL A   1      44.971  46.261  19.447  1.00  0.00     0.044 C 
ATOM     34  C   UNL A   1      45.077  45.467  20.713  1.00  0.00    -0.051 A 
ATOM     35  C   UNL A   1      44.434  44.244  20.703  1.00  0.00     0.005 A 
ATOM     36  C   UNL A   1      45.801  45.860  21.866  1.00  0.00     0.005 A 
ATOM     37  C   UNL A   1      44.527  43.452  21.818  1.00  0.00     0.022 A 
ATOM     38  C   UNL A   1      45.924  45.022  23.012  1.00  0.00     0.022 A 
ENDBRANCH  29  32
ENDBRANCH  21  29
ENDBRANCH  18  20
ENDBRANCH  15  18
ENDBRANCH  13  14
ENDBRANCH  10  13
ENDBRANCH   8   9
BRANCH   8  39
ATOM     39  C   UNL A   1      44.618  40.046  28.592  1.00  0.00     0.074 C 
BRANCH  39  40
ATOM     40  C   UNL A   1      43.655  40.758  29.505  1.00  0.00    -0.020 A 
ATOM     41  C   UNL A   1      42.367  40.777  29.799  1.00  0.00     0.087 A 
ATOM     42  C   UNL A   1      43.336  41.964  30.101  1.00  0.00     0.003 A 
ATOM     43  N   UNL A   1      41.691  41.139  31.549  1.00  0.00    -0.361 N 
ATOM     44  C   UNL A   1      42.255  42.112  31.804  1.00  0.00     0.046 A 
ATOM     45  C   UNL A   1      44.431  43.397  29.930  1.00  0.00     0.010 A 
ATOM     46  H   UNL A   1      41.039  40.632  32.086  1.00  0.00     0.166 HD
ATOM     47  C   UNL A   1      42.434  43.462  32.879  1.00  0.00     0.026 A 
ATOM     48  C   UNL A   1      44.420  44.625  31.085  1.00  0.00     0.001 A 
ATOM     49  C   UNL A   1      43.484  44.638  32.451  1.00  0.00     0.002 A 
ENDBRANCH  39  40
ENDBRANCH   8  39
ENDBRANCH   6   8
ENDBRANCH   5   6
ENDBRANCH   4   5
ENDBRANCH   3   4
ENDBRANCH   2   3
ENDBRANCH   1   2
BRANCH   1  50
ATOM     50  C   UNL A   1      43.318  36.681  34.505  1.00  0.00     0.188 C 
BRANCH  50  51
ATOM     51  O   UNL A   1      42.261  37.265  35.180  1.00  0.00    -0.377 OA
BRANCH  51  52
ATOM     52  C   UNL A   1      41.267  36.328  35.514  1.00  0.00     0.188 C 
BRANCH  52  53
ATOM     53  C   UNL A   1      41.910  35.409  36.421  1.00  0.00     0.188 C 
BRANCH  53  54
ATOM     54  O   UNL A   1      40.847  34.774  37.098  1.00  0.00    -0.376 OA
BRANCH  54  55
ATOM     55  C   UNL A   1      41.289  33.476  37.361  1.00  0.00     0.202 C 
BRANCH  55  56
ATOM     56  C   UNL A   1      42.811  33.555  37.456  1.00  0.00     0.261 C 
BRANCH  56  57
ATOM     57  O   UNL A   1      43.528  32.309  38.024  1.00  0.00    -0.460 OA
BRANCH  57  58
ATOM     58  C   UNL A   1      43.998  31.009  37.915  1.00  0.00     0.338 C 
ATOM     59  O   UNL A   1      44.314  30.497  38.997  1.00  0.00    -0.246 OA
BRANCH  58  60
ATOM     60  C   UNL A   1      44.284  30.033  36.706  1.00  0.00     0.060 A 
ATOM     61  C   UNL A   1      44.592  30.531  35.408  1.00  0.00     0.016 A 
ATOM     62  C   UNL A   1      44.245  28.652  36.728  1.00  0.00     0.016 A 
ATOM     63  C   UNL A   1      44.577  29.727  34.177  1.00  0.00     0.010 A 
ATOM     64  C   UNL A   1      44.101  27.891  35.506  1.00  0.00     0.010 A 
ATOM     65  C   UNL A   1      44.204  28.377  34.169  1.00  0.00    -0.014 A 
BRANCH  65  66
ATOM     66  C   UNL A   1      43.891  27.424  32.883  1.00  0.00     0.031 A 
ATOM     67  C   UNL A   1      42.454  27.873  32.115  1.00  0.00     0.074 A 
ATOM     68  C   UNL A   1      44.901  26.805  32.118  1.00  0.00     0.049 A 
ATOM     69  N   UNL A   1      42.115  28.001  30.852  1.00  0.00    -0.248 NA
ATOM     70  C   UNL A   1      41.317  28.343  32.946  1.00  0.00     0.031 C 
ATOM     71  C   UNL A   1      46.064  25.846  32.350  1.00  0.00     0.029 A 
ATOM     72  N   UNL A   1      45.472  27.500  31.050  1.00  0.00    -0.354 N 
ATOM     73  C   UNL A   1      40.854  28.731  30.717  1.00  0.00     0.074 A 
ATOM     74  C   UNL A   1      40.467  28.938  32.089  1.00  0.00     0.031 C 
ATOM     75  C   UNL A   1      47.065  26.002  31.431  1.00  0.00     0.029 A 
ATOM     76  C   UNL A   1      46.731  27.109  30.580  1.00  0.00     0.049 A 
ATOM     77  H   UNL A   1      44.995  28.254  30.634  1.00  0.00     0.167 HD
ATOM     78  C   UNL A   1      40.258  29.106  29.499  1.00  0.00     0.037 A 
ATOM     79  C   UNL A   1      47.607  27.813  29.792  1.00  0.00     0.037 A 
ATOM     80  C   UNL A   1      41.072  28.668  28.376  1.00  0.00     0.049 A 
ATOM     81  C   UNL A   1      46.772  27.431  28.485  1.00  0.00     0.074 A 
ATOM     82  C   UNL A   1      41.430  29.137  27.123  1.00  0.00     0.029 A 
ATOM     83  N   UNL A   1      41.675  27.447  28.469  1.00  0.00    -0.354 N 
ATOM     84  N   UNL A   1      45.536  27.730  28.127  1.00  0.00    -0.248 NA
ATOM     85  C   UNL A   1      47.163  26.115  27.908  1.00  0.00     0.031 C 
ATOM     86  C   UNL A   1      42.536  28.383  26.668  1.00  0.00     0.029 A 
ATOM     87  C   UNL A   1      42.708  27.372  27.579  1.00  0.00     0.049 A 
ATOM     88  H   UNL A   1      41.407  26.728  29.085  1.00  0.00     0.167 HD
ATOM     89  C   UNL A   1      44.908  26.513  27.742  1.00  0.00     0.074 A 
ATOM     90  C   UNL A   1      45.981  25.565  27.607  1.00  0.00     0.031 C 
ATOM     91  C   UNL A   1      43.562  26.243  27.670  1.00  0.00     0.037 A 
BRANCH  78  92
ATOM     92  C   UNL A   1      38.949  29.930  29.077  1.00  0.00     0.057 A 
ATOM     93  C   UNL A   1      38.778  31.294  29.505  1.00  0.00     0.134 A 
ATOM     94  C   UNL A   1      37.823  29.482  28.367  1.00  0.00     0.134 A 
ATOM     95  F   UNL A   1      39.802  32.015  29.986  1.00  0.00    -0.206 F 
ATOM     96  C   UNL A   1      37.593  32.053  29.406  1.00  0.00     0.040 A 
ATOM     97  C   UNL A   1      36.654  30.286  28.159  1.00  0.00     0.040 A 
ATOM     98  F   UNL A   1      37.790  28.263  27.815  1.00  0.00    -0.206 F 
ATOM     99  C   UNL A   1      36.516  31.555  28.713  1.00  0.00     0.006 A 
ENDBRANCH  78  92
BRANCH  79 100
ATOM    100  C   UNL A   1      48.105  29.163  30.517  1.00  0.00     0.057 A 
ATOM    101  C   UNL A   1      48.738  29.685  32.339  1.00  0.00     0.134 A 
ATOM    102  C   UNL A   1      47.567  30.703  29.381  1.00  0.00     0.134 A 
ATOM    103  F   UNL A   1      48.985  28.674  33.196  1.00  0.00    -0.206 F 
ATOM    104  C   UNL A   1      48.983  31.503  33.137  1.00  0.00     0.040 A 
ATOM    105  C   UNL A   1      47.858  32.488  30.057  1.00  0.00     0.040 A 
ATOM    106  F   UNL A   1      46.333  30.672  28.861  1.00  0.00    -0.206 F 
ATOM    107  C   UNL A   1      48.546  33.052  31.774  1.00  0.00     0.006 A 
ENDBRANCH  79 100
BRANCH  91 108
ATOM    108  C   UNL A   1      42.860  24.879  27.596  1.00  0.00     0.057 A 
ATOM    109  C   UNL A   1      42.307  24.350  26.427  1.00  0.00     0.134 A 
ATOM    110  C   UNL A   1      42.829  23.988  28.707  1.00  0.00     0.134 A 
ATOM    111  F   UNL A   1      42.512  24.935  25.239  1.00  0.00    -0.206 F 
ATOM    112  C   UNL A   1      41.546  23.169  26.429  1.00  0.00     0.040 A 
ATOM    113  C   UNL A   1      42.137  22.774  28.704  1.00  0.00     0.040 A 
ATOM    114  F   UNL A   1      43.489  24.244  29.848  1.00  0.00    -0.206 F 
ATOM    115  C   UNL A   1      41.423  22.400  27.582  1.00  0.00     0.006 A 
ENDBRANCH  91 108
ENDBRANCH  65  66
ENDBRANCH  58  60
ENDBRANCH  57  58
ENDBRANCH  56  57
ENDBRANCH  55  56
ENDBRANCH  54  55
ENDBRANCH  53  54
ENDBRANCH  52  53
ENDBRANCH  51  52
ENDBRANCH  50  51
ENDBRANCH   1  50
TORSDOF 29
ENDMDL
