MODEL 1
REMARK VINA RESULT:     -11.6      0.000      0.000
REMARK SMILES Cc1cccc(OC2(C(=O)OCCOCCOCCOCCOC(=O)c3ccc(-c4c5nc(c(-c6c(F)cccc6F)c6ccc([nH]6)c(-c6c(F)cccc6F)c6nc(c(-c7c(F)cccc7F)c7ccc4[nH]7)C=C6)C=C5)cc3)CCN(C(=O)c3cnc[nH]c3=O)CC2)c1
REMARK SMILES IDX 17 1 16 2 15 3 14 4 13 5 12 6 11 7 9 8 10 9 8 10 80 11 93 12
REMARK SMILES IDX 81 13 92 14 82 15 83 16 84 17 7 18 6 19 1 20 2 21 3 22 94 23
REMARK SMILES IDX 4 24 5 25 85 26 86 27 90 28 87 29 89 30 91 31 88 32 18 34
REMARK SMILES IDX 19 35 20 36 21 37 22 38 23 39 24 40 25 41 26 42 27 43 79 44
REMARK SMILES IDX 28 45 78 46 29 47 30 48 31 49 72 50 32 51 77 52 71 53 73 54
REMARK SMILES IDX 33 55 76 56 70 57 69 58 34 60 60 61 43 62 59 63 44 64 47 65
REMARK SMILES IDX 58 66 74 67 45 68 46 69 57 71 75 72 48 73 35 74 36 75 41 76
REMARK SMILES IDX 37 77 38 78 40 79 42 80 39 81 61 82 62 83 67 84 63 85 64 86
REMARK SMILES IDX 66 87 68 88 65 89 49 90 50 91 55 92 51 93 52 94 54 95 56 96
REMARK SMILES IDX 53 97
REMARK H PARENT 89 33 73 59 47 70
REMARK Flexibility Score: inf
ROOT
ATOM      1  O   UNL A   1      30.487  25.696  24.530  1.00  0.00    -0.377 OA
ENDROOT
BRANCH   1   2
ATOM      2  C   UNL A   1      29.957  26.323  23.386  1.00  0.00     0.188 C 
BRANCH   2   3
ATOM      3  C   UNL A   1      29.702  27.849  23.649  1.00  0.00     0.188 C 
BRANCH   3   4
ATOM      4  O   UNL A   1      30.800  28.900  23.611  1.00  0.00    -0.376 OA
BRANCH   4   5
ATOM      5  C   UNL A   1      32.348  28.857  23.212  1.00  0.00     0.202 C 
BRANCH   5   6
ATOM      6  C   UNL A   1      33.685  27.673  22.722  1.00  0.00     0.261 C 
BRANCH   6   7
ATOM      7  O   UNL A   1      33.753  26.014  21.911  1.00  0.00    -0.460 OA
BRANCH   7   8
ATOM      8  C   UNL A   1      33.373  24.546  21.707  1.00  0.00     0.350 C 
ATOM      9  O   UNL A   1      33.281  24.190  20.518  1.00  0.00    -0.247 OA
BRANCH   8  10
ATOM     10  C   UNL A   1      32.924  23.253  22.925  1.00  0.00     0.209 C 
ATOM     11  C   UNL A   1      31.635  22.323  22.855  1.00  0.00     0.082 C 
ATOM     12  C   UNL A   1      34.200  22.324  23.215  1.00  0.00     0.082 C 
ATOM     13  C   UNL A   1      31.559  21.051  23.687  1.00  0.00     0.124 C 
ATOM     14  C   UNL A   1      33.950  21.040  24.060  1.00  0.00     0.124 C 
ATOM     15  N   UNL A   1      32.785  20.306  23.600  1.00  0.00    -0.338 N 
ATOM     16  C   UNL A   1      32.717  18.991  23.174  1.00  0.00     0.261 C 
ATOM     17  O   UNL A   1      31.995  18.611  22.253  1.00  0.00    -0.269 OA
BRANCH  10  18
ATOM     18  O   UNL A   1      32.845  23.923  24.264  1.00  0.00    -0.475 OA
BRANCH  18  19
ATOM     19  C   UNL A   1      33.808  23.634  25.189  1.00  0.00     0.121 A 
ATOM     20  C   UNL A   1      37.587  23.811  25.491  1.00  0.00     0.044 C 
ATOM     21  C   UNL A   1      36.152  23.611  25.879  1.00  0.00    -0.047 A 
ATOM     22  C   UNL A   1      35.770  23.092  27.111  1.00  0.00     0.003 A 
ATOM     23  C   UNL A   1      35.146  23.984  24.988  1.00  0.00     0.050 A 
ATOM     24  C   UNL A   1      34.413  22.883  27.392  1.00  0.00     0.004 A 
ATOM     25  C   UNL A   1      33.435  23.128  26.422  1.00  0.00     0.046 A 
ENDBRANCH  18  19
ENDBRANCH  10  18
BRANCH  16  26
ATOM     26  C   UNL A   1      33.370  17.969  24.014  1.00  0.00     0.123 A 
ATOM     27  C   UNL A   1      34.098  16.988  23.458  1.00  0.00     0.132 A 
ATOM     28  C   UNL A   1      32.985  17.786  25.428  1.00  0.00     0.263 A 
ATOM     29  N   UNL A   1      34.606  15.897  24.127  1.00  0.00    -0.246 NA
ATOM     30  N   UNL A   1      33.471  16.659  26.028  1.00  0.00    -0.312 N 
ATOM     31  O   UNL A   1      32.255  18.567  26.038  1.00  0.00    -0.269 OA
ATOM     32  C   UNL A   1      34.262  15.770  25.364  1.00  0.00     0.199 A 
ATOM     33  H   UNL A   1      33.243  16.483  26.970  1.00  0.00     0.171 HD
ENDBRANCH  16  26
ENDBRANCH   8  10
ENDBRANCH   7   8
ENDBRANCH   6   7
ENDBRANCH   5   6
ENDBRANCH   4   5
ENDBRANCH   3   4
ENDBRANCH   2   3
ENDBRANCH   1   2
BRANCH   1  34
ATOM     34  C   UNL A   1      30.683  26.528  25.667  1.00  0.00     0.188 C 
BRANCH  34  35
ATOM     35  C   UNL A   1      32.098  26.698  26.244  1.00  0.00     0.188 C 
BRANCH  35  36
ATOM     36  O   UNL A   1      32.146  27.484  27.438  1.00  0.00    -0.376 OA
BRANCH  36  37
ATOM     37  C   UNL A   1      31.493  28.761  27.378  1.00  0.00     0.202 C 
BRANCH  37  38
ATOM     38  C   UNL A   1      32.336  29.958  26.884  1.00  0.00     0.261 C 
BRANCH  38  39
ATOM     39  O   UNL A   1      33.417  30.226  27.790  1.00  0.00    -0.460 OA
BRANCH  39  40
ATOM     40  C   UNL A   1      34.638  29.836  27.350  1.00  0.00     0.338 C 
ATOM     41  O   UNL A   1      34.850  29.007  26.481  1.00  0.00    -0.246 OA
BRANCH  40  42
ATOM     42  C   UNL A   1      35.663  30.361  28.296  1.00  0.00     0.060 A 
ATOM     43  C   UNL A   1      36.312  31.551  28.010  1.00  0.00     0.016 A 
ATOM     44  C   UNL A   1      36.180  29.535  29.303  1.00  0.00     0.016 A 
ATOM     45  C   UNL A   1      37.546  31.805  28.628  1.00  0.00     0.010 A 
ATOM     46  C   UNL A   1      37.494  29.698  29.748  1.00  0.00     0.010 A 
ATOM     47  C   UNL A   1      38.256  30.790  29.329  1.00  0.00    -0.014 A 
BRANCH  47  48
ATOM     48  C   UNL A   1      39.781  30.862  29.789  1.00  0.00     0.031 A 
ATOM     49  C   UNL A   1      40.172  29.413  28.830  1.00  0.00     0.074 A 
ATOM     50  C   UNL A   1      40.595  31.635  30.983  1.00  0.00     0.049 A 
ATOM     51  N   UNL A   1      40.658  28.296  29.320  1.00  0.00    -0.248 NA
ATOM     52  C   UNL A   1      39.759  29.122  27.436  1.00  0.00     0.031 C 
ATOM     53  C   UNL A   1      42.171  31.557  31.582  1.00  0.00     0.029 A 
ATOM     54  N   UNL A   1      40.275  32.400  32.233  1.00  0.00    -0.354 N 
ATOM     55  C   UNL A   1      41.164  27.540  28.322  1.00  0.00     0.074 A 
ATOM     56  C   UNL A   1      40.328  27.921  27.207  1.00  0.00     0.031 C 
ATOM     57  C   UNL A   1      42.457  32.155  32.730  1.00  0.00     0.029 A 
ATOM     58  C   UNL A   1      41.204  32.293  33.322  1.00  0.00     0.049 A 
ATOM     59  H   UNL A   1      39.462  32.950  32.303  1.00  0.00     0.167 HD
ATOM     60  C   UNL A   1      42.356  26.871  28.464  1.00  0.00     0.037 A 
ATOM     61  C   UNL A   1      41.011  31.760  34.571  1.00  0.00     0.037 A 
ATOM     62  C   UNL A   1      43.142  27.263  29.686  1.00  0.00     0.049 A 
ATOM     63  C   UNL A   1      41.882  30.471  34.787  1.00  0.00     0.074 A 
ATOM     64  C   UNL A   1      44.239  28.111  29.806  1.00  0.00     0.029 A 
ATOM     65  N   UNL A   1      42.745  27.026  31.021  1.00  0.00    -0.354 N 
ATOM     66  N   UNL A   1      42.364  29.738  33.806  1.00  0.00    -0.248 NA
ATOM     67  C   UNL A   1      42.344  29.946  36.066  1.00  0.00     0.031 C 
ATOM     68  C   UNL A   1      44.451  28.443  31.172  1.00  0.00     0.029 A 
ATOM     69  C   UNL A   1      43.522  27.767  31.948  1.00  0.00     0.049 A 
ATOM     70  H   UNL A   1      42.013  26.420  31.278  1.00  0.00     0.167 HD
ATOM     71  C   UNL A   1      43.036  28.621  34.246  1.00  0.00     0.074 A 
ATOM     72  C   UNL A   1      43.070  28.871  35.686  1.00  0.00     0.031 C 
ATOM     73  C   UNL A   1      43.482  27.587  33.429  1.00  0.00     0.037 A 
BRANCH  60  74
ATOM     74  C   UNL A   1      42.957  26.254  27.202  1.00  0.00     0.057 A 
ATOM     75  C   UNL A   1      42.790  24.908  26.835  1.00  0.00     0.134 A 
ATOM     76  C   UNL A   1      43.807  26.981  26.342  1.00  0.00     0.134 A 
ATOM     77  F   UNL A   1      41.878  24.121  27.417  1.00  0.00    -0.206 F 
ATOM     78  C   UNL A   1      43.551  24.294  25.826  1.00  0.00     0.040 A 
ATOM     79  C   UNL A   1      44.603  26.375  25.357  1.00  0.00     0.040 A 
ATOM     80  F   UNL A   1      43.897  28.318  26.437  1.00  0.00    -0.206 F 
ATOM     81  C   UNL A   1      44.501  25.014  25.118  1.00  0.00     0.006 A 
ENDBRANCH  60  74
BRANCH  61  82
ATOM     82  C   UNL A   1      39.701  32.124  35.178  1.00  0.00     0.057 A 
ATOM     83  C   UNL A   1      39.673  33.284  35.983  1.00  0.00     0.134 A 
ATOM     84  C   UNL A   1      38.467  31.632  34.755  1.00  0.00     0.134 A 
ATOM     85  F   UNL A   1      40.813  33.780  36.490  1.00  0.00    -0.206 F 
ATOM     86  C   UNL A   1      38.510  34.025  36.185  1.00  0.00     0.040 A 
ATOM     87  C   UNL A   1      37.287  32.371  34.948  1.00  0.00     0.040 A 
ATOM     88  F   UNL A   1      38.392  30.507  34.032  1.00  0.00    -0.206 F 
ATOM     89  C   UNL A   1      37.317  33.592  35.622  1.00  0.00     0.006 A 
ENDBRANCH  61  82
BRANCH  73  90
ATOM     90  C   UNL A   1      44.112  26.290  33.942  1.00  0.00     0.057 A 
ATOM     91  C   UNL A   1      43.411  25.270  34.599  1.00  0.00     0.134 A 
ATOM     92  C   UNL A   1      45.470  25.977  33.670  1.00  0.00     0.134 A 
ATOM     93  F   UNL A   1      42.093  25.353  34.820  1.00  0.00    -0.206 F 
ATOM     94  C   UNL A   1      44.021  24.075  35.014  1.00  0.00     0.040 A 
ATOM     95  C   UNL A   1      46.070  24.762  34.017  1.00  0.00     0.040 A 
ATOM     96  F   UNL A   1      46.289  26.828  33.037  1.00  0.00    -0.206 F 
ATOM     97  C   UNL A   1      45.349  23.809  34.710  1.00  0.00     0.006 A 
ENDBRANCH  73  90
ENDBRANCH  47  48
ENDBRANCH  40  42
ENDBRANCH  39  40
ENDBRANCH  38  39
ENDBRANCH  37  38
ENDBRANCH  36  37
ENDBRANCH  35  36
ENDBRANCH  34  35
ENDBRANCH   1  34
TORSDOF 23
ENDMDL
MODEL 2
REMARK VINA RESULT:     -10.9      4.266      9.060
REMARK SMILES Cc1cccc(OC2(C(=O)OCCOCCOCCOCCOC(=O)c3ccc(-c4c5nc(c(-c6c(F)cccc6F)c6ccc([nH]6)c(-c6c(F)cccc6F)c6nc(c(-c7c(F)cccc7F)c7ccc4[nH]7)C=C6)C=C5)cc3)CCN(C(=O)c3cnc[nH]c3=O)CC2)c1
REMARK SMILES IDX 17 1 16 2 15 3 14 4 13 5 12 6 11 7 9 8 10 9 8 10 80 11 93 12
REMARK SMILES IDX 81 13 92 14 82 15 83 16 84 17 7 18 6 19 1 20 2 21 3 22 94 23
REMARK SMILES IDX 4 24 5 25 85 26 86 27 90 28 87 29 89 30 91 31 88 32 18 34
REMARK SMILES IDX 19 35 20 36 21 37 22 38 23 39 24 40 25 41 26 42 27 43 79 44
REMARK SMILES IDX 28 45 78 46 29 47 30 48 31 49 72 50 32 51 77 52 71 53 73 54
REMARK SMILES IDX 33 55 76 56 70 57 69 58 34 60 60 61 43 62 59 63 44 64 47 65
REMARK SMILES IDX 58 66 74 67 45 68 46 69 57 71 75 72 48 73 35 74 36 75 41 76
REMARK SMILES IDX 37 77 38 78 40 79 42 80 39 81 61 82 62 83 67 84 63 85 64 86
REMARK SMILES IDX 66 87 68 88 65 89 49 90 50 91 55 92 51 93 52 94 54 95 56 96
REMARK SMILES IDX 53 97
REMARK H PARENT 89 33 73 59 47 70
REMARK Flexibility Score: inf
ROOT
ATOM      1  O   UNL A   1      39.870  25.348  27.067  1.00  0.00    -0.377 OA
ENDROOT
BRANCH   1   2
ATOM      2  C   UNL A   1      39.683  26.477  27.887  1.00  0.00     0.188 C 
BRANCH   2   3
ATOM      3  C   UNL A   1      39.834  27.804  27.061  1.00  0.00     0.188 C 
BRANCH   3   4
ATOM      4  O   UNL A   1      39.404  29.166  27.580  1.00  0.00    -0.376 OA
BRANCH   4   5
ATOM      5  C   UNL A   1      37.996  29.778  28.024  1.00  0.00     0.202 C 
BRANCH   5   6
ATOM      6  C   UNL A   1      36.177  29.590  27.730  1.00  0.00     0.261 C 
BRANCH   6   7
ATOM      7  O   UNL A   1      35.118  28.660  26.534  1.00  0.00    -0.460 OA
BRANCH   7   8
ATOM      8  C   UNL A   1      33.920  28.447  25.608  1.00  0.00     0.350 C 
ATOM      9  O   UNL A   1      33.415  29.491  25.157  1.00  0.00    -0.247 OA
BRANCH   8  10
ATOM     10  C   UNL A   1      33.037  26.912  25.140  1.00  0.00     0.209 C 
ATOM     11  C   UNL A   1      32.823  26.383  23.654  1.00  0.00     0.082 C 
ATOM     12  C   UNL A   1      33.570  25.693  26.036  1.00  0.00     0.082 C 
ATOM     13  C   UNL A   1      32.423  24.936  23.403  1.00  0.00     0.124 C 
ATOM     14  C   UNL A   1      33.091  24.268  25.632  1.00  0.00     0.124 C 
ATOM     15  N   UNL A   1      33.212  24.039  24.203  1.00  0.00    -0.338 N 
ATOM     16  C   UNL A   1      33.918  23.041  23.554  1.00  0.00     0.261 C 
ATOM     17  O   UNL A   1      34.524  23.215  22.497  1.00  0.00    -0.269 OA
BRANCH  10  18
ATOM     18  O   UNL A   1      31.657  27.008  25.718  1.00  0.00    -0.475 OA
BRANCH  18  19
ATOM     19  C   UNL A   1      30.621  27.294  24.875  1.00  0.00     0.121 A 
ATOM     20  C   UNL A   1      29.599  30.056  22.481  1.00  0.00     0.044 C 
ATOM     21  C   UNL A   1      29.575  28.746  23.211  1.00  0.00    -0.047 A 
ATOM     22  C   UNL A   1      28.521  27.845  23.108  1.00  0.00     0.003 A 
ATOM     23  C   UNL A   1      30.663  28.388  24.007  1.00  0.00     0.050 A 
ATOM     24  C   UNL A   1      28.537  26.661  23.856  1.00  0.00     0.004 A 
ATOM     25  C   UNL A   1      29.572  26.398  24.758  1.00  0.00     0.046 A 
ENDBRANCH  18  19
ENDBRANCH  10  18
BRANCH  16  26
ATOM     26  C   UNL A   1      33.742  21.659  24.038  1.00  0.00     0.123 A 
ATOM     27  C   UNL A   1      32.533  21.077  24.020  1.00  0.00     0.132 A 
ATOM     28  C   UNL A   1      34.782  20.999  24.851  1.00  0.00     0.263 A 
ATOM     29  N   UNL A   1      32.225  19.865  24.597  1.00  0.00    -0.246 NA
ATOM     30  N   UNL A   1      34.407  19.827  25.447  1.00  0.00    -0.312 N 
ATOM     31  O   UNL A   1      35.909  21.465  25.019  1.00  0.00    -0.269 OA
ATOM     32  C   UNL A   1      33.158  19.306  25.292  1.00  0.00     0.199 A 
ATOM     33  H   UNL A   1      35.059  19.345  26.004  1.00  0.00     0.171 HD
ENDBRANCH  16  26
ENDBRANCH   8  10
ENDBRANCH   7   8
ENDBRANCH   6   7
ENDBRANCH   5   6
ENDBRANCH   4   5
ENDBRANCH   3   4
ENDBRANCH   2   3
ENDBRANCH   1   2
BRANCH   1  34
ATOM     34  C   UNL A   1      39.340  24.123  27.557  1.00  0.00     0.188 C 
BRANCH  34  35
ATOM     35  C   UNL A   1      40.008  22.797  27.155  1.00  0.00     0.188 C 
BRANCH  35  36
ATOM     36  O   UNL A   1      41.089  22.950  26.232  1.00  0.00    -0.376 OA
BRANCH  36  37
ATOM     37  C   UNL A   1      42.186  22.036  26.389  1.00  0.00     0.202 C 
BRANCH  37  38
ATOM     38  C   UNL A   1      43.528  22.627  26.874  1.00  0.00     0.261 C 
BRANCH  38  39
ATOM     39  O   UNL A   1      43.333  23.441  28.041  1.00  0.00    -0.460 OA
BRANCH  39  40
ATOM     40  C   UNL A   1      44.360  24.276  28.331  1.00  0.00     0.338 C 
ATOM     41  O   UNL A   1      45.544  23.985  28.297  1.00  0.00    -0.246 OA
BRANCH  40  42
ATOM     42  C   UNL A   1      43.800  25.497  28.975  1.00  0.00     0.060 A 
ATOM     43  C   UNL A   1      43.508  26.607  28.200  1.00  0.00     0.016 A 
ATOM     44  C   UNL A   1      43.839  25.639  30.369  1.00  0.00     0.016 A 
ATOM     45  C   UNL A   1      43.422  27.858  28.829  1.00  0.00     0.010 A 
ATOM     46  C   UNL A   1      43.958  26.903  30.950  1.00  0.00     0.010 A 
ATOM     47  C   UNL A   1      43.861  28.056  30.168  1.00  0.00    -0.014 A 
BRANCH  47  48
ATOM     48  C   UNL A   1      44.109  29.465  30.873  1.00  0.00     0.031 A 
ATOM     49  C   UNL A   1      42.374  29.855  30.777  1.00  0.00     0.074 A 
ATOM     50  C   UNL A   1      45.425  30.397  31.164  1.00  0.00     0.049 A 
ATOM     51  N   UNL A   1      41.870  30.889  30.143  1.00  0.00    -0.248 NA
ATOM     52  C   UNL A   1      41.235  28.968  31.117  1.00  0.00     0.031 C 
ATOM     53  C   UNL A   1      45.657  31.969  31.734  1.00  0.00     0.029 A 
ATOM     54  N   UNL A   1      46.862  30.456  30.741  1.00  0.00    -0.354 N 
ATOM     55  C   UNL A   1      40.597  31.096  30.544  1.00  0.00     0.074 A 
ATOM     56  C   UNL A   1      40.168  29.757  30.876  1.00  0.00     0.031 C 
ATOM     57  C   UNL A   1      46.857  32.523  31.632  1.00  0.00     0.029 A 
ATOM     58  C   UNL A   1      47.464  31.755  30.641  1.00  0.00     0.049 A 
ATOM     59  H   UNL A   1      47.371  29.637  30.541  1.00  0.00     0.167 HD
ATOM     60  C   UNL A   1      40.120  32.362  30.787  1.00  0.00     0.037 A 
ATOM     61  C   UNL A   1      47.958  32.394  29.532  1.00  0.00     0.037 A 
ATOM     62  C   UNL A   1      41.183  33.427  30.822  1.00  0.00     0.049 A 
ATOM     63  C   UNL A   1      47.110  33.667  29.177  1.00  0.00     0.074 A 
ATOM     64  C   UNL A   1      41.789  34.045  31.911  1.00  0.00     0.029 A 
ATOM     65  N   UNL A   1      41.965  33.833  29.718  1.00  0.00    -0.354 N 
ATOM     66  N   UNL A   1      45.868  33.855  29.569  1.00  0.00    -0.248 NA
ATOM     67  C   UNL A   1      47.579  34.840  28.448  1.00  0.00     0.031 C 
ATOM     68  C   UNL A   1      42.954  34.743  31.490  1.00  0.00     0.029 A 
ATOM     69  C   UNL A   1      43.077  34.622  30.114  1.00  0.00     0.049 A 
ATOM     70  H   UNL A   1      41.764  33.597  28.784  1.00  0.00     0.167 HD
ATOM     71  C   UNL A   1      45.315  35.014  29.074  1.00  0.00     0.074 A 
ATOM     72  C   UNL A   1      46.485  35.636  28.457  1.00  0.00     0.031 C 
ATOM     73  C   UNL A   1      43.972  35.363  29.178  1.00  0.00     0.037 A 
BRANCH  60  74
ATOM     74  C   UNL A   1      38.758  32.468  31.471  1.00  0.00     0.057 A 
ATOM     75  C   UNL A   1      37.565  32.769  30.792  1.00  0.00     0.134 A 
ATOM     76  C   UNL A   1      38.608  32.350  32.869  1.00  0.00     0.134 A 
ATOM     77  F   UNL A   1      37.477  32.731  29.458  1.00  0.00    -0.206 F 
ATOM     78  C   UNL A   1      36.377  33.118  31.458  1.00  0.00     0.040 A 
ATOM     79  C   UNL A   1      37.442  32.733  33.551  1.00  0.00     0.040 A 
ATOM     80  F   UNL A   1      39.604  31.862  33.626  1.00  0.00    -0.206 F 
ATOM     81  C   UNL A   1      36.326  33.153  32.844  1.00  0.00     0.006 A 
ENDBRANCH  60  74
BRANCH  61  82
ATOM     82  C   UNL A   1      48.741  31.503  28.632  1.00  0.00     0.057 A 
ATOM     83  C   UNL A   1      49.983  31.039  29.121  1.00  0.00     0.134 A 
ATOM     84  C   UNL A   1      48.219  30.832  27.528  1.00  0.00     0.134 A 
ATOM     85  F   UNL A   1      50.588  31.675  30.136  1.00  0.00    -0.206 F 
ATOM     86  C   UNL A   1      50.567  29.856  28.670  1.00  0.00     0.040 A 
ATOM     87  C   UNL A   1      48.796  29.636  27.067  1.00  0.00     0.040 A 
ATOM     88  F   UNL A   1      47.073  31.235  26.964  1.00  0.00    -0.206 F 
ATOM     89  C   UNL A   1      49.944  29.122  27.670  1.00  0.00     0.006 A 
ENDBRANCH  61  82
BRANCH  73  90
ATOM     90  C   UNL A   1      43.343  36.588  28.512  1.00  0.00     0.057 A 
ATOM     91  C   UNL A   1      42.608  36.558  27.319  1.00  0.00     0.134 A 
ATOM     92  C   UNL A   1      43.366  37.859  29.146  1.00  0.00     0.134 A 
ATOM     93  F   UNL A   1      42.383  35.414  26.661  1.00  0.00    -0.206 F 
ATOM     94  C   UNL A   1      42.010  37.702  26.766  1.00  0.00     0.040 A 
ATOM     95  C   UNL A   1      42.716  38.989  28.640  1.00  0.00     0.040 A 
ATOM     96  F   UNL A   1      44.009  38.072  30.302  1.00  0.00    -0.206 F 
ATOM     97  C   UNL A   1      42.047  38.919  27.433  1.00  0.00     0.006 A 
ENDBRANCH  73  90
ENDBRANCH  47  48
ENDBRANCH  40  42
ENDBRANCH  39  40
ENDBRANCH  38  39
ENDBRANCH  37  38
ENDBRANCH  36  37
ENDBRANCH  35  36
ENDBRANCH  34  35
ENDBRANCH   1  34
TORSDOF 23
ENDMDL
MODEL 3
REMARK VINA RESULT:     -10.9      4.371      9.162
REMARK SMILES Cc1cccc(OC2(C(=O)OCCOCCOCCOCCOC(=O)c3ccc(-c4c5nc(c(-c6c(F)cccc6F)c6ccc([nH]6)c(-c6c(F)cccc6F)c6nc(c(-c7c(F)cccc7F)c7ccc4[nH]7)C=C6)C=C5)cc3)CCN(C(=O)c3cnc[nH]c3=O)CC2)c1
REMARK SMILES IDX 17 1 16 2 15 3 14 4 13 5 12 6 11 7 9 8 10 9 8 10 80 11 93 12
REMARK SMILES IDX 81 13 92 14 82 15 83 16 84 17 7 18 6 19 1 20 2 21 3 22 94 23
REMARK SMILES IDX 4 24 5 25 85 26 86 27 90 28 87 29 89 30 91 31 88 32 18 34
REMARK SMILES IDX 19 35 20 36 21 37 22 38 23 39 24 40 25 41 26 42 27 43 79 44
REMARK SMILES IDX 28 45 78 46 29 47 30 48 31 49 72 50 32 51 77 52 71 53 73 54
REMARK SMILES IDX 33 55 76 56 70 57 69 58 34 60 60 61 43 62 59 63 44 64 47 65
REMARK SMILES IDX 58 66 74 67 45 68 46 69 57 71 75 72 48 73 35 74 36 75 41 76
REMARK SMILES IDX 37 77 38 78 40 79 42 80 39 81 61 82 62 83 67 84 63 85 64 86
REMARK SMILES IDX 66 87 68 88 65 89 49 90 50 91 55 92 51 93 52 94 54 95 56 96
REMARK SMILES IDX 53 97
REMARK H PARENT 89 33 73 59 47 70
REMARK Flexibility Score: inf
ROOT
ATOM      1  O   UNL A   1      38.548  28.660  28.694  1.00  0.00    -0.377 OA
ENDROOT
BRANCH   1   2
ATOM      2  C   UNL A   1      39.016  27.716  29.627  1.00  0.00     0.188 C 
BRANCH   2   3
ATOM      3  C   UNL A   1      39.963  26.669  28.940  1.00  0.00     0.188 C 
BRANCH   3   4
ATOM      4  O   UNL A   1      39.661  26.023  27.597  1.00  0.00    -0.376 OA
BRANCH   4   5
ATOM      5  C   UNL A   1      39.003  24.630  27.171  1.00  0.00     0.202 C 
BRANCH   5   6
ATOM      6  C   UNL A   1      38.469  23.678  25.675  1.00  0.00     0.261 C 
BRANCH   6   7
ATOM      7  O   UNL A   1      37.090  23.799  24.450  1.00  0.00    -0.460 OA
BRANCH   7   8
ATOM      8  C   UNL A   1      35.709  23.487  23.872  1.00  0.00     0.350 C 
ATOM      9  O   UNL A   1      35.387  24.176  22.886  1.00  0.00    -0.247 OA
BRANCH   8  10
ATOM     10  C   UNL A   1      34.405  22.343  24.458  1.00  0.00     0.209 C 
ATOM     11  C   UNL A   1      33.049  22.012  23.692  1.00  0.00     0.082 C 
ATOM     12  C   UNL A   1      35.073  20.958  24.917  1.00  0.00     0.082 C 
ATOM     13  C   UNL A   1      32.232  20.785  24.069  1.00  0.00     0.124 C 
ATOM     14  C   UNL A   1      34.100  19.787  25.241  1.00  0.00     0.124 C 
ATOM     15  N   UNL A   1      33.078  19.632  24.221  1.00  0.00    -0.338 N 
ATOM     16  C   UNL A   1      32.792  18.511  23.462  1.00  0.00     0.261 C 
ATOM     17  O   UNL A   1      32.453  18.559  22.280  1.00  0.00    -0.269 OA
BRANCH  10  18
ATOM     18  O   UNL A   1      33.975  22.825  25.811  1.00  0.00    -0.475 OA
BRANCH  18  19
ATOM     19  C   UNL A   1      33.344  24.034  25.897  1.00  0.00     0.121 A 
ATOM     20  C   UNL A   1      29.798  25.370  26.109  1.00  0.00     0.044 C 
ATOM     21  C   UNL A   1      31.298  25.353  26.106  1.00  0.00    -0.047 A 
ATOM     22  C   UNL A   1      32.065  26.513  26.127  1.00  0.00     0.003 A 
ATOM     23  C   UNL A   1      31.967  24.129  26.112  1.00  0.00     0.050 A 
ATOM     24  C   UNL A   1      33.462  26.430  26.071  1.00  0.00     0.004 A 
ATOM     25  C   UNL A   1      34.100  25.193  25.929  1.00  0.00     0.046 A 
ENDBRANCH  18  19
ENDBRANCH  10  18
BRANCH  16  26
ATOM     26  C   UNL A   1      32.668  17.223  24.171  1.00  0.00     0.123 A 
ATOM     27  C   UNL A   1      31.882  17.110  25.253  1.00  0.00     0.132 A 
ATOM     28  C   UNL A   1      33.631  16.129  23.936  1.00  0.00     0.263 A 
ATOM     29  N   UNL A   1      31.823  16.013  26.083  1.00  0.00    -0.246 NA
ATOM     30  N   UNL A   1      33.568  15.090  24.822  1.00  0.00    -0.312 N 
ATOM     31  O   UNL A   1      34.464  16.141  23.029  1.00  0.00    -0.269 OA
ATOM     32  C   UNL A   1      32.670  15.068  25.846  1.00  0.00     0.199 A 
ATOM     33  H   UNL A   1      34.189  14.334  24.716  1.00  0.00     0.171 HD
ENDBRANCH  16  26
ENDBRANCH   8  10
ENDBRANCH   7   8
ENDBRANCH   6   7
ENDBRANCH   5   6
ENDBRANCH   4   5
ENDBRANCH   3   4
ENDBRANCH   2   3
ENDBRANCH   1   2
BRANCH   1  34
ATOM     34  C   UNL A   1      37.388  29.392  29.070  1.00  0.00     0.188 C 
BRANCH  34  35
ATOM     35  C   UNL A   1      36.589  30.147  27.994  1.00  0.00     0.188 C 
BRANCH  35  36
ATOM     36  O   UNL A   1      35.264  30.500  28.399  1.00  0.00    -0.376 OA
BRANCH  36  37
ATOM     37  C   UNL A   1      34.682  31.631  27.731  1.00  0.00     0.202 C 
BRANCH  37  38
ATOM     38  C   UNL A   1      33.964  32.675  28.616  1.00  0.00     0.261 C 
BRANCH  38  39
ATOM     39  O   UNL A   1      34.911  33.576  29.208  1.00  0.00    -0.460 OA
BRANCH  39  40
ATOM     40  C   UNL A   1      35.260  33.279  30.483  1.00  0.00     0.338 C 
ATOM     41  O   UNL A   1      34.551  33.419  31.465  1.00  0.00    -0.246 OA
BRANCH  40  42
ATOM     42  C   UNL A   1      36.730  33.036  30.520  1.00  0.00     0.060 A 
ATOM     43  C   UNL A   1      37.231  31.980  31.262  1.00  0.00     0.016 A 
ATOM     44  C   UNL A   1      37.617  34.018  30.059  1.00  0.00     0.016 A 
ATOM     45  C   UNL A   1      38.576  32.021  31.659  1.00  0.00     0.010 A 
ATOM     46  C   UNL A   1      38.885  34.151  30.629  1.00  0.00     0.010 A 
ATOM     47  C   UNL A   1      39.359  33.203  31.537  1.00  0.00    -0.014 A 
BRANCH  47  48
ATOM     48  C   UNL A   1      40.770  33.467  32.231  1.00  0.00     0.031 A 
ATOM     49  C   UNL A   1      39.971  33.947  33.749  1.00  0.00     0.074 A 
ATOM     50  C   UNL A   1      42.305  33.669  31.693  1.00  0.00     0.049 A 
ATOM     51  N   UNL A   1      40.095  35.121  34.326  1.00  0.00    -0.248 NA
ATOM     52  C   UNL A   1      38.850  33.255  34.430  1.00  0.00     0.031 C 
ATOM     53  C   UNL A   1      43.757  34.139  32.413  1.00  0.00     0.029 A 
ATOM     54  N   UNL A   1      43.004  33.899  30.387  1.00  0.00    -0.354 N 
ATOM     55  C   UNL A   1      39.663  35.051  35.603  1.00  0.00     0.074 A 
ATOM     56  C   UNL A   1      38.650  34.024  35.519  1.00  0.00     0.031 C 
ATOM     57  C   UNL A   1      44.794  34.436  31.641  1.00  0.00     0.029 A 
ATOM     58  C   UNL A   1      44.194  34.701  30.413  1.00  0.00     0.049 A 
ATOM     59  H   UNL A   1      42.661  33.517  29.547  1.00  0.00     0.167 HD
ATOM     60  C   UNL A   1      40.347  35.666  36.625  1.00  0.00     0.037 A 
ATOM     61  C   UNL A   1      44.428  35.917  29.822  1.00  0.00     0.037 A 
ATOM     62  C   UNL A   1      41.709  36.174  36.238  1.00  0.00     0.049 A 
ATOM     63  C   UNL A   1      44.636  37.047  30.893  1.00  0.00     0.074 A 
ATOM     64  C   UNL A   1      42.965  35.623  36.472  1.00  0.00     0.029 A 
ATOM     65  N   UNL A   1      41.958  37.218  35.319  1.00  0.00    -0.354 N 
ATOM     66  N   UNL A   1      44.205  36.969  32.134  1.00  0.00    -0.248 NA
ATOM     67  C   UNL A   1      45.384  38.283  30.708  1.00  0.00     0.031 C 
ATOM     68  C   UNL A   1      43.938  36.263  35.655  1.00  0.00     0.029 A 
ATOM     69  C   UNL A   1      43.321  37.269  34.928  1.00  0.00     0.049 A 
ATOM     70  H   UNL A   1      41.268  37.836  34.988  1.00  0.00     0.167 HD
ATOM     71  C   UNL A   1      44.446  38.112  32.861  1.00  0.00     0.074 A 
ATOM     72  C   UNL A   1      45.284  38.861  31.927  1.00  0.00     0.031 C 
ATOM     73  C   UNL A   1      43.937  38.370  34.131  1.00  0.00     0.037 A 
BRANCH  60  74
ATOM     74  C   UNL A   1      39.918  35.319  38.050  1.00  0.00     0.057 A 
ATOM     75  C   UNL A   1      39.973  34.023  38.589  1.00  0.00     0.134 A 
ATOM     76  C   UNL A   1      39.349  36.276  38.917  1.00  0.00     0.134 A 
ATOM     77  F   UNL A   1      40.646  33.033  37.992  1.00  0.00    -0.206 F 
ATOM     78  C   UNL A   1      39.341  33.671  39.793  1.00  0.00     0.040 A 
ATOM     79  C   UNL A   1      38.680  35.936  40.103  1.00  0.00     0.040 A 
ATOM     80  F   UNL A   1      39.420  37.587  38.632  1.00  0.00    -0.206 F 
ATOM     81  C   UNL A   1      38.645  34.618  40.530  1.00  0.00     0.006 A 
ENDBRANCH  60  74
BRANCH  61  82
ATOM     82  C   UNL A   1      43.889  36.019  28.437  1.00  0.00     0.057 A 
ATOM     83  C   UNL A   1      44.662  35.433  27.410  1.00  0.00     0.134 A 
ATOM     84  C   UNL A   1      42.568  36.328  28.121  1.00  0.00     0.134 A 
ATOM     85  F   UNL A   1      45.963  35.171  27.611  1.00  0.00    -0.206 F 
ATOM     86  C   UNL A   1      44.100  34.995  26.212  1.00  0.00     0.040 A 
ATOM     87  C   UNL A   1      41.989  35.888  26.919  1.00  0.00     0.040 A 
ATOM     88  F   UNL A   1      41.776  36.934  29.016  1.00  0.00    -0.206 F 
ATOM     89  C   UNL A   1      42.743  35.179  25.984  1.00  0.00     0.006 A 
ENDBRANCH  61  82
BRANCH  73  90
ATOM     90  C   UNL A   1      44.104  39.696  34.876  1.00  0.00     0.057 A 
ATOM     91  C   UNL A   1      44.872  39.867  36.035  1.00  0.00     0.134 A 
ATOM     92  C   UNL A   1      43.566  40.902  34.354  1.00  0.00     0.134 A 
ATOM     93  F   UNL A   1      45.552  38.852  36.584  1.00  0.00    -0.206 F 
ATOM     94  C   UNL A   1      45.034  41.113  36.662  1.00  0.00     0.040 A 
ATOM     95  C   UNL A   1      43.777  42.159  34.932  1.00  0.00     0.040 A 
ATOM     96  F   UNL A   1      42.815  40.933  33.245  1.00  0.00    -0.206 F 
ATOM     97  C   UNL A   1      44.501  42.267  36.104  1.00  0.00     0.006 A 
ENDBRANCH  73  90
ENDBRANCH  47  48
ENDBRANCH  40  42
ENDBRANCH  39  40
ENDBRANCH  38  39
ENDBRANCH  37  38
ENDBRANCH  36  37
ENDBRANCH  35  36
ENDBRANCH  34  35
ENDBRANCH   1  34
TORSDOF 23
ENDMDL
