MODEL 1
REMARK VINA RESULT:      -7.1      0.000      0.000
REMARK SMILES CC(C)Cc1cc2c(cc1Cl)C=C(C(=O)OCCOCCOCCOCCOC(=O)c1ccc(-c3c4nc(c(-c5c(F)cccc5F)c5ccc([nH]5)c(-c5c(F)cccc5F)c5nc(c(-c6c(F)cccc6F)c6ccc3[nH]6)C=C5)C=C4)cc1)[C@@H](C(F)(F)F)O2
REMARK SMILES IDX 22 1 21 2 20 3 19 4 18 5 17 6 16 7 14 8 15 9 13 10 5 11 6 12
REMARK SMILES IDX 10 13 7 14 9 15 11 16 8 17 90 18 12 19 85 20 4 21 2 22 1 23
REMARK SMILES IDX 3 24 86 25 87 26 88 27 89 28 23 29 24 30 25 31 26 32 27 33
REMARK SMILES IDX 28 34 29 35 30 36 31 37 32 38 84 39 33 40 83 41 34 42 35 43
REMARK SMILES IDX 36 44 77 45 37 46 82 47 76 48 78 49 38 50 81 51 75 52 74 53
REMARK SMILES IDX 39 55 65 56 48 57 64 58 49 59 52 60 63 61 79 62 50 63 51 64
REMARK SMILES IDX 62 66 80 67 53 68 40 69 41 70 46 71 42 72 43 73 45 74 47 75
REMARK SMILES IDX 44 76 66 77 67 78 72 79 68 80 69 81 71 82 73 83 70 84 54 85
REMARK SMILES IDX 55 86 60 87 56 88 57 89 59 90 61 91 58 92
REMARK H PARENT 78 54 52 65
REMARK Flexibility Score: inf
ROOT
ATOM      1  O   UNL A   1      32.786  35.105  30.966  1.00  0.00    -0.377 OA
ENDROOT
BRANCH   1   2
ATOM      2  C   UNL A   1      33.719  35.330  32.012  1.00  0.00     0.188 C 
BRANCH   2   3
ATOM      3  C   UNL A   1      34.059  34.042  32.785  1.00  0.00     0.188 C 
BRANCH   3   4
ATOM      4  O   UNL A   1      34.931  33.175  32.061  1.00  0.00    -0.376 OA
BRANCH   4   5
ATOM      5  C   UNL A   1      36.071  33.756  31.440  1.00  0.00     0.202 C 
BRANCH   5   6
ATOM      6  C   UNL A   1      37.403  33.709  32.206  1.00  0.00     0.261 C 
BRANCH   6   7
ATOM      7  O   UNL A   1      38.139  32.485  32.082  1.00  0.00    -0.460 OA
BRANCH   7   8
ATOM      8  C   UNL A   1      38.308  31.738  33.190  1.00  0.00     0.338 C 
ATOM      9  O   UNL A   1      37.452  31.417  33.993  1.00  0.00    -0.246 OA
BRANCH   8  10
ATOM     10  C   UNL A   1      39.696  31.224  33.177  1.00  0.00     0.087 C 
ATOM     11  C   UNL A   1      43.864  28.480  33.654  1.00  0.00    -0.025 A 
ATOM     12  C   UNL A   1      43.598  29.810  33.291  1.00  0.00     0.052 A 
ATOM     13  C   UNL A   1      42.785  27.578  33.649  1.00  0.00     0.045 A 
ATOM     14  C   UNL A   1      42.289  30.266  33.135  1.00  0.00     0.128 A 
ATOM     15  C   UNL A   1      41.473  28.027  33.458  1.00  0.00     0.032 A 
ATOM     16  Cl  UNL A   1      43.009  25.882  33.904  1.00  0.00    -0.084 Cl
ATOM     17  C   UNL A   1      41.219  29.386  33.269  1.00  0.00     0.019 A 
ATOM     18  O   UNL A   1      42.151  31.598  32.877  1.00  0.00    -0.475 OA
ATOM     19  C   UNL A   1      39.859  29.898  33.269  1.00  0.00     0.027 C 
ATOM     20  C   UNL A   1      40.832  32.198  32.978  1.00  0.00     0.316 C 
BRANCH  11  21
ATOM     21  C   UNL A   1      45.257  28.033  34.058  1.00  0.00     0.040 C 
BRANCH  21  22
ATOM     22  C   UNL A   1      46.315  27.857  32.941  1.00  0.00    -0.013 C 
ATOM     23  C   UNL A   1      47.755  27.900  33.467  1.00  0.00     0.008 C 
ATOM     24  C   UNL A   1      46.093  26.516  32.230  1.00  0.00     0.008 C 
ENDBRANCH  21  22
ENDBRANCH  11  21
BRANCH  20  25
ATOM     25  C   UNL A   1      40.867  33.276  34.070  1.00  0.00     0.430 C 
ATOM     26  F   UNL A   1      40.253  34.413  33.662  1.00  0.00    -0.167 F 
ATOM     27  F   UNL A   1      40.230  32.876  35.197  1.00  0.00    -0.167 F 
ATOM     28  F   UNL A   1      42.132  33.601  34.418  1.00  0.00    -0.167 F 
ENDBRANCH  20  25
ENDBRANCH   8  10
ENDBRANCH   7   8
ENDBRANCH   6   7
ENDBRANCH   5   6
ENDBRANCH   4   5
ENDBRANCH   3   4
ENDBRANCH   2   3
ENDBRANCH   1   2
BRANCH   1  29
ATOM     29  C   UNL A   1      32.909  35.920  29.800  1.00  0.00     0.188 C 
BRANCH  29  30
ATOM     30  C   UNL A   1      34.026  35.674  28.757  1.00  0.00     0.188 C 
BRANCH  30  31
ATOM     31  O   UNL A   1      33.809  34.523  27.945  1.00  0.00    -0.376 OA
BRANCH  31  32
ATOM     32  C   UNL A   1      34.728  33.449  28.090  1.00  0.00     0.202 C 
BRANCH  32  33
ATOM     33  C   UNL A   1      34.094  32.155  28.611  1.00  0.00     0.261 C 
BRANCH  33  34
ATOM     34  O   UNL A   1      35.019  31.194  29.144  1.00  0.00    -0.460 OA
BRANCH  34  35
ATOM     35  C   UNL A   1      35.297  30.103  28.397  1.00  0.00     0.338 C 
ATOM     36  O   UNL A   1      34.548  29.517  27.636  1.00  0.00    -0.246 OA
BRANCH  35  37
ATOM     37  C   UNL A   1      36.749  29.853  28.509  1.00  0.00     0.060 A 
ATOM     38  C   UNL A   1      37.331  29.633  29.760  1.00  0.00     0.016 A 
ATOM     39  C   UNL A   1      37.540  29.879  27.352  1.00  0.00     0.016 A 
ATOM     40  C   UNL A   1      38.703  29.403  29.850  1.00  0.00     0.010 A 
ATOM     41  C   UNL A   1      38.916  29.655  27.447  1.00  0.00     0.010 A 
ATOM     42  C   UNL A   1      39.501  29.388  28.693  1.00  0.00    -0.014 A 
BRANCH  42  43
ATOM     43  C   UNL A   1      40.899  28.906  28.783  1.00  0.00     0.031 A 
ATOM     44  C   UNL A   1      41.281  27.494  28.468  1.00  0.00     0.074 A 
ATOM     45  C   UNL A   1      41.838  29.797  29.156  1.00  0.00     0.049 A 
ATOM     46  N   UNL A   1      42.478  26.964  28.407  1.00  0.00    -0.248 NA
ATOM     47  C   UNL A   1      40.188  26.553  28.193  1.00  0.00     0.031 C 
ATOM     48  C   UNL A   1      41.575  31.192  29.516  1.00  0.00     0.029 A 
ATOM     49  N   UNL A   1      43.195  29.668  29.286  1.00  0.00    -0.354 N 
ATOM     50  C   UNL A   1      42.288  25.632  28.064  1.00  0.00     0.074 A 
ATOM     51  C   UNL A   1      40.855  25.425  27.975  1.00  0.00     0.031 C 
ATOM     52  C   UNL A   1      42.737  31.796  29.804  1.00  0.00     0.029 A 
ATOM     53  C   UNL A   1      43.820  30.829  29.670  1.00  0.00     0.049 A 
ATOM     54  H   UNL A   1      43.676  28.825  29.121  1.00  0.00     0.167 HD
ATOM     55  C   UNL A   1      43.226  24.680  27.833  1.00  0.00     0.037 A 
ATOM     56  C   UNL A   1      45.122  31.087  29.884  1.00  0.00     0.037 A 
ATOM     57  C   UNL A   1      44.649  24.890  27.945  1.00  0.00     0.049 A 
ATOM     58  C   UNL A   1      46.131  29.996  29.667  1.00  0.00     0.074 A 
ATOM     59  C   UNL A   1      45.676  23.999  27.684  1.00  0.00     0.029 A 
ATOM     60  N   UNL A   1      45.246  26.067  28.373  1.00  0.00    -0.354 N 
ATOM     61  N   UNL A   1      45.946  28.768  29.247  1.00  0.00    -0.248 NA
ATOM     62  C   UNL A   1      47.533  30.332  29.944  1.00  0.00     0.031 C 
ATOM     63  C   UNL A   1      46.891  24.619  28.002  1.00  0.00     0.029 A 
ATOM     64  C   UNL A   1      46.624  25.914  28.414  1.00  0.00     0.049 A 
ATOM     65  H   UNL A   1      44.762  26.891  28.612  1.00  0.00     0.167 HD
ATOM     66  C   UNL A   1      47.208  28.195  29.183  1.00  0.00     0.074 A 
ATOM     67  C   UNL A   1      48.152  29.217  29.587  1.00  0.00     0.031 C 
ATOM     68  C   UNL A   1      47.555  26.935  28.821  1.00  0.00     0.037 A 
BRANCH  55  69
ATOM     69  C   UNL A   1      42.748  23.316  27.428  1.00  0.00     0.057 A 
ATOM     70  C   UNL A   1      42.558  22.990  26.078  1.00  0.00     0.134 A 
ATOM     71  C   UNL A   1      42.406  22.345  28.379  1.00  0.00     0.134 A 
ATOM     72  F   UNL A   1      42.853  23.877  25.116  1.00  0.00    -0.206 F 
ATOM     73  C   UNL A   1      42.042  21.752  25.691  1.00  0.00     0.040 A 
ATOM     74  C   UNL A   1      41.911  21.095  28.003  1.00  0.00     0.040 A 
ATOM     75  F   UNL A   1      42.565  22.592  29.688  1.00  0.00    -0.206 F 
ATOM     76  C   UNL A   1      41.720  20.799  26.656  1.00  0.00     0.006 A 
ENDBRANCH  55  69
BRANCH  56  77
ATOM     77  C   UNL A   1      45.555  32.440  30.308  1.00  0.00     0.057 A 
ATOM     78  C   UNL A   1      45.798  32.739  31.653  1.00  0.00     0.134 A 
ATOM     79  C   UNL A   1      45.768  33.456  29.369  1.00  0.00     0.134 A 
ATOM     80  F   UNL A   1      45.604  31.809  32.601  1.00  0.00    -0.206 F 
ATOM     81  C   UNL A   1      46.242  34.000  32.050  1.00  0.00     0.040 A 
ATOM     82  C   UNL A   1      46.238  34.713  29.750  1.00  0.00     0.040 A 
ATOM     83  F   UNL A   1      45.566  33.223  28.064  1.00  0.00    -0.206 F 
ATOM     84  C   UNL A   1      46.474  34.988  31.095  1.00  0.00     0.006 A 
ENDBRANCH  56  77
BRANCH  68  85
ATOM     85  C   UNL A   1      49.021  26.611  28.821  1.00  0.00     0.057 A 
ATOM     86  C   UNL A   1      49.622  26.020  29.940  1.00  0.00     0.134 A 
ATOM     87  C   UNL A   1      49.838  26.879  27.715  1.00  0.00     0.134 A 
ATOM     88  F   UNL A   1      48.900  25.742  31.035  1.00  0.00    -0.206 F 
ATOM     89  C   UNL A   1      50.981  25.704  29.956  1.00  0.00     0.040 A 
ATOM     90  C   UNL A   1      51.193  26.540  27.709  1.00  0.00     0.040 A 
ATOM     91  F   UNL A   1      49.321  27.425  26.604  1.00  0.00    -0.206 F 
ATOM     92  C   UNL A   1      51.769  25.955  28.834  1.00  0.00     0.006 A 
ENDBRANCH  68  85
ENDBRANCH  42  43
ENDBRANCH  35  37
ENDBRANCH  34  35
ENDBRANCH  33  34
ENDBRANCH  32  33
ENDBRANCH  31  32
ENDBRANCH  30  31
ENDBRANCH  29  30
ENDBRANCH   1  29
TORSDOF 23
ENDMDL
MODEL 2
REMARK VINA RESULT:      -7.0      5.065     10.858
REMARK SMILES CC(C)Cc1cc2c(cc1Cl)C=C(C(=O)OCCOCCOCCOCCOC(=O)c1ccc(-c3c4nc(c(-c5c(F)cccc5F)c5ccc([nH]5)c(-c5c(F)cccc5F)c5nc(c(-c6c(F)cccc6F)c6ccc3[nH]6)C=C5)C=C4)cc1)[C@@H](C(F)(F)F)O2
REMARK SMILES IDX 22 1 21 2 20 3 19 4 18 5 17 6 16 7 14 8 15 9 13 10 5 11 6 12
REMARK SMILES IDX 10 13 7 14 9 15 11 16 8 17 90 18 12 19 85 20 4 21 2 22 1 23
REMARK SMILES IDX 3 24 86 25 87 26 88 27 89 28 23 29 24 30 25 31 26 32 27 33
REMARK SMILES IDX 28 34 29 35 30 36 31 37 32 38 84 39 33 40 83 41 34 42 35 43
REMARK SMILES IDX 36 44 77 45 37 46 82 47 76 48 78 49 38 50 81 51 75 52 74 53
REMARK SMILES IDX 39 55 65 56 48 57 64 58 49 59 52 60 63 61 79 62 50 63 51 64
REMARK SMILES IDX 62 66 80 67 53 68 40 69 41 70 46 71 42 72 43 73 45 74 47 75
REMARK SMILES IDX 44 76 66 77 67 78 72 79 68 80 69 81 71 82 73 83 70 84 54 85
REMARK SMILES IDX 55 86 60 87 56 88 57 89 59 90 61 91 58 92
REMARK H PARENT 78 54 52 65
REMARK Flexibility Score: inf
ROOT
ATOM      1  O   UNL A   1      32.103  29.074  26.095  1.00  0.00    -0.377 OA
ENDROOT
BRANCH   1   2
ATOM      2  C   UNL A   1      32.536  27.877  26.725  1.00  0.00     0.188 C 
BRANCH   2   3
ATOM      3  C   UNL A   1      31.585  26.695  26.462  1.00  0.00     0.188 C 
BRANCH   3   4
ATOM      4  O   UNL A   1      31.965  25.511  27.160  1.00  0.00    -0.376 OA
BRANCH   4   5
ATOM      5  C   UNL A   1      32.418  24.407  26.387  1.00  0.00     0.202 C 
BRANCH   5   6
ATOM      6  C   UNL A   1      33.213  24.710  25.107  1.00  0.00     0.261 C 
BRANCH   6   7
ATOM      7  O   UNL A   1      33.192  23.677  24.112  1.00  0.00    -0.460 OA
BRANCH   7   8
ATOM      8  C   UNL A   1      32.092  23.566  23.343  1.00  0.00     0.338 C 
ATOM      9  O   UNL A   1      31.595  22.538  22.922  1.00  0.00    -0.246 OA
BRANCH   8  10
ATOM     10  C   UNL A   1      31.482  24.911  23.236  1.00  0.00     0.087 C 
ATOM     11  C   UNL A   1      28.353  28.815  22.940  1.00  0.00    -0.025 A 
ATOM     12  C   UNL A   1      29.738  28.651  22.786  1.00  0.00     0.052 A 
ATOM     13  C   UNL A   1      27.642  27.774  23.563  1.00  0.00     0.045 A 
ATOM     14  C   UNL A   1      30.353  27.427  23.049  1.00  0.00     0.128 A 
ATOM     15  C   UNL A   1      28.263  26.555  23.860  1.00  0.00     0.032 A 
ATOM     16  Cl  UNL A   1      25.967  27.925  23.970  1.00  0.00    -0.084 Cl
ATOM     17  C   UNL A   1      29.606  26.358  23.537  1.00  0.00     0.019 A 
ATOM     18  O   UNL A   1      31.686  27.360  22.771  1.00  0.00    -0.475 OA
ATOM     19  C   UNL A   1      30.217  25.044  23.651  1.00  0.00     0.027 C 
ATOM     20  C   UNL A   1      32.333  26.059  22.750  1.00  0.00     0.316 C 
BRANCH  11  21
ATOM     21  C   UNL A   1      27.640  30.057  22.435  1.00  0.00     0.040 C 
BRANCH  21  22
ATOM     22  C   UNL A   1      28.506  31.279  22.041  1.00  0.00    -0.013 C 
ATOM     23  C   UNL A   1      27.996  31.993  20.782  1.00  0.00     0.008 C 
ATOM     24  C   UNL A   1      28.533  32.284  23.198  1.00  0.00     0.008 C 
ENDBRANCH  21  22
ENDBRANCH  11  21
BRANCH  20  25
ATOM     25  C   UNL A   1      32.889  25.812  21.341  1.00  0.00     0.430 C 
ATOM     26  F   UNL A   1      33.796  26.757  20.995  1.00  0.00    -0.167 F 
ATOM     27  F   UNL A   1      33.520  24.617  21.249  1.00  0.00    -0.167 F 
ATOM     28  F   UNL A   1      31.913  25.824  20.404  1.00  0.00    -0.167 F 
ENDBRANCH  20  25
ENDBRANCH   8  10
ENDBRANCH   7   8
ENDBRANCH   6   7
ENDBRANCH   5   6
ENDBRANCH   4   5
ENDBRANCH   3   4
ENDBRANCH   2   3
ENDBRANCH   1   2
BRANCH   1  29
ATOM     29  C   UNL A   1      31.881  30.207  26.935  1.00  0.00     0.188 C 
BRANCH  29  30
ATOM     30  C   UNL A   1      32.906  31.363  27.019  1.00  0.00     0.188 C 
BRANCH  30  31
ATOM     31  O   UNL A   1      33.931  31.153  27.987  1.00  0.00    -0.376 OA
BRANCH  31  32
ATOM     32  C   UNL A   1      34.873  32.201  28.165  1.00  0.00     0.202 C 
BRANCH  32  33
ATOM     33  C   UNL A   1      34.987  32.695  29.613  1.00  0.00     0.261 C 
BRANCH  33  34
ATOM     34  O   UNL A   1      36.284  32.538  30.209  1.00  0.00    -0.460 OA
BRANCH  34  35
ATOM     35  C   UNL A   1      36.498  31.449  30.980  1.00  0.00     0.338 C 
ATOM     36  O   UNL A   1      35.737  30.959  31.795  1.00  0.00    -0.246 OA
BRANCH  35  37
ATOM     37  C   UNL A   1      37.753  30.823  30.517  1.00  0.00     0.060 A 
ATOM     38  C   UNL A   1      37.977  30.620  29.153  1.00  0.00     0.016 A 
ATOM     39  C   UNL A   1      38.698  30.401  31.462  1.00  0.00     0.016 A 
ATOM     40  C   UNL A   1      39.165  30.025  28.731  1.00  0.00     0.010 A 
ATOM     41  C   UNL A   1      39.885  29.798  31.037  1.00  0.00     0.010 A 
ATOM     42  C   UNL A   1      40.136  29.632  29.668  1.00  0.00    -0.014 A 
BRANCH  42  43
ATOM     43  C   UNL A   1      41.480  29.228  29.191  1.00  0.00     0.031 A 
ATOM     44  C   UNL A   1      42.636  30.177  29.158  1.00  0.00     0.074 A 
ATOM     45  C   UNL A   1      41.637  27.953  28.788  1.00  0.00     0.049 A 
ATOM     46  N   UNL A   1      43.889  29.932  28.862  1.00  0.00    -0.248 NA
ATOM     47  C   UNL A   1      42.358  31.580  29.492  1.00  0.00     0.031 C 
ATOM     48  C   UNL A   1      40.572  26.948  28.748  1.00  0.00     0.029 A 
ATOM     49  N   UNL A   1      42.746  27.282  28.345  1.00  0.00    -0.354 N 
ATOM     50  C   UNL A   1      44.557  31.142  28.995  1.00  0.00     0.074 A 
ATOM     51  C   UNL A   1      43.559  32.131  29.355  1.00  0.00     0.031 C 
ATOM     52  C   UNL A   1      41.084  25.783  28.326  1.00  0.00     0.029 A 
ATOM     53  C   UNL A   1      42.504  25.963  28.047  1.00  0.00     0.049 A 
ATOM     54  H   UNL A   1      43.630  27.704  28.249  1.00  0.00     0.167 HD
ATOM     55  C   UNL A   1      45.881  31.394  28.844  1.00  0.00     0.037 A 
ATOM     56  C   UNL A   1      43.336  25.004  27.605  1.00  0.00     0.037 A 
ATOM     57  C   UNL A   1      46.863  30.407  28.463  1.00  0.00     0.049 A 
ATOM     58  C   UNL A   1      44.787  25.330  27.400  1.00  0.00     0.074 A 
ATOM     59  C   UNL A   1      48.233  30.560  28.332  1.00  0.00     0.029 A 
ATOM     60  N   UNL A   1      46.578  29.091  28.133  1.00  0.00    -0.354 N 
ATOM     61  N   UNL A   1      45.423  26.453  27.624  1.00  0.00    -0.248 NA
ATOM     62  C   UNL A   1      45.638  24.247  26.889  1.00  0.00     0.031 C 
ATOM     63  C   UNL A   1      48.770  29.351  27.873  1.00  0.00     0.029 A 
ATOM     64  C   UNL A   1      47.741  28.430  27.766  1.00  0.00     0.049 A 
ATOM     65  H   UNL A   1      45.681  28.684  28.155  1.00  0.00     0.167 HD
ATOM     66  C   UNL A   1      46.752  26.205  27.309  1.00  0.00     0.074 A 
ATOM     67  C   UNL A   1      46.833  24.819  26.898  1.00  0.00     0.031 C 
ATOM     68  C   UNL A   1      47.811  27.051  27.356  1.00  0.00     0.037 A 
BRANCH  55  69
ATOM     69  C   UNL A   1      46.355  32.796  29.093  1.00  0.00     0.057 A 
ATOM     70  C   UNL A   1      46.255  33.778  28.098  1.00  0.00     0.134 A 
ATOM     71  C   UNL A   1      46.979  33.158  30.295  1.00  0.00     0.134 A 
ATOM     72  F   UNL A   1      45.680  33.497  26.919  1.00  0.00    -0.206 F 
ATOM     73  C   UNL A   1      46.761  35.066  28.289  1.00  0.00     0.040 A 
ATOM     74  C   UNL A   1      47.469  34.448  30.506  1.00  0.00     0.040 A 
ATOM     75  F   UNL A   1      47.105  32.266  31.289  1.00  0.00    -0.206 F 
ATOM     76  C   UNL A   1      47.368  35.404  29.497  1.00  0.00     0.006 A 
ENDBRANCH  55  69
BRANCH  56  77
ATOM     77  C   UNL A   1      42.826  23.636  27.345  1.00  0.00     0.057 A 
ATOM     78  C   UNL A   1      42.608  22.729  28.389  1.00  0.00     0.134 A 
ATOM     79  C   UNL A   1      42.512  23.218  26.047  1.00  0.00     0.134 A 
ATOM     80  F   UNL A   1      42.897  23.068  29.654  1.00  0.00    -0.206 F 
ATOM     81  C   UNL A   1      42.092  21.455  28.150  1.00  0.00     0.040 A 
ATOM     82  C   UNL A   1      41.971  21.957  25.798  1.00  0.00     0.040 A 
ATOM     83  F   UNL A   1      42.687  24.050  25.009  1.00  0.00    -0.206 F 
ATOM     84  C   UNL A   1      41.761  21.071  26.852  1.00  0.00     0.006 A 
ENDBRANCH  56  77
BRANCH  68  85
ATOM     85  C   UNL A   1      49.148  26.481  26.979  1.00  0.00     0.057 A 
ATOM     86  C   UNL A   1      49.576  26.484  25.645  1.00  0.00     0.134 A 
ATOM     87  C   UNL A   1      50.015  25.934  27.934  1.00  0.00     0.134 A 
ATOM     88  F   UNL A   1      48.794  26.987  24.679  1.00  0.00    -0.206 F 
ATOM     89  C   UNL A   1      50.818  25.966  25.276  1.00  0.00     0.040 A 
ATOM     90  C   UNL A   1      51.273  25.440  27.581  1.00  0.00     0.040 A 
ATOM     91  F   UNL A   1      49.674  25.919  29.232  1.00  0.00    -0.206 F 
ATOM     92  C   UNL A   1      51.675  25.451  26.248  1.00  0.00     0.006 A 
ENDBRANCH  68  85
ENDBRANCH  42  43
ENDBRANCH  35  37
ENDBRANCH  34  35
ENDBRANCH  33  34
ENDBRANCH  32  33
ENDBRANCH  31  32
ENDBRANCH  30  31
ENDBRANCH  29  30
ENDBRANCH   1  29
TORSDOF 23
ENDMDL
MODEL 3
REMARK VINA RESULT:      -6.9      4.854     12.556
REMARK SMILES CC(C)Cc1cc2c(cc1Cl)C=C(C(=O)OCCOCCOCCOCCOC(=O)c1ccc(-c3c4nc(c(-c5c(F)cccc5F)c5ccc([nH]5)c(-c5c(F)cccc5F)c5nc(c(-c6c(F)cccc6F)c6ccc3[nH]6)C=C5)C=C4)cc1)[C@@H](C(F)(F)F)O2
REMARK SMILES IDX 22 1 21 2 20 3 19 4 18 5 17 6 16 7 14 8 15 9 13 10 5 11 6 12
REMARK SMILES IDX 10 13 7 14 9 15 11 16 8 17 90 18 12 19 85 20 4 21 2 22 1 23
REMARK SMILES IDX 3 24 86 25 87 26 88 27 89 28 23 29 24 30 25 31 26 32 27 33
REMARK SMILES IDX 28 34 29 35 30 36 31 37 32 38 84 39 33 40 83 41 34 42 35 43
REMARK SMILES IDX 36 44 77 45 37 46 82 47 76 48 78 49 38 50 81 51 75 52 74 53
REMARK SMILES IDX 39 55 65 56 48 57 64 58 49 59 52 60 63 61 79 62 50 63 51 64
REMARK SMILES IDX 62 66 80 67 53 68 40 69 41 70 46 71 42 72 43 73 45 74 47 75
REMARK SMILES IDX 44 76 66 77 67 78 72 79 68 80 69 81 71 82 73 83 70 84 54 85
REMARK SMILES IDX 55 86 60 87 56 88 57 89 59 90 61 91 58 92
REMARK H PARENT 78 54 52 65
REMARK Flexibility Score: inf
ROOT
ATOM      1  O   UNL A   1      51.127  26.207  32.492  1.00  0.00    -0.377 OA
ENDROOT
BRANCH   1   2
ATOM      2  C   UNL A   1      51.437  25.784  31.172  1.00  0.00     0.188 C 
BRANCH   2   3
ATOM      3  C   UNL A   1      50.179  25.574  30.309  1.00  0.00     0.188 C 
BRANCH   3   4
ATOM      4  O   UNL A   1      49.021  26.201  30.857  1.00  0.00    -0.376 OA
BRANCH   4   5
ATOM      5  C   UNL A   1      48.541  27.375  30.214  1.00  0.00     0.202 C 
BRANCH   5   6
ATOM      6  C   UNL A   1      49.247  27.821  28.924  1.00  0.00     0.261 C 
BRANCH   6   7
ATOM      7  O   UNL A   1      48.769  27.206  27.719  1.00  0.00    -0.460 OA
BRANCH   7   8
ATOM      8  C   UNL A   1      47.767  27.815  27.057  1.00  0.00     0.338 C 
ATOM      9  O   UNL A   1      47.670  29.003  26.809  1.00  0.00    -0.246 OA
BRANCH   8  10
ATOM     10  C   UNL A   1      46.875  26.760  26.526  1.00  0.00     0.087 C 
ATOM     11  C   UNL A   1      43.766  22.873  25.933  1.00  0.00    -0.025 A 
ATOM     12  C   UNL A   1      44.488  23.698  25.056  1.00  0.00     0.052 A 
ATOM     13  C   UNL A   1      43.613  23.314  27.261  1.00  0.00     0.045 A 
ATOM     14  C   UNL A   1      45.200  24.802  25.527  1.00  0.00     0.128 A 
ATOM     15  C   UNL A   1      44.299  24.441  27.727  1.00  0.00     0.032 A 
ATOM     16  Cl  UNL A   1      42.602  22.481  28.391  1.00  0.00    -0.084 Cl
ATOM     17  C   UNL A   1      45.149  25.146  26.875  1.00  0.00     0.019 A 
ATOM     18  O   UNL A   1      45.941  25.470  24.598  1.00  0.00    -0.475 OA
ATOM     19  C   UNL A   1      46.020  26.192  27.385  1.00  0.00     0.027 C 
ATOM     20  C   UNL A   1      46.918  26.445  25.050  1.00  0.00     0.316 C 
BRANCH  11  21
ATOM     21  C   UNL A   1      43.189  21.545  25.478  1.00  0.00     0.040 C 
BRANCH  21  22
ATOM     22  C   UNL A   1      44.099  20.295  25.557  1.00  0.00    -0.013 C 
ATOM     23  C   UNL A   1      43.316  18.999  25.804  1.00  0.00     0.008 C 
ATOM     24  C   UNL A   1      44.886  20.150  24.249  1.00  0.00     0.008 C 
ENDBRANCH  21  22
ENDBRANCH  11  21
BRANCH  20  25
ATOM     25  C   UNL A   1      48.311  25.989  24.596  1.00  0.00     0.430 C 
ATOM     26  F   UNL A   1      48.244  25.248  23.464  1.00  0.00    -0.167 F 
ATOM     27  F   UNL A   1      49.123  27.038  24.325  1.00  0.00    -0.167 F 
ATOM     28  F   UNL A   1      48.927  25.237  25.537  1.00  0.00    -0.167 F 
ENDBRANCH  20  25
ENDBRANCH   8  10
ENDBRANCH   7   8
ENDBRANCH   6   7
ENDBRANCH   5   6
ENDBRANCH   4   5
ENDBRANCH   3   4
ENDBRANCH   2   3
ENDBRANCH   1   2
BRANCH   1  29
ATOM     29  C   UNL A   1      51.361  25.271  33.544  1.00  0.00     0.188 C 
BRANCH  29  30
ATOM     30  C   UNL A   1      51.154  23.752  33.335  1.00  0.00     0.188 C 
BRANCH  30  31
ATOM     31  O   UNL A   1      49.799  23.332  33.474  1.00  0.00    -0.376 OA
BRANCH  31  32
ATOM     32  C   UNL A   1      49.369  22.967  34.778  1.00  0.00     0.202 C 
BRANCH  32  33
ATOM     33  C   UNL A   1      47.997  23.535  35.160  1.00  0.00     0.261 C 
BRANCH  33  34
ATOM     34  O   UNL A   1      47.618  24.734  34.466  1.00  0.00    -0.460 OA
BRANCH  34  35
ATOM     35  C   UNL A   1      47.545  25.880  35.177  1.00  0.00     0.338 C 
ATOM     36  O   UNL A   1      48.397  26.353  35.908  1.00  0.00    -0.246 OA
BRANCH  35  37
ATOM     37  C   UNL A   1      46.313  26.579  34.757  1.00  0.00     0.060 A 
ATOM     38  C   UNL A   1      46.387  27.849  34.180  1.00  0.00     0.016 A 
ATOM     39  C   UNL A   1      45.070  25.972  34.980  1.00  0.00     0.016 A 
ATOM     40  C   UNL A   1      45.215  28.499  33.792  1.00  0.00     0.010 A 
ATOM     41  C   UNL A   1      43.897  26.627  34.597  1.00  0.00     0.010 A 
ATOM     42  C   UNL A   1      43.965  27.882  33.976  1.00  0.00    -0.014 A 
BRANCH  42  43
ATOM     43  C   UNL A   1      42.765  28.476  33.343  1.00  0.00     0.031 A 
ATOM     44  C   UNL A   1      41.845  29.399  34.079  1.00  0.00     0.074 A 
ATOM     45  C   UNL A   1      42.523  28.162  32.055  1.00  0.00     0.049 A 
ATOM     46  N   UNL A   1      40.818  30.070  33.619  1.00  0.00    -0.248 NA
ATOM     47  C   UNL A   1      42.100  29.594  35.512  1.00  0.00     0.031 C 
ATOM     48  C   UNL A   1      43.336  27.249  31.249  1.00  0.00     0.029 A 
ATOM     49  N   UNL A   1      41.539  28.578  31.200  1.00  0.00    -0.354 N 
ATOM     50  C   UNL A   1      40.315  30.786  34.697  1.00  0.00     0.074 A 
ATOM     51  C   UNL A   1      41.125  30.430  35.846  1.00  0.00     0.031 C 
ATOM     52  C   UNL A   1      42.829  27.191  30.009  1.00  0.00     0.029 A 
ATOM     53  C   UNL A   1      41.648  28.044  29.939  1.00  0.00     0.049 A 
ATOM     54  H   UNL A   1      40.822  29.200  31.462  1.00  0.00     0.167 HD
ATOM     55  C   UNL A   1      39.283  31.665  34.716  1.00  0.00     0.037 A 
ATOM     56  C   UNL A   1      40.886  28.227  28.847  1.00  0.00     0.037 A 
ATOM     57  C   UNL A   1      38.468  31.996  33.572  1.00  0.00     0.049 A 
ATOM     58  C   UNL A   1      39.720  29.171  28.916  1.00  0.00     0.074 A 
ATOM     59  C   UNL A   1      37.433  32.911  33.485  1.00  0.00     0.029 A 
ATOM     60  N   UNL A   1      38.583  31.409  32.321  1.00  0.00    -0.354 N 
ATOM     61  N   UNL A   1      39.316  29.915  29.916  1.00  0.00    -0.248 NA
ATOM     62  C   UNL A   1      38.911  29.306  27.699  1.00  0.00     0.031 C 
ATOM     63  C   UNL A   1      36.887  32.841  32.198  1.00  0.00     0.029 A 
ATOM     64  C   UNL A   1      37.616  31.917  31.466  1.00  0.00     0.049 A 
ATOM     65  H   UNL A   1      39.253  30.730  32.075  1.00  0.00     0.167 HD
ATOM     66  C   UNL A   1      38.224  30.628  29.440  1.00  0.00     0.074 A 
ATOM     67  C   UNL A   1      38.043  30.241  28.056  1.00  0.00     0.031 C 
ATOM     68  C   UNL A   1      37.441  31.523  30.091  1.00  0.00     0.037 A 
BRANCH  55  69
ATOM     69  C   UNL A   1      38.971  32.344  36.019  1.00  0.00     0.057 A 
ATOM     70  C   UNL A   1      39.562  33.571  36.352  1.00  0.00     0.134 A 
ATOM     71  C   UNL A   1      38.140  31.748  36.977  1.00  0.00     0.134 A 
ATOM     72  F   UNL A   1      40.378  34.190  35.486  1.00  0.00    -0.206 F 
ATOM     73  C   UNL A   1      39.341  34.176  37.591  1.00  0.00     0.040 A 
ATOM     74  C   UNL A   1      37.893  32.354  38.210  1.00  0.00     0.040 A 
ATOM     75  F   UNL A   1      37.541  30.575  36.721  1.00  0.00    -0.206 F 
ATOM     76  C   UNL A   1      38.501  33.568  38.523  1.00  0.00     0.006 A 
ENDBRANCH  55  69
BRANCH  56  77
ATOM     77  C   UNL A   1      41.210  27.520  27.584  1.00  0.00     0.057 A 
ATOM     78  C   UNL A   1      42.103  28.063  26.654  1.00  0.00     0.134 A 
ATOM     79  C   UNL A   1      40.657  26.267  27.298  1.00  0.00     0.134 A 
ATOM     80  F   UNL A   1      42.659  29.264  26.867  1.00  0.00    -0.206 F 
ATOM     81  C   UNL A   1      42.438  27.382  25.483  1.00  0.00     0.040 A 
ATOM     82  C   UNL A   1      41.004  25.563  26.145  1.00  0.00     0.040 A 
ATOM     83  F   UNL A   1      39.806  25.691  28.161  1.00  0.00    -0.206 F 
ATOM     84  C   UNL A   1      41.896  26.122  25.232  1.00  0.00     0.006 A 
ENDBRANCH  56  77
BRANCH  68  85
ATOM     85  C   UNL A   1      36.339  32.162  29.297  1.00  0.00     0.057 A 
ATOM     86  C   UNL A   1      35.185  31.438  28.966  1.00  0.00     0.134 A 
ATOM     87  C   UNL A   1      36.414  33.491  28.862  1.00  0.00     0.134 A 
ATOM     88  F   UNL A   1      35.050  30.159  29.345  1.00  0.00    -0.206 F 
ATOM     89  C   UNL A   1      34.147  32.016  28.235  1.00  0.00     0.040 A 
ATOM     90  C   UNL A   1      35.368  34.089  28.155  1.00  0.00     0.040 A 
ATOM     91  F   UNL A   1      37.483  34.245  29.162  1.00  0.00    -0.206 F 
ATOM     92  C   UNL A   1      34.232  33.348  27.836  1.00  0.00     0.006 A 
ENDBRANCH  68  85
ENDBRANCH  42  43
ENDBRANCH  35  37
ENDBRANCH  34  35
ENDBRANCH  33  34
ENDBRANCH  32  33
ENDBRANCH  31  32
ENDBRANCH  30  31
ENDBRANCH  29  30
ENDBRANCH   1  29
TORSDOF 23
ENDMDL
