MODEL 1
REMARK VINA RESULT:     -11.3      0.000      0.000
REMARK SMILES Cc1ccccc1NC(=O)C[NH+]1CCC(CC(=O)OCCOCCOCCOCCOC(=O)c2ccc(-c3c4nc(c(-c5c(F)cccc5F)c5ccc([nH]5)c(-c5c(F)cccc5F)c5nc(c(-c6c(F)cccc6F)c6ccc3[nH]6)C=C5)C=C4)cc2)CC1
REMARK SMILES IDX 24 1 23 2 22 3 21 4 20 5 19 6 17 7 18 8 16 9 15 10 12 11
REMARK SMILES IDX 13 12 89 13 14 15 88 16 11 17 9 18 8 19 10 21 7 22 1 23 2 24
REMARK SMILES IDX 3 25 4 26 6 27 5 28 25 29 26 30 27 31 28 32 29 33 30 34
REMARK SMILES IDX 31 35 32 36 33 37 34 38 35 39 87 40 36 41 86 42 37 43 38 44
REMARK SMILES IDX 39 45 80 46 40 47 85 48 79 49 81 50 41 51 84 52 78 53 77 54
REMARK SMILES IDX 42 56 68 57 51 58 67 59 52 60 55 61 66 62 82 63 53 64 54 65
REMARK SMILES IDX 65 67 83 68 56 69 43 70 44 71 49 72 45 73 46 74 48 75 50 76
REMARK SMILES IDX 47 77 69 78 70 79 75 80 71 81 72 82 74 83 76 84 73 85 57 86
REMARK SMILES IDX 58 87 63 88 59 89 60 90 62 91 64 92 61 93
REMARK H PARENT 12 14 8 20 81 55 55 66
REMARK Flexibility Score: inf
ROOT
ATOM      1  C   UNL A   1      34.513  25.180  23.905  1.00  0.00     0.188 C 
ENDROOT
BRANCH   1   2
ATOM      2  C   UNL A   1      33.669  25.479  25.169  1.00  0.00     0.188 C 
BRANCH   2   3
ATOM      3  O   UNL A   1      33.815  26.578  26.243  1.00  0.00    -0.376 OA
BRANCH   3   4
ATOM      4  C   UNL A   1      32.939  28.020  26.472  1.00  0.00     0.202 C 
BRANCH   4   5
ATOM      5  C   UNL A   1      32.430  29.531  25.469  1.00  0.00     0.261 C 
BRANCH   5   6
ATOM      6  O   UNL A   1      30.880  29.967  24.555  1.00  0.00    -0.463 OA
BRANCH   6   7
ATOM      7  C   UNL A   1      29.792  29.439  23.526  1.00  0.00     0.306 C 
ATOM      8  O   UNL A   1      28.946  30.243  23.103  1.00  0.00    -0.252 OA
BRANCH   7   9
ATOM      9  C   UNL A   1      29.509  27.710  23.068  1.00  0.00     0.126 C 
BRANCH   9  10
ATOM     10  C   UNL A   1      29.613  26.137  23.736  1.00  0.00     0.011 C 
ATOM     11  N   UNL A   1      30.955  23.716  25.206  1.00  0.00    -0.327 N 
ATOM     12  C   UNL A   1      30.591  23.672  23.812  1.00  0.00     0.262 C 
ATOM     13  C   UNL A   1      30.090  24.681  25.896  1.00  0.00     0.262 C 
ATOM     14  H   UNL A   1      31.889  24.089  25.370  1.00  0.00     0.348 HD
ATOM     15  C   UNL A   1      30.600  25.081  23.245  1.00  0.00     0.066 C 
ATOM     16  C   UNL A   1      29.994  26.129  25.257  1.00  0.00     0.066 C 
BRANCH  11  17
ATOM     17  C   UNL A   1      31.107  22.334  25.757  1.00  0.00     0.363 C 
BRANCH  17  18
ATOM     18  C   UNL A   1      32.547  21.870  26.136  1.00  0.00     0.279 C 
ATOM     19  N   UNL A   1      33.207  20.886  25.445  1.00  0.00    -0.321 N 
ATOM     20  H   UNL A   1      34.148  20.736  25.692  1.00  0.00     0.170 HD
ATOM     21  O   UNL A   1      33.177  22.435  27.041  1.00  0.00    -0.268 OA
BRANCH  19  22
ATOM     22  C   UNL A   1      32.695  20.071  24.433  1.00  0.00     0.044 A 
ATOM     23  C   UNL A   1      32.793  17.983  25.936  1.00  0.00     0.046 C 
ATOM     24  C   UNL A   1      32.599  18.682  24.619  1.00  0.00    -0.027 A 
ATOM     25  C   UNL A   1      32.370  17.884  23.483  1.00  0.00     0.005 A 
ATOM     26  C   UNL A   1      32.193  18.454  22.221  1.00  0.00     0.000 A 
ATOM     27  C   UNL A   1      32.376  20.640  23.194  1.00  0.00     0.026 A 
ATOM     28  C   UNL A   1      32.153  19.836  22.082  1.00  0.00     0.002 A 
ENDBRANCH  19  22
ENDBRANCH  17  18
ENDBRANCH  11  17
ENDBRANCH   9  10
ENDBRANCH   7   9
ENDBRANCH   6   7
ENDBRANCH   5   6
ENDBRANCH   4   5
ENDBRANCH   3   4
ENDBRANCH   2   3
ENDBRANCH   1   2
BRANCH   1  29
ATOM     29  O   UNL A   1      34.322  23.916  23.354  1.00  0.00    -0.377 OA
BRANCH  29  30
ATOM     30  C   UNL A   1      35.279  22.938  23.726  1.00  0.00     0.188 C 
BRANCH  30  31
ATOM     31  C   UNL A   1      36.702  23.384  24.070  1.00  0.00     0.188 C 
BRANCH  31  32
ATOM     32  O   UNL A   1      37.518  22.348  24.629  1.00  0.00    -0.376 OA
BRANCH  32  33
ATOM     33  C   UNL A   1      38.255  22.645  25.815  1.00  0.00     0.202 C 
BRANCH  33  34
ATOM     34  C   UNL A   1      37.862  23.960  26.507  1.00  0.00     0.261 C 
BRANCH  34  35
ATOM     35  O   UNL A   1      38.958  24.891  26.412  1.00  0.00    -0.460 OA
BRANCH  35  36
ATOM     36  C   UNL A   1      40.109  24.480  27.012  1.00  0.00     0.338 C 
ATOM     37  O   UNL A   1      40.692  23.439  26.781  1.00  0.00    -0.246 OA
BRANCH  36  38
ATOM     38  C   UNL A   1      40.372  25.351  28.204  1.00  0.00     0.060 A 
ATOM     39  C   UNL A   1      39.303  25.807  28.959  1.00  0.00     0.016 A 
ATOM     40  C   UNL A   1      41.618  25.957  28.395  1.00  0.00     0.016 A 
ATOM     41  C   UNL A   1      39.471  26.944  29.779  1.00  0.00     0.010 A 
ATOM     42  C   UNL A   1      41.721  27.195  29.056  1.00  0.00     0.010 A 
ATOM     43  C   UNL A   1      40.616  27.793  29.689  1.00  0.00    -0.014 A 
BRANCH  43  44
ATOM     44  C   UNL A   1      40.828  29.359  30.266  1.00  0.00     0.031 A 
ATOM     45  C   UNL A   1      41.712  28.727  31.676  1.00  0.00     0.074 A 
ATOM     46  C   UNL A   1      40.158  30.879  29.973  1.00  0.00     0.049 A 
ATOM     47  N   UNL A   1      41.445  28.991  32.933  1.00  0.00    -0.248 NA
ATOM     48  C   UNL A   1      42.717  27.632  31.667  1.00  0.00     0.031 C 
ATOM     49  C   UNL A   1      40.293  32.421  30.679  1.00  0.00     0.029 A 
ATOM     50  N   UNL A   1      38.850  31.404  29.385  1.00  0.00    -0.354 N 
ATOM     51  C   UNL A   1      42.532  28.679  33.682  1.00  0.00     0.074 A 
ATOM     52  C   UNL A   1      43.135  27.600  32.942  1.00  0.00     0.031 C 
ATOM     53  C   UNL A   1      39.308  33.289  30.533  1.00  0.00     0.029 A 
ATOM     54  C   UNL A   1      38.251  32.514  30.059  1.00  0.00     0.049 A 
ATOM     55  H   UNL A   1      38.442  31.000  28.584  1.00  0.00     0.167 HD
ATOM     56  C   UNL A   1      42.969  29.496  34.691  1.00  0.00     0.037 A 
ATOM     57  C   UNL A   1      37.024  32.666  30.635  1.00  0.00     0.037 A 
ATOM     58  C   UNL A   1      42.297  30.828  34.733  1.00  0.00     0.049 A 
ATOM     59  C   UNL A   1      37.149  32.888  32.182  1.00  0.00     0.074 A 
ATOM     60  C   UNL A   1      42.715  32.105  34.379  1.00  0.00     0.029 A 
ATOM     61  N   UNL A   1      40.918  30.965  34.927  1.00  0.00    -0.354 N 
ATOM     62  N   UNL A   1      38.297  32.927  32.834  1.00  0.00    -0.248 NA
ATOM     63  C   UNL A   1      36.033  32.991  33.119  1.00  0.00     0.031 C 
ATOM     64  C   UNL A   1      41.601  33.003  34.412  1.00  0.00     0.029 A 
ATOM     65  C   UNL A   1      40.471  32.288  34.769  1.00  0.00     0.049 A 
ATOM     66  H   UNL A   1      40.323  30.213  35.152  1.00  0.00     0.167 HD
ATOM     67  C   UNL A   1      38.110  32.876  34.188  1.00  0.00     0.074 A 
ATOM     68  C   UNL A   1      36.662  33.009  34.313  1.00  0.00     0.031 C 
ATOM     69  C   UNL A   1      39.092  32.665  35.129  1.00  0.00     0.037 A 
BRANCH  56  70
ATOM     70  C   UNL A   1      44.288  29.161  35.371  1.00  0.00     0.057 A 
ATOM     71  C   UNL A   1      44.380  28.454  36.582  1.00  0.00     0.134 A 
ATOM     72  C   UNL A   1      45.532  29.570  34.846  1.00  0.00     0.134 A 
ATOM     73  F   UNL A   1      43.317  27.869  37.142  1.00  0.00    -0.206 F 
ATOM     74  C   UNL A   1      45.588  28.302  37.283  1.00  0.00     0.040 A 
ATOM     75  C   UNL A   1      46.738  29.471  35.557  1.00  0.00     0.040 A 
ATOM     76  F   UNL A   1      45.623  30.078  33.606  1.00  0.00    -0.206 F 
ATOM     77  C   UNL A   1      46.765  28.850  36.796  1.00  0.00     0.006 A 
ENDBRANCH  56  70
BRANCH  57  78
ATOM     78  C   UNL A   1      35.954  32.047  29.822  1.00  0.00     0.057 A 
ATOM     79  C   UNL A   1      35.276  32.912  28.930  1.00  0.00     0.134 A 
ATOM     80  C   UNL A   1      35.861  30.682  29.576  1.00  0.00     0.134 A 
ATOM     81  F   UNL A   1      35.270  34.238  29.150  1.00  0.00    -0.206 F 
ATOM     82  C   UNL A   1      34.740  32.458  27.729  1.00  0.00     0.040 A 
ATOM     83  C   UNL A   1      35.310  30.211  28.378  1.00  0.00     0.040 A 
ATOM     84  F   UNL A   1      36.451  29.801  30.396  1.00  0.00    -0.206 F 
ATOM     85  C   UNL A   1      34.799  31.102  27.430  1.00  0.00     0.006 A 
ENDBRANCH  57  78
BRANCH  69  86
ATOM     86  C   UNL A   1      38.804  32.885  36.590  1.00  0.00     0.057 A 
ATOM     87  C   UNL A   1      38.143  31.916  37.361  1.00  0.00     0.134 A 
ATOM     88  C   UNL A   1      39.030  34.122  37.219  1.00  0.00     0.134 A 
ATOM     89  F   UNL A   1      37.788  30.736  36.830  1.00  0.00    -0.206 F 
ATOM     90  C   UNL A   1      37.807  32.134  38.700  1.00  0.00     0.040 A 
ATOM     91  C   UNL A   1      38.650  34.370  38.540  1.00  0.00     0.040 A 
ATOM     92  F   UNL A   1      39.641  35.133  36.586  1.00  0.00    -0.206 F 
ATOM     93  C   UNL A   1      38.057  33.366  39.293  1.00  0.00     0.006 A 
ENDBRANCH  69  86
ENDBRANCH  43  44
ENDBRANCH  36  38
ENDBRANCH  35  36
ENDBRANCH  34  35
ENDBRANCH  33  34
ENDBRANCH  32  33
ENDBRANCH  31  32
ENDBRANCH  30  31
ENDBRANCH  29  30
ENDBRANCH   1  29
TORSDOF 24
ENDMDL
MODEL 2
REMARK VINA RESULT:     -10.1      6.634     12.337
REMARK SMILES Cc1ccccc1NC(=O)C[NH+]1CCC(CC(=O)OCCOCCOCCOCCOC(=O)c2ccc(-c3c4nc(c(-c5c(F)cccc5F)c5ccc([nH]5)c(-c5c(F)cccc5F)c5nc(c(-c6c(F)cccc6F)c6ccc3[nH]6)C=C5)C=C4)cc2)CC1
REMARK SMILES IDX 24 1 23 2 22 3 21 4 20 5 19 6 17 7 18 8 16 9 15 10 12 11
REMARK SMILES IDX 13 12 89 13 14 15 88 16 11 17 9 18 8 19 10 21 7 22 1 23 2 24
REMARK SMILES IDX 3 25 4 26 6 27 5 28 25 29 26 30 27 31 28 32 29 33 30 34
REMARK SMILES IDX 31 35 32 36 33 37 34 38 35 39 87 40 36 41 86 42 37 43 38 44
REMARK SMILES IDX 39 45 80 46 40 47 85 48 79 49 81 50 41 51 84 52 78 53 77 54
REMARK SMILES IDX 42 56 68 57 51 58 67 59 52 60 55 61 66 62 82 63 53 64 54 65
REMARK SMILES IDX 65 67 83 68 56 69 43 70 44 71 49 72 45 73 46 74 48 75 50 76
REMARK SMILES IDX 47 77 69 78 70 79 75 80 71 81 72 82 74 83 76 84 73 85 57 86
REMARK SMILES IDX 58 87 63 88 59 89 60 90 62 91 64 92 61 93
REMARK H PARENT 12 14 8 20 81 55 55 66
REMARK Flexibility Score: inf
ROOT
ATOM      1  C   UNL A   1      42.698  41.598  32.337  1.00  0.00     0.188 C 
ENDROOT
BRANCH   1   2
ATOM      2  C   UNL A   1      41.837  41.414  31.062  1.00  0.00     0.188 C 
BRANCH   2   3
ATOM      3  O   UNL A   1      42.228  40.967  29.637  1.00  0.00    -0.376 OA
BRANCH   3   4
ATOM      4  C   UNL A   1      42.569  39.416  29.022  1.00  0.00     0.202 C 
BRANCH   4   5
ATOM      5  C   UNL A   1      43.633  37.928  29.470  1.00  0.00     0.261 C 
BRANCH   5   6
ATOM      6  O   UNL A   1      43.817  36.939  31.024  1.00  0.00    -0.463 OA
BRANCH   6   7
ATOM      7  C   UNL A   1      43.765  35.477  31.641  1.00  0.00     0.306 C 
ATOM      8  O   UNL A   1      44.818  34.990  32.083  1.00  0.00    -0.252 OA
BRANCH   7   9
ATOM      9  C   UNL A   1      42.361  34.336  31.563  1.00  0.00     0.126 C 
BRANCH   9  10
ATOM     10  C   UNL A   1      40.769  34.249  30.939  1.00  0.00     0.011 C 
ATOM     11  N   UNL A   1      37.821  33.211  30.702  1.00  0.00    -0.327 N 
ATOM     12  C   UNL A   1      38.804  32.998  29.669  1.00  0.00     0.262 C 
ATOM     13  C   UNL A   1      38.178  34.415  31.461  1.00  0.00     0.262 C 
ATOM     14  H   UNL A   1      37.820  32.483  31.416  1.00  0.00     0.348 HD
ATOM     15  C   UNL A   1      40.191  32.996  30.286  1.00  0.00     0.066 C 
ATOM     16  C   UNL A   1      39.660  34.486  32.021  1.00  0.00     0.066 C 
BRANCH  11  17
ATOM     17  C   UNL A   1      36.438  33.066  30.154  1.00  0.00     0.363 C 
BRANCH  17  18
ATOM     18  C   UNL A   1      35.487  32.059  30.873  1.00  0.00     0.279 C 
ATOM     19  N   UNL A   1      35.820  30.742  31.063  1.00  0.00    -0.321 N 
ATOM     20  H   UNL A   1      35.204  30.211  31.617  1.00  0.00     0.170 HD
ATOM     21  O   UNL A   1      34.416  32.440  31.364  1.00  0.00    -0.268 OA
BRANCH  19  22
ATOM     22  C   UNL A   1      36.935  30.068  30.558  1.00  0.00     0.044 A 
ATOM     23  C   UNL A   1      35.847  29.810  28.240  1.00  0.00     0.046 C 
ATOM     24  C   UNL A   1      36.913  29.528  29.262  1.00  0.00    -0.027 A 
ATOM     25  C   UNL A   1      37.922  28.611  28.917  1.00  0.00     0.005 A 
ATOM     26  C   UNL A   1      38.942  28.286  29.814  1.00  0.00     0.000 A 
ATOM     27  C   UNL A   1      38.035  29.845  31.396  1.00  0.00     0.026 A 
ATOM     28  C   UNL A   1      39.023  28.935  31.039  1.00  0.00     0.002 A 
ENDBRANCH  19  22
ENDBRANCH  17  18
ENDBRANCH  11  17
ENDBRANCH   9  10
ENDBRANCH   7   9
ENDBRANCH   6   7
ENDBRANCH   5   6
ENDBRANCH   4   5
ENDBRANCH   3   4
ENDBRANCH   2   3
ENDBRANCH   1   2
BRANCH   1  29
ATOM     29  O   UNL A   1      43.718  40.664  32.498  1.00  0.00    -0.377 OA
BRANCH  29  30
ATOM     30  C   UNL A   1      43.379  39.518  33.262  1.00  0.00     0.188 C 
BRANCH  30  31
ATOM     31  C   UNL A   1      44.487  38.757  33.993  1.00  0.00     0.188 C 
BRANCH  31  32
ATOM     32  O   UNL A   1      44.056  37.522  34.578  1.00  0.00    -0.376 OA
BRANCH  32  33
ATOM     33  C   UNL A   1      42.664  37.206  34.522  1.00  0.00     0.202 C 
BRANCH  33  34
ATOM     34  C   UNL A   1      42.196  36.172  35.559  1.00  0.00     0.261 C 
BRANCH  34  35
ATOM     35  O   UNL A   1      42.449  34.847  35.052  1.00  0.00    -0.460 OA
BRANCH  35  36
ATOM     36  C   UNL A   1      41.391  33.994  35.129  1.00  0.00     0.338 C 
ATOM     37  O   UNL A   1      40.348  34.216  35.713  1.00  0.00    -0.246 OA
BRANCH  36  38
ATOM     38  C   UNL A   1      41.824  32.638  34.657  1.00  0.00     0.060 A 
ATOM     39  C   UNL A   1      43.158  32.424  34.346  1.00  0.00     0.016 A 
ATOM     40  C   UNL A   1      40.889  31.688  34.235  1.00  0.00     0.016 A 
ATOM     41  C   UNL A   1      43.506  31.345  33.505  1.00  0.00     0.010 A 
ATOM     42  C   UNL A   1      41.221  30.742  33.249  1.00  0.00     0.010 A 
ATOM     43  C   UNL A   1      42.535  30.605  32.764  1.00  0.00    -0.014 A 
BRANCH  43  44
ATOM     44  C   UNL A   1      42.756  29.579  31.448  1.00  0.00     0.031 A 
ATOM     45  C   UNL A   1      43.597  28.409  32.494  1.00  0.00     0.074 A 
ATOM     46  C   UNL A   1      42.671  29.698  29.768  1.00  0.00     0.049 A 
ATOM     47  N   UNL A   1      44.783  27.893  32.272  1.00  0.00    -0.248 NA
ATOM     48  C   UNL A   1      43.208  28.023  33.875  1.00  0.00     0.031 C 
ATOM     49  C   UNL A   1      43.044  28.677  28.459  1.00  0.00     0.029 A 
ATOM     50  N   UNL A   1      42.760  30.829  28.746  1.00  0.00    -0.354 N 
ATOM     51  C   UNL A   1      44.920  26.778  33.032  1.00  0.00     0.074 A 
ATOM     52  C   UNL A   1      44.101  27.068  34.181  1.00  0.00     0.031 C 
ATOM     53  C   UNL A   1      43.314  29.208  27.281  1.00  0.00     0.029 A 
ATOM     54  C   UNL A   1      43.517  30.558  27.563  1.00  0.00     0.049 A 
ATOM     55  H   UNL A   1      42.318  31.697  28.892  1.00  0.00     0.167 HD
ATOM     56  C   UNL A   1      45.481  25.632  32.534  1.00  0.00     0.037 A 
ATOM     57  C   UNL A   1      44.607  31.177  27.027  1.00  0.00     0.037 A 
ATOM     58  C   UNL A   1      45.707  25.654  31.058  1.00  0.00     0.049 A 
ATOM     59  C   UNL A   1      45.852  30.224  27.016  1.00  0.00     0.074 A 
ATOM     60  C   UNL A   1      45.055  25.037  29.997  1.00  0.00     0.029 A 
ATOM     61  N   UNL A   1      46.547  26.590  30.443  1.00  0.00    -0.354 N 
ATOM     62  N   UNL A   1      45.837  28.982  27.463  1.00  0.00    -0.248 NA
ATOM     63  C   UNL A   1      47.202  30.593  26.599  1.00  0.00     0.031 C 
ATOM     64  C   UNL A   1      45.541  25.569  28.760  1.00  0.00     0.029 A 
ATOM     65  C   UNL A   1      46.489  26.538  29.040  1.00  0.00     0.049 A 
ATOM     66  H   UNL A   1      47.118  27.218  30.941  1.00  0.00     0.167 HD
ATOM     67  C   UNL A   1      47.101  28.470  27.572  1.00  0.00     0.074 A 
ATOM     68  C   UNL A   1      47.914  29.495  26.928  1.00  0.00     0.031 C 
ATOM     69  C   UNL A   1      47.444  27.304  28.218  1.00  0.00     0.037 A 
BRANCH  56  70
ATOM     70  C   UNL A   1      45.447  24.378  33.394  1.00  0.00     0.057 A 
ATOM     71  C   UNL A   1      44.378  23.466  33.396  1.00  0.00     0.134 A 
ATOM     72  C   UNL A   1      46.487  24.050  34.289  1.00  0.00     0.134 A 
ATOM     73  F   UNL A   1      43.381  23.543  32.509  1.00  0.00    -0.206 F 
ATOM     74  C   UNL A   1      44.283  22.408  34.316  1.00  0.00     0.040 A 
ATOM     75  C   UNL A   1      46.384  23.029  35.248  1.00  0.00     0.040 A 
ATOM     76  F   UNL A   1      47.656  24.711  34.260  1.00  0.00    -0.206 F 
ATOM     77  C   UNL A   1      45.264  22.213  35.277  1.00  0.00     0.006 A 
ENDBRANCH  56  70
BRANCH  57  78
ATOM     78  C   UNL A   1      44.508  32.650  27.127  1.00  0.00     0.057 A 
ATOM     79  C   UNL A   1      44.063  33.321  25.964  1.00  0.00     0.134 A 
ATOM     80  C   UNL A   1      44.416  33.338  28.332  1.00  0.00     0.134 A 
ATOM     81  F   UNL A   1      44.187  32.738  24.759  1.00  0.00    -0.206 F 
ATOM     82  C   UNL A   1      43.345  34.512  26.030  1.00  0.00     0.040 A 
ATOM     83  C   UNL A   1      43.709  34.544  28.409  1.00  0.00     0.040 A 
ATOM     84  F   UNL A   1      44.846  32.777  29.470  1.00  0.00    -0.206 F 
ATOM     85  C   UNL A   1      43.128  35.104  27.268  1.00  0.00     0.006 A 
ENDBRANCH  57  78
BRANCH  69  86
ATOM     86  C   UNL A   1      48.820  26.719  28.049  1.00  0.00     0.057 A 
ATOM     87  C   UNL A   1      49.877  27.072  28.902  1.00  0.00     0.134 A 
ATOM     88  C   UNL A   1      49.164  25.922  26.943  1.00  0.00     0.134 A 
ATOM     89  F   UNL A   1      49.683  27.909  29.932  1.00  0.00    -0.206 F 
ATOM     90  C   UNL A   1      51.177  26.590  28.715  1.00  0.00     0.040 A 
ATOM     91  C   UNL A   1      50.469  25.479  26.715  1.00  0.00     0.040 A 
ATOM     92  F   UNL A   1      48.247  25.527  26.048  1.00  0.00    -0.206 F 
ATOM     93  C   UNL A   1      51.476  25.794  27.616  1.00  0.00     0.006 A 
ENDBRANCH  69  86
ENDBRANCH  43  44
ENDBRANCH  36  38
ENDBRANCH  35  36
ENDBRANCH  34  35
ENDBRANCH  33  34
ENDBRANCH  32  33
ENDBRANCH  31  32
ENDBRANCH  30  31
ENDBRANCH  29  30
ENDBRANCH   1  29
TORSDOF 24
ENDMDL
MODEL 3
REMARK VINA RESULT:     -10.0      5.037     10.615
REMARK SMILES Cc1ccccc1NC(=O)C[NH+]1CCC(CC(=O)OCCOCCOCCOCCOC(=O)c2ccc(-c3c4nc(c(-c5c(F)cccc5F)c5ccc([nH]5)c(-c5c(F)cccc5F)c5nc(c(-c6c(F)cccc6F)c6ccc3[nH]6)C=C5)C=C4)cc2)CC1
REMARK SMILES IDX 24 1 23 2 22 3 21 4 20 5 19 6 17 7 18 8 16 9 15 10 12 11
REMARK SMILES IDX 13 12 89 13 14 15 88 16 11 17 9 18 8 19 10 21 7 22 1 23 2 24
REMARK SMILES IDX 3 25 4 26 6 27 5 28 25 29 26 30 27 31 28 32 29 33 30 34
REMARK SMILES IDX 31 35 32 36 33 37 34 38 35 39 87 40 36 41 86 42 37 43 38 44
REMARK SMILES IDX 39 45 80 46 40 47 85 48 79 49 81 50 41 51 84 52 78 53 77 54
REMARK SMILES IDX 42 56 68 57 51 58 67 59 52 60 55 61 66 62 82 63 53 64 54 65
REMARK SMILES IDX 65 67 83 68 56 69 43 70 44 71 49 72 45 73 46 74 48 75 50 76
REMARK SMILES IDX 47 77 69 78 70 79 75 80 71 81 72 82 74 83 76 84 73 85 57 86
REMARK SMILES IDX 58 87 63 88 59 89 60 90 62 91 64 92 61 93
REMARK H PARENT 12 14 8 20 81 55 55 66
REMARK Flexibility Score: inf
ROOT
ATOM      1  C   UNL A   1      34.091  25.943  25.290  1.00  0.00     0.188 C 
ENDROOT
BRANCH   1   2
ATOM      2  C   UNL A   1      33.012  26.038  26.399  1.00  0.00     0.188 C 
BRANCH   2   3
ATOM      3  O   UNL A   1      31.842  27.028  26.585  1.00  0.00    -0.376 OA
BRANCH   3   4
ATOM      4  C   UNL A   1      31.758  28.703  26.293  1.00  0.00     0.202 C 
BRANCH   4   5
ATOM      5  C   UNL A   1      32.910  30.100  25.773  1.00  0.00     0.261 C 
BRANCH   5   6
ATOM      6  O   UNL A   1      33.504  31.624  26.639  1.00  0.00    -0.463 OA
BRANCH   6   7
ATOM      7  C   UNL A   1      33.183  32.665  27.795  1.00  0.00     0.306 C 
ATOM      8  O   UNL A   1      32.198  33.408  27.658  1.00  0.00    -0.252 OA
BRANCH   7   9
ATOM      9  C   UNL A   1      34.246  33.046  29.211  1.00  0.00     0.126 C 
BRANCH   9  10
ATOM     10  C   UNL A   1      35.560  32.384  30.087  1.00  0.00     0.011 C 
ATOM     11  N   UNL A   1      37.115  30.241  31.763  1.00  0.00    -0.327 N 
ATOM     12  C   UNL A   1      36.697  31.505  32.316  1.00  0.00     0.262 C 
ATOM     13  C   UNL A   1      37.282  30.386  30.312  1.00  0.00     0.262 C 
ATOM     14  H   UNL A   1      36.407  29.511  31.839  1.00  0.00     0.348 HD
ATOM     15  C   UNL A   1      35.477  32.006  31.564  1.00  0.00     0.066 C 
ATOM     16  C   UNL A   1      36.061  31.013  29.518  1.00  0.00     0.066 C 
BRANCH  11  17
ATOM     17  C   UNL A   1      38.217  29.645  32.579  1.00  0.00     0.363 C 
BRANCH  17  18
ATOM     18  C   UNL A   1      38.614  28.168  32.272  1.00  0.00     0.279 C 
ATOM     19  N   UNL A   1      39.618  27.844  31.395  1.00  0.00    -0.321 N 
ATOM     20  H   UNL A   1      39.866  26.893  31.347  1.00  0.00     0.170 HD
ATOM     21  O   UNL A   1      38.075  27.229  32.874  1.00  0.00    -0.268 OA
BRANCH  19  22
ATOM     22  C   UNL A   1      40.329  28.712  30.562  1.00  0.00     0.044 A 
ATOM     23  C   UNL A   1      39.295  27.676  28.445  1.00  0.00     0.046 C 
ATOM     24  C   UNL A   1      40.267  28.567  29.167  1.00  0.00    -0.027 A 
ATOM     25  C   UNL A   1      41.222  29.253  28.394  1.00  0.00     0.005 A 
ATOM     26  C   UNL A   1      42.168  30.091  28.989  1.00  0.00     0.000 A 
ATOM     27  C   UNL A   1      41.187  29.659  31.136  1.00  0.00     0.026 A 
ATOM     28  C   UNL A   1      42.124  30.328  30.358  1.00  0.00     0.002 A 
ENDBRANCH  19  22
ENDBRANCH  17  18
ENDBRANCH  11  17
ENDBRANCH   9  10
ENDBRANCH   7   9
ENDBRANCH   6   7
ENDBRANCH   5   6
ENDBRANCH   4   5
ENDBRANCH   3   4
ENDBRANCH   2   3
ENDBRANCH   1   2
BRANCH   1  29
ATOM     29  O   UNL A   1      33.704  25.241  24.152  1.00  0.00    -0.377 OA
BRANCH  29  30
ATOM     30  C   UNL A   1      34.581  24.200  23.752  1.00  0.00     0.188 C 
BRANCH  30  31
ATOM     31  C   UNL A   1      35.005  23.149  24.780  1.00  0.00     0.188 C 
BRANCH  31  32
ATOM     32  O   UNL A   1      36.387  22.781  24.700  1.00  0.00    -0.376 OA
BRANCH  32  33
ATOM     33  C   UNL A   1      36.893  21.869  25.674  1.00  0.00     0.202 C 
BRANCH  33  34
ATOM     34  C   UNL A   1      38.375  21.496  25.502  1.00  0.00     0.261 C 
BRANCH  34  35
ATOM     35  O   UNL A   1      39.181  22.376  26.309  1.00  0.00    -0.460 OA
BRANCH  35  36
ATOM     36  C   UNL A   1      40.297  21.804  26.837  1.00  0.00     0.338 C 
ATOM     37  O   UNL A   1      40.317  20.806  27.531  1.00  0.00    -0.246 OA
BRANCH  36  38
ATOM     38  C   UNL A   1      41.446  22.757  26.692  1.00  0.00     0.060 A 
ATOM     39  C   UNL A   1      42.691  22.397  27.185  1.00  0.00     0.016 A 
ATOM     40  C   UNL A   1      41.234  24.097  26.355  1.00  0.00     0.016 A 
ATOM     41  C   UNL A   1      43.642  23.404  27.460  1.00  0.00     0.010 A 
ATOM     42  C   UNL A   1      42.108  25.100  26.813  1.00  0.00     0.010 A 
ATOM     43  C   UNL A   1      43.305  24.792  27.484  1.00  0.00    -0.014 A 
BRANCH  43  44
ATOM     44  C   UNL A   1      44.155  26.082  28.152  1.00  0.00     0.031 A 
ATOM     45  C   UNL A   1      45.499  25.790  27.022  1.00  0.00     0.074 A 
ATOM     46  C   UNL A   1      44.075  27.011  29.557  1.00  0.00     0.049 A 
ATOM     47  N   UNL A   1      46.759  25.630  27.350  1.00  0.00    -0.248 NA
ATOM     48  C   UNL A   1      45.379  25.446  25.581  1.00  0.00     0.031 C 
ATOM     49  C   UNL A   1      45.041  28.215  30.272  1.00  0.00     0.029 A 
ATOM     50  N   UNL A   1      43.488  26.832  30.956  1.00  0.00    -0.354 N 
ATOM     51  C   UNL A   1      47.523  25.832  26.248  1.00  0.00     0.074 A 
ATOM     52  C   UNL A   1      46.659  25.415  25.174  1.00  0.00     0.031 C 
ATOM     53  C   UNL A   1      44.971  28.412  31.576  1.00  0.00     0.029 A 
ATOM     54  C   UNL A   1      44.294  27.288  32.045  1.00  0.00     0.049 A 
ATOM     55  H   UNL A   1      42.602  26.426  31.099  1.00  0.00     0.167 HD
ATOM     56  C   UNL A   1      48.687  26.553  26.302  1.00  0.00     0.037 A 
ATOM     57  C   UNL A   1      44.794  26.636  33.134  1.00  0.00     0.037 A 
ATOM     58  C   UNL A   1      48.904  27.266  27.595  1.00  0.00     0.049 A 
ATOM     59  C   UNL A   1      46.361  26.602  33.103  1.00  0.00     0.074 A 
ATOM     60  C   UNL A   1      48.805  28.604  27.961  1.00  0.00     0.029 A 
ATOM     61  N   UNL A   1      49.015  26.588  28.815  1.00  0.00    -0.354 N 
ATOM     62  N   UNL A   1      47.095  27.142  32.148  1.00  0.00    -0.248 NA
ATOM     63  C   UNL A   1      47.216  25.905  34.061  1.00  0.00     0.031 C 
ATOM     64  C   UNL A   1      48.907  28.722  29.384  1.00  0.00     0.029 A 
ATOM     65  C   UNL A   1      49.051  27.454  29.921  1.00  0.00     0.049 A 
ATOM     66  H   UNL A   1      49.063  25.608  28.889  1.00  0.00     0.167 HD
ATOM     67  C   UNL A   1      48.402  26.750  32.232  1.00  0.00     0.074 A 
ATOM     68  C   UNL A   1      48.439  26.044  33.509  1.00  0.00     0.031 C 
ATOM     69  C   UNL A   1      49.364  26.942  31.268  1.00  0.00     0.037 A 
BRANCH  56  70
ATOM     70  C   UNL A   1      49.398  26.876  24.996  1.00  0.00     0.057 A 
ATOM     71  C   UNL A   1      48.772  27.499  23.904  1.00  0.00     0.134 A 
ATOM     72  C   UNL A   1      50.749  26.538  24.771  1.00  0.00     0.134 A 
ATOM     73  F   UNL A   1      47.542  28.016  23.993  1.00  0.00    -0.206 F 
ATOM     74  C   UNL A   1      49.390  27.636  22.650  1.00  0.00     0.040 A 
ATOM     75  C   UNL A   1      51.364  26.621  23.512  1.00  0.00     0.040 A 
ATOM     76  F   UNL A   1      51.532  26.119  25.779  1.00  0.00    -0.206 F 
ATOM     77  C   UNL A   1      50.673  27.154  22.435  1.00  0.00     0.006 A 
ENDBRANCH  56  70
BRANCH  57  78
ATOM     78  C   UNL A   1      43.810  25.695  33.711  1.00  0.00     0.057 A 
ATOM     79  C   UNL A   1      43.977  24.333  33.364  1.00  0.00     0.134 A 
ATOM     80  C   UNL A   1      43.041  25.973  34.836  1.00  0.00     0.134 A 
ATOM     81  F   UNL A   1      44.652  23.998  32.251  1.00  0.00    -0.206 F 
ATOM     82  C   UNL A   1      43.606  23.303  34.223  1.00  0.00     0.040 A 
ATOM     83  C   UNL A   1      42.648  24.944  35.700  1.00  0.00     0.040 A 
ATOM     84  F   UNL A   1      42.813  27.240  35.207  1.00  0.00    -0.206 F 
ATOM     85  C   UNL A   1      42.977  23.614  35.422  1.00  0.00     0.006 A 
ENDBRANCH  57  78
BRANCH  69  86
ATOM     86  C   UNL A   1      50.816  26.697  31.582  1.00  0.00     0.057 A 
ATOM     87  C   UNL A   1      51.683  27.750  31.909  1.00  0.00     0.134 A 
ATOM     88  C   UNL A   1      51.417  25.437  31.410  1.00  0.00     0.134 A 
ATOM     89  F   UNL A   1      51.234  29.011  32.001  1.00  0.00    -0.206 F 
ATOM     90  C   UNL A   1      53.048  27.547  32.136  1.00  0.00     0.040 A 
ATOM     91  C   UNL A   1      52.788  25.232  31.580  1.00  0.00     0.040 A 
ATOM     92  F   UNL A   1      50.698  24.353  31.085  1.00  0.00    -0.206 F 
ATOM     93  C   UNL A   1      53.605  26.285  31.967  1.00  0.00     0.006 A 
ENDBRANCH  69  86
ENDBRANCH  43  44
ENDBRANCH  36  38
ENDBRANCH  35  36
ENDBRANCH  34  35
ENDBRANCH  33  34
ENDBRANCH  32  33
ENDBRANCH  31  32
ENDBRANCH  30  31
ENDBRANCH  29  30
ENDBRANCH   1  29
TORSDOF 24
ENDMDL
