MODEL 1
REMARK VINA RESULT:      -9.1      0.000      0.000
REMARK SMILES CC(C)c1nc(N2C[C@H](C)OC(C)(C)C2)sc1C(=O)OCCOCCOCCOCCOC(=O)c1ccc(-c2c3nc(c(-c4c(F)cccc4F)c4ccc([nH]4)c(-c4c(F)cccc4F)c4nc(c(-c5c(F)cccc5F)c5ccc2[nH]5)C=C4)C=C3)cc1
REMARK SMILES IDX 27 1 26 2 25 3 24 4 23 5 22 6 21 7 20 8 18 9 19 10 17 11
REMARK SMILES IDX 4 12 5 13 6 14 16 15 2 16 1 17 3 18 7 19 8 20 15 21 9 22
REMARK SMILES IDX 12 23 11 24 10 25 13 26 14 27 28 28 29 29 30 30 31 31 32 32
REMARK SMILES IDX 33 33 34 34 35 35 36 36 88 37 37 38 87 39 38 40 39 41 40 42
REMARK SMILES IDX 81 43 41 44 86 45 80 46 82 47 42 48 85 49 79 50 78 51 43 53
REMARK SMILES IDX 69 54 52 55 68 56 53 57 56 58 67 59 83 60 54 61 55 62 66 64
REMARK SMILES IDX 84 65 57 66 44 67 45 68 50 69 46 70 47 71 49 72 51 73 48 74
REMARK SMILES IDX 70 75 71 76 76 77 72 78 73 79 75 80 77 81 74 82 58 83 59 84
REMARK SMILES IDX 64 85 60 86 61 87 63 88 65 89 62 90
REMARK H PARENT 82 52 56 63
REMARK Flexibility Score: inf
ROOT
ATOM      1  C   UNL A   1      31.202  28.707  24.670  1.00  0.00     0.188 C 
ENDROOT
BRANCH   1   2
ATOM      2  O   UNL A   1      31.438  28.518  23.279  1.00  0.00    -0.377 OA
BRANCH   2   3
ATOM      3  C   UNL A   1      32.129  27.325  22.930  1.00  0.00     0.188 C 
BRANCH   3   4
ATOM      4  C   UNL A   1      33.258  27.389  21.883  1.00  0.00     0.188 C 
BRANCH   4   5
ATOM      5  O   UNL A   1      33.923  26.133  21.707  1.00  0.00    -0.376 OA
BRANCH   5   6
ATOM      6  C   UNL A   1      33.082  24.992  21.564  1.00  0.00     0.202 C 
BRANCH   6   7
ATOM      7  C   UNL A   1      33.385  23.926  22.616  1.00  0.00     0.261 C 
BRANCH   7   8
ATOM      8  O   UNL A   1      34.250  24.415  23.651  1.00  0.00    -0.459 OA
BRANCH   8   9
ATOM      9  C   UNL A   1      33.884  24.200  24.936  1.00  0.00     0.350 C 
ATOM     10  O   UNL A   1      33.924  25.070  25.799  1.00  0.00    -0.245 OA
BRANCH   9  11
ATOM     11  C   UNL A   1      33.314  22.876  25.074  1.00  0.00     0.137 A 
ATOM     12  C   UNL A   1      32.049  22.371  25.372  1.00  0.00     0.071 A 
ATOM     13  N   UNL A   1      32.000  20.972  25.350  1.00  0.00    -0.224 NA
ATOM     14  C   UNL A   1      33.180  20.434  25.188  1.00  0.00     0.186 A 
ATOM     15  S   UNL A   1      34.436  21.563  24.936  1.00  0.00    -0.089 S 
BRANCH  12  16
ATOM     16  C   UNL A   1      30.691  23.000  25.656  1.00  0.00     0.034 C 
ATOM     17  C   UNL A   1      29.992  22.287  26.828  1.00  0.00     0.014 C 
ATOM     18  C   UNL A   1      30.623  24.501  25.899  1.00  0.00     0.014 C 
ENDBRANCH  12  16
BRANCH  14  19
ATOM     19  N   UNL A   1      33.380  19.102  25.143  1.00  0.00    -0.343 N 
ATOM     20  C   UNL A   1      32.825  18.182  26.124  1.00  0.00     0.150 C 
ATOM     21  C   UNL A   1      34.281  18.536  24.150  1.00  0.00     0.153 C 
ATOM     22  C   UNL A   1      32.202  16.972  25.390  1.00  0.00     0.135 C 
ATOM     23  C   UNL A   1      33.658  17.283  23.486  1.00  0.00     0.081 C 
ATOM     24  O   UNL A   1      33.138  16.365  24.476  1.00  0.00    -0.369 OA
ATOM     25  C   UNL A   1      31.774  15.891  26.374  1.00  0.00     0.040 C 
ATOM     26  C   UNL A   1      32.569  17.666  22.471  1.00  0.00     0.044 C 
ATOM     27  C   UNL A   1      34.763  16.515  22.749  1.00  0.00     0.044 C 
ENDBRANCH  14  19
ENDBRANCH   9  11
ENDBRANCH   8   9
ENDBRANCH   7   8
ENDBRANCH   6   7
ENDBRANCH   5   6
ENDBRANCH   4   5
ENDBRANCH   3   4
ENDBRANCH   2   3
ENDBRANCH   1   2
BRANCH   1  28
ATOM     28  C   UNL A   1      30.797  30.158  24.979  1.00  0.00     0.188 C 
BRANCH  28  29
ATOM     29  O   UNL A   1      31.847  30.900  25.595  1.00  0.00    -0.376 OA
BRANCH  29  30
ATOM     30  C   UNL A   1      31.466  31.925  26.508  1.00  0.00     0.202 C 
BRANCH  30  31
ATOM     31  C   UNL A   1      32.436  32.293  27.645  1.00  0.00     0.261 C 
BRANCH  31  32
ATOM     32  O   UNL A   1      33.237  33.471  27.436  1.00  0.00    -0.460 OA
BRANCH  32  33
ATOM     33  C   UNL A   1      33.310  34.376  28.433  1.00  0.00     0.338 C 
ATOM     34  O   UNL A   1      32.520  35.265  28.691  1.00  0.00    -0.246 OA
BRANCH  33  35
ATOM     35  C   UNL A   1      34.444  33.990  29.299  1.00  0.00     0.060 A 
ATOM     36  C   UNL A   1      35.748  34.276  28.872  1.00  0.00     0.016 A 
ATOM     37  C   UNL A   1      34.221  33.359  30.525  1.00  0.00     0.016 A 
ATOM     38  C   UNL A   1      36.836  33.897  29.660  1.00  0.00     0.010 A 
ATOM     39  C   UNL A   1      35.311  32.961  31.303  1.00  0.00     0.010 A 
ATOM     40  C   UNL A   1      36.622  33.200  30.858  1.00  0.00    -0.014 A 
BRANCH  40  41
ATOM     41  C   UNL A   1      37.761  32.535  31.535  1.00  0.00     0.031 A 
ATOM     42  C   UNL A   1      38.423  31.380  30.835  1.00  0.00     0.074 A 
ATOM     43  C   UNL A   1      38.203  32.942  32.737  1.00  0.00     0.049 A 
ATOM     44  N   UNL A   1      39.413  30.623  31.232  1.00  0.00    -0.248 NA
ATOM     45  C   UNL A   1      37.892  31.033  29.505  1.00  0.00     0.031 C 
ATOM     46  C   UNL A   1      37.664  34.063  33.505  1.00  0.00     0.029 A 
ATOM     47  N   UNL A   1      39.209  32.444  33.527  1.00  0.00    -0.354 N 
ATOM     48  C   UNL A   1      39.625  29.716  30.203  1.00  0.00     0.074 A 
ATOM     49  C   UNL A   1      38.646  29.995  29.176  1.00  0.00     0.031 C 
ATOM     50  C   UNL A   1      38.342  34.161  34.664  1.00  0.00     0.029 A 
ATOM     51  C   UNL A   1      39.341  33.096  34.728  1.00  0.00     0.049 A 
ATOM     52  H   UNL A   1      39.781  31.689  33.258  1.00  0.00     0.167 HD
ATOM     53  C   UNL A   1      40.557  28.739  30.117  1.00  0.00     0.037 A 
ATOM     54  C   UNL A   1      40.167  32.848  35.764  1.00  0.00     0.037 A 
ATOM     55  C   UNL A   1      41.524  28.450  31.139  1.00  0.00     0.049 A 
ATOM     56  C   UNL A   1      41.149  31.707  35.673  1.00  0.00     0.074 A 
ATOM     57  C   UNL A   1      42.522  27.491  31.137  1.00  0.00     0.029 A 
ATOM     58  N   UNL A   1      41.608  29.115  32.352  1.00  0.00    -0.354 N 
ATOM     59  N   UNL A   1      41.368  30.879  34.680  1.00  0.00    -0.248 NA
ATOM     60  C   UNL A   1      41.999  31.466  36.850  1.00  0.00     0.031 C 
ATOM     61  C   UNL A   1      43.184  27.549  32.367  1.00  0.00     0.029 A 
ATOM     62  C   UNL A   1      42.625  28.571  33.118  1.00  0.00     0.049 A 
ATOM     63  H   UNL A   1      41.031  29.863  32.628  1.00  0.00     0.167 HD
ATOM     64  C   UNL A   1      42.396  30.043  35.099  1.00  0.00     0.074 A 
ATOM     65  C   UNL A   1      42.764  30.468  36.433  1.00  0.00     0.031 C 
ATOM     66  C   UNL A   1      42.985  29.016  34.439  1.00  0.00     0.037 A 
BRANCH  53  67
ATOM     67  C   UNL A   1      40.555  27.897  28.878  1.00  0.00     0.057 A 
ATOM     68  C   UNL A   1      41.303  28.250  27.747  1.00  0.00     0.134 A 
ATOM     69  C   UNL A   1      39.814  26.710  28.822  1.00  0.00     0.134 A 
ATOM     70  F   UNL A   1      42.017  29.385  27.732  1.00  0.00    -0.206 F 
ATOM     71  C   UNL A   1      41.300  27.460  26.597  1.00  0.00     0.040 A 
ATOM     72  C   UNL A   1      39.820  25.901  27.685  1.00  0.00     0.040 A 
ATOM     73  F   UNL A   1      39.076  26.318  29.872  1.00  0.00    -0.206 F 
ATOM     74  C   UNL A   1      40.561  26.278  26.567  1.00  0.00     0.006 A 
ENDBRANCH  53  67
BRANCH  54  75
ATOM     75  C   UNL A   1      40.105  33.682  36.990  1.00  0.00     0.057 A 
ATOM     76  C   UNL A   1      40.941  34.791  37.156  1.00  0.00     0.134 A 
ATOM     77  C   UNL A   1      39.238  33.364  38.043  1.00  0.00     0.134 A 
ATOM     78  F   UNL A   1      41.813  35.128  36.194  1.00  0.00    -0.206 F 
ATOM     79  C   UNL A   1      40.933  35.544  38.332  1.00  0.00     0.040 A 
ATOM     80  C   UNL A   1      39.203  34.122  39.215  1.00  0.00     0.040 A 
ATOM     81  F   UNL A   1      38.414  32.310  37.947  1.00  0.00    -0.206 F 
ATOM     82  C   UNL A   1      40.058  35.212  39.364  1.00  0.00     0.006 A 
ENDBRANCH  54  75
BRANCH  66  83
ATOM     83  C   UNL A   1      44.112  28.307  35.128  1.00  0.00     0.057 A 
ATOM     84  C   UNL A   1      45.436  28.751  35.026  1.00  0.00     0.134 A 
ATOM     85  C   UNL A   1      43.861  27.197  35.944  1.00  0.00     0.134 A 
ATOM     86  F   UNL A   1      45.743  29.803  34.250  1.00  0.00    -0.206 F 
ATOM     87  C   UNL A   1      46.474  28.105  35.699  1.00  0.00     0.040 A 
ATOM     88  C   UNL A   1      44.887  26.557  36.640  1.00  0.00     0.040 A 
ATOM     89  F   UNL A   1      42.613  26.728  36.092  1.00  0.00    -0.206 F 
ATOM     90  C   UNL A   1      46.199  27.009  36.514  1.00  0.00     0.006 A 
ENDBRANCH  66  83
ENDBRANCH  40  41
ENDBRANCH  33  35
ENDBRANCH  32  33
ENDBRANCH  31  32
ENDBRANCH  30  31
ENDBRANCH  29  30
ENDBRANCH  28  29
ENDBRANCH   1  28
TORSDOF 22
ENDMDL
MODEL 2
REMARK VINA RESULT:      -9.1      5.907      8.029
REMARK SMILES CC(C)c1nc(N2C[C@H](C)OC(C)(C)C2)sc1C(=O)OCCOCCOCCOCCOC(=O)c1ccc(-c2c3nc(c(-c4c(F)cccc4F)c4ccc([nH]4)c(-c4c(F)cccc4F)c4nc(c(-c5c(F)cccc5F)c5ccc2[nH]5)C=C4)C=C3)cc1
REMARK SMILES IDX 27 1 26 2 25 3 24 4 23 5 22 6 21 7 20 8 18 9 19 10 17 11
REMARK SMILES IDX 4 12 5 13 6 14 16 15 2 16 1 17 3 18 7 19 8 20 15 21 9 22
REMARK SMILES IDX 12 23 11 24 10 25 13 26 14 27 28 28 29 29 30 30 31 31 32 32
REMARK SMILES IDX 33 33 34 34 35 35 36 36 88 37 37 38 87 39 38 40 39 41 40 42
REMARK SMILES IDX 81 43 41 44 86 45 80 46 82 47 42 48 85 49 79 50 78 51 43 53
REMARK SMILES IDX 69 54 52 55 68 56 53 57 56 58 67 59 83 60 54 61 55 62 66 64
REMARK SMILES IDX 84 65 57 66 44 67 45 68 50 69 46 70 47 71 49 72 51 73 48 74
REMARK SMILES IDX 70 75 71 76 76 77 72 78 73 79 75 80 77 81 74 82 58 83 59 84
REMARK SMILES IDX 64 85 60 86 61 87 63 88 65 89 62 90
REMARK H PARENT 82 52 56 63
REMARK Flexibility Score: inf
ROOT
ATOM      1  C   UNL A   1      33.863  34.496  29.388  1.00  0.00     0.188 C 
ENDROOT
BRANCH   1   2
ATOM      2  O   UNL A   1      34.092  33.092  29.350  1.00  0.00    -0.377 OA
BRANCH   2   3
ATOM      3  C   UNL A   1      35.051  32.651  28.396  1.00  0.00     0.188 C 
BRANCH   3   4
ATOM      4  C   UNL A   1      35.410  31.155  28.329  1.00  0.00     0.188 C 
BRANCH   4   5
ATOM      5  O   UNL A   1      34.845  30.500  27.187  1.00  0.00    -0.376 OA
BRANCH   5   6
ATOM      6  C   UNL A   1      33.731  29.649  27.440  1.00  0.00     0.202 C 
BRANCH   6   7
ATOM      7  C   UNL A   1      32.452  30.176  26.789  1.00  0.00     0.261 C 
BRANCH   7   8
ATOM      8  O   UNL A   1      31.807  29.184  25.977  1.00  0.00    -0.459 OA
BRANCH   8   9
ATOM      9  C   UNL A   1      32.432  28.792  24.842  1.00  0.00     0.350 C 
ATOM     10  O   UNL A   1      33.163  29.531  24.190  1.00  0.00    -0.245 OA
BRANCH   9  11
ATOM     11  C   UNL A   1      32.228  27.375  24.627  1.00  0.00     0.137 A 
ATOM     12  C   UNL A   1      31.256  26.601  23.994  1.00  0.00     0.071 A 
ATOM     13  N   UNL A   1      31.539  25.231  24.030  1.00  0.00    -0.224 NA
ATOM     14  C   UNL A   1      32.584  24.956  24.766  1.00  0.00     0.186 A 
ATOM     15  S   UNL A   1      33.384  26.332  25.387  1.00  0.00    -0.089 S 
BRANCH  12  16
ATOM     16  C   UNL A   1      29.984  26.916  23.217  1.00  0.00     0.034 C 
ATOM     17  C   UNL A   1      28.737  26.477  24.008  1.00  0.00     0.014 C 
ATOM     18  C   UNL A   1      29.765  28.341  22.730  1.00  0.00     0.014 C 
ENDBRANCH  12  16
BRANCH  14  19
ATOM     19  N   UNL A   1      33.042  23.703  24.954  1.00  0.00    -0.343 N 
ATOM     20  C   UNL A   1      32.246  22.517  24.673  1.00  0.00     0.150 C 
ATOM     21  C   UNL A   1      34.341  23.489  25.574  1.00  0.00     0.153 C 
ATOM     22  C   UNL A   1      33.109  21.502  23.889  1.00  0.00     0.135 C 
ATOM     23  C   UNL A   1      35.150  22.414  24.808  1.00  0.00     0.081 C 
ATOM     24  O   UNL A   1      34.355  21.230  24.563  1.00  0.00    -0.369 OA
ATOM     25  C   UNL A   1      32.387  20.170  23.732  1.00  0.00     0.040 C 
ATOM     26  C   UNL A   1      35.722  22.969  23.494  1.00  0.00     0.044 C 
ATOM     27  C   UNL A   1      36.317  21.953  25.692  1.00  0.00     0.044 C 
ENDBRANCH  14  19
ENDBRANCH   9  11
ENDBRANCH   8   9
ENDBRANCH   7   8
ENDBRANCH   6   7
ENDBRANCH   5   6
ENDBRANCH   4   5
ENDBRANCH   3   4
ENDBRANCH   2   3
ENDBRANCH   1   2
BRANCH   1  28
ATOM     28  C   UNL A   1      33.829  35.021  30.833  1.00  0.00     0.188 C 
BRANCH  28  29
ATOM     29  O   UNL A   1      34.945  34.580  31.602  1.00  0.00    -0.376 OA
BRANCH  29  30
ATOM     30  C   UNL A   1      34.663  33.868  32.803  1.00  0.00     0.202 C 
BRANCH  30  31
ATOM     31  C   UNL A   1      35.359  32.514  33.034  1.00  0.00     0.261 C 
BRANCH  31  32
ATOM     32  O   UNL A   1      36.102  31.986  31.919  1.00  0.00    -0.460 OA
BRANCH  32  33
ATOM     33  C   UNL A   1      36.811  30.854  32.106  1.00  0.00     0.338 C 
ATOM     34  O   UNL A   1      36.401  29.773  32.485  1.00  0.00    -0.246 OA
BRANCH  33  35
ATOM     35  C   UNL A   1      38.174  31.096  31.587  1.00  0.00     0.060 A 
ATOM     36  C   UNL A   1      39.124  31.686  32.430  1.00  0.00     0.016 A 
ATOM     37  C   UNL A   1      38.512  30.732  30.281  1.00  0.00     0.016 A 
ATOM     38  C   UNL A   1      40.409  31.947  31.954  1.00  0.00     0.010 A 
ATOM     39  C   UNL A   1      39.792  31.013  29.798  1.00  0.00     0.010 A 
ATOM     40  C   UNL A   1      40.735  31.652  30.622  1.00  0.00    -0.014 A 
BRANCH  40  41
ATOM     41  C   UNL A   1      41.979  32.198  30.031  1.00  0.00     0.031 A 
ATOM     42  C   UNL A   1      43.147  31.266  29.855  1.00  0.00     0.074 A 
ATOM     43  C   UNL A   1      42.076  33.485  29.654  1.00  0.00     0.049 A 
ATOM     44  N   UNL A   1      44.344  31.511  29.390  1.00  0.00    -0.248 NA
ATOM     45  C   UNL A   1      42.931  29.867  30.261  1.00  0.00     0.031 C 
ATOM     46  C   UNL A   1      41.010  34.479  29.748  1.00  0.00     0.029 A 
ATOM     47  N   UNL A   1      43.137  34.175  29.122  1.00  0.00    -0.354 N 
ATOM     48  C   UNL A   1      45.021  30.300  29.444  1.00  0.00     0.074 A 
ATOM     49  C   UNL A   1      44.115  29.328  30.013  1.00  0.00     0.031 C 
ATOM     50  C   UNL A   1      41.475  35.659  29.296  1.00  0.00     0.029 A 
ATOM     51  C   UNL A   1      42.876  35.506  28.907  1.00  0.00     0.049 A 
ATOM     52  H   UNL A   1      44.003  33.755  28.915  1.00  0.00     0.167 HD
ATOM     53  C   UNL A   1      46.285  30.020  29.050  1.00  0.00     0.037 A 
ATOM     54  C   UNL A   1      43.685  36.487  28.461  1.00  0.00     0.037 A 
ATOM     55  C   UNL A   1      47.193  30.986  28.496  1.00  0.00     0.049 A 
ATOM     56  C   UNL A   1      45.112  36.164  28.096  1.00  0.00     0.074 A 
ATOM     57  C   UNL A   1      48.489  30.795  28.051  1.00  0.00     0.029 A 
ATOM     58  N   UNL A   1      46.901  32.329  28.320  1.00  0.00    -0.354 N 
ATOM     59  N   UNL A   1      45.731  35.008  28.115  1.00  0.00    -0.248 NA
ATOM     60  C   UNL A   1      45.953  37.285  27.648  1.00  0.00     0.031 C 
ATOM     61  C   UNL A   1      48.995  32.033  27.642  1.00  0.00     0.029 A 
ATOM     62  C   UNL A   1      48.001  32.985  27.795  1.00  0.00     0.049 A 
ATOM     63  H   UNL A   1      46.039  32.753  28.536  1.00  0.00     0.167 HD
ATOM     64  C   UNL A   1      47.019  35.257  27.655  1.00  0.00     0.074 A 
ATOM     65  C   UNL A   1      47.091  36.672  27.357  1.00  0.00     0.031 C 
ATOM     66  C   UNL A   1      48.050  34.392  27.492  1.00  0.00     0.037 A 
BRANCH  53  67
ATOM     67  C   UNL A   1      46.762  28.612  29.230  1.00  0.00     0.057 A 
ATOM     68  C   UNL A   1      46.610  27.649  28.224  1.00  0.00     0.134 A 
ATOM     69  C   UNL A   1      47.399  28.220  30.413  1.00  0.00     0.134 A 
ATOM     70  F   UNL A   1      45.991  27.959  27.075  1.00  0.00    -0.206 F 
ATOM     71  C   UNL A   1      47.061  26.340  28.395  1.00  0.00     0.040 A 
ATOM     72  C   UNL A   1      47.873  26.918  30.588  1.00  0.00     0.040 A 
ATOM     73  F   UNL A   1      47.574  29.094  31.415  1.00  0.00    -0.206 F 
ATOM     74  C   UNL A   1      47.700  25.973  29.579  1.00  0.00     0.006 A 
ENDBRANCH  53  67
BRANCH  54  75
ATOM     75  C   UNL A   1      43.181  37.878  28.339  1.00  0.00     0.057 A 
ATOM     76  C   UNL A   1      42.519  38.311  27.185  1.00  0.00     0.134 A 
ATOM     77  C   UNL A   1      43.388  38.818  29.356  1.00  0.00     0.134 A 
ATOM     78  F   UNL A   1      42.316  37.464  26.166  1.00  0.00    -0.206 F 
ATOM     79  C   UNL A   1      42.096  39.633  27.037  1.00  0.00     0.040 A 
ATOM     80  C   UNL A   1      42.951  40.138  29.231  1.00  0.00     0.040 A 
ATOM     81  F   UNL A   1      44.021  38.467  30.485  1.00  0.00    -0.206 F 
ATOM     82  C   UNL A   1      42.309  40.551  28.064  1.00  0.00     0.006 A 
ENDBRANCH  54  75
BRANCH  66  83
ATOM     83  C   UNL A   1      49.329  34.938  26.933  1.00  0.00     0.057 A 
ATOM     84  C   UNL A   1      49.487  35.191  25.565  1.00  0.00     0.134 A 
ATOM     85  C   UNL A   1      50.396  35.263  27.780  1.00  0.00     0.134 A 
ATOM     86  F   UNL A   1      48.506  34.892  24.700  1.00  0.00    -0.206 F 
ATOM     87  C   UNL A   1      50.670  35.732  25.057  1.00  0.00     0.040 A 
ATOM     88  C   UNL A   1      51.573  35.826  27.288  1.00  0.00     0.040 A 
ATOM     89  F   UNL A   1      50.303  35.055  29.102  1.00  0.00    -0.206 F 
ATOM     90  C   UNL A   1      51.714  36.057  25.921  1.00  0.00     0.006 A 
ENDBRANCH  66  83
ENDBRANCH  40  41
ENDBRANCH  33  35
ENDBRANCH  32  33
ENDBRANCH  31  32
ENDBRANCH  30  31
ENDBRANCH  29  30
ENDBRANCH  28  29
ENDBRANCH   1  28
TORSDOF 22
ENDMDL
MODEL 3
REMARK VINA RESULT:      -8.9      6.226     12.021
REMARK SMILES CC(C)c1nc(N2C[C@H](C)OC(C)(C)C2)sc1C(=O)OCCOCCOCCOCCOC(=O)c1ccc(-c2c3nc(c(-c4c(F)cccc4F)c4ccc([nH]4)c(-c4c(F)cccc4F)c4nc(c(-c5c(F)cccc5F)c5ccc2[nH]5)C=C4)C=C3)cc1
REMARK SMILES IDX 27 1 26 2 25 3 24 4 23 5 22 6 21 7 20 8 18 9 19 10 17 11
REMARK SMILES IDX 4 12 5 13 6 14 16 15 2 16 1 17 3 18 7 19 8 20 15 21 9 22
REMARK SMILES IDX 12 23 11 24 10 25 13 26 14 27 28 28 29 29 30 30 31 31 32 32
REMARK SMILES IDX 33 33 34 34 35 35 36 36 88 37 37 38 87 39 38 40 39 41 40 42
REMARK SMILES IDX 81 43 41 44 86 45 80 46 82 47 42 48 85 49 79 50 78 51 43 53
REMARK SMILES IDX 69 54 52 55 68 56 53 57 56 58 67 59 83 60 54 61 55 62 66 64
REMARK SMILES IDX 84 65 57 66 44 67 45 68 50 69 46 70 47 71 49 72 51 73 48 74
REMARK SMILES IDX 70 75 71 76 76 77 72 78 73 79 75 80 77 81 74 82 58 83 59 84
REMARK SMILES IDX 64 85 60 86 61 87 63 88 65 89 62 90
REMARK H PARENT 82 52 56 63
REMARK Flexibility Score: inf
ROOT
ATOM      1  C   UNL A   1      37.998  31.622  35.044  1.00  0.00     0.188 C 
ENDROOT
BRANCH   1   2
ATOM      2  O   UNL A   1      39.033  31.448  34.083  1.00  0.00    -0.377 OA
BRANCH   2   3
ATOM      3  C   UNL A   1      39.596  30.142  34.017  1.00  0.00     0.188 C 
BRANCH   3   4
ATOM      4  C   UNL A   1      40.955  29.876  34.691  1.00  0.00     0.188 C 
BRANCH   4   5
ATOM      5  O   UNL A   1      41.951  29.419  33.768  1.00  0.00    -0.376 OA
BRANCH   5   6
ATOM      6  C   UNL A   1      42.615  28.206  34.111  1.00  0.00     0.202 C 
BRANCH   6   7
ATOM      7  C   UNL A   1      41.749  27.317  35.003  1.00  0.00     0.261 C 
BRANCH   7   8
ATOM      8  O   UNL A   1      42.315  26.010  35.182  1.00  0.00    -0.459 OA
BRANCH   8   9
ATOM      9  C   UNL A   1      43.384  25.891  36.002  1.00  0.00     0.350 C 
ATOM     10  O   UNL A   1      43.443  26.418  37.108  1.00  0.00    -0.245 OA
BRANCH   9  11
ATOM     11  C   UNL A   1      44.333  24.951  35.445  1.00  0.00     0.137 A 
ATOM     12  C   UNL A   1      44.775  24.635  34.161  1.00  0.00     0.071 A 
ATOM     13  N   UNL A   1      45.764  23.644  34.152  1.00  0.00    -0.224 NA
ATOM     14  C   UNL A   1      45.966  23.129  35.336  1.00  0.00     0.186 A 
ATOM     15  S   UNL A   1      45.066  23.870  36.584  1.00  0.00    -0.089 S 
BRANCH  12  16
ATOM     16  C   UNL A   1      44.468  25.170  32.769  1.00  0.00     0.034 C 
ATOM     17  C   UNL A   1      45.299  26.433  32.472  1.00  0.00     0.014 C 
ATOM     18  C   UNL A   1      44.594  24.225  31.583  1.00  0.00     0.014 C 
ENDBRANCH  12  16
BRANCH  14  19
ATOM     19  N   UNL A   1      46.866  22.153  35.568  1.00  0.00    -0.343 N 
ATOM     20  C   UNL A   1      47.181  21.116  34.599  1.00  0.00     0.150 C 
ATOM     21  C   UNL A   1      47.485  22.033  36.880  1.00  0.00     0.153 C 
ATOM     22  C   UNL A   1      48.715  20.952  34.510  1.00  0.00     0.135 C 
ATOM     23  C   UNL A   1      49.010  21.797  36.755  1.00  0.00     0.081 C 
ATOM     24  O   UNL A   1      49.304  20.742  35.810  1.00  0.00    -0.369 OA
ATOM     25  C   UNL A   1      49.094  19.753  33.650  1.00  0.00     0.040 C 
ATOM     26  C   UNL A   1      49.751  23.089  36.380  1.00  0.00     0.044 C 
ATOM     27  C   UNL A   1      49.544  21.303  38.106  1.00  0.00     0.044 C 
ENDBRANCH  14  19
ENDBRANCH   9  11
ENDBRANCH   8   9
ENDBRANCH   7   8
ENDBRANCH   6   7
ENDBRANCH   5   6
ENDBRANCH   4   5
ENDBRANCH   3   4
ENDBRANCH   2   3
ENDBRANCH   1   2
BRANCH   1  28
ATOM     28  C   UNL A   1      37.102  32.822  34.694  1.00  0.00     0.188 C 
BRANCH  28  29
ATOM     29  O   UNL A   1      36.227  32.551  33.602  1.00  0.00    -0.376 OA
BRANCH  29  30
ATOM     30  C   UNL A   1      36.039  33.593  32.649  1.00  0.00     0.202 C 
BRANCH  30  31
ATOM     31  C   UNL A   1      35.175  33.306  31.408  1.00  0.00     0.261 C 
BRANCH  31  32
ATOM     32  O   UNL A   1      35.040  31.922  31.037  1.00  0.00    -0.460 OA
BRANCH  32  33
ATOM     33  C   UNL A   1      35.185  31.594  29.737  1.00  0.00     0.338 C 
ATOM     34  O   UNL A   1      34.506  31.962  28.797  1.00  0.00    -0.246 OA
BRANCH  33  35
ATOM     35  C   UNL A   1      36.449  30.838  29.609  1.00  0.00     0.060 A 
ATOM     36  C   UNL A   1      36.964  30.187  30.738  1.00  0.00     0.016 A 
ATOM     37  C   UNL A   1      37.113  30.765  28.383  1.00  0.00     0.016 A 
ATOM     38  C   UNL A   1      38.169  29.489  30.648  1.00  0.00     0.010 A 
ATOM     39  C   UNL A   1      38.330  30.084  28.298  1.00  0.00     0.010 A 
ATOM     40  C   UNL A   1      38.878  29.472  29.438  1.00  0.00    -0.014 A 
BRANCH  40  41
ATOM     41  C   UNL A   1      40.283  29.002  29.416  1.00  0.00     0.031 A 
ATOM     42  C   UNL A   1      41.355  29.955  29.872  1.00  0.00     0.074 A 
ATOM     43  C   UNL A   1      40.608  27.763  29.007  1.00  0.00     0.049 A 
ATOM     44  N   UNL A   1      42.651  29.788  29.918  1.00  0.00    -0.248 NA
ATOM     45  C   UNL A   1      40.898  31.275  30.338  1.00  0.00     0.031 C 
ATOM     46  C   UNL A   1      39.662  26.740  28.568  1.00  0.00     0.029 A 
ATOM     47  N   UNL A   1      41.836  27.162  28.889  1.00  0.00    -0.354 N 
ATOM     48  C   UNL A   1      43.162  30.978  30.420  1.00  0.00     0.074 A 
ATOM     49  C   UNL A   1      42.043  31.868  30.636  1.00  0.00     0.031 C 
ATOM     50  C   UNL A   1      40.348  25.636  28.216  1.00  0.00     0.029 A 
ATOM     51  C   UNL A   1      41.779  25.886  28.383  1.00  0.00     0.049 A 
ATOM     52  H   UNL A   1      42.679  27.604  29.141  1.00  0.00     0.167 HD
ATOM     53  C   UNL A   1      44.450  31.300  30.683  1.00  0.00     0.037 A 
ATOM     54  C   UNL A   1      42.773  25.029  28.077  1.00  0.00     0.037 A 
ATOM     55  C   UNL A   1      45.566  30.424  30.458  1.00  0.00     0.049 A 
ATOM     56  C   UNL A   1      44.205  25.439  28.312  1.00  0.00     0.074 A 
ATOM     57  C   UNL A   1      46.907  30.653  30.709  1.00  0.00     0.029 A 
ATOM     58  N   UNL A   1      45.469  29.151  29.919  1.00  0.00    -0.354 N 
ATOM     59  N   UNL A   1      44.675  26.552  28.823  1.00  0.00    -0.248 NA
ATOM     60  C   UNL A   1      45.244  24.472  27.926  1.00  0.00     0.031 C 
ATOM     61  C   UNL A   1      47.627  29.533  30.284  1.00  0.00     0.029 A 
ATOM     62  C   UNL A   1      46.730  28.590  29.807  1.00  0.00     0.049 A 
ATOM     63  H   UNL A   1      44.629  28.711  29.656  1.00  0.00     0.167 HD
ATOM     64  C   UNL A   1      46.058  26.406  28.847  1.00  0.00     0.074 A 
ATOM     65  C   UNL A   1      46.350  25.095  28.308  1.00  0.00     0.031 C 
ATOM     66  C   UNL A   1      47.001  27.278  29.279  1.00  0.00     0.037 A 
BRANCH  53  67
ATOM     67  C   UNL A   1      44.716  32.672  31.223  1.00  0.00     0.057 A 
ATOM     68  C   UNL A   1      44.965  33.760  30.376  1.00  0.00     0.134 A 
ATOM     69  C   UNL A   1      44.703  32.912  32.602  1.00  0.00     0.134 A 
ATOM     70  F   UNL A   1      45.009  33.590  29.046  1.00  0.00    -0.206 F 
ATOM     71  C   UNL A   1      45.208  35.037  30.884  1.00  0.00     0.040 A 
ATOM     72  C   UNL A   1      44.924  34.189  33.120  1.00  0.00     0.040 A 
ATOM     73  F   UNL A   1      44.473  31.911  33.464  1.00  0.00    -0.206 F 
ATOM     74  C   UNL A   1      45.182  35.254  32.261  1.00  0.00     0.006 A 
ENDBRANCH  53  67
BRANCH  54  75
ATOM     75  C   UNL A   1      42.464  23.696  27.503  1.00  0.00     0.057 A 
ATOM     76  C   UNL A   1      42.380  23.503  26.120  1.00  0.00     0.134 A 
ATOM     77  C   UNL A   1      42.201  22.593  28.326  1.00  0.00     0.134 A 
ATOM     78  F   UNL A   1      42.593  24.528  25.283  1.00  0.00    -0.206 F 
ATOM     79  C   UNL A   1      42.029  22.267  25.574  1.00  0.00     0.040 A 
ATOM     80  C   UNL A   1      41.871  21.346  27.792  1.00  0.00     0.040 A 
ATOM     81  F   UNL A   1      42.260  22.714  29.660  1.00  0.00    -0.206 F 
ATOM     82  C   UNL A   1      41.777  21.183  26.412  1.00  0.00     0.006 A 
ENDBRANCH  54  75
BRANCH  66  83
ATOM     83  C   UNL A   1      48.431  26.833  29.224  1.00  0.00     0.057 A 
ATOM     84  C   UNL A   1      49.009  26.078  30.253  1.00  0.00     0.134 A 
ATOM     85  C   UNL A   1      49.224  27.120  28.106  1.00  0.00     0.134 A 
ATOM     86  F   UNL A   1      48.304  25.780  31.356  1.00  0.00    -0.206 F 
ATOM     87  C   UNL A   1      50.331  25.638  30.178  1.00  0.00     0.040 A 
ATOM     88  C   UNL A   1      50.540  26.665  28.009  1.00  0.00     0.040 A 
ATOM     89  F   UNL A   1      48.727  27.829  27.083  1.00  0.00    -0.206 F 
ATOM     90  C   UNL A   1      51.098  25.926  29.051  1.00  0.00     0.006 A 
ENDBRANCH  66  83
ENDBRANCH  40  41
ENDBRANCH  33  35
ENDBRANCH  32  33
ENDBRANCH  31  32
ENDBRANCH  30  31
ENDBRANCH  29  30
ENDBRANCH  28  29
ENDBRANCH   1  28
TORSDOF 22
ENDMDL
