MODEL 1
REMARK VINA RESULT:      -9.6      0.000      0.000
REMARK SMILES COc1ccc2c(c1)c(CC(=O)OCCOCCOCCOCCOC(=O)c1ccc(-c3c4nc(c(-c5c(F)cccc5F)c5ccc([nH]5)c(-c5c(F)cccc5F)c5nc(c(-c6c(F)cccc6F)c6ccc3[nH]6)C=C5)C=C4)cc1)c(C(F)(F)F)n2C(=O)c1ccc(Cl)cc1
REMARK SMILES IDX 18 1 17 2 16 3 15 4 14 5 13 6 11 7 12 8 10 9 9 10 3 11 4 12
REMARK SMILES IDX 8 13 5 14 7 15 6 16 87 17 82 18 2 19 1 20 88 21 89 22 90 23
REMARK SMILES IDX 91 24 96 25 92 26 95 27 93 28 94 29 83 30 84 31 85 32 86 33
REMARK SMILES IDX 19 34 20 35 21 36 22 37 23 38 24 39 25 40 26 41 27 42 28 43
REMARK SMILES IDX 29 44 81 45 30 46 80 47 31 48 32 49 33 50 74 51 34 52 79 53
REMARK SMILES IDX 73 54 75 55 35 56 78 57 72 58 71 59 36 61 62 62 45 63 61 64
REMARK SMILES IDX 46 65 49 66 60 67 76 68 47 69 48 70 59 72 77 73 50 74 37 75
REMARK SMILES IDX 38 76 43 77 39 78 40 79 42 80 44 81 41 82 63 83 64 84 69 85
REMARK SMILES IDX 65 86 66 87 68 88 70 89 67 90 51 91 52 92 57 93 53 94 54 95
REMARK SMILES IDX 56 96 58 97 55 98
REMARK H PARENT 75 60 49 71
REMARK Flexibility Score: inf
ROOT
ATOM      1  C   UNL A   1      36.952  30.890  29.907  1.00  0.00     0.188 C 
ENDROOT
BRANCH   1   2
ATOM      2  C   UNL A   1      36.508  30.676  28.466  1.00  0.00     0.188 C 
BRANCH   2   3
ATOM      3  O   UNL A   1      35.550  29.647  28.309  1.00  0.00    -0.376 OA
BRANCH   3   4
ATOM      4  C   UNL A   1      34.792  29.622  27.110  1.00  0.00     0.202 C 
BRANCH   4   5
ATOM      5  C   UNL A   1      33.595  28.654  26.994  1.00  0.00     0.261 C 
BRANCH   5   6
ATOM      6  O   UNL A   1      33.700  27.558  26.055  1.00  0.00    -0.463 OA
BRANCH   6   7
ATOM      7  C   UNL A   1      32.639  26.731  25.912  1.00  0.00     0.310 C 
ATOM      8  O   UNL A   1      31.625  27.052  25.295  1.00  0.00    -0.252 OA
BRANCH   7   9
ATOM      9  C   UNL A   1      32.815  25.316  26.479  1.00  0.00     0.161 C 
BRANCH   9  10
ATOM     10  C   UNL A   1      33.209  24.139  25.586  1.00  0.00     0.002 A 
ATOM     11  C   UNL A   1      36.996  23.536  25.335  1.00  0.00     0.119 A 
ATOM     12  C   UNL A   1      36.924  22.411  24.540  1.00  0.00     0.048 A 
ATOM     13  C   UNL A   1      35.827  24.261  25.608  1.00  0.00     0.057 A 
ATOM     14  C   UNL A   1      35.690  21.959  24.069  1.00  0.00     0.031 A 
ATOM     15  C   UNL A   1      34.551  23.756  25.246  1.00  0.00     0.008 A 
ATOM     16  C   UNL A   1      34.493  22.609  24.448  1.00  0.00     0.057 A 
ATOM     17  N   UNL A   1      33.139  22.318  24.202  1.00  0.00    -0.271 N 
ATOM     18  C   UNL A   1      32.369  23.306  24.841  1.00  0.00     0.135 A 
BRANCH  11  19
ATOM     19  O   UNL A   1      38.135  24.002  25.934  1.00  0.00    -0.497 OA
ATOM     20  C   UNL A   1      39.040  23.014  26.429  1.00  0.00     0.278 C 
ENDBRANCH  11  19
BRANCH  17  21
ATOM     21  C   UNL A   1      32.659  21.192  23.464  1.00  0.00     0.262 C 
ATOM     22  O   UNL A   1      32.173  21.380  22.353  1.00  0.00    -0.268 OA
BRANCH  21  23
ATOM     23  C   UNL A   1      32.627  19.797  23.954  1.00  0.00     0.040 A 
ATOM     24  C   UNL A   1      32.694  19.567  25.334  1.00  0.00     0.015 A 
ATOM     25  C   UNL A   1      32.576  18.722  23.055  1.00  0.00     0.015 A 
ATOM     26  C   UNL A   1      32.776  18.256  25.815  1.00  0.00     0.021 A 
ATOM     27  C   UNL A   1      32.647  17.411  23.545  1.00  0.00     0.021 A 
ATOM     28  C   UNL A   1      32.762  17.185  24.919  1.00  0.00     0.041 A 
ATOM     29  Cl  UNL A   1      32.908  15.577  25.513  1.00  0.00    -0.084 Cl
ENDBRANCH  21  23
ENDBRANCH  17  21
BRANCH  18  30
ATOM     30  C   UNL A   1      30.881  23.413  24.727  1.00  0.00     0.432 C 
ATOM     31  F   UNL A   1      30.487  23.557  23.440  1.00  0.00    -0.165 F 
ATOM     32  F   UNL A   1      30.304  22.254  25.163  1.00  0.00    -0.165 F 
ATOM     33  F   UNL A   1      30.303  24.376  25.476  1.00  0.00    -0.165 F 
ENDBRANCH  18  30
ENDBRANCH   9  10
ENDBRANCH   7   9
ENDBRANCH   6   7
ENDBRANCH   5   6
ENDBRANCH   4   5
ENDBRANCH   3   4
ENDBRANCH   2   3
ENDBRANCH   1   2
BRANCH   1  34
ATOM     34  O   UNL A   1      36.134  31.446  30.904  1.00  0.00    -0.377 OA
BRANCH  34  35
ATOM     35  C   UNL A   1      35.069  32.276  30.530  1.00  0.00     0.188 C 
BRANCH  35  36
ATOM     36  C   UNL A   1      35.020  33.636  31.234  1.00  0.00     0.188 C 
BRANCH  36  37
ATOM     37  O   UNL A   1      34.100  33.918  32.291  1.00  0.00    -0.376 OA
BRANCH  37  38
ATOM     38  C   UNL A   1      34.365  33.492  33.617  1.00  0.00     0.202 C 
BRANCH  38  39
ATOM     39  C   UNL A   1      35.835  33.451  34.074  1.00  0.00     0.261 C 
BRANCH  39  40
ATOM     40  O   UNL A   1      36.402  32.138  34.067  1.00  0.00    -0.460 OA
BRANCH  40  41
ATOM     41  C   UNL A   1      37.532  31.936  34.802  1.00  0.00     0.338 C 
ATOM     42  O   UNL A   1      37.660  31.989  35.998  1.00  0.00    -0.246 OA
BRANCH  41  43
ATOM     43  C   UNL A   1      38.505  31.321  33.864  1.00  0.00     0.060 A 
ATOM     44  C   UNL A   1      38.237  30.091  33.260  1.00  0.00     0.016 A 
ATOM     45  C   UNL A   1      39.808  31.841  33.888  1.00  0.00     0.016 A 
ATOM     46  C   UNL A   1      39.310  29.306  32.848  1.00  0.00     0.010 A 
ATOM     47  C   UNL A   1      40.879  31.049  33.470  1.00  0.00     0.010 A 
ATOM     48  C   UNL A   1      40.637  29.756  33.008  1.00  0.00    -0.014 A 
BRANCH  48  49
ATOM     49  C   UNL A   1      41.698  28.898  32.468  1.00  0.00     0.031 A 
ATOM     50  C   UNL A   1      42.236  27.964  33.492  1.00  0.00     0.074 A 
ATOM     51  C   UNL A   1      42.133  28.762  31.198  1.00  0.00     0.049 A 
ATOM     52  N   UNL A   1      43.439  27.897  33.960  1.00  0.00    -0.248 NA
ATOM     53  C   UNL A   1      41.265  27.086  34.162  1.00  0.00     0.031 C 
ATOM     54  C   UNL A   1      41.578  29.321  29.966  1.00  0.00     0.029 A 
ATOM     55  N   UNL A   1      43.161  27.975  30.743  1.00  0.00    -0.354 N 
ATOM     56  C   UNL A   1      43.416  26.868  34.896  1.00  0.00     0.074 A 
ATOM     57  C   UNL A   1      42.036  26.498  35.073  1.00  0.00     0.031 C 
ATOM     58  C   UNL A   1      42.140  28.694  28.904  1.00  0.00     0.029 A 
ATOM     59  C   UNL A   1      43.162  27.766  29.371  1.00  0.00     0.049 A 
ATOM     60  H   UNL A   1      43.842  27.591  31.341  1.00  0.00     0.167 HD
ATOM     61  C   UNL A   1      44.549  26.259  35.333  1.00  0.00     0.037 A 
ATOM     62  C   UNL A   1      43.899  26.853  28.684  1.00  0.00     0.037 A 
ATOM     63  C   UNL A   1      45.726  27.043  35.072  1.00  0.00     0.049 A 
ATOM     64  C   UNL A   1      45.032  26.426  29.543  1.00  0.00     0.074 A 
ATOM     65  C   UNL A   1      46.149  28.313  35.417  1.00  0.00     0.029 A 
ATOM     66  N   UNL A   1      46.580  26.634  34.077  1.00  0.00    -0.354 N 
ATOM     67  N   UNL A   1      46.084  27.150  29.794  1.00  0.00    -0.248 NA
ATOM     68  C   UNL A   1      44.829  25.293  30.434  1.00  0.00     0.031 C 
ATOM     69  C   UNL A   1      46.895  28.777  34.293  1.00  0.00     0.029 A 
ATOM     70  C   UNL A   1      46.890  27.753  33.348  1.00  0.00     0.049 A 
ATOM     71  H   UNL A   1      46.905  25.719  33.920  1.00  0.00     0.167 HD
ATOM     72  C   UNL A   1      46.416  26.842  31.104  1.00  0.00     0.074 A 
ATOM     73  C   UNL A   1      45.686  25.616  31.405  1.00  0.00     0.031 C 
ATOM     74  C   UNL A   1      47.025  27.758  31.913  1.00  0.00     0.037 A 
BRANCH  61  75
ATOM     75  C   UNL A   1      44.609  24.803  35.703  1.00  0.00     0.057 A 
ATOM     76  C   UNL A   1      44.341  23.754  34.799  1.00  0.00     0.134 A 
ATOM     77  C   UNL A   1      45.228  24.419  36.904  1.00  0.00     0.134 A 
ATOM     78  F   UNL A   1      43.845  23.974  33.575  1.00  0.00    -0.206 F 
ATOM     79  C   UNL A   1      44.669  22.424  35.065  1.00  0.00     0.040 A 
ATOM     80  C   UNL A   1      45.614  23.098  37.156  1.00  0.00     0.040 A 
ATOM     81  F   UNL A   1      45.553  25.331  37.833  1.00  0.00    -0.206 F 
ATOM     82  C   UNL A   1      45.339  22.096  36.233  1.00  0.00     0.006 A 
ENDBRANCH  61  75
BRANCH  62  83
ATOM     83  C   UNL A   1      43.613  26.166  27.399  1.00  0.00     0.057 A 
ATOM     84  C   UNL A   1      42.512  25.305  27.251  1.00  0.00     0.134 A 
ATOM     85  C   UNL A   1      44.556  26.131  26.358  1.00  0.00     0.134 A 
ATOM     86  F   UNL A   1      41.591  25.182  28.217  1.00  0.00    -0.206 F 
ATOM     87  C   UNL A   1      42.356  24.465  26.142  1.00  0.00     0.040 A 
ATOM     88  C   UNL A   1      44.420  25.283  25.249  1.00  0.00     0.040 A 
ATOM     89  F   UNL A   1      45.669  26.875  26.417  1.00  0.00    -0.206 F 
ATOM     90  C   UNL A   1      43.319  24.441  25.142  1.00  0.00     0.006 A 
ENDBRANCH  62  83
BRANCH  74  91
ATOM     91  C   UNL A   1      47.618  28.983  31.277  1.00  0.00     0.057 A 
ATOM     92  C   UNL A   1      49.013  29.108  31.230  1.00  0.00     0.134 A 
ATOM     93  C   UNL A   1      46.868  30.074  30.815  1.00  0.00     0.134 A 
ATOM     94  F   UNL A   1      49.798  28.129  31.705  1.00  0.00    -0.206 F 
ATOM     95  C   UNL A   1      49.634  30.254  30.728  1.00  0.00     0.040 A 
ATOM     96  C   UNL A   1      47.478  31.202  30.260  1.00  0.00     0.040 A 
ATOM     97  F   UNL A   1      45.533  30.109  30.937  1.00  0.00    -0.206 F 
ATOM     98  C   UNL A   1      48.866  31.299  30.224  1.00  0.00     0.006 A 
ENDBRANCH  74  91
ENDBRANCH  48  49
ENDBRANCH  41  43
ENDBRANCH  40  41
ENDBRANCH  39  40
ENDBRANCH  38  39
ENDBRANCH  37  38
ENDBRANCH  36  37
ENDBRANCH  35  36
ENDBRANCH  34  35
ENDBRANCH   1  34
TORSDOF 25
ENDMDL
MODEL 2
REMARK VINA RESULT:      -8.6      6.812     11.520
REMARK SMILES COc1ccc2c(c1)c(CC(=O)OCCOCCOCCOCCOC(=O)c1ccc(-c3c4nc(c(-c5c(F)cccc5F)c5ccc([nH]5)c(-c5c(F)cccc5F)c5nc(c(-c6c(F)cccc6F)c6ccc3[nH]6)C=C5)C=C4)cc1)c(C(F)(F)F)n2C(=O)c1ccc(Cl)cc1
REMARK SMILES IDX 18 1 17 2 16 3 15 4 14 5 13 6 11 7 12 8 10 9 9 10 3 11 4 12
REMARK SMILES IDX 8 13 5 14 7 15 6 16 87 17 82 18 2 19 1 20 88 21 89 22 90 23
REMARK SMILES IDX 91 24 96 25 92 26 95 27 93 28 94 29 83 30 84 31 85 32 86 33
REMARK SMILES IDX 19 34 20 35 21 36 22 37 23 38 24 39 25 40 26 41 27 42 28 43
REMARK SMILES IDX 29 44 81 45 30 46 80 47 31 48 32 49 33 50 74 51 34 52 79 53
REMARK SMILES IDX 73 54 75 55 35 56 78 57 72 58 71 59 36 61 62 62 45 63 61 64
REMARK SMILES IDX 46 65 49 66 60 67 76 68 47 69 48 70 59 72 77 73 50 74 37 75
REMARK SMILES IDX 38 76 43 77 39 78 40 79 42 80 44 81 41 82 63 83 64 84 69 85
REMARK SMILES IDX 65 86 66 87 68 88 70 89 67 90 51 91 52 92 57 93 53 94 54 95
REMARK SMILES IDX 56 96 58 97 55 98
REMARK H PARENT 75 60 49 71
REMARK Flexibility Score: inf
ROOT
ATOM      1  C   UNL A   1      49.428  26.196  30.747  1.00  0.00     0.188 C 
ENDROOT
BRANCH   1   2
ATOM      2  C   UNL A   1      49.447  27.570  31.404  1.00  0.00     0.188 C 
BRANCH   2   3
ATOM      3  O   UNL A   1      50.092  28.565  30.633  1.00  0.00    -0.376 OA
BRANCH   3   4
ATOM      4  C   UNL A   1      50.273  28.320  29.248  1.00  0.00     0.202 C 
BRANCH   4   5
ATOM      5  C   UNL A   1      50.395  29.516  28.279  1.00  0.00     0.261 C 
BRANCH   5   6
ATOM      6  O   UNL A   1      49.538  29.532  27.113  1.00  0.00    -0.463 OA
BRANCH   6   7
ATOM      7  C   UNL A   1      48.402  30.265  27.162  1.00  0.00     0.310 C 
ATOM      8  O   UNL A   1      48.256  31.307  26.526  1.00  0.00    -0.252 OA
BRANCH   7   9
ATOM      9  C   UNL A   1      47.253  29.662  27.981  1.00  0.00     0.161 C 
BRANCH   9  10
ATOM     10  C   UNL A   1      46.147  28.837  27.323  1.00  0.00     0.002 A 
ATOM     11  C   UNL A   1      47.090  25.173  26.650  1.00  0.00     0.119 A 
ATOM     12  C   UNL A   1      45.867  24.786  26.143  1.00  0.00     0.048 A 
ATOM     13  C   UNL A   1      47.322  26.527  26.926  1.00  0.00     0.057 A 
ATOM     14  C   UNL A   1      44.846  25.723  25.974  1.00  0.00     0.031 A 
ATOM     15  C   UNL A   1      46.267  27.475  26.879  1.00  0.00     0.008 A 
ATOM     16  C   UNL A   1      45.029  27.067  26.373  1.00  0.00     0.057 A 
ATOM     17  N   UNL A   1      44.160  28.172  26.403  1.00  0.00    -0.271 N 
ATOM     18  C   UNL A   1      44.881  29.266  26.915  1.00  0.00     0.135 A 
BRANCH  11  19
ATOM     19  O   UNL A   1      48.119  24.322  26.953  1.00  0.00    -0.497 OA
ATOM     20  C   UNL A   1      49.391  24.927  27.190  1.00  0.00     0.278 C 
ENDBRANCH  11  19
BRANCH  17  21
ATOM     21  C   UNL A   1      42.785  28.150  26.013  1.00  0.00     0.262 C 
ATOM     22  O   UNL A   1      42.513  28.144  24.817  1.00  0.00    -0.268 OA
BRANCH  21  23
ATOM     23  C   UNL A   1      41.631  28.207  26.937  1.00  0.00     0.040 A 
ATOM     24  C   UNL A   1      40.493  28.925  26.548  1.00  0.00     0.015 A 
ATOM     25  C   UNL A   1      41.689  27.594  28.196  1.00  0.00     0.015 A 
ATOM     26  C   UNL A   1      39.434  29.086  27.448  1.00  0.00     0.021 A 
ATOM     27  C   UNL A   1      40.621  27.749  29.088  1.00  0.00     0.021 A 
ATOM     28  C   UNL A   1      39.506  28.506  28.715  1.00  0.00     0.041 A 
ATOM     29  Cl  UNL A   1      38.220  28.744  29.834  1.00  0.00    -0.084 Cl
ENDBRANCH  21  23
ENDBRANCH  17  21
BRANCH  18  30
ATOM     30  C   UNL A   1      44.340  30.658  27.004  1.00  0.00     0.432 C 
ATOM     31  F   UNL A   1      44.158  31.043  28.289  1.00  0.00    -0.165 F 
ATOM     32  F   UNL A   1      45.246  31.536  26.480  1.00  0.00    -0.165 F 
ATOM     33  F   UNL A   1      43.207  30.892  26.309  1.00  0.00    -0.165 F 
ENDBRANCH  18  30
ENDBRANCH   9  10
ENDBRANCH   7   9
ENDBRANCH   6   7
ENDBRANCH   5   6
ENDBRANCH   4   5
ENDBRANCH   3   4
ENDBRANCH   2   3
ENDBRANCH   1   2
BRANCH   1  34
ATOM     34  O   UNL A   1      48.273  25.596  30.220  1.00  0.00    -0.377 OA
BRANCH  34  35
ATOM     35  C   UNL A   1      47.026  25.909  30.777  1.00  0.00     0.188 C 
BRANCH  35  36
ATOM     36  C   UNL A   1      45.818  25.280  30.073  1.00  0.00     0.188 C 
BRANCH  36  37
ATOM     37  O   UNL A   1      44.551  25.131  30.715  1.00  0.00    -0.376 OA
BRANCH  37  38
ATOM     38  C   UNL A   1      44.074  23.849  31.091  1.00  0.00     0.202 C 
BRANCH  38  39
ATOM     39  C   UNL A   1      44.381  23.363  32.519  1.00  0.00     0.261 C 
BRANCH  39  40
ATOM     40  O   UNL A   1      44.393  24.411  33.492  1.00  0.00    -0.460 OA
BRANCH  40  41
ATOM     41  C   UNL A   1      43.331  24.492  34.343  1.00  0.00     0.338 C 
ATOM     42  O   UNL A   1      42.817  23.606  34.976  1.00  0.00    -0.246 OA
BRANCH  41  43
ATOM     43  C   UNL A   1      43.134  25.943  34.586  1.00  0.00     0.060 A 
ATOM     44  C   UNL A   1      41.922  26.426  35.087  1.00  0.00     0.016 A 
ATOM     45  C   UNL A   1      44.055  26.809  33.980  1.00  0.00     0.016 A 
ATOM     46  C   UNL A   1      41.566  27.742  34.808  1.00  0.00     0.010 A 
ATOM     47  C   UNL A   1      43.693  28.129  33.707  1.00  0.00     0.010 A 
ATOM     48  C   UNL A   1      42.423  28.580  34.064  1.00  0.00    -0.014 A 
BRANCH  48  49
ATOM     49  C   UNL A   1      42.001  29.975  33.892  1.00  0.00     0.031 A 
ATOM     50  C   UNL A   1      41.993  30.719  35.179  1.00  0.00     0.074 A 
ATOM     51  C   UNL A   1      41.761  30.669  32.760  1.00  0.00     0.049 A 
ATOM     52  N   UNL A   1      40.988  31.264  35.782  1.00  0.00    -0.248 NA
ATOM     53  C   UNL A   1      43.250  30.735  35.942  1.00  0.00     0.031 C 
ATOM     54  C   UNL A   1      41.991  30.277  31.370  1.00  0.00     0.029 A 
ATOM     55  N   UNL A   1      41.326  31.965  32.647  1.00  0.00    -0.354 N 
ATOM     56  C   UNL A   1      41.510  31.819  36.946  1.00  0.00     0.074 A 
ATOM     57  C   UNL A   1      42.867  31.352  37.057  1.00  0.00     0.031 C 
ATOM     58  C   UNL A   1      41.893  31.375  30.581  1.00  0.00     0.029 A 
ATOM     59  C   UNL A   1      41.496  32.522  31.387  1.00  0.00     0.049 A 
ATOM     60  H   UNL A   1      40.924  32.459  33.398  1.00  0.00     0.167 HD
ATOM     61  C   UNL A   1      40.851  32.774  37.653  1.00  0.00     0.037 A 
ATOM     62  C   UNL A   1      41.385  33.834  31.051  1.00  0.00     0.037 A 
ATOM     63  C   UNL A   1      39.451  32.825  37.330  1.00  0.00     0.049 A 
ATOM     64  C   UNL A   1      40.612  34.524  32.115  1.00  0.00     0.074 A 
ATOM     65  C   UNL A   1      38.405  31.922  37.376  1.00  0.00     0.029 A 
ATOM     66  N   UNL A   1      38.988  33.878  36.581  1.00  0.00    -0.354 N 
ATOM     67  N   UNL A   1      39.326  34.414  32.285  1.00  0.00    -0.248 NA
ATOM     68  C   UNL A   1      41.343  35.082  33.243  1.00  0.00     0.031 C 
ATOM     69  C   UNL A   1      37.579  32.251  36.262  1.00  0.00     0.029 A 
ATOM     70  C   UNL A   1      38.166  33.342  35.624  1.00  0.00     0.049 A 
ATOM     71  H   UNL A   1      39.203  34.830  36.707  1.00  0.00     0.167 HD
ATOM     72  C   UNL A   1      39.149  34.465  33.658  1.00  0.00     0.074 A 
ATOM     73  C   UNL A   1      40.403  34.991  34.186  1.00  0.00     0.031 C 
ATOM     74  C   UNL A   1      38.113  33.813  34.263  1.00  0.00     0.037 A 
BRANCH  61  75
ATOM     75  C   UNL A   1      41.554  33.876  38.396  1.00  0.00     0.057 A 
ATOM     76  C   UNL A   1      42.333  34.870  37.769  1.00  0.00     0.134 A 
ATOM     77  C   UNL A   1      41.216  34.132  39.736  1.00  0.00     0.134 A 
ATOM     78  F   UNL A   1      42.651  34.817  36.470  1.00  0.00    -0.206 F 
ATOM     79  C   UNL A   1      42.741  36.035  38.421  1.00  0.00     0.040 A 
ATOM     80  C   UNL A   1      41.571  35.322  40.381  1.00  0.00     0.040 A 
ATOM     81  F   UNL A   1      40.460  33.270  40.431  1.00  0.00    -0.206 F 
ATOM     82  C   UNL A   1      42.332  36.280  39.722  1.00  0.00     0.006 A 
ENDBRANCH  61  75
BRANCH  62  83
ATOM     83  C   UNL A   1      42.048  34.604  29.968  1.00  0.00     0.057 A 
ATOM     84  C   UNL A   1      43.387  35.019  30.070  1.00  0.00     0.134 A 
ATOM     85  C   UNL A   1      41.313  35.176  28.916  1.00  0.00     0.134 A 
ATOM     86  F   UNL A   1      44.165  34.614  31.083  1.00  0.00    -0.206 F 
ATOM     87  C   UNL A   1      43.959  35.941  29.185  1.00  0.00     0.040 A 
ATOM     88  C   UNL A   1      41.869  36.112  28.033  1.00  0.00     0.040 A 
ATOM     89  F   UNL A   1      40.013  34.888  28.753  1.00  0.00    -0.206 F 
ATOM     90  C   UNL A   1      43.196  36.502  28.171  1.00  0.00     0.006 A 
ENDBRANCH  62  83
BRANCH  74  91
ATOM     91  C   UNL A   1      36.991  33.310  33.399  1.00  0.00     0.057 A 
ATOM     92  C   UNL A   1      35.758  33.975  33.444  1.00  0.00     0.134 A 
ATOM     93  C   UNL A   1      37.055  32.146  32.619  1.00  0.00     0.134 A 
ATOM     94  F   UNL A   1      35.603  35.065  34.211  1.00  0.00    -0.206 F 
ATOM     95  C   UNL A   1      34.647  33.518  32.731  1.00  0.00     0.040 A 
ATOM     96  C   UNL A   1      35.966  31.711  31.860  1.00  0.00     0.040 A 
ATOM     97  F   UNL A   1      38.146  31.366  32.614  1.00  0.00    -0.206 F 
ATOM     98  C   UNL A   1      34.755  32.391  31.921  1.00  0.00     0.006 A 
ENDBRANCH  74  91
ENDBRANCH  48  49
ENDBRANCH  41  43
ENDBRANCH  40  41
ENDBRANCH  39  40
ENDBRANCH  38  39
ENDBRANCH  37  38
ENDBRANCH  36  37
ENDBRANCH  35  36
ENDBRANCH  34  35
ENDBRANCH   1  34
TORSDOF 25
ENDMDL
MODEL 3
REMARK VINA RESULT:      -8.6      5.009      8.223
REMARK SMILES COc1ccc2c(c1)c(CC(=O)OCCOCCOCCOCCOC(=O)c1ccc(-c3c4nc(c(-c5c(F)cccc5F)c5ccc([nH]5)c(-c5c(F)cccc5F)c5nc(c(-c6c(F)cccc6F)c6ccc3[nH]6)C=C5)C=C4)cc1)c(C(F)(F)F)n2C(=O)c1ccc(Cl)cc1
REMARK SMILES IDX 18 1 17 2 16 3 15 4 14 5 13 6 11 7 12 8 10 9 9 10 3 11 4 12
REMARK SMILES IDX 8 13 5 14 7 15 6 16 87 17 82 18 2 19 1 20 88 21 89 22 90 23
REMARK SMILES IDX 91 24 96 25 92 26 95 27 93 28 94 29 83 30 84 31 85 32 86 33
REMARK SMILES IDX 19 34 20 35 21 36 22 37 23 38 24 39 25 40 26 41 27 42 28 43
REMARK SMILES IDX 29 44 81 45 30 46 80 47 31 48 32 49 33 50 74 51 34 52 79 53
REMARK SMILES IDX 73 54 75 55 35 56 78 57 72 58 71 59 36 61 62 62 45 63 61 64
REMARK SMILES IDX 46 65 49 66 60 67 76 68 47 69 48 70 59 72 77 73 50 74 37 75
REMARK SMILES IDX 38 76 43 77 39 78 40 79 42 80 44 81 41 82 63 83 64 84 69 85
REMARK SMILES IDX 65 86 66 87 68 88 70 89 67 90 51 91 52 92 57 93 53 94 54 95
REMARK SMILES IDX 56 96 58 97 55 98
REMARK H PARENT 75 60 49 71
REMARK Flexibility Score: inf
ROOT
ATOM      1  C   UNL A   1      36.886  30.645  30.300  1.00  0.00     0.188 C 
ENDROOT
BRANCH   1   2
ATOM      2  C   UNL A   1      36.704  30.381  28.811  1.00  0.00     0.188 C 
BRANCH   2   3
ATOM      3  O   UNL A   1      35.778  29.353  28.520  1.00  0.00    -0.376 OA
BRANCH   3   4
ATOM      4  C   UNL A   1      35.207  29.320  27.222  1.00  0.00     0.202 C 
BRANCH   4   5
ATOM      5  C   UNL A   1      33.870  28.579  27.004  1.00  0.00     0.261 C 
BRANCH   5   6
ATOM      6  O   UNL A   1      33.817  27.569  25.969  1.00  0.00    -0.463 OA
BRANCH   6   7
ATOM      7  C   UNL A   1      32.726  26.772  25.905  1.00  0.00     0.310 C 
ATOM      8  O   UNL A   1      31.676  27.125  25.372  1.00  0.00    -0.252 OA
BRANCH   7   9
ATOM      9  C   UNL A   1      32.906  25.348  26.447  1.00  0.00     0.161 C 
BRANCH   9  10
ATOM     10  C   UNL A   1      33.244  24.177  25.523  1.00  0.00     0.002 A 
ATOM     11  C   UNL A   1      37.007  23.617  24.983  1.00  0.00     0.119 A 
ATOM     12  C   UNL A   1      36.887  22.493  24.193  1.00  0.00     0.048 A 
ATOM     13  C   UNL A   1      35.855  24.328  25.346  1.00  0.00     0.057 A 
ATOM     14  C   UNL A   1      35.626  22.027  23.816  1.00  0.00     0.031 A 
ATOM     15  C   UNL A   1      34.561  23.810  25.081  1.00  0.00     0.008 A 
ATOM     16  C   UNL A   1      34.455  22.664  24.286  1.00  0.00     0.057 A 
ATOM     17  N   UNL A   1      33.089  22.358  24.144  1.00  0.00    -0.271 N 
ATOM     18  C   UNL A   1      32.359  23.336  24.843  1.00  0.00     0.135 A 
BRANCH  11  19
ATOM     19  O   UNL A   1      38.183  24.096  25.494  1.00  0.00    -0.497 OA
ATOM     20  C   UNL A   1      38.285  24.135  26.919  1.00  0.00     0.278 C 
ENDBRANCH  11  19
BRANCH  17  21
ATOM     21  C   UNL A   1      32.567  21.227  23.442  1.00  0.00     0.262 C 
ATOM     22  O   UNL A   1      32.006  21.411  22.367  1.00  0.00    -0.268 OA
BRANCH  21  23
ATOM     23  C   UNL A   1      32.577  19.833  23.935  1.00  0.00     0.040 A 
ATOM     24  C   UNL A   1      32.690  19.608  25.313  1.00  0.00     0.015 A 
ATOM     25  C   UNL A   1      32.519  18.755  23.041  1.00  0.00     0.015 A 
ATOM     26  C   UNL A   1      32.811  18.300  25.793  1.00  0.00     0.021 A 
ATOM     27  C   UNL A   1      32.629  17.447  23.530  1.00  0.00     0.021 A 
ATOM     28  C   UNL A   1      32.790  17.227  24.900  1.00  0.00     0.041 A 
ATOM     29  Cl  UNL A   1      32.984  15.623  25.493  1.00  0.00    -0.084 Cl
ENDBRANCH  21  23
ENDBRANCH  17  21
BRANCH  18  30
ATOM     30  C   UNL A   1      30.866  23.426  24.843  1.00  0.00     0.432 C 
ATOM     31  F   UNL A   1      30.299  22.329  25.397  1.00  0.00    -0.165 F 
ATOM     32  F   UNL A   1      30.470  24.478  25.618  1.00  0.00    -0.165 F 
ATOM     33  F   UNL A   1      30.293  23.659  23.643  1.00  0.00    -0.165 F 
ENDBRANCH  18  30
ENDBRANCH   9  10
ENDBRANCH   7   9
ENDBRANCH   6   7
ENDBRANCH   5   6
ENDBRANCH   4   5
ENDBRANCH   3   4
ENDBRANCH   2   3
ENDBRANCH   1   2
BRANCH   1  34
ATOM     34  O   UNL A   1      35.923  31.273  31.106  1.00  0.00    -0.377 OA
BRANCH  34  35
ATOM     35  C   UNL A   1      35.020  32.170  30.520  1.00  0.00     0.188 C 
BRANCH  35  36
ATOM     36  C   UNL A   1      34.860  33.508  31.251  1.00  0.00     0.188 C 
BRANCH  36  37
ATOM     37  O   UNL A   1      33.981  33.670  32.366  1.00  0.00    -0.376 OA
BRANCH  37  38
ATOM     38  C   UNL A   1      34.400  33.326  33.676  1.00  0.00     0.202 C 
BRANCH  38  39
ATOM     39  C   UNL A   1      35.800  33.785  34.122  1.00  0.00     0.261 C 
BRANCH  39  40
ATOM     40  O   UNL A   1      36.797  32.764  34.026  1.00  0.00    -0.460 OA
BRANCH  40  41
ATOM     41  C   UNL A   1      37.543  32.505  35.136  1.00  0.00     0.338 C 
ATOM     42  O   UNL A   1      37.380  31.639  35.957  1.00  0.00    -0.246 OA
BRANCH  41  43
ATOM     43  C   UNL A   1      38.787  33.299  34.967  1.00  0.00     0.060 A 
ATOM     44  C   UNL A   1      38.733  34.631  34.551  1.00  0.00     0.016 A 
ATOM     45  C   UNL A   1      39.986  32.574  34.903  1.00  0.00     0.016 A 
ATOM     46  C   UNL A   1      39.841  35.169  33.901  1.00  0.00     0.010 A 
ATOM     47  C   UNL A   1      41.094  33.121  34.253  1.00  0.00     0.010 A 
ATOM     48  C   UNL A   1      41.002  34.396  33.695  1.00  0.00    -0.014 A 
BRANCH  48  49
ATOM     49  C   UNL A   1      42.148  35.073  33.076  1.00  0.00     0.031 A 
ATOM     50  C   UNL A   1      42.482  34.501  31.745  1.00  0.00     0.074 A 
ATOM     51  C   UNL A   1      42.818  36.173  33.478  1.00  0.00     0.049 A 
ATOM     52  N   UNL A   1      43.573  33.914  31.377  1.00  0.00    -0.248 NA
ATOM     53  C   UNL A   1      41.402  34.474  30.748  1.00  0.00     0.031 C 
ATOM     54  C   UNL A   1      42.507  37.097  34.567  1.00  0.00     0.029 A 
ATOM     55  N   UNL A   1      43.915  36.749  32.888  1.00  0.00    -0.354 N 
ATOM     56  C   UNL A   1      43.374  33.559  30.047  1.00  0.00     0.074 A 
ATOM     57  C   UNL A   1      41.985  33.806  29.755  1.00  0.00     0.031 C 
ATOM     58  C   UNL A   1      43.263  38.214  34.427  1.00  0.00     0.029 A 
ATOM     59  C   UNL A   1      44.179  38.046  33.306  1.00  0.00     0.049 A 
ATOM     60  H   UNL A   1      44.470  36.279  32.224  1.00  0.00     0.167 HD
ATOM     61  C   UNL A   1      44.403  33.255  29.215  1.00  0.00     0.037 A 
ATOM     62  C   UNL A   1      45.034  38.932  32.731  1.00  0.00     0.037 A 
ATOM     63  C   UNL A   1      45.607  32.931  29.931  1.00  0.00     0.049 A 
ATOM     64  C   UNL A   1      45.983  38.176  31.875  1.00  0.00     0.074 A 
ATOM     65  C   UNL A   1      45.955  31.985  30.878  1.00  0.00     0.029 A 
ATOM     66  N   UNL A   1      46.635  33.840  29.932  1.00  0.00    -0.354 N 
ATOM     67  N   UNL A   1      46.967  37.450  32.322  1.00  0.00    -0.248 NA
ATOM     68  C   UNL A   1      45.615  37.937  30.487  1.00  0.00     0.031 C 
ATOM     69  C   UNL A   1      46.901  32.635  31.725  1.00  0.00     0.029 A 
ATOM     70  C   UNL A   1      47.078  33.924  31.226  1.00  0.00     0.049 A 
ATOM     71  H   UNL A   1      46.986  34.333  29.156  1.00  0.00     0.167 HD
ATOM     72  C   UNL A   1      47.043  36.383  31.442  1.00  0.00     0.074 A 
ATOM     73  C   UNL A   1      46.270  36.794  30.275  1.00  0.00     0.031 C 
ATOM     74  C   UNL A   1      47.484  35.158  31.852  1.00  0.00     0.037 A 
BRANCH  61  75
ATOM     75  C   UNL A   1      44.393  33.573  27.746  1.00  0.00     0.057 A 
ATOM     76  C   UNL A   1      44.248  32.599  26.736  1.00  0.00     0.134 A 
ATOM     77  C   UNL A   1      44.231  34.904  27.326  1.00  0.00     0.134 A 
ATOM     78  F   UNL A   1      44.277  31.287  26.997  1.00  0.00    -0.206 F 
ATOM     79  C   UNL A   1      43.958  32.923  25.409  1.00  0.00     0.040 A 
ATOM     80  C   UNL A   1      43.884  35.236  26.012  1.00  0.00     0.040 A 
ATOM     81  F   UNL A   1      44.325  35.916  28.201  1.00  0.00    -0.206 F 
ATOM     82  C   UNL A   1      43.742  34.243  25.050  1.00  0.00     0.006 A 
ENDBRANCH  61  75
BRANCH  62  83
ATOM     83  C   UNL A   1      45.000  40.416  32.706  1.00  0.00     0.057 A 
ATOM     84  C   UNL A   1      45.874  41.189  33.490  1.00  0.00     0.134 A 
ATOM     85  C   UNL A   1      43.938  41.118  32.110  1.00  0.00     0.134 A 
ATOM     86  F   UNL A   1      46.871  40.621  34.182  1.00  0.00    -0.206 F 
ATOM     87  C   UNL A   1      45.706  42.567  33.671  1.00  0.00     0.040 A 
ATOM     88  C   UNL A   1      43.749  42.495  32.295  1.00  0.00     0.040 A 
ATOM     89  F   UNL A   1      43.016  40.474  31.379  1.00  0.00    -0.206 F 
ATOM     90  C   UNL A   1      44.633  43.223  33.084  1.00  0.00     0.006 A 
ENDBRANCH  62  83
BRANCH  74  91
ATOM     91  C   UNL A   1      48.186  35.064  33.177  1.00  0.00     0.057 A 
ATOM     92  C   UNL A   1      47.413  34.955  34.341  1.00  0.00     0.134 A 
ATOM     93  C   UNL A   1      49.573  35.185  33.347  1.00  0.00     0.134 A 
ATOM     94  F   UNL A   1      46.075  34.891  34.264  1.00  0.00    -0.206 F 
ATOM     95  C   UNL A   1      47.992  34.944  35.613  1.00  0.00     0.040 A 
ATOM     96  C   UNL A   1      50.166  35.121  34.610  1.00  0.00     0.040 A 
ATOM     97  F   UNL A   1      50.387  35.427  32.309  1.00  0.00    -0.206 F 
ATOM     98  C   UNL A   1      49.375  35.010  35.749  1.00  0.00     0.006 A 
ENDBRANCH  74  91
ENDBRANCH  48  49
ENDBRANCH  41  43
ENDBRANCH  40  41
ENDBRANCH  39  40
ENDBRANCH  38  39
ENDBRANCH  37  38
ENDBRANCH  36  37
ENDBRANCH  35  36
ENDBRANCH  34  35
ENDBRANCH   1  34
TORSDOF 25
ENDMDL
