MODEL 1
REMARK VINA RESULT:      -9.3      0.000      0.000
REMARK SMILES CC[NH2+]C[C@@H](C)C(=O)N1CCO[C@@H](CC(=O)OCCOCCOCCOCCOC(=O)c2ccc(-c3c4nc(c(-c5c(F)cccc5F)c5ccc([nH]5)c(-c5c(F)cccc5F)c5nc(c(-c6c(F)cccc6F)c6ccc3[nH]6)C=C5)C=C4)cc2)C1
REMARK SMILES IDX 21 1 20 2 19 3 18 4 17 5 15 6 16 7 14 8 13 9 9 10 10 11
REMARK SMILES IDX 86 12 11 13 12 14 7 15 8 16 5 17 6 18 4 19 3 20 2 23 1 24
REMARK SMILES IDX 22 25 23 26 24 27 25 28 26 29 27 30 28 31 29 32 30 33 31 34
REMARK SMILES IDX 32 35 33 36 85 37 34 38 84 39 35 40 36 41 37 42 78 43 38 44
REMARK SMILES IDX 83 45 77 46 79 47 39 48 82 49 76 50 75 51 40 53 66 54 49 55
REMARK SMILES IDX 65 56 50 57 53 58 64 59 80 60 51 61 52 62 63 64 81 65 54 66
REMARK SMILES IDX 41 67 42 68 47 69 43 70 44 71 46 72 48 73 45 74 67 75 68 76
REMARK SMILES IDX 73 77 69 78 70 79 72 80 74 81 71 82 55 83 56 84 61 85 57 86
REMARK SMILES IDX 58 87 60 88 62 89 59 90
REMARK H PARENT 3 21 3 22 79 52 53 63
REMARK Flexibility Score: inf
ROOT
ATOM      1  C   UNL A   1      32.588  28.695  26.923  1.00  0.00     0.188 C 
ENDROOT
BRANCH   1   2
ATOM      2  O   UNL A   1      31.768  28.388  25.814  1.00  0.00    -0.376 OA
BRANCH   2   3
ATOM      3  C   UNL A   1      31.344  29.394  24.905  1.00  0.00     0.202 C 
BRANCH   3   4
ATOM      4  C   UNL A   1      30.854  29.126  23.471  1.00  0.00     0.261 C 
BRANCH   4   5
ATOM      5  O   UNL A   1      31.844  28.737  22.503  1.00  0.00    -0.463 OA
BRANCH   5   6
ATOM      6  C   UNL A   1      31.879  27.422  22.208  1.00  0.00     0.308 C 
ATOM      7  O   UNL A   1      30.927  26.796  21.746  1.00  0.00    -0.252 OA
BRANCH   6   8
ATOM      8  C   UNL A   1      33.187  26.727  22.470  1.00  0.00     0.156 C 
BRANCH   8   9
ATOM      9  C   UNL A   1      33.383  25.663  23.542  1.00  0.00     0.148 C 
ATOM     10  N   UNL A   1      34.434  23.597  24.376  1.00  0.00    -0.337 N 
ATOM     11  C   UNL A   1      35.081  24.368  25.432  1.00  0.00     0.148 C 
ATOM     12  C   UNL A   1      34.201  24.407  23.156  1.00  0.00     0.152 C 
ATOM     13  C   UNL A   1      34.226  25.576  25.789  1.00  0.00     0.182 C 
ATOM     14  O   UNL A   1      34.038  26.390  24.626  1.00  0.00    -0.374 OA
BRANCH  10  15
ATOM     15  C   UNL A   1      34.046  22.272  24.408  1.00  0.00     0.231 C 
ATOM     16  O   UNL A   1      34.894  21.382  24.554  1.00  0.00    -0.274 OA
BRANCH  15  17
ATOM     17  C   UNL A   1      32.605  21.836  24.048  1.00  0.00     0.130 C 
ATOM     18  C   UNL A   1      31.685  22.147  25.229  1.00  0.00     0.024 C 
BRANCH  17  19
ATOM     19  C   UNL A   1      32.372  20.430  23.478  1.00  0.00     0.273 C 
BRANCH  19  20
ATOM     20  N   UNL A   1      32.694  19.300  24.361  1.00  0.00    -0.346 N 
ATOM     21  H   UNL A   1      33.373  19.621  25.053  1.00  0.00     0.346 HD
ATOM     22  H   UNL A   1      31.813  18.997  24.776  1.00  0.00     0.346 HD
BRANCH  20  23
ATOM     23  C   UNL A   1      33.251  18.139  23.682  1.00  0.00     0.257 C 
ATOM     24  C   UNL A   1      32.405  17.838  22.450  1.00  0.00     0.071 C 
ENDBRANCH  20  23
ENDBRANCH  19  20
ENDBRANCH  17  19
ENDBRANCH  15  17
ENDBRANCH  10  15
ENDBRANCH   8   9
ENDBRANCH   6   8
ENDBRANCH   5   6
ENDBRANCH   4   5
ENDBRANCH   3   4
ENDBRANCH   2   3
ENDBRANCH   1   2
BRANCH   1  25
ATOM     25  C   UNL A   1      33.695  29.746  26.781  1.00  0.00     0.188 C 
BRANCH  25  26
ATOM     26  O   UNL A   1      33.387  31.034  27.272  1.00  0.00    -0.377 OA
BRANCH  26  27
ATOM     27  C   UNL A   1      34.286  31.668  28.182  1.00  0.00     0.188 C 
BRANCH  27  28
ATOM     28  C   UNL A   1      34.300  33.204  28.345  1.00  0.00     0.188 C 
BRANCH  28  29
ATOM     29  O   UNL A   1      33.646  33.684  29.508  1.00  0.00    -0.376 OA
BRANCH  29  30
ATOM     30  C   UNL A   1      34.390  34.445  30.446  1.00  0.00     0.202 C 
BRANCH  30  31
ATOM     31  C   UNL A   1      34.428  33.947  31.898  1.00  0.00     0.261 C 
BRANCH  31  32
ATOM     32  O   UNL A   1      34.804  32.572  32.091  1.00  0.00    -0.460 OA
BRANCH  32  33
ATOM     33  C   UNL A   1      35.865  32.318  32.882  1.00  0.00     0.338 C 
ATOM     34  O   UNL A   1      35.971  32.573  34.072  1.00  0.00    -0.246 OA
BRANCH  33  35
ATOM     35  C   UNL A   1      36.831  31.501  32.119  1.00  0.00     0.060 A 
ATOM     36  C   UNL A   1      37.790  30.758  32.820  1.00  0.00     0.016 A 
ATOM     37  C   UNL A   1      36.816  31.491  30.722  1.00  0.00     0.016 A 
ATOM     38  C   UNL A   1      38.767  30.043  32.125  1.00  0.00     0.010 A 
ATOM     39  C   UNL A   1      37.805  30.787  30.027  1.00  0.00     0.010 A 
ATOM     40  C   UNL A   1      38.811  30.096  30.726  1.00  0.00    -0.014 A 
BRANCH  40  41
ATOM     41  C   UNL A   1      40.023  29.613  30.014  1.00  0.00     0.031 A 
ATOM     42  C   UNL A   1      41.159  30.579  29.801  1.00  0.00     0.074 A 
ATOM     43  C   UNL A   1      40.142  28.338  29.600  1.00  0.00     0.049 A 
ATOM     44  N   UNL A   1      42.297  30.407  29.178  1.00  0.00    -0.248 NA
ATOM     45  C   UNL A   1      40.987  31.926  30.373  1.00  0.00     0.031 C 
ATOM     46  C   UNL A   1      39.140  27.291  29.783  1.00  0.00     0.029 A 
ATOM     47  N   UNL A   1      41.167  27.712  28.932  1.00  0.00    -0.354 N 
ATOM     48  C   UNL A   1      42.970  31.618  29.278  1.00  0.00     0.074 A 
ATOM     49  C   UNL A   1      42.102  32.529  29.990  1.00  0.00     0.031 C 
ATOM     50  C   UNL A   1      39.597  26.151  29.232  1.00  0.00     0.029 A 
ATOM     51  C   UNL A   1      40.904  26.398  28.625  1.00  0.00     0.049 A 
ATOM     52  H   UNL A   1      42.010  28.162  28.696  1.00  0.00     0.167 HD
ATOM     53  C   UNL A   1      44.205  31.942  28.828  1.00  0.00     0.037 A 
ATOM     54  C   UNL A   1      41.626  25.510  27.913  1.00  0.00     0.037 A 
ATOM     55  C   UNL A   1      45.071  31.038  28.118  1.00  0.00     0.049 A 
ATOM     56  C   UNL A   1      42.961  25.924  27.343  1.00  0.00     0.074 A 
ATOM     57  C   UNL A   1      46.343  31.274  27.626  1.00  0.00     0.029 A 
ATOM     58  N   UNL A   1      44.752  29.728  27.796  1.00  0.00    -0.354 N 
ATOM     59  N   UNL A   1      43.596  27.065  27.459  1.00  0.00    -0.248 NA
ATOM     60  C   UNL A   1      43.681  24.921  26.542  1.00  0.00     0.031 C 
ATOM     61  C   UNL A   1      46.772  30.124  26.955  1.00  0.00     0.029 A 
ATOM     62  C   UNL A   1      45.794  29.151  27.088  1.00  0.00     0.049 A 
ATOM     63  H   UNL A   1      43.911  29.276  28.034  1.00  0.00     0.167 HD
ATOM     64  C   UNL A   1      44.800  26.904  26.781  1.00  0.00     0.074 A 
ATOM     65  C   UNL A   1      44.815  25.551  26.269  1.00  0.00     0.031 C 
ATOM     66  C   UNL A   1      45.806  27.796  26.601  1.00  0.00     0.037 A 
BRANCH  53  67
ATOM     67  C   UNL A   1      44.690  33.342  29.070  1.00  0.00     0.057 A 
ATOM     68  C   UNL A   1      44.445  34.378  28.159  1.00  0.00     0.134 A 
ATOM     69  C   UNL A   1      45.367  33.668  30.252  1.00  0.00     0.134 A 
ATOM     70  F   UNL A   1      43.816  34.131  27.001  1.00  0.00    -0.206 F 
ATOM     71  C   UNL A   1      44.871  35.684  28.408  1.00  0.00     0.040 A 
ATOM     72  C   UNL A   1      45.772  34.975  30.525  1.00  0.00     0.040 A 
ATOM     73  F   UNL A   1      45.630  32.724  31.169  1.00  0.00    -0.206 F 
ATOM     74  C   UNL A   1      45.528  35.987  29.600  1.00  0.00     0.006 A 
ENDBRANCH  53  67
BRANCH  54  75
ATOM     75  C   UNL A   1      41.102  24.140  27.662  1.00  0.00     0.057 A 
ATOM     76  C   UNL A   1      41.641  23.023  28.312  1.00  0.00     0.134 A 
ATOM     77  C   UNL A   1      40.093  23.908  26.719  1.00  0.00     0.134 A 
ATOM     78  F   UNL A   1      42.630  23.173  29.206  1.00  0.00    -0.206 F 
ATOM     79  C   UNL A   1      41.218  21.726  28.013  1.00  0.00     0.040 A 
ATOM     80  C   UNL A   1      39.638  22.619  26.434  1.00  0.00     0.040 A 
ATOM     81  F   UNL A   1      39.536  24.932  26.055  1.00  0.00    -0.206 F 
ATOM     82  C   UNL A   1      40.210  21.522  27.073  1.00  0.00     0.006 A 
ENDBRANCH  54  75
BRANCH  66  83
ATOM     83  C   UNL A   1      47.033  27.326  25.870  1.00  0.00     0.057 A 
ATOM     84  C   UNL A   1      48.072  26.647  26.518  1.00  0.00     0.134 A 
ATOM     85  C   UNL A   1      47.151  27.518  24.487  1.00  0.00     0.134 A 
ATOM     86  F   UNL A   1      48.028  26.438  27.842  1.00  0.00    -0.206 F 
ATOM     87  C   UNL A   1      49.197  26.198  25.820  1.00  0.00     0.040 A 
ATOM     88  C   UNL A   1      48.254  27.046  23.774  1.00  0.00     0.040 A 
ATOM     89  F   UNL A   1      46.187  28.149  23.801  1.00  0.00    -0.206 F 
ATOM     90  C   UNL A   1      49.285  26.391  24.442  1.00  0.00     0.006 A 
ENDBRANCH  66  83
ENDBRANCH  40  41
ENDBRANCH  33  35
ENDBRANCH  32  33
ENDBRANCH  31  32
ENDBRANCH  30  31
ENDBRANCH  29  30
ENDBRANCH  28  29
ENDBRANCH  27  28
ENDBRANCH  26  27
ENDBRANCH  25  26
ENDBRANCH   1  25
TORSDOF 26
ENDMDL
MODEL 2
REMARK VINA RESULT:      -8.9      4.066      6.321
REMARK SMILES CC[NH2+]C[C@@H](C)C(=O)N1CCO[C@@H](CC(=O)OCCOCCOCCOCCOC(=O)c2ccc(-c3c4nc(c(-c5c(F)cccc5F)c5ccc([nH]5)c(-c5c(F)cccc5F)c5nc(c(-c6c(F)cccc6F)c6ccc3[nH]6)C=C5)C=C4)cc2)C1
REMARK SMILES IDX 21 1 20 2 19 3 18 4 17 5 15 6 16 7 14 8 13 9 9 10 10 11
REMARK SMILES IDX 86 12 11 13 12 14 7 15 8 16 5 17 6 18 4 19 3 20 2 23 1 24
REMARK SMILES IDX 22 25 23 26 24 27 25 28 26 29 27 30 28 31 29 32 30 33 31 34
REMARK SMILES IDX 32 35 33 36 85 37 34 38 84 39 35 40 36 41 37 42 78 43 38 44
REMARK SMILES IDX 83 45 77 46 79 47 39 48 82 49 76 50 75 51 40 53 66 54 49 55
REMARK SMILES IDX 65 56 50 57 53 58 64 59 80 60 51 61 52 62 63 64 81 65 54 66
REMARK SMILES IDX 41 67 42 68 47 69 43 70 44 71 46 72 48 73 45 74 67 75 68 76
REMARK SMILES IDX 73 77 69 78 70 79 72 80 74 81 71 82 55 83 56 84 61 85 57 86
REMARK SMILES IDX 58 87 60 88 62 89 59 90
REMARK H PARENT 3 21 3 22 79 52 53 63
REMARK Flexibility Score: inf
ROOT
ATOM      1  C   UNL A   1      31.561  26.249  26.652  1.00  0.00     0.188 C 
ENDROOT
BRANCH   1   2
ATOM      2  O   UNL A   1      30.606  25.617  25.824  1.00  0.00    -0.376 OA
BRANCH   2   3
ATOM      3  C   UNL A   1      30.206  26.189  24.586  1.00  0.00     0.202 C 
BRANCH   3   4
ATOM      4  C   UNL A   1      31.027  26.121  23.287  1.00  0.00     0.261 C 
BRANCH   4   5
ATOM      5  O   UNL A   1      32.329  26.731  23.302  1.00  0.00    -0.463 OA
BRANCH   5   6
ATOM      6  C   UNL A   1      33.350  25.923  22.954  1.00  0.00     0.308 C 
ATOM      7  O   UNL A   1      33.683  25.697  21.792  1.00  0.00    -0.252 OA
BRANCH   6   8
ATOM      8  C   UNL A   1      34.102  25.290  24.092  1.00  0.00     0.156 C 
BRANCH   8   9
ATOM      9  C   UNL A   1      33.716  23.962  24.730  1.00  0.00     0.148 C 
ATOM     10  N   UNL A   1      33.614  21.501  24.713  1.00  0.00    -0.337 N 
ATOM     11  C   UNL A   1      34.499  21.469  25.871  1.00  0.00     0.148 C 
ATOM     12  C   UNL A   1      33.854  22.689  23.860  1.00  0.00     0.152 C 
ATOM     13  C   UNL A   1      34.308  22.728  26.704  1.00  0.00     0.182 C 
ATOM     14  O   UNL A   1      34.587  23.880  25.899  1.00  0.00    -0.374 OA
BRANCH  10  15
ATOM     15  C   UNL A   1      32.639  20.586  24.363  1.00  0.00     0.231 C 
ATOM     16  O   UNL A   1      31.803  20.222  25.201  1.00  0.00    -0.274 OA
BRANCH  15  17
ATOM     17  C   UNL A   1      32.681  19.825  23.017  1.00  0.00     0.130 C 
ATOM     18  C   UNL A   1      31.779  20.545  22.014  1.00  0.00     0.024 C 
BRANCH  17  19
ATOM     19  C   UNL A   1      32.465  18.306  23.012  1.00  0.00     0.273 C 
BRANCH  19  20
ATOM     20  N   UNL A   1      32.159  17.679  24.306  1.00  0.00    -0.346 N 
ATOM     21  H   UNL A   1      32.324  18.370  25.039  1.00  0.00     0.346 HD
ATOM     22  H   UNL A   1      31.187  17.374  24.256  1.00  0.00     0.346 HD
BRANCH  20  23
ATOM     23  C   UNL A   1      32.949  16.496  24.609  1.00  0.00     0.257 C 
ATOM     24  C   UNL A   1      34.406  16.773  24.256  1.00  0.00     0.071 C 
ENDBRANCH  20  23
ENDBRANCH  19  20
ENDBRANCH  17  19
ENDBRANCH  15  17
ENDBRANCH  10  15
ENDBRANCH   8   9
ENDBRANCH   6   8
ENDBRANCH   5   6
ENDBRANCH   4   5
ENDBRANCH   3   4
ENDBRANCH   2   3
ENDBRANCH   1   2
BRANCH   1  25
ATOM     25  C   UNL A   1      31.596  27.779  26.740  1.00  0.00     0.188 C 
BRANCH  25  26
ATOM     26  O   UNL A   1      32.758  28.399  26.231  1.00  0.00    -0.377 OA
BRANCH  26  27
ATOM     27  C   UNL A   1      32.631  29.565  25.418  1.00  0.00     0.188 C 
BRANCH  27  28
ATOM     28  C   UNL A   1      31.249  30.204  25.155  1.00  0.00     0.188 C 
BRANCH  28  29
ATOM     29  O   UNL A   1      31.046  31.458  25.785  1.00  0.00    -0.376 OA
BRANCH  29  30
ATOM     30  C   UNL A   1      31.787  31.765  26.954  1.00  0.00     0.202 C 
BRANCH  30  31
ATOM     31  C   UNL A   1      32.359  33.184  27.084  1.00  0.00     0.261 C 
BRANCH  31  32
ATOM     32  O   UNL A   1      32.160  33.839  28.348  1.00  0.00    -0.460 OA
BRANCH  32  33
ATOM     33  C   UNL A   1      32.912  34.924  28.618  1.00  0.00     0.338 C 
ATOM     34  O   UNL A   1      32.610  36.092  28.425  1.00  0.00    -0.246 OA
BRANCH  33  35
ATOM     35  C   UNL A   1      34.110  34.489  29.364  1.00  0.00     0.060 A 
ATOM     36  C   UNL A   1      35.348  34.475  28.708  1.00  0.00     0.016 A 
ATOM     37  C   UNL A   1      34.013  34.068  30.693  1.00  0.00     0.016 A 
ATOM     38  C   UNL A   1      36.482  33.992  29.363  1.00  0.00     0.010 A 
ATOM     39  C   UNL A   1      35.147  33.569  31.343  1.00  0.00     0.010 A 
ATOM     40  C   UNL A   1      36.377  33.488  30.666  1.00  0.00    -0.014 A 
BRANCH  40  41
ATOM     41  C   UNL A   1      37.494  32.687  31.232  1.00  0.00     0.031 A 
ATOM     42  C   UNL A   1      38.052  33.086  32.573  1.00  0.00     0.074 A 
ATOM     43  C   UNL A   1      37.981  31.602  30.600  1.00  0.00     0.049 A 
ATOM     44  N   UNL A   1      39.045  32.571  33.252  1.00  0.00    -0.248 NA
ATOM     45  C   UNL A   1      37.395  34.223  33.241  1.00  0.00     0.031 C 
ATOM     46  C   UNL A   1      37.501  31.080  29.323  1.00  0.00     0.029 A 
ATOM     47  N   UNL A   1      38.996  30.748  30.956  1.00  0.00    -0.354 N 
ATOM     48  C   UNL A   1      39.135  33.322  34.418  1.00  0.00     0.074 A 
ATOM     49  C   UNL A   1      38.121  34.349  34.341  1.00  0.00     0.031 C 
ATOM     50  C   UNL A   1      38.230  29.997  28.997  1.00  0.00     0.029 A 
ATOM     51  C   UNL A   1      39.249  29.772  30.021  1.00  0.00     0.049 A 
ATOM     52  H   UNL A   1      39.495  30.826  31.801  1.00  0.00     0.167 HD
ATOM     53  C   UNL A   1      39.978  33.164  35.465  1.00  0.00     0.037 A 
ATOM     54  C   UNL A   1      40.211  28.828  29.987  1.00  0.00     0.037 A 
ATOM     55  C   UNL A   1      40.990  32.144  35.544  1.00  0.00     0.049 A 
ATOM     56  C   UNL A   1      41.198  28.732  31.125  1.00  0.00     0.074 A 
ATOM     57  C   UNL A   1      41.890  31.901  36.567  1.00  0.00     0.029 A 
ATOM     58  N   UNL A   1      41.237  31.199  34.559  1.00  0.00    -0.354 N 
ATOM     59  N   UNL A   1      41.263  29.434  32.230  1.00  0.00    -0.248 NA
ATOM     60  C   UNL A   1      42.246  27.706  31.008  1.00  0.00     0.031 C 
ATOM     61  C   UNL A   1      42.721  30.846  36.177  1.00  0.00     0.029 A 
ATOM     62  C   UNL A   1      42.293  30.389  34.941  1.00  0.00     0.049 A 
ATOM     63  H   UNL A   1      40.737  31.118  33.715  1.00  0.00     0.167 HD
ATOM     64  C   UNL A   1      42.330  28.911  32.954  1.00  0.00     0.074 A 
ATOM     65  C   UNL A   1      42.875  27.824  32.170  1.00  0.00     0.031 C 
ATOM     66  C   UNL A   1      42.814  29.295  34.160  1.00  0.00     0.037 A 
BRANCH  53  67
ATOM     67  C   UNL A   1      39.861  34.133  36.606  1.00  0.00     0.057 A 
ATOM     68  C   UNL A   1      40.494  35.383  36.584  1.00  0.00     0.134 A 
ATOM     69  C   UNL A   1      39.065  33.831  37.718  1.00  0.00     0.134 A 
ATOM     70  F   UNL A   1      41.282  35.729  35.557  1.00  0.00    -0.206 F 
ATOM     71  C   UNL A   1      40.351  36.290  37.636  1.00  0.00     0.040 A 
ATOM     72  C   UNL A   1      38.892  34.740  38.761  1.00  0.00     0.040 A 
ATOM     73  F   UNL A   1      38.428  32.652  37.801  1.00  0.00    -0.206 F 
ATOM     74  C   UNL A   1      39.540  35.973  38.725  1.00  0.00     0.006 A 
ENDBRANCH  53  67
BRANCH  54  75
ATOM     75  C   UNL A   1      40.321  27.905  28.825  1.00  0.00     0.057 A 
ATOM     76  C   UNL A   1      41.051  28.256  27.682  1.00  0.00     0.134 A 
ATOM     77  C   UNL A   1      39.648  26.678  28.804  1.00  0.00     0.134 A 
ATOM     78  F   UNL A   1      41.696  29.431  27.627  1.00  0.00    -0.206 F 
ATOM     79  C   UNL A   1      41.083  27.436  26.552  1.00  0.00     0.040 A 
ATOM     80  C   UNL A   1      39.697  25.834  27.693  1.00  0.00     0.040 A 
ATOM     81  F   UNL A   1      38.926  26.282  29.863  1.00  0.00    -0.206 F 
ATOM     82  C   UNL A   1      40.406  26.218  26.557  1.00  0.00     0.006 A 
ENDBRANCH  54  75
BRANCH  66  83
ATOM     83  C   UNL A   1      43.953  28.503  34.740  1.00  0.00     0.057 A 
ATOM     84  C   UNL A   1      45.291  28.863  34.538  1.00  0.00     0.134 A 
ATOM     85  C   UNL A   1      43.701  27.390  35.553  1.00  0.00     0.134 A 
ATOM     86  F   UNL A   1      45.604  29.914  33.764  1.00  0.00    -0.206 F 
ATOM     87  C   UNL A   1      46.338  28.129  35.102  1.00  0.00     0.040 A 
ATOM     88  C   UNL A   1      44.737  26.667  36.147  1.00  0.00     0.040 A 
ATOM     89  F   UNL A   1      42.442  26.996  35.799  1.00  0.00    -0.206 F 
ATOM     90  C   UNL A   1      46.060  27.032  35.916  1.00  0.00     0.006 A 
ENDBRANCH  66  83
ENDBRANCH  40  41
ENDBRANCH  33  35
ENDBRANCH  32  33
ENDBRANCH  31  32
ENDBRANCH  30  31
ENDBRANCH  29  30
ENDBRANCH  28  29
ENDBRANCH  27  28
ENDBRANCH  26  27
ENDBRANCH  25  26
ENDBRANCH   1  25
TORSDOF 26
ENDMDL
MODEL 3
REMARK VINA RESULT:      -8.8      4.661     10.370
REMARK SMILES CC[NH2+]C[C@@H](C)C(=O)N1CCO[C@@H](CC(=O)OCCOCCOCCOCCOC(=O)c2ccc(-c3c4nc(c(-c5c(F)cccc5F)c5ccc([nH]5)c(-c5c(F)cccc5F)c5nc(c(-c6c(F)cccc6F)c6ccc3[nH]6)C=C5)C=C4)cc2)C1
REMARK SMILES IDX 21 1 20 2 19 3 18 4 17 5 15 6 16 7 14 8 13 9 9 10 10 11
REMARK SMILES IDX 86 12 11 13 12 14 7 15 8 16 5 17 6 18 4 19 3 20 2 23 1 24
REMARK SMILES IDX 22 25 23 26 24 27 25 28 26 29 27 30 28 31 29 32 30 33 31 34
REMARK SMILES IDX 32 35 33 36 85 37 34 38 84 39 35 40 36 41 37 42 78 43 38 44
REMARK SMILES IDX 83 45 77 46 79 47 39 48 82 49 76 50 75 51 40 53 66 54 49 55
REMARK SMILES IDX 65 56 50 57 53 58 64 59 80 60 51 61 52 62 63 64 81 65 54 66
REMARK SMILES IDX 41 67 42 68 47 69 43 70 44 71 46 72 48 73 45 74 67 75 68 76
REMARK SMILES IDX 73 77 69 78 70 79 72 80 74 81 71 82 55 83 56 84 61 85 57 86
REMARK SMILES IDX 58 87 60 88 62 89 59 90
REMARK H PARENT 3 21 3 22 79 52 53 63
REMARK Flexibility Score: inf
ROOT
ATOM      1  C   UNL A   1      41.759  19.988  26.678  1.00  0.00     0.188 C 
ENDROOT
BRANCH   1   2
ATOM      2  O   UNL A   1      41.022  21.062  26.130  1.00  0.00    -0.376 OA
BRANCH   2   3
ATOM      3  C   UNL A   1      39.734  21.404  26.623  1.00  0.00     0.202 C 
BRANCH   3   4
ATOM      4  C   UNL A   1      38.807  22.454  25.987  1.00  0.00     0.261 C 
BRANCH   4   5
ATOM      5  O   UNL A   1      37.835  21.981  25.038  1.00  0.00    -0.463 OA
BRANCH   5   6
ATOM      6  C   UNL A   1      36.551  22.264  25.335  1.00  0.00     0.308 C 
ATOM      7  O   UNL A   1      35.885  21.648  26.164  1.00  0.00    -0.252 OA
BRANCH   6   8
ATOM      8  C   UNL A   1      35.945  23.418  24.584  1.00  0.00     0.156 C 
BRANCH   8   9
ATOM      9  C   UNL A   1      34.535  23.943  24.827  1.00  0.00     0.148 C 
ATOM     10  N   UNL A   1      32.926  25.791  25.071  1.00  0.00    -0.337 N 
ATOM     11  C   UNL A   1      32.236  25.331  23.871  1.00  0.00     0.148 C 
ATOM     12  C   UNL A   1      34.372  25.467  25.043  1.00  0.00     0.152 C 
ATOM     13  C   UNL A   1      32.408  23.827  23.719  1.00  0.00     0.182 C 
ATOM     14  O   UNL A   1      33.802  23.511  23.640  1.00  0.00    -0.374 OA
BRANCH  10  15
ATOM     15  C   UNL A   1      32.389  26.454  26.158  1.00  0.00     0.231 C 
ATOM     16  O   UNL A   1      31.391  25.998  26.731  1.00  0.00    -0.274 OA
BRANCH  15  17
ATOM     17  C   UNL A   1      32.858  27.874  26.559  1.00  0.00     0.130 C 
ATOM     18  C   UNL A   1      31.832  28.480  27.516  1.00  0.00     0.024 C 
BRANCH  17  19
ATOM     19  C   UNL A   1      33.285  28.856  25.460  1.00  0.00     0.273 C 
BRANCH  19  20
ATOM     20  N   UNL A   1      32.207  29.564  24.754  1.00  0.00    -0.346 N 
ATOM     21  H   UNL A   1      31.400  29.615  25.376  1.00  0.00     0.346 HD
ATOM     22  H   UNL A   1      32.578  30.481  24.505  1.00  0.00     0.346 HD
BRANCH  20  23
ATOM     23  C   UNL A   1      31.785  28.939  23.509  1.00  0.00     0.257 C 
ATOM     24  C   UNL A   1      30.273  28.746  23.545  1.00  0.00     0.071 C 
ENDBRANCH  20  23
ENDBRANCH  19  20
ENDBRANCH  17  19
ENDBRANCH  15  17
ENDBRANCH  10  15
ENDBRANCH   8   9
ENDBRANCH   6   8
ENDBRANCH   5   6
ENDBRANCH   4   5
ENDBRANCH   3   4
ENDBRANCH   2   3
ENDBRANCH   1   2
BRANCH   1  25
ATOM     25  C   UNL A   1      42.186  18.822  25.779  1.00  0.00     0.188 C 
BRANCH  25  26
ATOM     26  O   UNL A   1      43.254  19.087  24.894  1.00  0.00    -0.377 OA
BRANCH  26  27
ATOM     27  C   UNL A   1      44.401  19.790  25.373  1.00  0.00     0.188 C 
BRANCH  27  28
ATOM     28  C   UNL A   1      45.060  20.904  24.530  1.00  0.00     0.188 C 
BRANCH  28  29
ATOM     29  O   UNL A   1      44.149  21.754  23.854  1.00  0.00    -0.376 OA
BRANCH  29  30
ATOM     30  C   UNL A   1      43.492  22.775  24.589  1.00  0.00     0.202 C 
BRANCH  30  31
ATOM     31  C   UNL A   1      44.111  24.180  24.566  1.00  0.00     0.261 C 
BRANCH  31  32
ATOM     32  O   UNL A   1      45.260  24.385  25.406  1.00  0.00    -0.460 OA
BRANCH  32  33
ATOM     33  C   UNL A   1      45.177  23.988  26.690  1.00  0.00     0.338 C 
ATOM     34  O   UNL A   1      45.806  23.086  27.222  1.00  0.00    -0.246 OA
BRANCH  33  35
ATOM     35  C   UNL A   1      44.322  24.946  27.421  1.00  0.00     0.060 A 
ATOM     36  C   UNL A   1      44.667  26.304  27.412  1.00  0.00     0.016 A 
ATOM     37  C   UNL A   1      43.205  24.509  28.137  1.00  0.00     0.016 A 
ATOM     38  C   UNL A   1      43.926  27.220  28.161  1.00  0.00     0.010 A 
ATOM     39  C   UNL A   1      42.472  25.425  28.899  1.00  0.00     0.010 A 
ATOM     40  C   UNL A   1      42.856  26.777  28.949  1.00  0.00    -0.014 A 
BRANCH  40  41
ATOM     41  C   UNL A   1      42.284  27.682  29.981  1.00  0.00     0.031 A 
ATOM     42  C   UNL A   1      42.955  27.741  31.329  1.00  0.00     0.074 A 
ATOM     43  C   UNL A   1      41.223  28.469  29.726  1.00  0.00     0.049 A 
ATOM     44  N   UNL A   1      42.623  28.420  32.397  1.00  0.00    -0.248 NA
ATOM     45  C   UNL A   1      44.169  26.923  31.492  1.00  0.00     0.031 C 
ATOM     46  C   UNL A   1      40.511  28.544  28.452  1.00  0.00     0.029 A 
ATOM     47  N   UNL A   1      40.558  29.356  30.537  1.00  0.00    -0.354 N 
ATOM     48  C   UNL A   1      43.579  28.106  33.356  1.00  0.00     0.074 A 
ATOM     49  C   UNL A   1      44.485  27.152  32.757  1.00  0.00     0.031 C 
ATOM     50  C   UNL A   1      39.501  29.425  28.571  1.00  0.00     0.029 A 
ATOM     51  C   UNL A   1      39.472  29.946  29.937  1.00  0.00     0.049 A 
ATOM     52  H   UNL A   1      40.835  29.551  31.462  1.00  0.00     0.167 HD
ATOM     53  C   UNL A   1      43.701  28.580  34.618  1.00  0.00     0.037 A 
ATOM     54  C   UNL A   1      38.548  30.787  30.443  1.00  0.00     0.037 A 
ATOM     55  C   UNL A   1      42.802  29.529  35.218  1.00  0.00     0.049 A 
ATOM     56  C   UNL A   1      38.655  31.228  31.883  1.00  0.00     0.074 A 
ATOM     57  C   UNL A   1      42.846  30.072  36.491  1.00  0.00     0.029 A 
ATOM     58  N   UNL A   1      41.693  30.074  34.589  1.00  0.00    -0.354 N 
ATOM     59  N   UNL A   1      39.572  30.941  32.774  1.00  0.00    -0.248 NA
ATOM     60  C   UNL A   1      37.593  32.115  32.385  1.00  0.00     0.031 C 
ATOM     61  C   UNL A   1      41.732  30.900  36.651  1.00  0.00     0.029 A 
ATOM     62  C   UNL A   1      41.031  30.926  35.456  1.00  0.00     0.049 A 
ATOM     63  H   UNL A   1      41.418  29.882  33.663  1.00  0.00     0.167 HD
ATOM     64  C   UNL A   1      39.220  31.640  33.925  1.00  0.00     0.074 A 
ATOM     65  C   UNL A   1      38.014  32.375  33.616  1.00  0.00     0.031 C 
ATOM     66  C   UNL A   1      39.842  31.670  35.130  1.00  0.00     0.037 A 
BRANCH  53  67
ATOM     67  C   UNL A   1      44.839  28.061  35.450  1.00  0.00     0.057 A 
ATOM     68  C   UNL A   1      44.715  26.909  36.238  1.00  0.00     0.134 A 
ATOM     69  C   UNL A   1      46.088  28.694  35.423  1.00  0.00     0.134 A 
ATOM     70  F   UNL A   1      43.543  26.264  36.320  1.00  0.00    -0.206 F 
ATOM     71  C   UNL A   1      45.789  26.416  36.981  1.00  0.00     0.040 A 
ATOM     72  C   UNL A   1      47.176  28.194  36.139  1.00  0.00     0.040 A 
ATOM     73  F   UNL A   1      46.276  29.800  34.686  1.00  0.00    -0.206 F 
ATOM     74  C   UNL A   1      47.027  27.054  36.925  1.00  0.00     0.006 A 
ENDBRANCH  53  67
BRANCH  54  75
ATOM     75  C   UNL A   1      37.413  31.256  29.603  1.00  0.00     0.057 A 
ATOM     76  C   UNL A   1      36.308  30.436  29.347  1.00  0.00     0.134 A 
ATOM     77  C   UNL A   1      37.437  32.512  28.984  1.00  0.00     0.134 A 
ATOM     78  F   UNL A   1      36.237  29.209  29.887  1.00  0.00    -0.206 F 
ATOM     79  C   UNL A   1      35.283  30.832  28.485  1.00  0.00     0.040 A 
ATOM     80  C   UNL A   1      36.404  32.935  28.145  1.00  0.00     0.040 A 
ATOM     81  F   UNL A   1      38.468  33.346  29.181  1.00  0.00    -0.206 F 
ATOM     82  C   UNL A   1      35.329  32.089  27.883  1.00  0.00     0.006 A 
ENDBRANCH  54  75
BRANCH  66  83
ATOM     83  C   UNL A   1      39.268  32.570  36.189  1.00  0.00     0.057 A 
ATOM     84  C   UNL A   1      38.282  32.136  37.083  1.00  0.00     0.134 A 
ATOM     85  C   UNL A   1      39.747  33.878  36.343  1.00  0.00     0.134 A 
ATOM     86  F   UNL A   1      37.773  30.898  36.986  1.00  0.00    -0.206 F 
ATOM     87  C   UNL A   1      37.774  32.978  38.075  1.00  0.00     0.040 A 
ATOM     88  C   UNL A   1      39.270  34.719  37.350  1.00  0.00     0.040 A 
ATOM     89  F   UNL A   1      40.700  34.356  35.530  1.00  0.00    -0.206 F 
ATOM     90  C   UNL A   1      38.275  34.271  38.215  1.00  0.00     0.006 A 
ENDBRANCH  66  83
ENDBRANCH  40  41
ENDBRANCH  33  35
ENDBRANCH  32  33
ENDBRANCH  31  32
ENDBRANCH  30  31
ENDBRANCH  29  30
ENDBRANCH  28  29
ENDBRANCH  27  28
ENDBRANCH  26  27
ENDBRANCH  25  26
ENDBRANCH   1  25
TORSDOF 26
ENDMDL
