MODEL 1
REMARK VINA RESULT:      -9.1      0.000      0.000
REMARK SMILES O=C(OCCOCCOCCOCCOC(=O)c1sccc1[S@](=O)[O-])c1ccc(-c2c3nc(c(-c4c(F)cccc4F)c4ccc([nH]4)c(-c4c(F)cccc4F)c4nc(c(-c5c(F)cccc5F)c5ccc2[nH]5)C=C4)C=C3)cc1
REMARK SMILES IDX 8 1 7 2 6 3 5 4 4 5 3 6 2 7 1 8 26 9 27 10 79 11 28 12 78 13
REMARK SMILES IDX 29 14 30 15 31 16 72 17 32 18 77 19 71 20 73 21 33 22 76 23
REMARK SMILES IDX 70 24 69 25 34 27 60 28 43 29 59 30 44 31 47 32 58 33 74 34
REMARK SMILES IDX 45 35 46 36 57 38 75 39 48 40 35 41 36 42 41 43 37 44 38 45
REMARK SMILES IDX 40 46 42 47 39 48 61 49 62 50 67 51 63 52 64 53 66 54 68 55
REMARK SMILES IDX 65 56 49 57 50 58 55 59 51 60 52 61 54 62 56 63 53 64 9 65
REMARK SMILES IDX 10 66 11 67 12 68 13 69 14 70 15 71 16 72 17 73 18 74 19 75
REMARK SMILES IDX 22 76 20 77 21 78 23 79 25 80 24 81
REMARK H PARENT 73 26 47 37
REMARK Flexibility Score: inf
ROOT
ATOM      1  C   UNL A   1      34.445  21.044  25.647  1.00  0.00     0.188 C 
ENDROOT
BRANCH   1   2
ATOM      2  C   UNL A   1      35.931  21.255  25.344  1.00  0.00     0.188 C 
BRANCH   2   3
ATOM      3  O   UNL A   1      36.539  20.014  25.006  1.00  0.00    -0.376 OA
BRANCH   3   4
ATOM      4  C   UNL A   1      37.906  20.015  24.618  1.00  0.00     0.202 C 
BRANCH   4   5
ATOM      5  C   UNL A   1      38.938  20.235  25.728  1.00  0.00     0.261 C 
BRANCH   5   6
ATOM      6  O   UNL A   1      39.932  19.199  25.839  1.00  0.00    -0.460 OA
BRANCH   6   7
ATOM      7  C   UNL A   1      41.269  19.341  26.034  1.00  0.00     0.338 C 
ATOM      8  O   UNL A   1      42.015  18.381  25.868  1.00  0.00    -0.246 OA
BRANCH   7   9
ATOM      9  C   UNL A   1      41.870  20.643  26.420  1.00  0.00     0.060 A 
ATOM     10  C   UNL A   1      42.135  20.988  27.737  1.00  0.00     0.016 A 
ATOM     11  C   UNL A   1      42.270  21.532  25.417  1.00  0.00     0.016 A 
ATOM     12  C   UNL A   1      42.555  22.252  28.088  1.00  0.00     0.010 A 
ATOM     13  C   UNL A   1      42.836  22.768  25.754  1.00  0.00     0.010 A 
ATOM     14  C   UNL A   1      42.924  23.154  27.100  1.00  0.00    -0.014 A 
BRANCH  14  15
ATOM     15  C   UNL A   1      43.269  24.521  27.536  1.00  0.00     0.031 A 
ATOM     16  C   UNL A   1      44.690  24.972  27.387  1.00  0.00     0.074 A 
ATOM     17  C   UNL A   1      42.287  25.383  27.871  1.00  0.00     0.049 A 
ATOM     18  N   UNL A   1      45.239  26.102  27.739  1.00  0.00    -0.248 NA
ATOM     19  C   UNL A   1      45.619  24.025  26.746  1.00  0.00     0.031 C 
ATOM     20  C   UNL A   1      40.853  25.064  27.907  1.00  0.00     0.029 A 
ATOM     21  N   UNL A   1      42.333  26.713  28.190  1.00  0.00    -0.354 N 
ATOM     22  C   UNL A   1      46.581  25.984  27.399  1.00  0.00     0.074 A 
ATOM     23  C   UNL A   1      46.771  24.671  26.829  1.00  0.00     0.031 C 
ATOM     24  C   UNL A   1      40.159  26.179  28.175  1.00  0.00     0.029 A 
ATOM     25  C   UNL A   1      41.096  27.261  28.437  1.00  0.00     0.049 A 
ATOM     26  H   UNL A   1      43.170  27.228  28.236  1.00  0.00     0.167 HD
ATOM     27  C   UNL A   1      47.563  26.901  27.553  1.00  0.00     0.037 A 
ATOM     28  C   UNL A   1      40.770  28.490  28.879  1.00  0.00     0.037 A 
ATOM     29  C   UNL A   1      47.334  28.205  28.110  1.00  0.00     0.049 A 
ATOM     30  C   UNL A   1      41.894  29.454  29.137  1.00  0.00     0.074 A 
ATOM     31  C   UNL A   1      48.250  29.194  28.410  1.00  0.00     0.029 A 
ATOM     32  N   UNL A   1      46.078  28.702  28.437  1.00  0.00    -0.354 N 
ATOM     33  N   UNL A   1      43.180  29.299  28.923  1.00  0.00    -0.248 NA
ATOM     34  C   UNL A   1      41.530  30.751  29.715  1.00  0.00     0.031 C 
ATOM     35  C   UNL A   1      47.550  30.278  28.954  1.00  0.00     0.029 A 
ATOM     36  C   UNL A   1      46.193  29.982  28.944  1.00  0.00     0.049 A 
ATOM     37  H   UNL A   1      45.231  28.213  28.325  1.00  0.00     0.167 HD
ATOM     38  C   UNL A   1      43.779  30.479  29.334  1.00  0.00     0.074 A 
ATOM     39  C   UNL A   1      42.708  31.353  29.774  1.00  0.00     0.031 C 
ATOM     40  C   UNL A   1      45.093  30.814  29.363  1.00  0.00     0.037 A 
BRANCH  27  41
ATOM     41  C   UNL A   1      48.952  26.481  27.175  1.00  0.00     0.057 A 
ATOM     42  C   UNL A   1      49.798  25.808  28.067  1.00  0.00     0.134 A 
ATOM     43  C   UNL A   1      49.467  26.798  25.912  1.00  0.00     0.134 A 
ATOM     44  F   UNL A   1      49.381  25.510  29.307  1.00  0.00    -0.206 F 
ATOM     45  C   UNL A   1      51.114  25.489  27.724  1.00  0.00     0.040 A 
ATOM     46  C   UNL A   1      50.772  26.461  25.549  1.00  0.00     0.040 A 
ATOM     47  F   UNL A   1      48.715  27.453  25.015  1.00  0.00    -0.206 F 
ATOM     48  C   UNL A   1      51.602  25.811  26.459  1.00  0.00     0.006 A 
ENDBRANCH  27  41
BRANCH  28  49
ATOM     49  C   UNL A   1      39.356  28.839  29.187  1.00  0.00     0.057 A 
ATOM     50  C   UNL A   1      38.794  28.604  30.447  1.00  0.00     0.134 A 
ATOM     51  C   UNL A   1      38.515  29.385  28.206  1.00  0.00     0.134 A 
ATOM     52  F   UNL A   1      39.534  28.067  31.428  1.00  0.00    -0.206 F 
ATOM     53  C   UNL A   1      37.448  28.872  30.712  1.00  0.00     0.040 A 
ATOM     54  C   UNL A   1      37.178  29.691  28.467  1.00  0.00     0.040 A 
ATOM     55  F   UNL A   1      38.983  29.640  26.975  1.00  0.00    -0.206 F 
ATOM     56  C   UNL A   1      36.637  29.421  29.721  1.00  0.00     0.006 A 
ENDBRANCH  28  49
BRANCH  40  57
ATOM     57  C   UNL A   1      45.420  32.189  29.859  1.00  0.00     0.057 A 
ATOM     58  C   UNL A   1      45.705  32.439  31.207  1.00  0.00     0.134 A 
ATOM     59  C   UNL A   1      45.468  33.269  28.969  1.00  0.00     0.134 A 
ATOM     60  F   UNL A   1      45.657  31.445  32.108  1.00  0.00    -0.206 F 
ATOM     61  C   UNL A   1      45.998  33.724  31.659  1.00  0.00     0.040 A 
ATOM     62  C   UNL A   1      45.791  34.553  29.405  1.00  0.00     0.040 A 
ATOM     63  F   UNL A   1      45.214  33.090  27.665  1.00  0.00    -0.206 F 
ATOM     64  C   UNL A   1      46.047  34.784  30.755  1.00  0.00     0.006 A 
ENDBRANCH  40  57
ENDBRANCH  14  15
ENDBRANCH   7   9
ENDBRANCH   6   7
ENDBRANCH   5   6
ENDBRANCH   4   5
ENDBRANCH   3   4
ENDBRANCH   2   3
ENDBRANCH   1   2
BRANCH   1  65
ATOM     65  O   UNL A   1      33.549  21.298  24.561  1.00  0.00    -0.377 OA
BRANCH  65  66
ATOM     66  C   UNL A   1      32.159  21.270  24.872  1.00  0.00     0.188 C 
BRANCH  66  67
ATOM     67  C   UNL A   1      31.623  22.284  25.909  1.00  0.00     0.188 C 
BRANCH  67  68
ATOM     68  O   UNL A   1      30.897  23.368  25.345  1.00  0.00    -0.376 OA
BRANCH  68  69
ATOM     69  C   UNL A   1      30.367  24.313  26.268  1.00  0.00     0.202 C 
BRANCH  69  70
ATOM     70  C   UNL A   1      29.931  25.673  25.698  1.00  0.00     0.261 C 
BRANCH  70  71
ATOM     71  O   UNL A   1      30.476  26.031  24.418  1.00  0.00    -0.459 OA
BRANCH  71  72
ATOM     72  C   UNL A   1      31.483  26.948  24.342  1.00  0.00     0.349 C 
ATOM     73  O   UNL A   1      31.327  28.145  24.318  1.00  0.00    -0.245 OA
BRANCH  72  74
ATOM     74  C   UNL A   1      32.736  26.213  24.384  1.00  0.00     0.127 A 
ATOM     75  S   UNL A   1      33.669  26.206  25.828  1.00  0.00    -0.136 S 
ATOM     76  C   UNL A   1      33.306  25.389  23.435  1.00  0.00     0.050 A 
ATOM     77  C   UNL A   1      34.606  24.875  25.282  1.00  0.00     0.067 A 
ATOM     78  C   UNL A   1      34.346  24.573  23.962  1.00  0.00     0.029 A 
BRANCH  76  79
ATOM     79  S   UNL A   1      32.771  25.305  21.779  1.00  0.00    -0.020 S 
ATOM     80  O   UNL A   1      33.711  26.527  21.323  1.00  0.00    -0.768 OA
ATOM     81  O   UNL A   1      33.366  24.060  21.199  1.00  0.00    -0.269 OA
ENDBRANCH  76  79
ENDBRANCH  72  74
ENDBRANCH  71  72
ENDBRANCH  70  71
ENDBRANCH  69  70
ENDBRANCH  68  69
ENDBRANCH  67  68
ENDBRANCH  66  67
ENDBRANCH  65  66
ENDBRANCH   1  65
TORSDOF 21
ENDMDL
MODEL 2
REMARK VINA RESULT:      -9.0      1.044      2.023
REMARK SMILES O=C(OCCOCCOCCOCCOC(=O)c1sccc1[S@](=O)[O-])c1ccc(-c2c3nc(c(-c4c(F)cccc4F)c4ccc([nH]4)c(-c4c(F)cccc4F)c4nc(c(-c5c(F)cccc5F)c5ccc2[nH]5)C=C4)C=C3)cc1
REMARK SMILES IDX 8 1 7 2 6 3 5 4 4 5 3 6 2 7 1 8 26 9 27 10 79 11 28 12 78 13
REMARK SMILES IDX 29 14 30 15 31 16 72 17 32 18 77 19 71 20 73 21 33 22 76 23
REMARK SMILES IDX 70 24 69 25 34 27 60 28 43 29 59 30 44 31 47 32 58 33 74 34
REMARK SMILES IDX 45 35 46 36 57 38 75 39 48 40 35 41 36 42 41 43 37 44 38 45
REMARK SMILES IDX 40 46 42 47 39 48 61 49 62 50 67 51 63 52 64 53 66 54 68 55
REMARK SMILES IDX 65 56 49 57 50 58 55 59 51 60 52 61 54 62 56 63 53 64 9 65
REMARK SMILES IDX 10 66 11 67 12 68 13 69 14 70 15 71 16 72 17 73 18 74 19 75
REMARK SMILES IDX 22 76 20 77 21 78 23 79 25 80 24 81
REMARK H PARENT 73 26 47 37
REMARK Flexibility Score: inf
ROOT
ATOM      1  C   UNL A   1      34.386  21.235  25.539  1.00  0.00     0.188 C 
ENDROOT
BRANCH   1   2
ATOM      2  C   UNL A   1      35.774  21.309  24.898  1.00  0.00     0.188 C 
BRANCH   2   3
ATOM      3  O   UNL A   1      36.520  20.139  25.216  1.00  0.00    -0.376 OA
BRANCH   3   4
ATOM      4  C   UNL A   1      37.841  20.021  24.707  1.00  0.00     0.202 C 
BRANCH   4   5
ATOM      5  C   UNL A   1      38.985  20.257  25.697  1.00  0.00     0.261 C 
BRANCH   5   6
ATOM      6  O   UNL A   1      39.993  19.228  25.709  1.00  0.00    -0.460 OA
BRANCH   6   7
ATOM      7  C   UNL A   1      41.304  19.346  26.041  1.00  0.00     0.338 C 
ATOM      8  O   UNL A   1      42.033  18.359  26.012  1.00  0.00    -0.246 OA
BRANCH   7   9
ATOM      9  C   UNL A   1      41.902  20.652  26.416  1.00  0.00     0.060 A 
ATOM     10  C   UNL A   1      42.198  20.996  27.727  1.00  0.00     0.016 A 
ATOM     11  C   UNL A   1      42.268  21.548  25.406  1.00  0.00     0.016 A 
ATOM     12  C   UNL A   1      42.614  22.263  28.072  1.00  0.00     0.010 A 
ATOM     13  C   UNL A   1      42.831  22.789  25.733  1.00  0.00     0.010 A 
ATOM     14  C   UNL A   1      42.949  23.172  27.078  1.00  0.00    -0.014 A 
BRANCH  14  15
ATOM     15  C   UNL A   1      43.291  24.540  27.510  1.00  0.00     0.031 A 
ATOM     16  C   UNL A   1      44.709  24.998  27.347  1.00  0.00     0.074 A 
ATOM     17  C   UNL A   1      42.309  25.398  27.854  1.00  0.00     0.049 A 
ATOM     18  N   UNL A   1      45.257  26.131  27.693  1.00  0.00    -0.248 NA
ATOM     19  C   UNL A   1      45.637  24.055  26.697  1.00  0.00     0.031 C 
ATOM     20  C   UNL A   1      40.877  25.073  27.903  1.00  0.00     0.029 A 
ATOM     21  N   UNL A   1      42.352  26.728  28.171  1.00  0.00    -0.354 N 
ATOM     22  C   UNL A   1      46.596  26.019  27.340  1.00  0.00     0.074 A 
ATOM     23  C   UNL A   1      46.786  24.707  26.768  1.00  0.00     0.031 C 
ATOM     24  C   UNL A   1      40.181  26.184  28.178  1.00  0.00     0.029 A 
ATOM     25  C   UNL A   1      41.115  27.270  28.430  1.00  0.00     0.049 A 
ATOM     26  H   UNL A   1      43.187  27.248  28.209  1.00  0.00     0.167 HD
ATOM     27  C   UNL A   1      47.575  26.940  27.483  1.00  0.00     0.037 A 
ATOM     28  C   UNL A   1      40.787  28.498  28.874  1.00  0.00     0.037 A 
ATOM     29  C   UNL A   1      47.345  28.244  28.042  1.00  0.00     0.049 A 
ATOM     30  C   UNL A   1      41.909  29.468  29.120  1.00  0.00     0.074 A 
ATOM     31  C   UNL A   1      48.259  29.237  28.332  1.00  0.00     0.029 A 
ATOM     32  N   UNL A   1      46.089  28.735  28.381  1.00  0.00    -0.354 N 
ATOM     33  N   UNL A   1      43.194  29.318  28.895  1.00  0.00    -0.248 NA
ATOM     34  C   UNL A   1      41.545  30.763  29.702  1.00  0.00     0.031 C 
ATOM     35  C   UNL A   1      47.559  30.318  28.882  1.00  0.00     0.029 A 
ATOM     36  C   UNL A   1      46.204  30.016  28.885  1.00  0.00     0.049 A 
ATOM     37  H   UNL A   1      45.244  28.242  28.277  1.00  0.00     0.167 HD
ATOM     38  C   UNL A   1      43.792  30.502  29.299  1.00  0.00     0.074 A 
ATOM     39  C   UNL A   1      42.721  31.371  29.749  1.00  0.00     0.031 C 
ATOM     40  C   UNL A   1      45.104  30.843  29.315  1.00  0.00     0.037 A 
BRANCH  27  41
ATOM     41  C   UNL A   1      48.962  26.527  27.093  1.00  0.00     0.057 A 
ATOM     42  C   UNL A   1      49.471  26.743  25.804  1.00  0.00     0.134 A 
ATOM     43  C   UNL A   1      49.785  25.859  28.007  1.00  0.00     0.134 A 
ATOM     44  F   UNL A   1      48.720  27.342  24.868  1.00  0.00    -0.206 F 
ATOM     45  C   UNL A   1      50.739  26.288  25.435  1.00  0.00     0.040 A 
ATOM     46  C   UNL A   1      51.063  25.421  27.658  1.00  0.00     0.040 A 
ATOM     47  F   UNL A   1      49.354  25.607  29.253  1.00  0.00    -0.206 F 
ATOM     48  C   UNL A   1      51.541  25.629  26.366  1.00  0.00     0.006 A 
ENDBRANCH  27  41
BRANCH  28  49
ATOM     49  C   UNL A   1      39.375  28.841  29.195  1.00  0.00     0.057 A 
ATOM     50  C   UNL A   1      38.826  28.605  30.461  1.00  0.00     0.134 A 
ATOM     51  C   UNL A   1      38.521  29.382  28.223  1.00  0.00     0.134 A 
ATOM     52  F   UNL A   1      39.579  28.072  31.435  1.00  0.00    -0.206 F 
ATOM     53  C   UNL A   1      37.482  28.867  30.739  1.00  0.00     0.040 A 
ATOM     54  C   UNL A   1      37.186  29.682  28.497  1.00  0.00     0.040 A 
ATOM     55  F   UNL A   1      38.976  29.639  26.987  1.00  0.00    -0.206 F 
ATOM     56  C   UNL A   1      36.658  29.411  29.755  1.00  0.00     0.006 A 
ENDBRANCH  28  49
BRANCH  40  57
ATOM     57  C   UNL A   1      45.429  32.220  29.807  1.00  0.00     0.057 A 
ATOM     58  C   UNL A   1      45.728  32.472  31.151  1.00  0.00     0.134 A 
ATOM     59  C   UNL A   1      45.461  33.300  28.916  1.00  0.00     0.134 A 
ATOM     60  F   UNL A   1      45.697  31.478  32.053  1.00  0.00    -0.206 F 
ATOM     61  C   UNL A   1      46.020  33.758  31.600  1.00  0.00     0.040 A 
ATOM     62  C   UNL A   1      45.782  34.586  29.348  1.00  0.00     0.040 A 
ATOM     63  F   UNL A   1      45.192  33.120  27.615  1.00  0.00    -0.206 F 
ATOM     64  C   UNL A   1      46.053  34.818  30.695  1.00  0.00     0.006 A 
ENDBRANCH  40  57
ENDBRANCH  14  15
ENDBRANCH   7   9
ENDBRANCH   6   7
ENDBRANCH   5   6
ENDBRANCH   4   5
ENDBRANCH   3   4
ENDBRANCH   2   3
ENDBRANCH   1   2
BRANCH   1  65
ATOM     65  O   UNL A   1      33.549  20.169  25.082  1.00  0.00    -0.377 OA
BRANCH  65  66
ATOM     66  C   UNL A   1      32.291  20.549  24.530  1.00  0.00     0.188 C 
BRANCH  66  67
ATOM     67  C   UNL A   1      32.273  21.165  23.112  1.00  0.00     0.188 C 
BRANCH  67  68
ATOM     68  O   UNL A   1      32.348  22.584  23.090  1.00  0.00    -0.376 OA
BRANCH  68  69
ATOM     69  C   UNL A   1      33.536  23.138  22.535  1.00  0.00     0.202 C 
BRANCH  69  70
ATOM     70  C   UNL A   1      33.937  24.543  23.014  1.00  0.00     0.261 C 
BRANCH  70  71
ATOM     71  O   UNL A   1      33.763  25.612  22.069  1.00  0.00    -0.459 OA
BRANCH  71  72
ATOM     72  C   UNL A   1      32.546  26.216  21.945  1.00  0.00     0.349 C 
ATOM     73  O   UNL A   1      31.748  25.986  21.069  1.00  0.00    -0.245 OA
BRANCH  72  74
ATOM     74  C   UNL A   1      32.382  27.092  23.093  1.00  0.00     0.127 A 
ATOM     75  S   UNL A   1      33.462  28.412  23.316  1.00  0.00    -0.136 S 
ATOM     76  C   UNL A   1      31.392  27.108  24.053  1.00  0.00     0.050 A 
ATOM     77  C   UNL A   1      32.414  29.147  24.460  1.00  0.00     0.067 A 
ATOM     78  C   UNL A   1      31.369  28.317  24.805  1.00  0.00     0.029 A 
BRANCH  76  79
ATOM     79  S   UNL A   1      30.245  25.817  24.284  1.00  0.00    -0.020 S 
ATOM     80  O   UNL A   1      30.263  25.972  25.884  1.00  0.00    -0.768 OA
ATOM     81  O   UNL A   1      28.921  26.330  23.813  1.00  0.00    -0.269 OA
ENDBRANCH  76  79
ENDBRANCH  72  74
ENDBRANCH  71  72
ENDBRANCH  70  71
ENDBRANCH  69  70
ENDBRANCH  68  69
ENDBRANCH  67  68
ENDBRANCH  66  67
ENDBRANCH  65  66
ENDBRANCH   1  65
TORSDOF 21
ENDMDL
MODEL 3
REMARK VINA RESULT:      -8.9      1.485      2.312
REMARK SMILES O=C(OCCOCCOCCOCCOC(=O)c1sccc1[S@](=O)[O-])c1ccc(-c2c3nc(c(-c4c(F)cccc4F)c4ccc([nH]4)c(-c4c(F)cccc4F)c4nc(c(-c5c(F)cccc5F)c5ccc2[nH]5)C=C4)C=C3)cc1
REMARK SMILES IDX 8 1 7 2 6 3 5 4 4 5 3 6 2 7 1 8 26 9 27 10 79 11 28 12 78 13
REMARK SMILES IDX 29 14 30 15 31 16 72 17 32 18 77 19 71 20 73 21 33 22 76 23
REMARK SMILES IDX 70 24 69 25 34 27 60 28 43 29 59 30 44 31 47 32 58 33 74 34
REMARK SMILES IDX 45 35 46 36 57 38 75 39 48 40 35 41 36 42 41 43 37 44 38 45
REMARK SMILES IDX 40 46 42 47 39 48 61 49 62 50 67 51 63 52 64 53 66 54 68 55
REMARK SMILES IDX 65 56 49 57 50 58 55 59 51 60 52 61 54 62 56 63 53 64 9 65
REMARK SMILES IDX 10 66 11 67 12 68 13 69 14 70 15 71 16 72 17 73 18 74 19 75
REMARK SMILES IDX 22 76 20 77 21 78 23 79 25 80 24 81
REMARK H PARENT 73 26 47 37
REMARK Flexibility Score: inf
ROOT
ATOM      1  C   UNL A   1      35.752  22.423  24.895  1.00  0.00     0.188 C 
ENDROOT
BRANCH   1   2
ATOM      2  C   UNL A   1      37.259  22.316  24.647  1.00  0.00     0.188 C 
BRANCH   2   3
ATOM      3  O   UNL A   1      37.820  21.311  25.485  1.00  0.00    -0.376 OA
BRANCH   3   4
ATOM      4  C   UNL A   1      38.208  20.078  24.895  1.00  0.00     0.202 C 
BRANCH   4   5
ATOM      5  C   UNL A   1      39.074  19.148  25.750  1.00  0.00     0.261 C 
BRANCH   5   6
ATOM      6  O   UNL A   1      40.479  19.176  25.433  1.00  0.00    -0.460 OA
BRANCH   6   7
ATOM      7  C   UNL A   1      41.506  19.588  26.220  1.00  0.00     0.338 C 
ATOM      8  O   UNL A   1      42.354  18.782  26.590  1.00  0.00    -0.246 OA
BRANCH   7   9
ATOM      9  C   UNL A   1      41.656  21.007  26.631  1.00  0.00     0.060 A 
ATOM     10  C   UNL A   1      41.253  22.068  25.832  1.00  0.00     0.016 A 
ATOM     11  C   UNL A   1      42.141  21.299  27.910  1.00  0.00     0.016 A 
ATOM     12  C   UNL A   1      41.532  23.375  26.163  1.00  0.00     0.010 A 
ATOM     13  C   UNL A   1      42.295  22.629  28.320  1.00  0.00     0.010 A 
ATOM     14  C   UNL A   1      42.045  23.674  27.418  1.00  0.00    -0.014 A 
BRANCH  14  15
ATOM     15  C   UNL A   1      42.414  25.079  27.674  1.00  0.00     0.031 A 
ATOM     16  C   UNL A   1      43.706  25.584  27.108  1.00  0.00     0.074 A 
ATOM     17  C   UNL A   1      41.514  25.915  28.231  1.00  0.00     0.049 A 
ATOM     18  N   UNL A   1      44.262  26.757  27.237  1.00  0.00    -0.248 NA
ATOM     19  C   UNL A   1      44.475  24.642  26.276  1.00  0.00     0.031 C 
ATOM     20  C   UNL A   1      40.170  25.535  28.685  1.00  0.00     0.029 A 
ATOM     21  N   UNL A   1      41.566  27.263  28.461  1.00  0.00    -0.354 N 
ATOM     22  C   UNL A   1      45.460  26.679  26.538  1.00  0.00     0.074 A 
ATOM     23  C   UNL A   1      45.562  25.343  26.000  1.00  0.00     0.031 C 
ATOM     24  C   UNL A   1      39.511  26.632  29.086  1.00  0.00     0.029 A 
ATOM     25  C   UNL A   1      40.417  27.769  29.022  1.00  0.00     0.049 A 
ATOM     26  H   UNL A   1      42.350  27.818  28.245  1.00  0.00     0.167 HD
ATOM     27  C   UNL A   1      46.388  27.647  26.365  1.00  0.00     0.037 A 
ATOM     28  C   UNL A   1      40.152  29.007  29.479  1.00  0.00     0.037 A 
ATOM     29  C   UNL A   1      46.245  28.972  26.902  1.00  0.00     0.049 A 
ATOM     30  C   UNL A   1      41.243  30.035  29.363  1.00  0.00     0.074 A 
ATOM     31  C   UNL A   1      47.146  30.018  26.883  1.00  0.00     0.029 A 
ATOM     32  N   UNL A   1      45.102  29.431  27.546  1.00  0.00    -0.354 N 
ATOM     33  N   UNL A   1      42.425  29.925  28.802  1.00  0.00    -0.248 NA
ATOM     34  C   UNL A   1      40.977  31.348  29.959  1.00  0.00     0.031 C 
ATOM     35  C   UNL A   1      46.561  31.101  27.551  1.00  0.00     0.029 A 
ATOM     36  C   UNL A   1      45.277  30.744  27.938  1.00  0.00     0.049 A 
ATOM     37  H   UNL A   1      44.290  28.898  27.701  1.00  0.00     0.167 HD
ATOM     38  C   UNL A   1      43.042  31.155  28.971  1.00  0.00     0.074 A 
ATOM     39  C   UNL A   1      42.086  32.005  29.654  1.00  0.00     0.031 C 
ATOM     40  C   UNL A   1      44.289  31.550  28.612  1.00  0.00     0.037 A 
BRANCH  27  41
ATOM     41  C   UNL A   1      47.639  27.268  25.630  1.00  0.00     0.057 A 
ATOM     42  C   UNL A   1      48.784  26.806  26.293  1.00  0.00     0.134 A 
ATOM     43  C   UNL A   1      47.713  27.413  24.239  1.00  0.00     0.134 A 
ATOM     44  F   UNL A   1      48.793  26.681  27.629  1.00  0.00    -0.206 F 
ATOM     45  C   UNL A   1      49.965  26.526  25.601  1.00  0.00     0.040 A 
ATOM     46  C   UNL A   1      48.879  27.113  23.534  1.00  0.00     0.040 A 
ATOM     47  F   UNL A   1      46.658  27.864  23.544  1.00  0.00    -0.206 F 
ATOM     48  C   UNL A   1      50.012  26.674  24.216  1.00  0.00     0.006 A 
ENDBRANCH  27  41
BRANCH  28  49
ATOM     49  C   UNL A   1      38.863  29.310  30.157  1.00  0.00     0.057 A 
ATOM     50  C   UNL A   1      37.767  29.834  29.461  1.00  0.00     0.134 A 
ATOM     51  C   UNL A   1      38.707  29.118  31.538  1.00  0.00     0.134 A 
ATOM     52  F   UNL A   1      37.850  30.062  28.142  1.00  0.00    -0.206 F 
ATOM     53  C   UNL A   1      36.580  30.180  30.114  1.00  0.00     0.040 A 
ATOM     54  C   UNL A   1      37.515  29.425  32.196  1.00  0.00     0.040 A 
ATOM     55  F   UNL A   1      39.712  28.616  32.271  1.00  0.00    -0.206 F 
ATOM     56  C   UNL A   1      36.451  29.971  31.485  1.00  0.00     0.006 A 
ENDBRANCH  28  49
BRANCH  40  57
ATOM     57  C   UNL A   1      44.657  32.967  28.930  1.00  0.00     0.057 A 
ATOM     58  C   UNL A   1      44.371  34.019  28.052  1.00  0.00     0.134 A 
ATOM     59  C   UNL A   1      45.285  33.279  30.142  1.00  0.00     0.134 A 
ATOM     60  F   UNL A   1      43.784  33.776  26.870  1.00  0.00    -0.206 F 
ATOM     61  C   UNL A   1      44.725  35.332  28.355  1.00  0.00     0.040 A 
ATOM     62  C   UNL A   1      45.617  34.593  30.469  1.00  0.00     0.040 A 
ATOM     63  F   UNL A   1      45.576  32.315  31.028  1.00  0.00    -0.206 F 
ATOM     64  C   UNL A   1      45.345  35.621  29.569  1.00  0.00     0.006 A 
ENDBRANCH  40  57
ENDBRANCH  14  15
ENDBRANCH   7   9
ENDBRANCH   6   7
ENDBRANCH   5   6
ENDBRANCH   4   5
ENDBRANCH   3   4
ENDBRANCH   2   3
ENDBRANCH   1   2
BRANCH   1  65
ATOM     65  O   UNL A   1      35.023  21.195  24.817  1.00  0.00    -0.377 OA
BRANCH  65  66
ATOM     66  C   UNL A   1      33.841  21.113  25.609  1.00  0.00     0.188 C 
BRANCH  66  67
ATOM     67  C   UNL A   1      32.474  21.235  24.895  1.00  0.00     0.188 C 
BRANCH  67  68
ATOM     68  O   UNL A   1      31.412  21.662  25.737  1.00  0.00    -0.376 OA
BRANCH  68  69
ATOM     69  C   UNL A   1      31.038  23.031  25.627  1.00  0.00     0.202 C 
BRANCH  69  70
ATOM     70  C   UNL A   1      31.261  23.916  26.864  1.00  0.00     0.261 C 
BRANCH  70  71
ATOM     71  O   UNL A   1      31.489  25.312  26.616  1.00  0.00    -0.459 OA
BRANCH  71  72
ATOM     72  C   UNL A   1      32.622  25.710  25.968  1.00  0.00     0.349 C 
ATOM     73  O   UNL A   1      33.718  25.233  26.139  1.00  0.00    -0.245 OA
BRANCH  72  74
ATOM     74  C   UNL A   1      32.231  26.724  25.003  1.00  0.00     0.127 A 
ATOM     75  S   UNL A   1      31.386  28.123  25.535  1.00  0.00    -0.136 S 
ATOM     76  C   UNL A   1      32.517  26.813  23.656  1.00  0.00     0.050 A 
ATOM     77  C   UNL A   1      31.707  28.945  24.062  1.00  0.00     0.067 A 
ATOM     78  C   UNL A   1      32.272  28.110  23.122  1.00  0.00     0.029 A 
BRANCH  76  79
ATOM     79  S   UNL A   1      33.171  25.500  22.715  1.00  0.00    -0.020 S 
ATOM     80  O   UNL A   1      31.727  24.828  22.493  1.00  0.00    -0.768 OA
ATOM     81  O   UNL A   1      33.586  26.080  21.400  1.00  0.00    -0.269 OA
ENDBRANCH  76  79
ENDBRANCH  72  74
ENDBRANCH  71  72
ENDBRANCH  70  71
ENDBRANCH  69  70
ENDBRANCH  68  69
ENDBRANCH  67  68
ENDBRANCH  66  67
ENDBRANCH  65  66
ENDBRANCH   1  65
TORSDOF 21
ENDMDL
