MODEL 1
REMARK VINA RESULT:     -10.6      0.000      0.000
REMARK SMILES O=C(OCCOCCOCCOCCOC(=O)[C@@H]1CCCC[C@@H]1C(=O)Nc1cc(C(F)(F)F)cc(C(F)(F)F)c1)c1ccc(-c2c3nc(c(-c4c(F)cccc4F)c4ccc([nH]4)c(-c4c(F)cccc4F)c4nc(c(-c5c(F)cccc5F)c5ccc2[nH]5)C=C4)C=C3)cc1
REMARK SMILES IDX 10 1 9 2 8 3 7 4 6 5 5 6 4 7 3 8 2 9 1 10 41 11 42 12 94 13
REMARK SMILES IDX 43 14 93 15 44 16 45 17 46 18 87 19 47 20 92 21 86 22 88 23
REMARK SMILES IDX 48 24 91 25 85 26 84 27 49 29 75 30 58 31 74 32 59 33 62 34
REMARK SMILES IDX 73 35 89 36 60 37 61 38 72 40 90 41 63 42 50 43 51 44 56 45
REMARK SMILES IDX 52 46 53 47 55 48 57 49 54 50 76 51 77 52 82 53 78 54 79 55
REMARK SMILES IDX 81 56 83 57 80 58 64 59 65 60 70 61 66 62 67 63 69 64 71 65
REMARK SMILES IDX 68 66 11 67 12 68 13 69 14 70 15 71 16 72 17 73 18 74 19 75
REMARK SMILES IDX 23 76 20 77 22 78 21 79 24 80 25 81 26 82 27 84 28 85 40 86
REMARK SMILES IDX 29 87 35 88 34 89 30 90 31 91 32 92 33 93 36 94 37 95 38 96
REMARK SMILES IDX 39 97
REMARK H PARENT 88 28 62 39 26 83
REMARK Flexibility Score: inf
ROOT
ATOM      1  C   UNL A   1      39.294  21.887  26.477  1.00  0.00     0.188 C 
ENDROOT
BRANCH   1   2
ATOM      2  O   UNL A   1      39.956  20.711  26.036  1.00  0.00    -0.377 OA
BRANCH   2   3
ATOM      3  C   UNL A   1      40.938  20.199  26.941  1.00  0.00     0.188 C 
BRANCH   3   4
ATOM      4  C   UNL A   1      42.340  20.003  26.346  1.00  0.00     0.188 C 
BRANCH   4   5
ATOM      5  O   UNL A   1      42.655  21.015  25.389  1.00  0.00    -0.376 OA
BRANCH   5   6
ATOM      6  C   UNL A   1      43.437  22.125  25.839  1.00  0.00     0.202 C 
BRANCH   6   7
ATOM      7  C   UNL A   1      43.019  23.463  25.247  1.00  0.00     0.261 C 
BRANCH   7   8
ATOM      8  O   UNL A   1      41.952  24.089  25.974  1.00  0.00    -0.460 OA
BRANCH   8   9
ATOM      9  C   UNL A   1      41.633  25.405  26.031  1.00  0.00     0.338 C 
ATOM     10  O   UNL A   1      41.337  25.976  24.982  1.00  0.00    -0.246 OA
BRANCH   9  11
ATOM     11  C   UNL A   1      41.575  26.207  27.291  1.00  0.00     0.060 A 
ATOM     12  C   UNL A   1      40.670  26.021  28.333  1.00  0.00     0.016 A 
ATOM     13  C   UNL A   1      42.566  27.188  27.462  1.00  0.00     0.016 A 
ATOM     14  C   UNL A   1      40.673  26.812  29.462  1.00  0.00     0.010 A 
ATOM     15  C   UNL A   1      42.603  27.981  28.613  1.00  0.00     0.010 A 
ATOM     16  C   UNL A   1      41.625  27.810  29.598  1.00  0.00    -0.014 A 
BRANCH  16  17
ATOM     17  C   UNL A   1      41.386  28.777  30.676  1.00  0.00     0.031 A 
ATOM     18  C   UNL A   1      40.221  29.704  30.513  1.00  0.00     0.074 A 
ATOM     19  C   UNL A   1      42.039  28.643  31.843  1.00  0.00     0.049 A 
ATOM     20  N   UNL A   1      39.798  30.651  31.302  1.00  0.00    -0.248 NA
ATOM     21  C   UNL A   1      39.401  29.521  29.300  1.00  0.00     0.031 C 
ATOM     22  C   UNL A   1      43.054  27.622  32.132  1.00  0.00     0.029 A 
ATOM     23  N   UNL A   1      41.911  29.325  33.020  1.00  0.00    -0.354 N 
ATOM     24  C   UNL A   1      38.686  31.191  30.670  1.00  0.00     0.074 A 
ATOM     25  C   UNL A   1      38.503  30.483  29.427  1.00  0.00     0.031 C 
ATOM     26  C   UNL A   1      43.445  27.742  33.411  1.00  0.00     0.029 A 
ATOM     27  C   UNL A   1      42.772  28.892  33.998  1.00  0.00     0.049 A 
ATOM     28  H   UNL A   1      41.264  30.057  33.153  1.00  0.00     0.167 HD
ATOM     29  C   UNL A   1      37.894  32.195  31.103  1.00  0.00     0.037 A 
ATOM     30  C   UNL A   1      43.014  29.417  35.213  1.00  0.00     0.037 A 
ATOM     31  C   UNL A   1      38.118  32.873  32.349  1.00  0.00     0.049 A 
ATOM     32  C   UNL A   1      42.217  30.629  35.609  1.00  0.00     0.074 A 
ATOM     33  C   UNL A   1      37.477  33.980  32.865  1.00  0.00     0.029 A 
ATOM     34  N   UNL A   1      39.076  32.484  33.280  1.00  0.00    -0.354 N 
ATOM     35  N   UNL A   1      41.241  31.224  34.960  1.00  0.00    -0.248 NA
ATOM     36  C   UNL A   1      42.556  31.254  36.890  1.00  0.00     0.031 C 
ATOM     37  C   UNL A   1      38.077  34.287  34.093  1.00  0.00     0.029 A 
ATOM     38  C   UNL A   1      39.051  33.336  34.366  1.00  0.00     0.049 A 
ATOM     39  H   UNL A   1      39.682  31.715  33.180  1.00  0.00     0.167 HD
ATOM     40  C   UNL A   1      40.838  32.282  35.760  1.00  0.00     0.074 A 
ATOM     41  C   UNL A   1      41.659  32.226  36.956  1.00  0.00     0.031 C 
ATOM     42  C   UNL A   1      39.887  33.224  35.536  1.00  0.00     0.037 A 
BRANCH  29  43
ATOM     43  C   UNL A   1      36.799  32.644  30.183  1.00  0.00     0.057 A 
ATOM     44  C   UNL A   1      37.038  33.494  29.094  1.00  0.00     0.134 A 
ATOM     45  C   UNL A   1      35.473  32.267  30.428  1.00  0.00     0.134 A 
ATOM     46  F   UNL A   1      38.280  33.928  28.828  1.00  0.00    -0.206 F 
ATOM     47  C   UNL A   1      35.993  33.972  28.299  1.00  0.00     0.040 A 
ATOM     48  C   UNL A   1      34.424  32.719  29.625  1.00  0.00     0.040 A 
ATOM     49  F   UNL A   1      35.172  31.470  31.464  1.00  0.00    -0.206 F 
ATOM     50  C   UNL A   1      34.682  33.581  28.562  1.00  0.00     0.006 A 
ENDBRANCH  29  43
BRANCH  30  51
ATOM     51  C   UNL A   1      44.096  28.872  36.078  1.00  0.00     0.057 A 
ATOM     52  C   UNL A   1      43.881  27.793  36.941  1.00  0.00     0.134 A 
ATOM     53  C   UNL A   1      45.371  29.457  36.095  1.00  0.00     0.134 A 
ATOM     54  F   UNL A   1      42.681  27.195  36.988  1.00  0.00    -0.206 F 
ATOM     55  C   UNL A   1      44.877  27.337  37.808  1.00  0.00     0.040 A 
ATOM     56  C   UNL A   1      46.386  28.990  36.932  1.00  0.00     0.040 A 
ATOM     57  F   UNL A   1      45.654  30.495  35.294  1.00  0.00    -0.206 F 
ATOM     58  C   UNL A   1      46.136  27.935  37.803  1.00  0.00     0.006 A 
ENDBRANCH  30  51
BRANCH  42  59
ATOM     59  C   UNL A   1      39.668  34.224  36.628  1.00  0.00     0.057 A 
ATOM     60  C   UNL A   1      38.889  33.930  37.755  1.00  0.00     0.134 A 
ATOM     61  C   UNL A   1      40.276  35.483  36.565  1.00  0.00     0.134 A 
ATOM     62  F   UNL A   1      38.271  32.745  37.864  1.00  0.00    -0.206 F 
ATOM     63  C   UNL A   1      38.697  34.869  38.767  1.00  0.00     0.040 A 
ATOM     64  C   UNL A   1      40.120  36.416  37.587  1.00  0.00     0.040 A 
ATOM     65  F   UNL A   1      41.044  35.817  35.516  1.00  0.00    -0.206 F 
ATOM     66  C   UNL A   1      39.322  36.114  38.687  1.00  0.00     0.006 A 
ENDBRANCH  42  59
ENDBRANCH  16  17
ENDBRANCH   9  11
ENDBRANCH   8   9
ENDBRANCH   7   8
ENDBRANCH   6   7
ENDBRANCH   5   6
ENDBRANCH   4   5
ENDBRANCH   3   4
ENDBRANCH   2   3
ENDBRANCH   1   2
BRANCH   1  67
ATOM     67  C   UNL A   1      38.012  22.341  25.745  1.00  0.00     0.188 C 
BRANCH  67  68
ATOM     68  O   UNL A   1      37.491  21.389  24.831  1.00  0.00    -0.376 OA
BRANCH  68  69
ATOM     69  C   UNL A   1      36.293  20.735  25.240  1.00  0.00     0.202 C 
BRANCH  69  70
ATOM     70  C   UNL A   1      35.318  21.539  26.120  1.00  0.00     0.261 C 
BRANCH  70  71
ATOM     71  O   UNL A   1      33.933  21.487  25.749  1.00  0.00    -0.463 OA
BRANCH  71  72
ATOM     72  C   UNL A   1      33.492  22.254  24.720  1.00  0.00     0.309 C 
ATOM     73  O   UNL A   1      33.616  21.984  23.527  1.00  0.00    -0.252 OA
BRANCH  72  74
ATOM     74  C   UNL A   1      32.621  23.366  25.287  1.00  0.00     0.111 C 
ATOM     75  C   UNL A   1      31.457  23.722  24.335  1.00  0.00     0.016 C 
ATOM     76  C   UNL A   1      33.336  24.593  25.849  1.00  0.00     0.093 C 
ATOM     77  C   UNL A   1      30.394  24.563  25.037  1.00  0.00     0.001 C 
ATOM     78  C   UNL A   1      32.230  25.448  26.521  1.00  0.00     0.014 C 
ATOM     79  C   UNL A   1      31.024  25.801  25.644  1.00  0.00     0.001 C 
BRANCH  76  80
ATOM     80  C   UNL A   1      34.368  25.066  24.804  1.00  0.00     0.228 C 
ATOM     81  O   UNL A   1      35.460  24.495  24.727  1.00  0.00    -0.274 OA
ATOM     82  N   UNL A   1      34.040  25.964  23.834  1.00  0.00    -0.326 N 
ATOM     83  H   UNL A   1      34.254  25.717  22.904  1.00  0.00     0.169 HD
BRANCH  82  84
ATOM     84  C   UNL A   1      33.428  27.199  24.037  1.00  0.00     0.042 A 
ATOM     85  C   UNL A   1      32.372  27.578  23.217  1.00  0.00     0.039 A 
ATOM     86  C   UNL A   1      33.811  28.000  25.108  1.00  0.00     0.039 A 
ATOM     87  C   UNL A   1      31.571  28.672  23.587  1.00  0.00     0.058 A 
ATOM     88  C   UNL A   1      32.995  29.046  25.539  1.00  0.00     0.058 A 
ATOM     89  C   UNL A   1      31.873  29.380  24.767  1.00  0.00     0.026 A 
BRANCH  87  90
ATOM     90  C   UNL A   1      30.343  28.996  22.772  1.00  0.00     0.416 C 
ATOM     91  F   UNL A   1      30.589  29.925  21.809  1.00  0.00    -0.166 F 
ATOM     92  F   UNL A   1      29.854  27.903  22.125  1.00  0.00    -0.166 F 
ATOM     93  F   UNL A   1      29.315  29.484  23.516  1.00  0.00    -0.166 F 
ENDBRANCH  87  90
BRANCH  88  94
ATOM     94  C   UNL A   1      33.251  29.684  26.885  1.00  0.00     0.416 C 
ATOM     95  F   UNL A   1      33.596  30.992  26.797  1.00  0.00    -0.166 F 
ATOM     96  F   UNL A   1      32.151  29.628  27.688  1.00  0.00    -0.166 F 
ATOM     97  F   UNL A   1      34.246  29.072  27.590  1.00  0.00    -0.166 F 
ENDBRANCH  88  94
ENDBRANCH  82  84
ENDBRANCH  76  80
ENDBRANCH  72  74
ENDBRANCH  71  72
ENDBRANCH  70  71
ENDBRANCH  69  70
ENDBRANCH  68  69
ENDBRANCH  67  68
ENDBRANCH   1  67
TORSDOF 24
ENDMDL
MODEL 2
REMARK VINA RESULT:     -10.2      1.675      6.284
REMARK SMILES O=C(OCCOCCOCCOCCOC(=O)[C@@H]1CCCC[C@@H]1C(=O)Nc1cc(C(F)(F)F)cc(C(F)(F)F)c1)c1ccc(-c2c3nc(c(-c4c(F)cccc4F)c4ccc([nH]4)c(-c4c(F)cccc4F)c4nc(c(-c5c(F)cccc5F)c5ccc2[nH]5)C=C4)C=C3)cc1
REMARK SMILES IDX 10 1 9 2 8 3 7 4 6 5 5 6 4 7 3 8 2 9 1 10 41 11 42 12 94 13
REMARK SMILES IDX 43 14 93 15 44 16 45 17 46 18 87 19 47 20 92 21 86 22 88 23
REMARK SMILES IDX 48 24 91 25 85 26 84 27 49 29 75 30 58 31 74 32 59 33 62 34
REMARK SMILES IDX 73 35 89 36 60 37 61 38 72 40 90 41 63 42 50 43 51 44 56 45
REMARK SMILES IDX 52 46 53 47 55 48 57 49 54 50 76 51 77 52 82 53 78 54 79 55
REMARK SMILES IDX 81 56 83 57 80 58 64 59 65 60 70 61 66 62 67 63 69 64 71 65
REMARK SMILES IDX 68 66 11 67 12 68 13 69 14 70 15 71 16 72 17 73 18 74 19 75
REMARK SMILES IDX 23 76 20 77 22 78 21 79 24 80 25 81 26 82 27 84 28 85 40 86
REMARK SMILES IDX 29 87 35 88 34 89 30 90 31 91 32 92 33 93 36 94 37 95 38 96
REMARK SMILES IDX 39 97
REMARK H PARENT 88 28 62 39 26 83
REMARK Flexibility Score: inf
ROOT
ATOM      1  C   UNL A   1      38.138  23.081  25.893  1.00  0.00     0.188 C 
ENDROOT
BRANCH   1   2
ATOM      2  O   UNL A   1      38.985  24.042  26.504  1.00  0.00    -0.377 OA
BRANCH   2   3
ATOM      3  C   UNL A   1      39.825  23.530  27.543  1.00  0.00     0.188 C 
BRANCH   3   4
ATOM      4  C   UNL A   1      40.514  22.194  27.232  1.00  0.00     0.188 C 
BRANCH   4   5
ATOM      5  O   UNL A   1      41.895  22.372  26.918  1.00  0.00    -0.376 OA
BRANCH   5   6
ATOM      6  C   UNL A   1      42.283  22.217  25.550  1.00  0.00     0.202 C 
BRANCH   6   7
ATOM      7  C   UNL A   1      43.216  23.305  25.040  1.00  0.00     0.261 C 
BRANCH   7   8
ATOM      8  O   UNL A   1      44.461  23.355  25.749  1.00  0.00    -0.460 OA
BRANCH   8   9
ATOM      9  C   UNL A   1      44.992  24.391  26.445  1.00  0.00     0.338 C 
ATOM     10  O   UNL A   1      46.192  24.628  26.307  1.00  0.00    -0.246 OA
BRANCH   9  11
ATOM     11  C   UNL A   1      44.210  25.297  27.340  1.00  0.00     0.060 A 
ATOM     12  C   UNL A   1      44.188  26.688  27.274  1.00  0.00     0.016 A 
ATOM     13  C   UNL A   1      43.371  24.681  28.285  1.00  0.00     0.016 A 
ATOM     14  C   UNL A   1      43.447  27.455  28.146  1.00  0.00     0.010 A 
ATOM     15  C   UNL A   1      42.590  25.443  29.159  1.00  0.00     0.010 A 
ATOM     16  C   UNL A   1      42.661  26.839  29.107  1.00  0.00    -0.014 A 
BRANCH  16  17
ATOM     17  C   UNL A   1      42.138  27.715  30.162  1.00  0.00     0.031 A 
ATOM     18  C   UNL A   1      42.951  27.835  31.413  1.00  0.00     0.074 A 
ATOM     19  C   UNL A   1      41.116  28.544  29.887  1.00  0.00     0.049 A 
ATOM     20  N   UNL A   1      42.714  28.526  32.493  1.00  0.00    -0.248 NA
ATOM     21  C   UNL A   1      44.225  27.091  31.443  1.00  0.00     0.031 C 
ATOM     22  C   UNL A   1      40.404  28.613  28.605  1.00  0.00     0.029 A 
ATOM     23  N   UNL A   1      40.533  29.522  30.642  1.00  0.00    -0.354 N 
ATOM     24  C   UNL A   1      43.789  28.277  33.335  1.00  0.00     0.074 A 
ATOM     25  C   UNL A   1      44.675  27.364  32.655  1.00  0.00     0.031 C 
ATOM     26  C   UNL A   1      39.488  29.594  28.664  1.00  0.00     0.029 A 
ATOM     27  C   UNL A   1      39.496  30.158  30.006  1.00  0.00     0.049 A 
ATOM     28  H   UNL A   1      40.828  29.748  31.555  1.00  0.00     0.167 HD
ATOM     29  C   UNL A   1      44.006  28.777  34.571  1.00  0.00     0.037 A 
ATOM     30  C   UNL A   1      38.623  31.059  30.491  1.00  0.00     0.037 A 
ATOM     31  C   UNL A   1      43.093  29.683  35.208  1.00  0.00     0.049 A 
ATOM     32  C   UNL A   1      38.801  31.487  31.922  1.00  0.00     0.074 A 
ATOM     33  C   UNL A   1      43.116  30.180  36.494  1.00  0.00     0.029 A 
ATOM     34  N   UNL A   1      41.980  30.231  34.578  1.00  0.00    -0.354 N 
ATOM     35  N   UNL A   1      39.752  31.160  32.770  1.00  0.00    -0.248 NA
ATOM     36  C   UNL A   1      37.789  32.391  32.473  1.00  0.00     0.031 C 
ATOM     37  C   UNL A   1      41.990  30.997  36.657  1.00  0.00     0.029 A 
ATOM     38  C   UNL A   1      41.301  31.055  35.453  1.00  0.00     0.049 A 
ATOM     39  H   UNL A   1      41.716  30.058  33.645  1.00  0.00     0.167 HD
ATOM     40  C   UNL A   1      39.463  31.831  33.948  1.00  0.00     0.074 A 
ATOM     41  C   UNL A   1      38.262  32.607  33.692  1.00  0.00     0.031 C 
ATOM     42  C   UNL A   1      40.113  31.811  35.138  1.00  0.00     0.037 A 
BRANCH  29  43
ATOM     43  C   UNL A   1      45.216  28.280  35.303  1.00  0.00     0.057 A 
ATOM     44  C   UNL A   1      45.166  27.178  36.168  1.00  0.00     0.134 A 
ATOM     45  C   UNL A   1      46.437  28.955  35.189  1.00  0.00     0.134 A 
ATOM     46  F   UNL A   1      44.016  26.511  36.357  1.00  0.00    -0.206 F 
ATOM     47  C   UNL A   1      46.282  26.782  36.910  1.00  0.00     0.040 A 
ATOM     48  C   UNL A   1      47.565  28.553  35.906  1.00  0.00     0.040 A 
ATOM     49  F   UNL A   1      46.549  30.029  34.392  1.00  0.00    -0.206 F 
ATOM     50  C   UNL A   1      47.487  27.468  36.777  1.00  0.00     0.006 A 
ENDBRANCH  29  43
BRANCH  30  51
ATOM     51  C   UNL A   1      37.475  31.530  29.670  1.00  0.00     0.057 A 
ATOM     52  C   UNL A   1      36.325  30.755  29.492  1.00  0.00     0.134 A 
ATOM     53  C   UNL A   1      37.524  32.760  28.996  1.00  0.00     0.134 A 
ATOM     54  F   UNL A   1      36.216  29.560  30.093  1.00  0.00    -0.206 F 
ATOM     55  C   UNL A   1      35.284  31.166  28.655  1.00  0.00     0.040 A 
ATOM     56  C   UNL A   1      36.478  33.199  28.184  1.00  0.00     0.040 A 
ATOM     57  F   UNL A   1      38.595  33.559  29.119  1.00  0.00    -0.206 F 
ATOM     58  C   UNL A   1      35.358  32.394  28.000  1.00  0.00     0.006 A 
ENDBRANCH  30  51
BRANCH  42  59
ATOM     59  C   UNL A   1      39.557  32.686  36.218  1.00  0.00     0.057 A 
ATOM     60  C   UNL A   1      40.020  33.992  36.423  1.00  0.00     0.134 A 
ATOM     61  C   UNL A   1      38.520  32.224  37.036  1.00  0.00     0.134 A 
ATOM     62  F   UNL A   1      41.022  34.484  35.678  1.00  0.00    -0.206 F 
ATOM     63  C   UNL A   1      39.490  34.798  37.429  1.00  0.00     0.040 A 
ATOM     64  C   UNL A   1      37.958  33.033  38.021  1.00  0.00     0.040 A 
ATOM     65  F   UNL A   1      38.027  30.986  36.878  1.00  0.00    -0.206 F 
ATOM     66  C   UNL A   1      38.449  34.320  38.225  1.00  0.00     0.006 A 
ENDBRANCH  42  59
ENDBRANCH  16  17
ENDBRANCH   9  11
ENDBRANCH   8   9
ENDBRANCH   7   8
ENDBRANCH   6   7
ENDBRANCH   5   6
ENDBRANCH   4   5
ENDBRANCH   3   4
ENDBRANCH   2   3
ENDBRANCH   1   2
BRANCH   1  67
ATOM     67  C   UNL A   1      37.020  23.567  24.945  1.00  0.00     0.188 C 
BRANCH  67  68
ATOM     68  O   UNL A   1      36.597  22.601  23.995  1.00  0.00    -0.376 OA
BRANCH  68  69
ATOM     69  C   UNL A   1      35.556  23.018  23.117  1.00  0.00     0.202 C 
BRANCH  69  70
ATOM     70  C   UNL A   1      34.660  24.179  23.588  1.00  0.00     0.261 C 
BRANCH  70  71
ATOM     71  O   UNL A   1      33.311  24.181  23.101  1.00  0.00    -0.463 OA
BRANCH  71  72
ATOM     72  C   UNL A   1      32.357  23.504  23.787  1.00  0.00     0.309 C 
ATOM     73  O   UNL A   1      31.204  23.315  23.404  1.00  0.00    -0.252 OA
BRANCH  72  74
ATOM     74  C   UNL A   1      33.013  22.821  24.979  1.00  0.00     0.111 C 
ATOM     75  C   UNL A   1      32.794  21.292  24.954  1.00  0.00     0.016 C 
ATOM     76  C   UNL A   1      32.776  23.442  26.354  1.00  0.00     0.093 C 
ATOM     77  C   UNL A   1      33.729  20.575  25.924  1.00  0.00     0.001 C 
ATOM     78  C   UNL A   1      33.707  22.670  27.325  1.00  0.00     0.014 C 
ATOM     79  C   UNL A   1      33.571  21.144  27.320  1.00  0.00     0.001 C 
BRANCH  76  80
ATOM     80  C   UNL A   1      31.259  23.682  26.515  1.00  0.00     0.228 C 
ATOM     81  O   UNL A   1      30.498  22.715  26.613  1.00  0.00    -0.274 OA
ATOM     82  N   UNL A   1      30.755  24.925  26.748  1.00  0.00    -0.326 N 
ATOM     83  H   UNL A   1      30.143  25.024  27.513  1.00  0.00     0.169 HD
BRANCH  82  84
ATOM     84  C   UNL A   1      31.029  26.070  26.003  1.00  0.00     0.042 A 
ATOM     85  C   UNL A   1      30.224  26.382  24.912  1.00  0.00     0.039 A 
ATOM     86  C   UNL A   1      32.038  26.939  26.404  1.00  0.00     0.039 A 
ATOM     87  C   UNL A   1      30.308  27.661  24.338  1.00  0.00     0.058 A 
ATOM     88  C   UNL A   1      32.096  28.240  25.902  1.00  0.00     0.058 A 
ATOM     89  C   UNL A   1      31.226  28.593  24.861  1.00  0.00     0.026 A 
BRANCH  87  90
ATOM     90  C   UNL A   1      29.338  28.045  23.247  1.00  0.00     0.416 C 
ATOM     91  F   UNL A   1      29.903  28.000  22.011  1.00  0.00    -0.166 F 
ATOM     92  F   UNL A   1      28.263  27.211  23.200  1.00  0.00    -0.166 F 
ATOM     93  F   UNL A   1      28.834  29.300  23.390  1.00  0.00    -0.166 F 
ENDBRANCH  87  90
BRANCH  88  94
ATOM     94  C   UNL A   1      32.977  29.262  26.582  1.00  0.00     0.416 C 
ATOM     95  F   UNL A   1      32.393  29.830  27.667  1.00  0.00    -0.166 F 
ATOM     96  F   UNL A   1      34.146  28.714  27.016  1.00  0.00    -0.166 F 
ATOM     97  F   UNL A   1      33.341  30.290  25.762  1.00  0.00    -0.166 F 
ENDBRANCH  88  94
ENDBRANCH  82  84
ENDBRANCH  76  80
ENDBRANCH  72  74
ENDBRANCH  71  72
ENDBRANCH  70  71
ENDBRANCH  69  70
ENDBRANCH  68  69
ENDBRANCH  67  68
ENDBRANCH   1  67
TORSDOF 24
ENDMDL
MODEL 3
REMARK VINA RESULT:      -9.8      4.962      7.632
REMARK SMILES O=C(OCCOCCOCCOCCOC(=O)[C@@H]1CCCC[C@@H]1C(=O)Nc1cc(C(F)(F)F)cc(C(F)(F)F)c1)c1ccc(-c2c3nc(c(-c4c(F)cccc4F)c4ccc([nH]4)c(-c4c(F)cccc4F)c4nc(c(-c5c(F)cccc5F)c5ccc2[nH]5)C=C4)C=C3)cc1
REMARK SMILES IDX 10 1 9 2 8 3 7 4 6 5 5 6 4 7 3 8 2 9 1 10 41 11 42 12 94 13
REMARK SMILES IDX 43 14 93 15 44 16 45 17 46 18 87 19 47 20 92 21 86 22 88 23
REMARK SMILES IDX 48 24 91 25 85 26 84 27 49 29 75 30 58 31 74 32 59 33 62 34
REMARK SMILES IDX 73 35 89 36 60 37 61 38 72 40 90 41 63 42 50 43 51 44 56 45
REMARK SMILES IDX 52 46 53 47 55 48 57 49 54 50 76 51 77 52 82 53 78 54 79 55
REMARK SMILES IDX 81 56 83 57 80 58 64 59 65 60 70 61 66 62 67 63 69 64 71 65
REMARK SMILES IDX 68 66 11 67 12 68 13 69 14 70 15 71 16 72 17 73 18 74 19 75
REMARK SMILES IDX 23 76 20 77 22 78 21 79 24 80 25 81 26 82 27 84 28 85 40 86
REMARK SMILES IDX 29 87 35 88 34 89 30 90 31 91 32 92 33 93 36 94 37 95 38 96
REMARK SMILES IDX 39 97
REMARK H PARENT 88 28 62 39 26 83
REMARK Flexibility Score: inf
ROOT
ATOM      1  C   UNL A   1      41.077  22.241  27.003  1.00  0.00     0.188 C 
ENDROOT
BRANCH   1   2
ATOM      2  O   UNL A   1      40.831  20.878  27.312  1.00  0.00    -0.377 OA
BRANCH   2   3
ATOM      3  C   UNL A   1      40.728  20.013  26.177  1.00  0.00     0.188 C 
BRANCH   3   4
ATOM      4  C   UNL A   1      41.390  18.638  26.336  1.00  0.00     0.188 C 
BRANCH   4   5
ATOM      5  O   UNL A   1      42.577  18.528  25.551  1.00  0.00    -0.376 OA
BRANCH   5   6
ATOM      6  C   UNL A   1      43.822  18.808  26.197  1.00  0.00     0.202 C 
BRANCH   6   7
ATOM      7  C   UNL A   1      45.031  18.173  25.526  1.00  0.00     0.261 C 
BRANCH   7   8
ATOM      8  O   UNL A   1      45.631  19.019  24.536  1.00  0.00    -0.460 OA
BRANCH   8   9
ATOM      9  C   UNL A   1      45.093  20.097  23.913  1.00  0.00     0.338 C 
ATOM     10  O   UNL A   1      44.532  19.921  22.832  1.00  0.00    -0.246 OA
BRANCH   9  11
ATOM     11  C   UNL A   1      45.095  21.484  24.470  1.00  0.00     0.060 A 
ATOM     12  C   UNL A   1      44.514  22.601  23.875  1.00  0.00     0.016 A 
ATOM     13  C   UNL A   1      45.677  21.654  25.738  1.00  0.00     0.016 A 
ATOM     14  C   UNL A   1      44.570  23.853  24.449  1.00  0.00     0.010 A 
ATOM     15  C   UNL A   1      45.715  22.912  26.348  1.00  0.00     0.010 A 
ATOM     16  C   UNL A   1      45.189  24.019  25.677  1.00  0.00    -0.014 A 
BRANCH  16  17
ATOM     17  C   UNL A   1      45.453  25.407  26.076  1.00  0.00     0.031 A 
ATOM     18  C   UNL A   1      44.326  26.157  26.716  1.00  0.00     0.074 A 
ATOM     19  C   UNL A   1      46.717  25.865  26.085  1.00  0.00     0.049 A 
ATOM     20  N   UNL A   1      44.288  27.387  27.147  1.00  0.00    -0.248 NA
ATOM     21  C   UNL A   1      43.071  25.409  26.922  1.00  0.00     0.031 C 
ATOM     22  C   UNL A   1      47.896  25.102  25.655  1.00  0.00     0.029 A 
ATOM     23  N   UNL A   1      47.232  27.054  26.517  1.00  0.00    -0.354 N 
ATOM     24  C   UNL A   1      43.005  27.565  27.646  1.00  0.00     0.074 A 
ATOM     25  C   UNL A   1      42.286  26.329  27.455  1.00  0.00     0.031 C 
ATOM     26  C   UNL A   1      48.996  25.843  25.860  1.00  0.00     0.029 A 
ATOM     27  C   UNL A   1      48.591  27.152  26.352  1.00  0.00     0.049 A 
ATOM     28  H   UNL A   1      46.681  27.771  26.908  1.00  0.00     0.167 HD
ATOM     29  C   UNL A   1      42.483  28.674  28.213  1.00  0.00     0.037 A 
ATOM     30  C   UNL A   1      49.397  28.214  26.535  1.00  0.00     0.037 A 
ATOM     31  C   UNL A   1      43.239  29.884  28.380  1.00  0.00     0.049 A 
ATOM     32  C   UNL A   1      48.759  29.483  27.029  1.00  0.00     0.074 A 
ATOM     33  C   UNL A   1      42.817  31.118  28.828  1.00  0.00     0.029 A 
ATOM     34  N   UNL A   1      44.597  29.993  28.101  1.00  0.00    -0.354 N 
ATOM     35  N   UNL A   1      47.513  29.696  27.390  1.00  0.00    -0.248 NA
ATOM     36  C   UNL A   1      49.624  30.662  27.130  1.00  0.00     0.031 C 
ATOM     37  C   UNL A   1      43.913  31.988  28.778  1.00  0.00     0.029 A 
ATOM     38  C   UNL A   1      45.029  31.279  28.356  1.00  0.00     0.049 A 
ATOM     39  H   UNL A   1      45.167  29.261  27.770  1.00  0.00     0.167 HD
ATOM     40  C   UNL A   1      47.448  31.025  27.777  1.00  0.00     0.074 A 
ATOM     41  C   UNL A   1      48.790  31.560  27.633  1.00  0.00     0.031 C 
ATOM     42  C   UNL A   1      46.384  31.751  28.204  1.00  0.00     0.037 A 
BRANCH  29  43
ATOM     43  C   UNL A   1      41.035  28.626  28.597  1.00  0.00     0.057 A 
ATOM     44  C   UNL A   1      40.009  28.881  27.677  1.00  0.00     0.134 A 
ATOM     45  C   UNL A   1      40.665  28.380  29.924  1.00  0.00     0.134 A 
ATOM     46  F   UNL A   1      40.296  29.166  26.397  1.00  0.00    -0.206 F 
ATOM     47  C   UNL A   1      38.669  28.918  28.071  1.00  0.00     0.040 A 
ATOM     48  C   UNL A   1      39.327  28.390  30.324  1.00  0.00     0.040 A 
ATOM     49  F   UNL A   1      41.598  28.146  30.860  1.00  0.00    -0.206 F 
ATOM     50  C   UNL A   1      38.325  28.668  29.398  1.00  0.00     0.006 A 
ENDBRANCH  29  43
BRANCH  30  51
ATOM     51  C   UNL A   1      50.837  28.152  26.167  1.00  0.00     0.057 A 
ATOM     52  C   UNL A   1      51.848  28.117  27.133  1.00  0.00     0.134 A 
ATOM     53  C   UNL A   1      51.242  28.174  24.823  1.00  0.00     0.134 A 
ATOM     54  F   UNL A   1      51.535  28.110  28.437  1.00  0.00    -0.206 F 
ATOM     55  C   UNL A   1      53.201  28.139  26.782  1.00  0.00     0.040 A 
ATOM     56  C   UNL A   1      52.588  28.162  24.457  1.00  0.00     0.040 A 
ATOM     57  F   UNL A   1      50.330  28.206  23.840  1.00  0.00    -0.206 F 
ATOM     58  C   UNL A   1      53.574  28.158  25.439  1.00  0.00     0.006 A 
ENDBRANCH  30  51
BRANCH  42  59
ATOM     59  C   UNL A   1      46.655  33.174  28.582  1.00  0.00     0.057 A 
ATOM     60  C   UNL A   1      47.041  33.533  29.880  1.00  0.00     0.134 A 
ATOM     61  C   UNL A   1      46.563  34.189  27.623  1.00  0.00     0.134 A 
ATOM     62  F   UNL A   1      47.133  32.605  30.844  1.00  0.00    -0.206 F 
ATOM     63  C   UNL A   1      47.296  34.861  30.217  1.00  0.00     0.040 A 
ATOM     64  C   UNL A   1      46.849  35.515  27.940  1.00  0.00     0.040 A 
ATOM     65  F   UNL A   1      46.210  33.904  26.360  1.00  0.00    -0.206 F 
ATOM     66  C   UNL A   1      47.208  35.855  29.242  1.00  0.00     0.006 A 
ENDBRANCH  42  59
ENDBRANCH  16  17
ENDBRANCH   9  11
ENDBRANCH   8   9
ENDBRANCH   7   8
ENDBRANCH   6   7
ENDBRANCH   5   6
ENDBRANCH   4   5
ENDBRANCH   3   4
ENDBRANCH   2   3
ENDBRANCH   1   2
BRANCH   1  67
ATOM     67  C   UNL A   1      39.877  23.173  26.731  1.00  0.00     0.188 C 
BRANCH  67  68
ATOM     68  O   UNL A   1      38.658  22.496  26.463  1.00  0.00    -0.376 OA
BRANCH  68  69
ATOM     69  C   UNL A   1      37.789  23.139  25.535  1.00  0.00     0.202 C 
BRANCH  69  70
ATOM     70  C   UNL A   1      36.470  23.711  26.087  1.00  0.00     0.261 C 
BRANCH  70  71
ATOM     71  O   UNL A   1      35.280  22.964  25.797  1.00  0.00    -0.463 OA
BRANCH  71  72
ATOM     72  C   UNL A   1      34.079  23.595  25.816  1.00  0.00     0.309 C 
ATOM     73  O   UNL A   1      33.845  24.663  26.377  1.00  0.00    -0.252 OA
BRANCH  72  74
ATOM     74  C   UNL A   1      33.149  22.888  24.840  1.00  0.00     0.111 C 
ATOM     75  C   UNL A   1      33.830  21.669  24.181  1.00  0.00     0.016 C 
ATOM     76  C   UNL A   1      32.388  23.763  23.846  1.00  0.00     0.093 C 
ATOM     77  C   UNL A   1      32.815  20.762  23.490  1.00  0.00     0.001 C 
ATOM     78  C   UNL A   1      31.392  22.812  23.131  1.00  0.00     0.014 C 
ATOM     79  C   UNL A   1      31.999  21.559  22.491  1.00  0.00     0.001 C 
BRANCH  76  80
ATOM     80  C   UNL A   1      33.399  24.720  23.180  1.00  0.00     0.228 C 
ATOM     81  O   UNL A   1      34.516  24.300  22.864  1.00  0.00    -0.274 OA
ATOM     82  N   UNL A   1      33.032  25.960  22.753  1.00  0.00    -0.326 N 
ATOM     83  H   UNL A   1      33.257  26.199  21.825  1.00  0.00     0.169 HD
BRANCH  82  84
ATOM     84  C   UNL A   1      32.365  26.921  23.511  1.00  0.00     0.042 A 
ATOM     85  C   UNL A   1      32.932  27.365  24.700  1.00  0.00     0.039 A 
ATOM     86  C   UNL A   1      31.190  27.494  23.033  1.00  0.00     0.039 A 
ATOM     87  C   UNL A   1      32.423  28.521  25.315  1.00  0.00     0.058 A 
ATOM     88  C   UNL A   1      30.707  28.683  23.582  1.00  0.00     0.058 A 
ATOM     89  C   UNL A   1      31.330  29.190  24.731  1.00  0.00     0.026 A 
BRANCH  87  90
ATOM     90  C   UNL A   1      33.127  29.081  26.528  1.00  0.00     0.416 C 
ATOM     91  F   UNL A   1      34.100  28.253  26.993  1.00  0.00    -0.166 F 
ATOM     92  F   UNL A   1      33.738  30.268  26.262  1.00  0.00    -0.166 F 
ATOM     93  F   UNL A   1      32.292  29.315  27.576  1.00  0.00    -0.166 F 
ENDBRANCH  87  90
BRANCH  88  94
ATOM     94  C   UNL A   1      29.638  29.460  22.849  1.00  0.00     0.416 C 
ATOM     95  F   UNL A   1      29.158  30.508  23.563  1.00  0.00    -0.166 F 
ATOM     96  F   UNL A   1      30.103  29.974  21.675  1.00  0.00    -0.166 F 
ATOM     97  F   UNL A   1      28.557  28.701  22.509  1.00  0.00    -0.166 F 
ENDBRANCH  88  94
ENDBRANCH  82  84
ENDBRANCH  76  80
ENDBRANCH  72  74
ENDBRANCH  71  72
ENDBRANCH  70  71
ENDBRANCH  69  70
ENDBRANCH  68  69
ENDBRANCH  67  68
ENDBRANCH   1  67
TORSDOF 24
ENDMDL
