MODEL 1
REMARK VINA RESULT:      -9.5      0.000      0.000
REMARK SMILES CC[NH2+]C(C)(C)C(=O)NC[C@@H]1CC[C@H](C(=O)OCCOCCOCCOCCOC(=O)c2ccc(-c3c4nc(c(-c5c(F)cccc5F)c5ccc([nH]5)c(-c5c(F)cccc5F)c5nc(c(-c6c(F)cccc6F)c6ccc3[nH]6)C=C5)C=C4)cc2)O1
REMARK SMILES IDX 21 1 20 2 19 3 18 4 17 5 15 6 16 7 14 8 11 9 12 10 86 11
REMARK SMILES IDX 13 12 10 13 9 14 7 15 8 16 4 18 5 19 6 20 3 21 2 24 1 25
REMARK SMILES IDX 22 26 23 27 24 28 25 29 26 30 27 31 28 32 29 33 30 34 31 35
REMARK SMILES IDX 32 36 33 37 85 38 34 39 84 40 35 41 36 42 37 43 78 44 38 45
REMARK SMILES IDX 83 46 77 47 79 48 39 49 82 50 76 51 75 52 40 54 66 55 49 56
REMARK SMILES IDX 65 57 50 58 53 59 64 60 80 61 51 62 52 63 63 65 81 66 54 67
REMARK SMILES IDX 41 68 42 69 47 70 43 71 44 72 46 73 48 74 45 75 67 76 68 77
REMARK SMILES IDX 73 78 69 79 70 80 72 81 74 82 71 83 55 84 56 85 61 86 57 87
REMARK SMILES IDX 58 88 60 89 62 90 59 91
REMARK H PARENT 9 17 3 22 3 23 79 53 53 64
REMARK Flexibility Score: inf
ROOT
ATOM      1  C   UNL A   1      33.925  34.175  28.245  1.00  0.00     0.188 C 
ENDROOT
BRANCH   1   2
ATOM      2  O   UNL A   1      33.198  33.096  27.692  1.00  0.00    -0.376 OA
BRANCH   2   3
ATOM      3  C   UNL A   1      33.637  31.752  27.826  1.00  0.00     0.202 C 
BRANCH   3   4
ATOM      4  C   UNL A   1      32.964  30.550  27.135  1.00  0.00     0.261 C 
BRANCH   4   5
ATOM      5  O   UNL A   1      33.839  29.566  26.555  1.00  0.00    -0.461 OA
BRANCH   5   6
ATOM      6  C   UNL A   1      33.374  28.947  25.444  1.00  0.00     0.335 C 
ATOM      7  O   UNL A   1      34.087  28.626  24.496  1.00  0.00    -0.249 OA
BRANCH   6   8
ATOM      8  C   UNL A   1      31.858  28.675  25.447  1.00  0.00     0.228 C 
ATOM      9  C   UNL A   1      31.492  26.501  24.735  1.00  0.00     0.138 C 
ATOM     10  C   UNL A   1      31.110  27.400  23.574  1.00  0.00     0.037 C 
ATOM     11  O   UNL A   1      31.670  27.327  25.900  1.00  0.00    -0.361 OA
ATOM     12  C   UNL A   1      30.984  28.751  24.208  1.00  0.00     0.047 C 
BRANCH   9  13
ATOM     13  C   UNL A   1      32.792  25.758  24.417  1.00  0.00     0.148 C 
BRANCH  13  14
ATOM     14  N   UNL A   1      32.611  24.889  23.283  1.00  0.00    -0.348 N 
ATOM     15  C   UNL A   1      32.718  23.537  23.193  1.00  0.00     0.280 C 
ATOM     16  O   UNL A   1      32.884  23.107  22.047  1.00  0.00    -0.268 OA
ATOM     17  H   UNL A   1      32.372  25.345  22.444  1.00  0.00     0.163 HD
BRANCH  15  18
ATOM     18  C   UNL A   1      32.660  22.600  24.466  1.00  0.00     0.169 C 
ATOM     19  C   UNL A   1      32.878  21.105  24.166  1.00  0.00     0.090 C 
ATOM     20  C   UNL A   1      31.312  22.793  25.183  1.00  0.00     0.090 C 
BRANCH  18  21
ATOM     21  N   UNL A   1      33.697  23.039  25.444  1.00  0.00    -0.334 N 
ATOM     22  H   UNL A   1      34.379  23.614  24.950  1.00  0.00     0.347 HD
ATOM     23  H   UNL A   1      33.205  23.547  26.180  1.00  0.00     0.347 HD
BRANCH  21  24
ATOM     24  C   UNL A   1      34.412  21.943  26.102  1.00  0.00     0.257 C 
ATOM     25  C   UNL A   1      34.111  21.975  27.590  1.00  0.00     0.071 C 
ENDBRANCH  21  24
ENDBRANCH  18  21
ENDBRANCH  15  18
ENDBRANCH  13  14
ENDBRANCH   9  13
ENDBRANCH   6   8
ENDBRANCH   5   6
ENDBRANCH   4   5
ENDBRANCH   3   4
ENDBRANCH   2   3
ENDBRANCH   1   2
BRANCH   1  26
ATOM     26  C   UNL A   1      33.220  35.198  29.141  1.00  0.00     0.188 C 
BRANCH  26  27
ATOM     27  O   UNL A   1      33.720  35.307  30.460  1.00  0.00    -0.377 OA
BRANCH  27  28
ATOM     28  C   UNL A   1      32.997  36.080  31.412  1.00  0.00     0.188 C 
BRANCH  28  29
ATOM     29  C   UNL A   1      33.705  36.573  32.688  1.00  0.00     0.188 C 
BRANCH  29  30
ATOM     30  O   UNL A   1      34.957  35.960  32.940  1.00  0.00    -0.376 OA
BRANCH  30  31
ATOM     31  C   UNL A   1      35.128  35.174  34.109  1.00  0.00     0.202 C 
BRANCH  31  32
ATOM     32  C   UNL A   1      35.119  33.641  33.982  1.00  0.00     0.261 C 
BRANCH  32  33
ATOM     33  O   UNL A   1      35.955  33.065  32.965  1.00  0.00    -0.460 OA
BRANCH  33  34
ATOM     34  C   UNL A   1      35.385  32.268  32.035  1.00  0.00     0.338 C 
ATOM     35  O   UNL A   1      34.251  32.318  31.613  1.00  0.00    -0.246 OA
BRANCH  34  36
ATOM     36  C   UNL A   1      36.459  31.424  31.463  1.00  0.00     0.060 A 
ATOM     37  C   UNL A   1      37.351  30.776  32.328  1.00  0.00     0.016 A 
ATOM     38  C   UNL A   1      36.589  31.288  30.080  1.00  0.00     0.016 A 
ATOM     39  C   UNL A   1      38.406  30.024  31.810  1.00  0.00     0.010 A 
ATOM     40  C   UNL A   1      37.658  30.553  29.562  1.00  0.00     0.010 A 
ATOM     41  C   UNL A   1      38.593  29.951  30.424  1.00  0.00    -0.014 A 
BRANCH  41  42
ATOM     42  C   UNL A   1      39.872  29.444  29.870  1.00  0.00     0.031 A 
ATOM     43  C   UNL A   1      41.021  30.407  29.750  1.00  0.00     0.074 A 
ATOM     44  C   UNL A   1      40.018  28.165  29.482  1.00  0.00     0.049 A 
ATOM     45  N   UNL A   1      42.195  30.240  29.199  1.00  0.00    -0.248 NA
ATOM     46  C   UNL A   1      40.810  31.746  30.325  1.00  0.00     0.031 C 
ATOM     47  C   UNL A   1      39.004  27.121  29.602  1.00  0.00     0.029 A 
ATOM     48  N   UNL A   1      41.085  27.534  28.891  1.00  0.00    -0.354 N 
ATOM     49  C   UNL A   1      42.856  31.453  29.350  1.00  0.00     0.074 A 
ATOM     50  C   UNL A   1      41.943  32.357  30.014  1.00  0.00     0.031 C 
ATOM     51  C   UNL A   1      39.491  25.981  29.080  1.00  0.00     0.029 A 
ATOM     52  C   UNL A   1      40.833  26.227  28.555  1.00  0.00     0.049 A 
ATOM     53  H   UNL A   1      41.948  27.978  28.726  1.00  0.00     0.167 HD
ATOM     54  C   UNL A   1      44.115  31.782  28.977  1.00  0.00     0.037 A 
ATOM     55  C   UNL A   1      41.589  25.345  27.871  1.00  0.00     0.037 A 
ATOM     56  C   UNL A   1      45.019  30.883  28.312  1.00  0.00     0.049 A 
ATOM     57  C   UNL A   1      42.952  25.765  27.378  1.00  0.00     0.074 A 
ATOM     58  C   UNL A   1      46.316  31.119  27.893  1.00  0.00     0.029 A 
ATOM     59  N   UNL A   1      44.715  29.577  27.960  1.00  0.00    -0.354 N 
ATOM     60  N   UNL A   1      43.575  26.909  27.532  1.00  0.00    -0.248 NA
ATOM     61  C   UNL A   1      43.717  24.769  26.610  1.00  0.00     0.031 C 
ATOM     62  C   UNL A   1      46.777  29.974  27.236  1.00  0.00     0.029 A 
ATOM     63  C   UNL A   1      45.791  29.002  27.306  1.00  0.00     0.049 A 
ATOM     64  H   UNL A   1      43.861  29.125  28.148  1.00  0.00     0.167 HD
ATOM     65  C   UNL A   1      44.815  26.756  26.921  1.00  0.00     0.074 A 
ATOM     66  C   UNL A   1      44.859  25.407  26.399  1.00  0.00     0.031 C 
ATOM     67  C   UNL A   1      45.829  27.649  26.809  1.00  0.00     0.037 A 
BRANCH  54  68
ATOM     68  C   UNL A   1      44.574  33.186  29.253  1.00  0.00     0.057 A 
ATOM     69  C   UNL A   1      45.234  33.531  30.440  1.00  0.00     0.134 A 
ATOM     70  C   UNL A   1      44.375  34.198  28.307  1.00  0.00     0.134 A 
ATOM     71  F   UNL A   1      45.442  32.613  31.395  1.00  0.00    -0.206 F 
ATOM     72  C   UNL A   1      45.654  34.840  30.686  1.00  0.00     0.040 A 
ATOM     73  C   UNL A   1      44.818  35.503  28.528  1.00  0.00     0.040 A 
ATOM     74  F   UNL A   1      43.752  33.936  27.147  1.00  0.00    -0.206 F 
ATOM     75  C   UNL A   1      45.454  35.828  29.724  1.00  0.00     0.006 A 
ENDBRANCH  54  68
BRANCH  55  76
ATOM     76  C   UNL A   1      41.078  23.978  27.589  1.00  0.00     0.057 A 
ATOM     77  C   UNL A   1      41.547  22.868  28.301  1.00  0.00     0.134 A 
ATOM     78  C   UNL A   1      40.141  23.742  26.575  1.00  0.00     0.134 A 
ATOM     79  F   UNL A   1      42.462  23.023  29.268  1.00  0.00    -0.206 F 
ATOM     80  C   UNL A   1      41.123  21.571  27.999  1.00  0.00     0.040 A 
ATOM     81  C   UNL A   1      39.686  22.456  26.282  1.00  0.00     0.040 A 
ATOM     82  F   UNL A   1      39.650  24.762  25.855  1.00  0.00    -0.206 F 
ATOM     83  C   UNL A   1      40.185  21.364  26.989  1.00  0.00     0.006 A 
ENDBRANCH  55  76
BRANCH  67  84
ATOM     84  C   UNL A   1      47.098  27.188  26.149  1.00  0.00     0.057 A 
ATOM     85  C   UNL A   1      47.333  27.356  24.779  1.00  0.00     0.134 A 
ATOM     86  C   UNL A   1      48.125  26.618  26.914  1.00  0.00     0.134 A 
ATOM     87  F   UNL A   1      46.387  27.885  23.987  1.00  0.00    -0.206 F 
ATOM     88  C   UNL A   1      48.534  26.956  24.191  1.00  0.00     0.040 A 
ATOM     89  C   UNL A   1      49.342  26.243  26.343  1.00  0.00     0.040 A 
ATOM     90  F   UNL A   1      47.972  26.438  28.234  1.00  0.00    -0.206 F 
ATOM     91  C   UNL A   1      49.546  26.406  24.975  1.00  0.00     0.006 A 
ENDBRANCH  67  84
ENDBRANCH  41  42
ENDBRANCH  34  36
ENDBRANCH  33  34
ENDBRANCH  32  33
ENDBRANCH  31  32
ENDBRANCH  30  31
ENDBRANCH  29  30
ENDBRANCH  28  29
ENDBRANCH  27  28
ENDBRANCH  26  27
ENDBRANCH   1  26
TORSDOF 25
ENDMDL
MODEL 2
REMARK VINA RESULT:      -9.0      1.240      2.043
REMARK SMILES CC[NH2+]C(C)(C)C(=O)NC[C@@H]1CC[C@H](C(=O)OCCOCCOCCOCCOC(=O)c2ccc(-c3c4nc(c(-c5c(F)cccc5F)c5ccc([nH]5)c(-c5c(F)cccc5F)c5nc(c(-c6c(F)cccc6F)c6ccc3[nH]6)C=C5)C=C4)cc2)O1
REMARK SMILES IDX 21 1 20 2 19 3 18 4 17 5 15 6 16 7 14 8 11 9 12 10 86 11
REMARK SMILES IDX 13 12 10 13 9 14 7 15 8 16 4 18 5 19 6 20 3 21 2 24 1 25
REMARK SMILES IDX 22 26 23 27 24 28 25 29 26 30 27 31 28 32 29 33 30 34 31 35
REMARK SMILES IDX 32 36 33 37 85 38 34 39 84 40 35 41 36 42 37 43 78 44 38 45
REMARK SMILES IDX 83 46 77 47 79 48 39 49 82 50 76 51 75 52 40 54 66 55 49 56
REMARK SMILES IDX 65 57 50 58 53 59 64 60 80 61 51 62 52 63 63 65 81 66 54 67
REMARK SMILES IDX 41 68 42 69 47 70 43 71 44 72 46 73 48 74 45 75 67 76 68 77
REMARK SMILES IDX 73 78 69 79 70 80 72 81 74 82 71 83 55 84 56 85 61 86 57 87
REMARK SMILES IDX 58 88 60 89 62 90 59 91
REMARK H PARENT 9 17 3 22 3 23 79 53 53 64
REMARK Flexibility Score: inf
ROOT
ATOM      1  C   UNL A   1      34.259  34.450  28.179  1.00  0.00     0.188 C 
ENDROOT
BRANCH   1   2
ATOM      2  O   UNL A   1      34.115  33.182  27.571  1.00  0.00    -0.376 OA
BRANCH   2   3
ATOM      3  C   UNL A   1      34.399  31.980  28.274  1.00  0.00     0.202 C 
BRANCH   3   4
ATOM      4  C   UNL A   1      34.493  30.593  27.610  1.00  0.00     0.261 C 
BRANCH   4   5
ATOM      5  O   UNL A   1      33.324  30.133  26.908  1.00  0.00    -0.461 OA
BRANCH   5   6
ATOM      6  C   UNL A   1      33.507  29.063  26.098  1.00  0.00     0.335 C 
ATOM      7  O   UNL A   1      33.900  27.969  26.496  1.00  0.00    -0.249 OA
BRANCH   6   8
ATOM      8  C   UNL A   1      33.190  29.321  24.613  1.00  0.00     0.228 C 
ATOM      9  C   UNL A   1      31.775  27.650  23.854  1.00  0.00     0.138 C 
ATOM     10  C   UNL A   1      33.146  27.337  23.286  1.00  0.00     0.037 C 
ATOM     11  O   UNL A   1      31.812  28.978  24.406  1.00  0.00    -0.361 OA
ATOM     12  C   UNL A   1      33.898  28.621  23.466  1.00  0.00     0.047 C 
BRANCH   9  13
ATOM     13  C   UNL A   1      31.419  26.639  24.947  1.00  0.00     0.148 C 
BRANCH  13  14
ATOM     14  N   UNL A   1      30.733  25.507  24.381  1.00  0.00    -0.348 N 
ATOM     15  C   UNL A   1      31.186  24.252  24.119  1.00  0.00     0.280 C 
ATOM     16  O   UNL A   1      30.510  23.619  23.301  1.00  0.00    -0.268 OA
ATOM     17  H   UNL A   1      29.789  25.665  24.150  1.00  0.00     0.163 HD
BRANCH  15  18
ATOM     18  C   UNL A   1      32.491  23.669  24.794  1.00  0.00     0.169 C 
ATOM     19  C   UNL A   1      32.872  24.340  26.128  1.00  0.00     0.090 C 
ATOM     20  C   UNL A   1      33.669  23.773  23.809  1.00  0.00     0.090 C 
BRANCH  18  21
ATOM     21  N   UNL A   1      32.306  22.209  25.039  1.00  0.00    -0.334 N 
ATOM     22  H   UNL A   1      32.468  22.029  26.030  1.00  0.00     0.347 HD
ATOM     23  H   UNL A   1      31.356  21.984  24.744  1.00  0.00     0.347 HD
BRANCH  21  24
ATOM     24  C   UNL A   1      33.198  21.346  24.264  1.00  0.00     0.257 C 
ATOM     25  C   UNL A   1      32.553  19.980  24.104  1.00  0.00     0.071 C 
ENDBRANCH  21  24
ENDBRANCH  18  21
ENDBRANCH  15  18
ENDBRANCH  13  14
ENDBRANCH   9  13
ENDBRANCH   6   8
ENDBRANCH   5   6
ENDBRANCH   4   5
ENDBRANCH   3   4
ENDBRANCH   2   3
ENDBRANCH   1   2
BRANCH   1  26
ATOM     26  C   UNL A   1      34.146  34.592  29.700  1.00  0.00     0.188 C 
BRANCH  26  27
ATOM     27  O   UNL A   1      32.886  35.014  30.186  1.00  0.00    -0.377 OA
BRANCH  27  28
ATOM     28  C   UNL A   1      32.767  36.304  30.773  1.00  0.00     0.188 C 
BRANCH  28  29
ATOM     29  C   UNL A   1      33.336  36.556  32.182  1.00  0.00     0.188 C 
BRANCH  29  30
ATOM     30  O   UNL A   1      33.523  35.385  32.957  1.00  0.00    -0.376 OA
BRANCH  30  31
ATOM     31  C   UNL A   1      34.752  35.188  33.639  1.00  0.00     0.202 C 
BRANCH  31  32
ATOM     32  C   UNL A   1      35.913  34.503  32.897  1.00  0.00     0.261 C 
BRANCH  32  33
ATOM     33  O   UNL A   1      36.211  33.145  33.262  1.00  0.00    -0.460 OA
BRANCH  33  34
ATOM     34  C   UNL A   1      36.031  32.175  32.340  1.00  0.00     0.338 C 
ATOM     35  O   UNL A   1      34.983  31.716  31.944  1.00  0.00    -0.246 OA
BRANCH  34  36
ATOM     36  C   UNL A   1      37.354  31.890  31.740  1.00  0.00     0.060 A 
ATOM     37  C   UNL A   1      37.523  32.040  30.357  1.00  0.00     0.016 A 
ATOM     38  C   UNL A   1      38.416  31.463  32.540  1.00  0.00     0.016 A 
ATOM     39  C   UNL A   1      38.743  31.720  29.762  1.00  0.00     0.010 A 
ATOM     40  C   UNL A   1      39.630  31.122  31.941  1.00  0.00     0.010 A 
ATOM     41  C   UNL A   1      39.787  31.211  30.546  1.00  0.00    -0.014 A 
BRANCH  41  42
ATOM     42  C   UNL A   1      40.956  30.565  29.902  1.00  0.00     0.031 A 
ATOM     43  C   UNL A   1      42.174  31.410  29.639  1.00  0.00     0.074 A 
ATOM     44  C   UNL A   1      40.948  29.266  29.558  1.00  0.00     0.049 A 
ATOM     45  N   UNL A   1      43.271  31.113  28.993  1.00  0.00    -0.248 NA
ATOM     46  C   UNL A   1      42.141  32.782  30.174  1.00  0.00     0.031 C 
ATOM     47  C   UNL A   1      39.858  28.329  29.812  1.00  0.00     0.029 A 
ATOM     48  N   UNL A   1      41.893  28.517  28.901  1.00  0.00    -0.354 N 
ATOM     49  C   UNL A   1      44.052  32.262  29.033  1.00  0.00     0.074 A 
ATOM     50  C   UNL A   1      43.291  33.270  29.737  1.00  0.00     0.031 C 
ATOM     51  C   UNL A   1      40.188  27.129  29.297  1.00  0.00     0.029 A 
ATOM     52  C   UNL A   1      41.493  27.229  28.644  1.00  0.00     0.049 A 
ATOM     53  H   UNL A   1      42.774  28.870  28.641  1.00  0.00     0.167 HD
ATOM     54  C   UNL A   1      45.296  32.456  28.536  1.00  0.00     0.037 A 
ATOM     55  C   UNL A   1      42.097  26.256  27.934  1.00  0.00     0.037 A 
ATOM     56  C   UNL A   1      46.048  31.453  27.831  1.00  0.00     0.049 A 
ATOM     57  C   UNL A   1      43.441  26.528  27.303  1.00  0.00     0.074 A 
ATOM     58  C   UNL A   1      47.316  31.550  27.289  1.00  0.00     0.029 A 
ATOM     59  N   UNL A   1      45.593  30.171  27.564  1.00  0.00    -0.354 N 
ATOM     60  N   UNL A   1      44.178  27.611  27.353  1.00  0.00    -0.248 NA
ATOM     61  C   UNL A   1      44.037  25.437  26.514  1.00  0.00     0.031 C 
ATOM     62  C   UNL A   1      47.608  30.345  26.643  1.00  0.00     0.029 A 
ATOM     63  C   UNL A   1      46.547  29.474  26.841  1.00  0.00     0.049 A 
ATOM     64  H   UNL A   1      44.723  29.809  27.846  1.00  0.00     0.167 HD
ATOM     65  C   UNL A   1      45.337  27.320  26.641  1.00  0.00     0.074 A 
ATOM     66  C   UNL A   1      45.209  25.956  26.175  1.00  0.00     0.031 C 
ATOM     67  C   UNL A   1      46.414  28.108  26.401  1.00  0.00     0.037 A 
BRANCH  54  68
ATOM     68  C   UNL A   1      45.905  33.819  28.709  1.00  0.00     0.057 A 
ATOM     69  C   UNL A   1      45.685  34.853  27.790  1.00  0.00     0.134 A 
ATOM     70  C   UNL A   1      46.701  34.105  29.825  1.00  0.00     0.134 A 
ATOM     71  F   UNL A   1      44.946  34.641  26.691  1.00  0.00    -0.206 F 
ATOM     72  C   UNL A   1      46.258  36.115  27.961  1.00  0.00     0.040 A 
ATOM     73  C   UNL A   1      47.254  35.371  30.022  1.00  0.00     0.040 A 
ATOM     74  F   UNL A   1      46.950  33.161  30.746  1.00  0.00    -0.206 F 
ATOM     75  C   UNL A   1      47.038  36.379  29.085  1.00  0.00     0.006 A 
ENDBRANCH  54  68
BRANCH  55  76
ATOM     76  C   UNL A   1      41.439  24.935  27.757  1.00  0.00     0.057 A 
ATOM     77  C   UNL A   1      41.814  23.829  28.528  1.00  0.00     0.134 A 
ATOM     78  C   UNL A   1      40.448  24.736  26.786  1.00  0.00     0.134 A 
ATOM     79  F   UNL A   1      42.773  23.947  29.457  1.00  0.00    -0.206 F 
ATOM     80  C   UNL A   1      41.249  22.567  28.324  1.00  0.00     0.040 A 
ATOM     81  C   UNL A   1      39.854  23.488  26.592  1.00  0.00     0.040 A 
ATOM     82  F   UNL A   1      40.041  25.754  26.014  1.00  0.00    -0.206 F 
ATOM     83  C   UNL A   1      40.262  22.396  27.356  1.00  0.00     0.006 A 
ENDBRANCH  55  76
BRANCH  67  84
ATOM     84  C   UNL A   1      47.568  27.505  25.651  1.00  0.00     0.057 A 
ATOM     85  C   UNL A   1      48.620  26.846  26.299  1.00  0.00     0.134 A 
ATOM     86  C   UNL A   1      47.594  27.536  24.250  1.00  0.00     0.134 A 
ATOM     87  F   UNL A   1      48.662  26.788  27.640  1.00  0.00    -0.206 F 
ATOM     88  C   UNL A   1      49.664  26.258  25.583  1.00  0.00     0.040 A 
ATOM     89  C   UNL A   1      48.616  26.925  23.521  1.00  0.00     0.040 A 
ATOM     90  F   UNL A   1      46.613  28.141  23.563  1.00  0.00    -0.206 F 
ATOM     91  C   UNL A   1      49.659  26.288  24.190  1.00  0.00     0.006 A 
ENDBRANCH  67  84
ENDBRANCH  41  42
ENDBRANCH  34  36
ENDBRANCH  33  34
ENDBRANCH  32  33
ENDBRANCH  31  32
ENDBRANCH  30  31
ENDBRANCH  29  30
ENDBRANCH  28  29
ENDBRANCH  27  28
ENDBRANCH  26  27
ENDBRANCH   1  26
TORSDOF 25
ENDMDL
MODEL 3
REMARK VINA RESULT:      -9.0      3.987      6.808
REMARK SMILES CC[NH2+]C(C)(C)C(=O)NC[C@@H]1CC[C@H](C(=O)OCCOCCOCCOCCOC(=O)c2ccc(-c3c4nc(c(-c5c(F)cccc5F)c5ccc([nH]5)c(-c5c(F)cccc5F)c5nc(c(-c6c(F)cccc6F)c6ccc3[nH]6)C=C5)C=C4)cc2)O1
REMARK SMILES IDX 21 1 20 2 19 3 18 4 17 5 15 6 16 7 14 8 11 9 12 10 86 11
REMARK SMILES IDX 13 12 10 13 9 14 7 15 8 16 4 18 5 19 6 20 3 21 2 24 1 25
REMARK SMILES IDX 22 26 23 27 24 28 25 29 26 30 27 31 28 32 29 33 30 34 31 35
REMARK SMILES IDX 32 36 33 37 85 38 34 39 84 40 35 41 36 42 37 43 78 44 38 45
REMARK SMILES IDX 83 46 77 47 79 48 39 49 82 50 76 51 75 52 40 54 66 55 49 56
REMARK SMILES IDX 65 57 50 58 53 59 64 60 80 61 51 62 52 63 63 65 81 66 54 67
REMARK SMILES IDX 41 68 42 69 47 70 43 71 44 72 46 73 48 74 45 75 67 76 68 77
REMARK SMILES IDX 73 78 69 79 70 80 72 81 74 82 71 83 55 84 56 85 61 86 57 87
REMARK SMILES IDX 58 88 60 89 62 90 59 91
REMARK H PARENT 9 17 3 22 3 23 79 53 53 64
REMARK Flexibility Score: inf
ROOT
ATOM      1  C   UNL A   1      32.475  29.546  24.939  1.00  0.00     0.188 C 
ENDROOT
BRANCH   1   2
ATOM      2  O   UNL A   1      32.288  28.542  23.960  1.00  0.00    -0.376 OA
BRANCH   2   3
ATOM      3  C   UNL A   1      31.243  28.619  23.002  1.00  0.00     0.202 C 
BRANCH   3   4
ATOM      4  C   UNL A   1      30.293  27.453  22.664  1.00  0.00     0.261 C 
BRANCH   4   5
ATOM      5  O   UNL A   1      29.530  26.906  23.754  1.00  0.00    -0.461 OA
BRANCH   5   6
ATOM      6  C   UNL A   1      29.944  25.703  24.218  1.00  0.00     0.335 C 
ATOM      7  O   UNL A   1      30.272  24.770  23.488  1.00  0.00    -0.249 OA
BRANCH   6   8
ATOM      8  C   UNL A   1      29.968  25.580  25.753  1.00  0.00     0.228 C 
ATOM      9  C   UNL A   1      32.136  25.116  26.427  1.00  0.00     0.138 C 
ATOM     10  C   UNL A   1      31.364  23.816  26.550  1.00  0.00     0.037 C 
ATOM     11  O   UNL A   1      31.190  26.178  26.208  1.00  0.00    -0.361 OA
ATOM     12  C   UNL A   1      29.932  24.255  26.494  1.00  0.00     0.047 C 
BRANCH   9  13
ATOM     13  C   UNL A   1      33.114  25.035  25.252  1.00  0.00     0.148 C 
BRANCH  13  14
ATOM     14  N   UNL A   1      32.933  23.803  24.531  1.00  0.00    -0.348 N 
ATOM     15  C   UNL A   1      33.788  22.761  24.353  1.00  0.00     0.280 C 
ATOM     16  O   UNL A   1      33.517  22.028  23.396  1.00  0.00    -0.268 OA
ATOM     17  H   UNL A   1      32.054  23.698  24.100  1.00  0.00     0.163 HD
BRANCH  15  18
ATOM     18  C   UNL A   1      35.042  22.531  25.288  1.00  0.00     0.169 C 
ATOM     19  C   UNL A   1      34.699  22.353  26.780  1.00  0.00     0.090 C 
ATOM     20  C   UNL A   1      36.029  23.699  25.120  1.00  0.00     0.090 C 
BRANCH  18  21
ATOM     21  N   UNL A   1      35.780  21.318  24.829  1.00  0.00    -0.334 N 
ATOM     22  H   UNL A   1      35.401  20.509  25.321  1.00  0.00     0.347 HD
ATOM     23  H   UNL A   1      35.650  21.265  23.818  1.00  0.00     0.347 HD
BRANCH  21  24
ATOM     24  C   UNL A   1      37.224  21.362  25.061  1.00  0.00     0.257 C 
ATOM     25  C   UNL A   1      37.781  19.950  24.999  1.00  0.00     0.071 C 
ENDBRANCH  21  24
ENDBRANCH  18  21
ENDBRANCH  15  18
ENDBRANCH  13  14
ENDBRANCH   9  13
ENDBRANCH   6   8
ENDBRANCH   5   6
ENDBRANCH   4   5
ENDBRANCH   3   4
ENDBRANCH   2   3
ENDBRANCH   1   2
BRANCH   1  26
ATOM     26  C   UNL A   1      31.781  29.431  26.300  1.00  0.00     0.188 C 
BRANCH  26  27
ATOM     27  O   UNL A   1      32.542  28.825  27.328  1.00  0.00    -0.377 OA
BRANCH  27  28
ATOM     28  C   UNL A   1      33.938  28.633  27.132  1.00  0.00     0.188 C 
BRANCH  28  29
ATOM     29  C   UNL A   1      34.932  29.701  27.627  1.00  0.00     0.188 C 
BRANCH  29  30
ATOM     30  O   UNL A   1      34.327  30.832  28.227  1.00  0.00    -0.376 OA
BRANCH  30  31
ATOM     31  C   UNL A   1      34.015  31.964  27.431  1.00  0.00     0.202 C 
BRANCH  31  32
ATOM     32  C   UNL A   1      32.901  32.917  27.897  1.00  0.00     0.261 C 
BRANCH  32  33
ATOM     33  O   UNL A   1      33.117  34.323  27.692  1.00  0.00    -0.460 OA
BRANCH  33  34
ATOM     34  C   UNL A   1      33.258  35.119  28.774  1.00  0.00     0.338 C 
ATOM     35  O   UNL A   1      32.526  36.015  29.134  1.00  0.00    -0.246 OA
BRANCH  34  36
ATOM     36  C   UNL A   1      34.380  34.576  29.573  1.00  0.00     0.060 A 
ATOM     37  C   UNL A   1      35.681  34.648  29.060  1.00  0.00     0.016 A 
ATOM     38  C   UNL A   1      34.141  33.986  30.816  1.00  0.00     0.016 A 
ATOM     39  C   UNL A   1      36.745  34.090  29.769  1.00  0.00     0.010 A 
ATOM     40  C   UNL A   1      35.203  33.408  31.514  1.00  0.00     0.010 A 
ATOM     41  C   UNL A   1      36.503  33.423  30.976  1.00  0.00    -0.014 A 
BRANCH  41  42
ATOM     42  C   UNL A   1      37.547  32.553  31.569  1.00  0.00     0.031 A 
ATOM     43  C   UNL A   1      38.050  32.892  32.946  1.00  0.00     0.074 A 
ATOM     44  C   UNL A   1      38.040  31.488  30.913  1.00  0.00     0.049 A 
ATOM     45  N   UNL A   1      39.028  32.360  33.631  1.00  0.00    -0.248 NA
ATOM     46  C   UNL A   1      37.355  33.990  33.640  1.00  0.00     0.031 C 
ATOM     47  C   UNL A   1      37.595  31.020  29.603  1.00  0.00     0.029 A 
ATOM     48  N   UNL A   1      39.042  30.617  31.263  1.00  0.00    -0.354 N 
ATOM     49  C   UNL A   1      39.075  33.064  34.828  1.00  0.00     0.074 A 
ATOM     50  C   UNL A   1      38.049  34.083  34.763  1.00  0.00     0.031 C 
ATOM     51  C   UNL A   1      38.338  29.954  29.249  1.00  0.00     0.029 A 
ATOM     52  C   UNL A   1      39.333  29.695  30.288  1.00  0.00     0.049 A 
ATOM     53  H   UNL A   1      39.506  30.651  32.130  1.00  0.00     0.167 HD
ATOM     54  C   UNL A   1      39.893  32.875  35.890  1.00  0.00     0.037 A 
ATOM     55  C   UNL A   1      40.313  28.771  30.231  1.00  0.00     0.037 A 
ATOM     56  C   UNL A   1      40.915  31.866  35.948  1.00  0.00     0.049 A 
ATOM     57  C   UNL A   1      41.276  28.643  31.385  1.00  0.00     0.074 A 
ATOM     58  C   UNL A   1      41.796  31.590  36.979  1.00  0.00     0.029 A 
ATOM     59  N   UNL A   1      41.200  30.971  34.928  1.00  0.00    -0.354 N 
ATOM     60  N   UNL A   1      41.309  29.305  32.517  1.00  0.00    -0.248 NA
ATOM     61  C   UNL A   1      42.344  27.638  31.251  1.00  0.00     0.031 C 
ATOM     62  C   UNL A   1      42.651  30.567  36.560  1.00  0.00     0.029 A 
ATOM     63  C   UNL A   1      42.259  30.159  35.294  1.00  0.00     0.049 A 
ATOM     64  H   UNL A   1      40.719  30.921  34.071  1.00  0.00     0.167 HD
ATOM     65  C   UNL A   1      42.367  28.770  33.244  1.00  0.00     0.074 A 
ATOM     66  C   UNL A   1      42.948  27.725  32.428  1.00  0.00     0.031 C 
ATOM     67  C   UNL A   1      42.815  29.108  34.479  1.00  0.00     0.037 A 
BRANCH  54  68
ATOM     68  C   UNL A   1      39.733  33.802  37.061  1.00  0.00     0.057 A 
ATOM     69  C   UNL A   1      40.397  35.034  37.128  1.00  0.00     0.134 A 
ATOM     70  C   UNL A   1      38.883  33.469  38.122  1.00  0.00     0.134 A 
ATOM     71  F   UNL A   1      41.239  35.408  36.152  1.00  0.00    -0.206 F 
ATOM     72  C   UNL A   1      40.243  35.888  38.222  1.00  0.00     0.040 A 
ATOM     73  C   UNL A   1      38.697  34.327  39.206  1.00  0.00     0.040 A 
ATOM     74  F   UNL A   1      38.214  32.305  38.121  1.00  0.00    -0.206 F 
ATOM     75  C   UNL A   1      39.383  35.538  39.261  1.00  0.00     0.006 A 
ENDBRANCH  54  68
BRANCH  55  76
ATOM     76  C   UNL A   1      40.455  27.900  29.035  1.00  0.00     0.057 A 
ATOM     77  C   UNL A   1      41.293  28.258  27.973  1.00  0.00     0.134 A 
ATOM     78  C   UNL A   1      39.725  26.711  28.905  1.00  0.00     0.134 A 
ATOM     79  F   UNL A   1      42.000  29.395  28.024  1.00  0.00    -0.206 F 
ATOM     80  C   UNL A   1      41.383  27.481  26.815  1.00  0.00     0.040 A 
ATOM     81  C   UNL A   1      39.826  25.910  27.767  1.00  0.00     0.040 A 
ATOM     82  F   UNL A   1      38.903  26.309  29.886  1.00  0.00    -0.206 F 
ATOM     83  C   UNL A   1      40.650  26.300  26.713  1.00  0.00     0.006 A 
ENDBRANCH  55  76
BRANCH  67  84
ATOM     84  C   UNL A   1      43.949  28.308  35.055  1.00  0.00     0.057 A 
ATOM     85  C   UNL A   1      45.279  28.741  34.990  1.00  0.00     0.134 A 
ATOM     86  C   UNL A   1      43.693  27.112  35.740  1.00  0.00     0.134 A 
ATOM     87  F   UNL A   1      45.594  29.872  34.340  1.00  0.00    -0.206 F 
ATOM     88  C   UNL A   1      46.315  28.003  35.565  1.00  0.00     0.040 A 
ATOM     89  C   UNL A   1      44.716  26.382  36.346  1.00  0.00     0.040 A 
ATOM     90  F   UNL A   1      42.441  26.644  35.851  1.00  0.00    -0.206 F 
ATOM     91  C   UNL A   1      46.034  26.825  36.254  1.00  0.00     0.006 A 
ENDBRANCH  67  84
ENDBRANCH  41  42
ENDBRANCH  34  36
ENDBRANCH  33  34
ENDBRANCH  32  33
ENDBRANCH  31  32
ENDBRANCH  30  31
ENDBRANCH  29  30
ENDBRANCH  28  29
ENDBRANCH  27  28
ENDBRANCH  26  27
ENDBRANCH   1  26
TORSDOF 25
ENDMDL
