MODEL 1
REMARK VINA RESULT:     -10.1      0.000      0.000
REMARK SMILES C[C@H](Oc1ccnc2c(F)cc(F)cc12)C(=O)OCCOCCOCCOCCOC(=O)c1ccc(-c2c3nc(c(-c4c(F)cccc4F)c4ccc([nH]4)c(-c4c(F)cccc4F)c4nc(c(-c5c(F)cccc5F)c5ccc2[nH]5)C=C4)C=C3)cc1
REMARK SMILES IDX 24 1 23 2 22 3 21 4 20 5 19 6 18 7 16 8 17 9 2 10 1 11 3 12
REMARK SMILES IDX 4 13 5 14 15 15 6 16 8 17 14 18 7 19 9 20 12 21 10 22 11 23
REMARK SMILES IDX 13 24 25 25 26 26 27 27 28 28 29 29 30 30 31 31 32 32 33 33
REMARK SMILES IDX 34 34 86 35 35 36 85 37 36 38 37 39 38 40 79 41 39 42 84 43
REMARK SMILES IDX 78 44 80 45 40 46 83 47 77 48 76 49 41 51 67 52 50 53 66 54
REMARK SMILES IDX 51 55 54 56 65 57 81 58 52 59 53 60 64 62 82 63 55 64 42 65
REMARK SMILES IDX 43 66 48 67 44 68 45 69 47 70 49 71 46 72 68 73 69 74 74 75
REMARK SMILES IDX 70 76 71 77 73 78 75 79 72 80 56 81 57 82 62 83 58 84 59 85
REMARK SMILES IDX 61 86 63 87 60 88
REMARK H PARENT 80 50 54 61
REMARK Flexibility Score: inf
ROOT
ATOM      1  O   UNL A   1      43.561  19.539  26.084  1.00  0.00    -0.377 OA
ENDROOT
BRANCH   1   2
ATOM      2  C   UNL A   1      42.197  19.448  25.734  1.00  0.00     0.188 C 
BRANCH   2   3
ATOM      3  C   UNL A   1      41.267  20.278  26.633  1.00  0.00     0.188 C 
BRANCH   3   4
ATOM      4  O   UNL A   1      39.883  20.405  26.341  1.00  0.00    -0.376 OA
BRANCH   4   5
ATOM      5  C   UNL A   1      39.223  19.537  25.428  1.00  0.00     0.202 C 
BRANCH   5   6
ATOM      6  C   UNL A   1      37.804  19.798  24.895  1.00  0.00     0.261 C 
BRANCH   6   7
ATOM      7  O   UNL A   1      37.301  21.125  25.099  1.00  0.00    -0.461 OA
BRANCH   7   8
ATOM      8  C   UNL A   1      35.956  21.263  25.083  1.00  0.00     0.347 C 
ATOM      9  O   UNL A   1      35.183  20.559  25.726  1.00  0.00    -0.248 OA
BRANCH   8  10
ATOM     10  C   UNL A   1      35.482  22.484  24.259  1.00  0.00     0.279 C 
ATOM     11  C   UNL A   1      36.542  22.891  23.234  1.00  0.00     0.066 C 
BRANCH  10  12
ATOM     12  O   UNL A   1      34.783  23.609  24.776  1.00  0.00    -0.478 OA
BRANCH  12  13
ATOM     13  C   UNL A   1      33.462  23.867  24.533  1.00  0.00     0.131 A 
ATOM     14  C   UNL A   1      32.603  22.979  23.907  1.00  0.00     0.067 A 
ATOM     15  C   UNL A   1      32.969  25.122  24.989  1.00  0.00     0.048 A 
ATOM     16  C   UNL A   1      31.274  23.331  23.803  1.00  0.00     0.115 A 
ATOM     17  C   UNL A   1      31.586  25.375  24.850  1.00  0.00     0.110 A 
ATOM     18  C   UNL A   1      33.787  26.123  25.570  1.00  0.00     0.053 A 
ATOM     19  N   UNL A   1      30.758  24.484  24.272  1.00  0.00    -0.253 NA
ATOM     20  C   UNL A   1      31.083  26.588  25.336  1.00  0.00     0.152 A 
ATOM     21  C   UNL A   1      33.244  27.326  26.012  1.00  0.00     0.127 A 
ATOM     22  F   UNL A   1      29.766  26.843  25.255  1.00  0.00    -0.204 F 
ATOM     23  C   UNL A   1      31.889  27.564  25.912  1.00  0.00     0.080 A 
ATOM     24  F   UNL A   1      34.042  28.262  26.541  1.00  0.00    -0.207 F 
ENDBRANCH  12  13
ENDBRANCH  10  12
ENDBRANCH   8  10
ENDBRANCH   7   8
ENDBRANCH   6   7
ENDBRANCH   5   6
ENDBRANCH   4   5
ENDBRANCH   3   4
ENDBRANCH   2   3
ENDBRANCH   1   2
BRANCH   1  25
ATOM     25  C   UNL A   1      44.488  18.872  25.238  1.00  0.00     0.188 C 
BRANCH  25  26
ATOM     26  C   UNL A   1      45.601  19.699  24.554  1.00  0.00     0.188 C 
BRANCH  26  27
ATOM     27  O   UNL A   1      46.037  20.820  25.308  1.00  0.00    -0.376 OA
BRANCH  27  28
ATOM     28  C   UNL A   1      46.350  22.016  24.609  1.00  0.00     0.202 C 
BRANCH  28  29
ATOM     29  C   UNL A   1      45.958  23.348  25.272  1.00  0.00     0.261 C 
BRANCH  29  30
ATOM     30  O   UNL A   1      44.907  24.098  24.643  1.00  0.00    -0.460 OA
BRANCH  30  31
ATOM     31  C   UNL A   1      43.633  23.699  24.828  1.00  0.00     0.338 C 
ATOM     32  O   UNL A   1      43.132  22.642  24.487  1.00  0.00    -0.246 OA
BRANCH  31  33
ATOM     33  C   UNL A   1      42.980  24.700  25.699  1.00  0.00     0.060 A 
ATOM     34  C   UNL A   1      43.448  26.021  25.695  1.00  0.00     0.016 A 
ATOM     35  C   UNL A   1      41.905  24.333  26.509  1.00  0.00     0.016 A 
ATOM     36  C   UNL A   1      42.856  26.976  26.523  1.00  0.00     0.010 A 
ATOM     37  C   UNL A   1      41.337  25.279  27.367  1.00  0.00     0.010 A 
ATOM     38  C   UNL A   1      41.834  26.594  27.402  1.00  0.00    -0.014 A 
BRANCH  38  39
ATOM     39  C   UNL A   1      41.476  27.486  28.530  1.00  0.00     0.031 A 
ATOM     40  C   UNL A   1      42.291  27.378  29.790  1.00  0.00     0.074 A 
ATOM     41  C   UNL A   1      40.471  28.373  28.448  1.00  0.00     0.049 A 
ATOM     42  N   UNL A   1      42.157  28.006  30.929  1.00  0.00    -0.248 NA
ATOM     43  C   UNL A   1      43.415  26.426  29.755  1.00  0.00     0.031 C 
ATOM     44  C   UNL A   1      39.638  28.607  27.271  1.00  0.00     0.029 A 
ATOM     45  N   UNL A   1      39.976  29.238  29.392  1.00  0.00    -0.354 N 
ATOM     46  C   UNL A   1      43.180  27.533  31.740  1.00  0.00     0.074 A 
ATOM     47  C   UNL A   1      43.903  26.538  30.979  1.00  0.00     0.031 C 
ATOM     48  C   UNL A   1      38.721  29.546  27.569  1.00  0.00     0.029 A 
ATOM     49  C   UNL A   1      38.883  29.952  28.964  1.00  0.00     0.049 A 
ATOM     50  H   UNL A   1      40.368  29.336  30.290  1.00  0.00     0.167 HD
ATOM     51  C   UNL A   1      43.497  27.895  33.006  1.00  0.00     0.037 A 
ATOM     52  C   UNL A   1      38.096  30.811  29.638  1.00  0.00     0.037 A 
ATOM     53  C   UNL A   1      42.755  28.855  33.777  1.00  0.00     0.049 A 
ATOM     54  C   UNL A   1      38.392  31.105  31.089  1.00  0.00     0.074 A 
ATOM     55  C   UNL A   1      42.987  29.291  35.070  1.00  0.00     0.029 A 
ATOM     56  N   UNL A   1      41.617  29.511  33.331  1.00  0.00    -0.354 N 
ATOM     57  N   UNL A   1      39.378  30.679  31.841  1.00  0.00    -0.248 NA
ATOM     58  C   UNL A   1      37.454  32.000  31.785  1.00  0.00     0.031 C 
ATOM     59  C   UNL A   1      41.954  30.165  35.427  1.00  0.00     0.029 A 
ATOM     60  C   UNL A   1      41.114  30.322  34.336  1.00  0.00     0.049 A 
ATOM     61  H   UNL A   1      41.224  29.415  32.434  1.00  0.00     0.167 HD
ATOM     62  C   UNL A   1      39.197  31.274  33.085  1.00  0.00     0.074 A 
ATOM     63  C   UNL A   1      38.018  32.108  32.979  1.00  0.00     0.031 C 
ATOM     64  C   UNL A   1      39.937  31.145  34.215  1.00  0.00     0.037 A 
BRANCH  51  65
ATOM     65  C   UNL A   1      44.675  27.211  33.636  1.00  0.00     0.057 A 
ATOM     66  C   UNL A   1      45.957  27.763  33.540  1.00  0.00     0.134 A 
ATOM     67  C   UNL A   1      44.539  26.011  34.349  1.00  0.00     0.134 A 
ATOM     68  F   UNL A   1      46.159  28.908  32.872  1.00  0.00    -0.206 F 
ATOM     69  C   UNL A   1      47.062  27.151  34.134  1.00  0.00     0.040 A 
ATOM     70  C   UNL A   1      45.630  25.406  34.973  1.00  0.00     0.040 A 
ATOM     71  F   UNL A   1      43.334  25.439  34.497  1.00  0.00    -0.206 F 
ATOM     72  C   UNL A   1      46.898  25.974  34.863  1.00  0.00     0.006 A 
ENDBRANCH  51  65
BRANCH  52  73
ATOM     73  C   UNL A   1      36.929  31.449  28.974  1.00  0.00     0.057 A 
ATOM     74  C   UNL A   1      35.712  30.772  28.826  1.00  0.00     0.134 A 
ATOM     75  C   UNL A   1      36.984  32.775  28.527  1.00  0.00     0.134 A 
ATOM     76  F   UNL A   1      35.588  29.502  29.240  1.00  0.00    -0.206 F 
ATOM     77  C   UNL A   1      34.596  31.387  28.257  1.00  0.00     0.040 A 
ATOM     78  C   UNL A   1      35.868  33.412  27.983  1.00  0.00     0.040 A 
ATOM     79  F   UNL A   1      38.113  33.487  28.668  1.00  0.00    -0.206 F 
ATOM     80  C   UNL A   1      34.670  32.716  27.844  1.00  0.00     0.006 A 
ENDBRANCH  52  73
BRANCH  64  81
ATOM     81  C   UNL A   1      39.510  31.947  35.413  1.00  0.00     0.057 A 
ATOM     82  C   UNL A   1      40.040  33.222  35.645  1.00  0.00     0.134 A 
ATOM     83  C   UNL A   1      38.591  31.453  36.349  1.00  0.00     0.134 A 
ATOM     84  F   UNL A   1      40.935  33.753  34.797  1.00  0.00    -0.206 F 
ATOM     85  C   UNL A   1      39.673  33.977  36.759  1.00  0.00     0.040 A 
ATOM     86  C   UNL A   1      38.190  32.212  37.450  1.00  0.00     0.040 A 
ATOM     87  F   UNL A   1      38.035  30.243  36.182  1.00  0.00    -0.206 F 
ATOM     88  C   UNL A   1      38.736  33.477  37.660  1.00  0.00     0.006 A 
ENDBRANCH  64  81
ENDBRANCH  38  39
ENDBRANCH  31  33
ENDBRANCH  30  31
ENDBRANCH  29  30
ENDBRANCH  28  29
ENDBRANCH  27  28
ENDBRANCH  26  27
ENDBRANCH  25  26
ENDBRANCH   1  25
TORSDOF 22
ENDMDL
MODEL 2
REMARK VINA RESULT:     -10.0      3.068      8.441
REMARK SMILES C[C@H](Oc1ccnc2c(F)cc(F)cc12)C(=O)OCCOCCOCCOCCOC(=O)c1ccc(-c2c3nc(c(-c4c(F)cccc4F)c4ccc([nH]4)c(-c4c(F)cccc4F)c4nc(c(-c5c(F)cccc5F)c5ccc2[nH]5)C=C4)C=C3)cc1
REMARK SMILES IDX 24 1 23 2 22 3 21 4 20 5 19 6 18 7 16 8 17 9 2 10 1 11 3 12
REMARK SMILES IDX 4 13 5 14 15 15 6 16 8 17 14 18 7 19 9 20 12 21 10 22 11 23
REMARK SMILES IDX 13 24 25 25 26 26 27 27 28 28 29 29 30 30 31 31 32 32 33 33
REMARK SMILES IDX 34 34 86 35 35 36 85 37 36 38 37 39 38 40 79 41 39 42 84 43
REMARK SMILES IDX 78 44 80 45 40 46 83 47 77 48 76 49 41 51 67 52 50 53 66 54
REMARK SMILES IDX 51 55 54 56 65 57 81 58 52 59 53 60 64 62 82 63 55 64 42 65
REMARK SMILES IDX 43 66 48 67 44 68 45 69 47 70 49 71 46 72 68 73 69 74 74 75
REMARK SMILES IDX 70 76 71 77 73 78 75 79 72 80 56 81 57 82 62 83 58 84 59 85
REMARK SMILES IDX 61 86 63 87 60 88
REMARK H PARENT 80 50 54 61
REMARK Flexibility Score: inf
ROOT
ATOM      1  O   UNL A   1      33.114  28.050  27.111  1.00  0.00    -0.377 OA
ENDROOT
BRANCH   1   2
ATOM      2  C   UNL A   1      33.675  27.462  25.958  1.00  0.00     0.188 C 
BRANCH   2   3
ATOM      3  C   UNL A   1      33.897  25.946  26.077  1.00  0.00     0.188 C 
BRANCH   3   4
ATOM      4  O   UNL A   1      34.466  25.201  25.010  1.00  0.00    -0.376 OA
BRANCH   4   5
ATOM      5  C   UNL A   1      35.560  24.314  25.210  1.00  0.00     0.202 C 
BRANCH   5   6
ATOM      6  C   UNL A   1      35.389  22.796  25.393  1.00  0.00     0.261 C 
BRANCH   6   7
ATOM      7  O   UNL A   1      34.786  22.105  24.292  1.00  0.00    -0.461 OA
BRANCH   7   8
ATOM      8  C   UNL A   1      34.346  20.851  24.543  1.00  0.00     0.347 C 
ATOM      9  O   UNL A   1      35.054  19.945  24.972  1.00  0.00    -0.248 OA
BRANCH   8  10
ATOM     10  C   UNL A   1      32.818  20.695  24.351  1.00  0.00     0.279 C 
ATOM     11  C   UNL A   1      32.485  19.335  23.737  1.00  0.00     0.066 C 
BRANCH  10  12
ATOM     12  O   UNL A   1      31.933  21.713  23.901  1.00  0.00    -0.478 OA
BRANCH  12  13
ATOM     13  C   UNL A   1      31.347  22.637  24.721  1.00  0.00     0.131 A 
ATOM     14  C   UNL A   1      30.905  22.360  26.005  1.00  0.00     0.067 A 
ATOM     15  C   UNL A   1      31.227  23.956  24.203  1.00  0.00     0.048 A 
ATOM     16  C   UNL A   1      30.411  23.406  26.757  1.00  0.00     0.115 A 
ATOM     17  C   UNL A   1      30.725  24.958  25.065  1.00  0.00     0.110 A 
ATOM     18  C   UNL A   1      31.581  24.315  22.878  1.00  0.00     0.053 A 
ATOM     19  N   UNL A   1      30.334  24.679  26.323  1.00  0.00    -0.253 NA
ATOM     20  C   UNL A   1      30.644  26.269  24.579  1.00  0.00     0.152 A 
ATOM     21  C   UNL A   1      31.454  25.628  22.433  1.00  0.00     0.127 A 
ATOM     22  F   UNL A   1      30.207  27.252  25.384  1.00  0.00    -0.204 F 
ATOM     23  C   UNL A   1      31.000  26.617  23.280  1.00  0.00     0.080 A 
ATOM     24  F   UNL A   1      31.779  25.936  21.171  1.00  0.00    -0.207 F 
ENDBRANCH  12  13
ENDBRANCH  10  12
ENDBRANCH   8  10
ENDBRANCH   7   8
ENDBRANCH   6   7
ENDBRANCH   5   6
ENDBRANCH   4   5
ENDBRANCH   3   4
ENDBRANCH   2   3
ENDBRANCH   1   2
BRANCH   1  25
ATOM     25  C   UNL A   1      32.881  29.452  27.071  1.00  0.00     0.188 C 
BRANCH  25  26
ATOM     26  C   UNL A   1      32.573  30.117  25.711  1.00  0.00     0.188 C 
BRANCH  26  27
ATOM     27  O   UNL A   1      31.493  31.038  25.746  1.00  0.00    -0.376 OA
BRANCH  27  28
ATOM     28  C   UNL A   1      31.355  31.865  26.891  1.00  0.00     0.202 C 
BRANCH  28  29
ATOM     29  C   UNL A   1      32.161  33.174  26.922  1.00  0.00     0.261 C 
BRANCH  29  30
ATOM     30  O   UNL A   1      32.465  33.716  28.218  1.00  0.00    -0.460 OA
BRANCH  30  31
ATOM     31  C   UNL A   1      33.569  34.476  28.354  1.00  0.00     0.338 C 
ATOM     32  O   UNL A   1      33.630  35.693  28.390  1.00  0.00    -0.246 OA
BRANCH  31  33
ATOM     33  C   UNL A   1      34.697  33.566  28.648  1.00  0.00     0.060 A 
ATOM     34  C   UNL A   1      34.431  32.284  29.147  1.00  0.00     0.016 A 
ATOM     35  C   UNL A   1      36.011  33.979  28.423  1.00  0.00     0.016 A 
ATOM     36  C   UNL A   1      35.483  31.417  29.448  1.00  0.00     0.010 A 
ATOM     37  C   UNL A   1      37.065  33.126  28.760  1.00  0.00     0.010 A 
ATOM     38  C   UNL A   1      36.806  31.856  29.306  1.00  0.00    -0.014 A 
BRANCH  38  39
ATOM     39  C   UNL A   1      37.895  31.105  29.972  1.00  0.00     0.031 A 
ATOM     40  C   UNL A   1      38.167  31.408  31.420  1.00  0.00     0.074 A 
ATOM     41  C   UNL A   1      38.619  30.175  29.328  1.00  0.00     0.049 A 
ATOM     42  N   UNL A   1      39.086  30.929  32.217  1.00  0.00    -0.248 NA
ATOM     43  C   UNL A   1      37.273  32.392  32.055  1.00  0.00     0.031 C 
ATOM     44  C   UNL A   1      38.425  29.757  27.942  1.00  0.00     0.029 A 
ATOM     45  N   UNL A   1      39.679  29.421  29.765  1.00  0.00    -0.354 N 
ATOM     46  C   UNL A   1      38.877  31.545  33.444  1.00  0.00     0.074 A 
ATOM     47  C   UNL A   1      37.770  32.461  33.279  1.00  0.00     0.031 C 
ATOM     48  C   UNL A   1      39.350  28.828  27.636  1.00  0.00     0.029 A 
ATOM     49  C   UNL A   1      40.218  28.614  28.793  1.00  0.00     0.049 A 
ATOM     50  H   UNL A   1      40.020  29.456  30.688  1.00  0.00     0.167 HD
ATOM     51  C   UNL A   1      39.542  31.363  34.610  1.00  0.00     0.037 A 
ATOM     52  C   UNL A   1      41.304  27.818  28.835  1.00  0.00     0.037 A 
ATOM     53  C   UNL A   1      40.668  30.482  34.765  1.00  0.00     0.049 A 
ATOM     54  C   UNL A   1      42.106  27.727  30.110  1.00  0.00     0.074 A 
ATOM     55  C   UNL A   1      41.416  30.227  35.900  1.00  0.00     0.029 A 
ATOM     56  N   UNL A   1      41.223  29.728  33.741  1.00  0.00    -0.354 N 
ATOM     57  N   UNL A   1      41.885  28.287  31.275  1.00  0.00    -0.248 NA
ATOM     58  C   UNL A   1      43.317  26.893  30.068  1.00  0.00     0.031 C 
ATOM     59  C   UNL A   1      42.461  29.365  35.549  1.00  0.00     0.029 A 
ATOM     60  C   UNL A   1      42.327  29.034  34.210  1.00  0.00     0.049 A 
ATOM     61  H   UNL A   1      40.883  29.691  32.818  1.00  0.00     0.167 HD
ATOM     62  C   UNL A   1      42.909  27.851  32.110  1.00  0.00     0.074 A 
ATOM     63  C   UNL A   1      43.739  26.964  31.323  1.00  0.00     0.031 C 
ATOM     64  C   UNL A   1      43.144  28.156  33.411  1.00  0.00     0.037 A 
BRANCH  51  65
ATOM     65  C   UNL A   1      39.083  32.170  35.789  1.00  0.00     0.057 A 
ATOM     66  C   UNL A   1      38.210  31.620  36.735  1.00  0.00     0.134 A 
ATOM     67  C   UNL A   1      39.514  33.488  35.996  1.00  0.00     0.134 A 
ATOM     68  F   UNL A   1      37.757  30.365  36.598  1.00  0.00    -0.206 F 
ATOM     69  C   UNL A   1      37.786  32.349  37.847  1.00  0.00     0.040 A 
ATOM     70  C   UNL A   1      39.122  34.216  37.120  1.00  0.00     0.040 A 
ATOM     71  F   UNL A   1      40.368  34.068  35.139  1.00  0.00    -0.206 F 
ATOM     72  C   UNL A   1      38.251  33.647  38.048  1.00  0.00     0.006 A 
ENDBRANCH  51  65
BRANCH  52  73
ATOM     73  C   UNL A   1      41.728  27.053  27.633  1.00  0.00     0.057 A 
ATOM     74  C   UNL A   1      41.277  25.747  27.401  1.00  0.00     0.134 A 
ATOM     75  C   UNL A   1      42.544  27.633  26.655  1.00  0.00     0.134 A 
ATOM     76  F   UNL A   1      40.485  25.135  28.294  1.00  0.00    -0.206 F 
ATOM     77  C   UNL A   1      41.624  25.047  26.244  1.00  0.00     0.040 A 
ATOM     78  C   UNL A   1      42.875  26.957  25.481  1.00  0.00     0.040 A 
ATOM     79  F   UNL A   1      42.984  28.892  26.805  1.00  0.00    -0.206 F 
ATOM     80  C   UNL A   1      42.417  25.657  25.274  1.00  0.00     0.006 A 
ENDBRANCH  52  73
BRANCH  64  81
ATOM     81  C   UNL A   1      44.327  27.500  34.069  1.00  0.00     0.057 A 
ATOM     82  C   UNL A   1      44.202  26.241  34.670  1.00  0.00     0.134 A 
ATOM     83  C   UNL A   1      45.583  28.119  34.127  1.00  0.00     0.134 A 
ATOM     84  F   UNL A   1      43.025  25.596  34.663  1.00  0.00    -0.206 F 
ATOM     85  C   UNL A   1      45.280  25.621  35.301  1.00  0.00     0.040 A 
ATOM     86  C   UNL A   1      46.678  27.494  34.727  1.00  0.00     0.040 A 
ATOM     87  F   UNL A   1      45.776  29.321  33.562  1.00  0.00    -0.206 F 
ATOM     88  C   UNL A   1      46.526  26.243  35.322  1.00  0.00     0.006 A 
ENDBRANCH  64  81
ENDBRANCH  38  39
ENDBRANCH  31  33
ENDBRANCH  30  31
ENDBRANCH  29  30
ENDBRANCH  28  29
ENDBRANCH  27  28
ENDBRANCH  26  27
ENDBRANCH  25  26
ENDBRANCH   1  25
TORSDOF 22
ENDMDL
MODEL 3
REMARK VINA RESULT:      -9.9      3.979      9.071
REMARK SMILES C[C@H](Oc1ccnc2c(F)cc(F)cc12)C(=O)OCCOCCOCCOCCOC(=O)c1ccc(-c2c3nc(c(-c4c(F)cccc4F)c4ccc([nH]4)c(-c4c(F)cccc4F)c4nc(c(-c5c(F)cccc5F)c5ccc2[nH]5)C=C4)C=C3)cc1
REMARK SMILES IDX 24 1 23 2 22 3 21 4 20 5 19 6 18 7 16 8 17 9 2 10 1 11 3 12
REMARK SMILES IDX 4 13 5 14 15 15 6 16 8 17 14 18 7 19 9 20 12 21 10 22 11 23
REMARK SMILES IDX 13 24 25 25 26 26 27 27 28 28 29 29 30 30 31 31 32 32 33 33
REMARK SMILES IDX 34 34 86 35 35 36 85 37 36 38 37 39 38 40 79 41 39 42 84 43
REMARK SMILES IDX 78 44 80 45 40 46 83 47 77 48 76 49 41 51 67 52 50 53 66 54
REMARK SMILES IDX 51 55 54 56 65 57 81 58 52 59 53 60 64 62 82 63 55 64 42 65
REMARK SMILES IDX 43 66 48 67 44 68 45 69 47 70 49 71 46 72 68 73 69 74 74 75
REMARK SMILES IDX 70 76 71 77 73 78 75 79 72 80 56 81 57 82 62 83 58 84 59 85
REMARK SMILES IDX 61 86 63 87 60 88
REMARK H PARENT 80 50 54 61
REMARK Flexibility Score: inf
ROOT
ATOM      1  O   UNL A   1      31.591  27.910  27.548  1.00  0.00    -0.377 OA
ENDROOT
BRANCH   1   2
ATOM      2  C   UNL A   1      31.236  27.093  26.454  1.00  0.00     0.188 C 
BRANCH   2   3
ATOM      3  C   UNL A   1      31.877  25.696  26.487  1.00  0.00     0.188 C 
BRANCH   3   4
ATOM      4  O   UNL A   1      33.222  25.496  26.075  1.00  0.00    -0.376 OA
BRANCH   4   5
ATOM      5  C   UNL A   1      33.792  26.213  24.987  1.00  0.00     0.202 C 
BRANCH   5   6
ATOM      6  C   UNL A   1      34.145  25.558  23.641  1.00  0.00     0.261 C 
BRANCH   6   7
ATOM      7  O   UNL A   1      33.030  25.225  22.804  1.00  0.00    -0.461 OA
BRANCH   7   8
ATOM      8  C   UNL A   1      32.908  23.922  22.462  1.00  0.00     0.347 C 
ATOM      9  O   UNL A   1      33.678  23.332  21.709  1.00  0.00    -0.248 OA
BRANCH   8  10
ATOM     10  C   UNL A   1      31.762  23.203  23.213  1.00  0.00     0.279 C 
ATOM     11  C   UNL A   1      30.573  24.143  23.415  1.00  0.00     0.066 C 
BRANCH  10  12
ATOM     12  O   UNL A   1      31.923  22.307  24.305  1.00  0.00    -0.478 OA
BRANCH  12  13
ATOM     13  C   UNL A   1      33.106  21.704  24.633  1.00  0.00     0.131 A 
ATOM     14  C   UNL A   1      34.111  22.319  25.362  1.00  0.00     0.067 A 
ATOM     15  C   UNL A   1      33.268  20.356  24.208  1.00  0.00     0.048 A 
ATOM     16  C   UNL A   1      35.217  21.568  25.698  1.00  0.00     0.115 A 
ATOM     17  C   UNL A   1      34.433  19.671  24.623  1.00  0.00     0.110 A 
ATOM     18  C   UNL A   1      32.330  19.670  23.395  1.00  0.00     0.053 A 
ATOM     19  N   UNL A   1      35.382  20.273  25.363  1.00  0.00    -0.253 NA
ATOM     20  C   UNL A   1      34.580  18.330  24.247  1.00  0.00     0.152 A 
ATOM     21  C   UNL A   1      32.537  18.345  23.024  1.00  0.00     0.127 A 
ATOM     22  F   UNL A   1      35.657  17.638  24.658  1.00  0.00    -0.204 F 
ATOM     23  C   UNL A   1      33.653  17.659  23.456  1.00  0.00     0.080 A 
ATOM     24  F   UNL A   1      31.644  17.727  22.240  1.00  0.00    -0.207 F 
ENDBRANCH  12  13
ENDBRANCH  10  12
ENDBRANCH   8  10
ENDBRANCH   7   8
ENDBRANCH   6   7
ENDBRANCH   5   6
ENDBRANCH   4   5
ENDBRANCH   3   4
ENDBRANCH   2   3
ENDBRANCH   1   2
BRANCH   1  25
ATOM     25  C   UNL A   1      32.012  29.235  27.253  1.00  0.00     0.188 C 
BRANCH  25  26
ATOM     26  C   UNL A   1      31.781  29.790  25.829  1.00  0.00     0.188 C 
BRANCH  26  27
ATOM     27  O   UNL A   1      31.602  31.198  25.776  1.00  0.00    -0.376 OA
BRANCH  27  28
ATOM     28  C   UNL A   1      31.636  31.923  26.996  1.00  0.00     0.202 C 
BRANCH  28  29
ATOM     29  C   UNL A   1      32.345  33.288  26.991  1.00  0.00     0.261 C 
BRANCH  29  30
ATOM     30  O   UNL A   1      32.156  34.119  28.147  1.00  0.00    -0.460 OA
BRANCH  30  31
ATOM     31  C   UNL A   1      33.147  34.959  28.505  1.00  0.00     0.338 C 
ATOM     32  O   UNL A   1      33.092  36.174  28.589  1.00  0.00    -0.246 OA
BRANCH  31  33
ATOM     33  C   UNL A   1      34.280  34.131  28.969  1.00  0.00     0.060 A 
ATOM     34  C   UNL A   1      34.048  33.111  29.902  1.00  0.00     0.016 A 
ATOM     35  C   UNL A   1      35.566  34.359  28.476  1.00  0.00     0.016 A 
ATOM     36  C   UNL A   1      35.108  32.331  30.365  1.00  0.00     0.010 A 
ATOM     37  C   UNL A   1      36.634  33.604  28.969  1.00  0.00     0.010 A 
ATOM     38  C   UNL A   1      36.413  32.611  29.940  1.00  0.00    -0.014 A 
BRANCH  38  39
ATOM     39  C   UNL A   1      37.558  32.060  30.702  1.00  0.00     0.031 A 
ATOM     40  C   UNL A   1      38.338  30.937  30.074  1.00  0.00     0.074 A 
ATOM     41  C   UNL A   1      37.912  32.539  31.906  1.00  0.00     0.049 A 
ATOM     42  N   UNL A   1      39.348  30.253  30.546  1.00  0.00    -0.248 NA
ATOM     43  C   UNL A   1      37.915  30.532  28.722  1.00  0.00     0.031 C 
ATOM     44  C   UNL A   1      37.269  33.652  32.600  1.00  0.00     0.029 A 
ATOM     45  N   UNL A   1      38.903  32.130  32.763  1.00  0.00    -0.354 N 
ATOM     46  C   UNL A   1      39.684  29.346  29.550  1.00  0.00     0.074 A 
ATOM     47  C   UNL A   1      38.749  29.538  28.464  1.00  0.00     0.031 C 
ATOM     48  C   UNL A   1      37.874  33.828  33.790  1.00  0.00     0.029 A 
ATOM     49  C   UNL A   1      38.922  32.821  33.951  1.00  0.00     0.049 A 
ATOM     50  H   UNL A   1      39.539  31.411  32.547  1.00  0.00     0.167 HD
ATOM     51  C   UNL A   1      40.685  28.435  29.535  1.00  0.00     0.037 A 
ATOM     52  C   UNL A   1      39.684  32.636  35.046  1.00  0.00     0.037 A 
ATOM     53  C   UNL A   1      41.590  28.215  30.631  1.00  0.00     0.049 A 
ATOM     54  C   UNL A   1      40.710  31.529  35.055  1.00  0.00     0.074 A 
ATOM     55  C   UNL A   1      42.636  27.315  30.721  1.00  0.00     0.029 A 
ATOM     56  N   UNL A   1      41.538  28.892  31.841  1.00  0.00    -0.354 N 
ATOM     57  N   UNL A   1      41.045  30.696  34.099  1.00  0.00    -0.248 NA
ATOM     58  C   UNL A   1      41.461  31.338  36.305  1.00  0.00     0.031 C 
ATOM     59  C   UNL A   1      43.179  27.404  32.008  1.00  0.00     0.029 A 
ATOM     60  C   UNL A   1      42.512  28.404  32.698  1.00  0.00     0.049 A 
ATOM     61  H   UNL A   1      40.904  29.612  32.059  1.00  0.00     0.167 HD
ATOM     62  C   UNL A   1      42.062  29.903  34.621  1.00  0.00     0.074 A 
ATOM     63  C   UNL A   1      42.303  30.370  35.970  1.00  0.00     0.031 C 
ATOM     64  C   UNL A   1      42.737  28.880  34.039  1.00  0.00     0.037 A 
BRANCH  51  65
ATOM     65  C   UNL A   1      40.815  27.585  28.305  1.00  0.00     0.057 A 
ATOM     66  C   UNL A   1      40.113  26.379  28.193  1.00  0.00     0.134 A 
ATOM     67  C   UNL A   1      41.625  27.964  27.225  1.00  0.00     0.134 A 
ATOM     68  F   UNL A   1      39.321  25.955  29.189  1.00  0.00    -0.206 F 
ATOM     69  C   UNL A   1      40.207  25.584  27.049  1.00  0.00     0.040 A 
ATOM     70  C   UNL A   1      41.702  27.193  26.065  1.00  0.00     0.040 A 
ATOM     71  F   UNL A   1      42.308  29.119  27.259  1.00  0.00    -0.206 F 
ATOM     72  C   UNL A   1      40.995  25.996  25.977  1.00  0.00     0.006 A 
ENDBRANCH  51  65
BRANCH  52  73
ATOM     73  C   UNL A   1      39.503  33.493  36.247  1.00  0.00     0.057 A 
ATOM     74  C   UNL A   1      38.731  33.070  37.336  1.00  0.00     0.134 A 
ATOM     75  C   UNL A   1      40.152  34.728  36.360  1.00  0.00     0.134 A 
ATOM     76  F   UNL A   1      38.089  31.893  37.297  1.00  0.00    -0.206 F 
ATOM     77  C   UNL A   1      38.607  33.845  38.491  1.00  0.00     0.040 A 
ATOM     78  C   UNL A   1      40.062  35.499  37.519  1.00  0.00     0.040 A 
ATOM     79  F   UNL A   1      40.930  35.174  35.363  1.00  0.00    -0.206 F 
ATOM     80  C   UNL A   1      39.284  35.059  38.588  1.00  0.00     0.006 A 
ENDBRANCH  52  73
BRANCH  64  81
ATOM     81  C   UNL A   1      43.820  28.221  34.849  1.00  0.00     0.057 A 
ATOM     82  C   UNL A   1      45.130  28.715  34.825  1.00  0.00     0.134 A 
ATOM     83  C   UNL A   1      43.574  27.088  35.637  1.00  0.00     0.134 A 
ATOM     84  F   UNL A   1      45.441  29.790  34.082  1.00  0.00    -0.206 F 
ATOM     85  C   UNL A   1      46.155  28.110  35.553  1.00  0.00     0.040 A 
ATOM     86  C   UNL A   1      44.584  26.493  36.396  1.00  0.00     0.040 A 
ATOM     87  F   UNL A   1      42.339  26.569  35.714  1.00  0.00    -0.206 F 
ATOM     88  C   UNL A   1      45.880  27.002  36.351  1.00  0.00     0.006 A 
ENDBRANCH  64  81
ENDBRANCH  38  39
ENDBRANCH  31  33
ENDBRANCH  30  31
ENDBRANCH  29  30
ENDBRANCH  28  29
ENDBRANCH  27  28
ENDBRANCH  26  27
ENDBRANCH  25  26
ENDBRANCH   1  25
TORSDOF 22
ENDMDL
