MODEL 1
REMARK VINA RESULT:      -9.6      0.000      0.000
REMARK SMILES Cc1ccc(S(=O)(=O)n2cc(C(=O)C(=O)N[C@H](Cc3c[nH]c4ccccc34)C(=O)NCC(=O)OCCOCCOCCOCCOC(=O)c3ccc(-c4c5nc(c(-c6c(F)cccc6F)c6ccc([nH]6)c(-c6c(F)cccc6F)c6nc(c(-c7c(F)cccc7F)c7ccc4[nH]7)C=C6)C=C5)cc3)c3ccccc32)cc1
REMARK SMILES IDX 38 1 37 2 36 3 35 4 34 5 32 6 33 7 31 8 30 9 28 10 29 11
REMARK SMILES IDX 17 13 16 14 14 15 15 16 12 18 13 19 11 20 9 21 10 22 108 23
REMARK SMILES IDX 103 24 107 25 104 26 106 27 105 28 6 29 7 30 8 31 5 32 1 33
REMARK SMILES IDX 2 34 3 35 110 36 4 37 109 38 18 39 19 40 20 41 27 42 21 43
REMARK SMILES IDX 22 44 26 45 23 47 25 48 24 49 39 50 40 51 41 52 42 53 43 54
REMARK SMILES IDX 44 55 45 56 46 57 47 58 48 59 49 60 50 61 102 62 51 63
REMARK SMILES IDX 101 64 52 65 53 66 54 67 95 68 55 69 100 70 94 71 96 72
REMARK SMILES IDX 56 73 99 74 93 75 92 76 57 78 83 79 66 80 82 81 67 82 70 83
REMARK SMILES IDX 81 84 97 85 68 86 69 87 80 89 98 90 71 91 58 92 59 93 64 94
REMARK SMILES IDX 60 95 61 96 63 97 65 98 62 99 84 100 85 101 90 102 86 103
REMARK SMILES IDX 87 104 89 105 91 106 88 107 72 108 73 109 78 110 74 111
REMARK SMILES IDX 75 112 77 113 79 114 76 115
REMARK H PARENT 30 12 16 17 21 46 96 77 70 88
REMARK Flexibility Score: inf
ROOT
ATOM      1  C   UNL A   1      37.938  23.817  26.218  1.00  0.00     0.188 C 
ENDROOT
BRANCH   1   2
ATOM      2  O   UNL A   1      37.404  22.815  25.387  1.00  0.00    -0.376 OA
BRANCH   2   3
ATOM      3  C   UNL A   1      36.674  23.355  24.330  1.00  0.00     0.202 C 
BRANCH   3   4
ATOM      4  C   UNL A   1      35.359  24.074  24.668  1.00  0.00     0.261 C 
BRANCH   4   5
ATOM      5  O   UNL A   1      34.408  23.307  25.409  1.00  0.00    -0.462 OA
BRANCH   5   6
ATOM      6  C   UNL A   1      33.532  23.955  26.215  1.00  0.00     0.325 C 
ATOM      7  O   UNL A   1      32.812  23.430  27.057  1.00  0.00    -0.250 OA
BRANCH   6   8
ATOM      8  C   UNL A   1      33.352  25.387  25.828  1.00  0.00     0.238 C 
BRANCH   8   9
ATOM      9  N   UNL A   1      32.288  26.012  26.568  1.00  0.00    -0.343 N 
ATOM     10  C   UNL A   1      31.907  27.313  26.603  1.00  0.00     0.243 C 
ATOM     11  O   UNL A   1      31.008  27.537  27.419  1.00  0.00    -0.273 OA
ATOM     12  H   UNL A   1      31.757  25.405  27.132  1.00  0.00     0.164 HD
BRANCH  10  13
ATOM     13  C   UNL A   1      32.574  28.478  25.774  1.00  0.00     0.176 C 
BRANCH  13  14
ATOM     14  N   UNL A   1      32.777  29.841  26.478  1.00  0.00    -0.337 N 
ATOM     15  C   UNL A   1      33.733  30.553  27.259  1.00  0.00     0.293 C 
ATOM     16  O   UNL A   1      33.430  31.697  27.596  1.00  0.00    -0.265 OA
ATOM     17  H   UNL A   1      31.981  30.404  26.340  1.00  0.00     0.164 HD
BRANCH  15  18
ATOM     18  C   UNL A   1      35.120  29.981  27.670  1.00  0.00     0.252 C 
ATOM     19  O   UNL A   1      35.536  29.201  26.828  1.00  0.00    -0.283 OA
BRANCH  18  20
ATOM     20  C   UNL A   1      35.989  30.222  28.890  1.00  0.00     0.054 A 
ATOM     21  N   UNL A   1      37.057  31.402  30.669  1.00  0.00    -0.240 N 
ATOM     22  C   UNL A   1      35.901  31.252  29.845  1.00  0.00     0.117 A 
ATOM     23  C   UNL A   1      37.816  30.225  30.747  1.00  0.00     0.065 A 
ATOM     24  C   UNL A   1      37.312  29.544  29.184  1.00  0.00     0.012 A 
ATOM     25  C   UNL A   1      39.518  30.009  31.335  1.00  0.00     0.028 A 
ATOM     26  C   UNL A   1      38.664  28.854  28.109  1.00  0.00     0.011 A 
ATOM     27  C   UNL A   1      40.810  29.106  30.336  1.00  0.00     0.002 A 
ATOM     28  C   UNL A   1      40.395  28.560  28.693  1.00  0.00     0.001 A 
BRANCH  21  29
ATOM     29  S   UNL A   1      37.431  32.901  31.468  1.00  0.00     0.268 S 
ATOM     30  O   UNL A   1      38.700  33.272  30.851  1.00  0.00    -0.201 OA
ATOM     31  O   UNL A   1      36.239  33.686  31.197  1.00  0.00    -0.201 OA
BRANCH  29  32
ATOM     32  C   UNL A   1      37.731  33.161  33.253  1.00  0.00     0.088 A 
ATOM     33  C   UNL A   1      37.175  33.030  37.593  1.00  0.00     0.044 C 
ATOM     34  C   UNL A   1      37.414  33.179  36.118  1.00  0.00    -0.051 A 
ATOM     35  C   UNL A   1      38.545  32.630  35.517  1.00  0.00     0.005 A 
ATOM     36  C   UNL A   1      36.500  33.829  35.295  1.00  0.00     0.005 A 
ATOM     37  C   UNL A   1      38.692  32.619  34.106  1.00  0.00     0.022 A 
ATOM     38  C   UNL A   1      36.663  33.823  33.896  1.00  0.00     0.022 A 
ENDBRANCH  29  32
ENDBRANCH  21  29
ENDBRANCH  18  20
ENDBRANCH  15  18
ENDBRANCH  13  14
BRANCH  13  39
ATOM     39  C   UNL A   1      32.064  28.557  24.325  1.00  0.00     0.072 C 
BRANCH  39  40
ATOM     40  C   UNL A   1      30.613  28.718  23.889  1.00  0.00    -0.020 A 
ATOM     41  C   UNL A   1      29.871  27.599  23.522  1.00  0.00     0.087 A 
ATOM     42  C   UNL A   1      29.727  29.824  23.657  1.00  0.00     0.003 A 
ATOM     43  N   UNL A   1      28.811  28.010  22.760  1.00  0.00    -0.361 N 
ATOM     44  C   UNL A   1      28.736  29.375  22.770  1.00  0.00     0.046 A 
ATOM     45  C   UNL A   1      29.666  31.179  24.029  1.00  0.00     0.010 A 
ATOM     46  H   UNL A   1      28.194  27.413  22.278  1.00  0.00     0.166 HD
ATOM     47  C   UNL A   1      27.858  30.221  22.081  1.00  0.00     0.026 A 
ATOM     48  C   UNL A   1      28.685  32.015  23.471  1.00  0.00     0.001 A 
ATOM     49  C   UNL A   1      27.834  31.557  22.470  1.00  0.00     0.002 A 
ENDBRANCH  39  40
ENDBRANCH  13  39
ENDBRANCH  10  13
ENDBRANCH   8   9
ENDBRANCH   6   8
ENDBRANCH   5   6
ENDBRANCH   4   5
ENDBRANCH   3   4
ENDBRANCH   2   3
ENDBRANCH   1   2
BRANCH   1  50
ATOM     50  C   UNL A   1      39.413  23.620  26.673  1.00  0.00     0.188 C 
BRANCH  50  51
ATOM     51  O   UNL A   1      40.115  22.392  26.512  1.00  0.00    -0.377 OA
BRANCH  51  52
ATOM     52  C   UNL A   1      41.310  21.960  27.163  1.00  0.00     0.188 C 
BRANCH  52  53
ATOM     53  C   UNL A   1      42.525  21.594  26.345  1.00  0.00     0.188 C 
BRANCH  53  54
ATOM     54  O   UNL A   1      42.457  22.187  25.052  1.00  0.00    -0.376 OA
BRANCH  54  55
ATOM     55  C   UNL A   1      43.037  23.485  25.001  1.00  0.00     0.202 C 
BRANCH  55  56
ATOM     56  C   UNL A   1      44.568  23.349  24.990  1.00  0.00     0.261 C 
BRANCH  56  57
ATOM     57  O   UNL A   1      45.101  24.589  25.581  1.00  0.00    -0.460 OA
BRANCH  57  58
ATOM     58  C   UNL A   1      46.047  24.552  26.576  1.00  0.00     0.338 C 
ATOM     59  O   UNL A   1      47.165  24.077  26.447  1.00  0.00    -0.246 OA
BRANCH  58  60
ATOM     60  C   UNL A   1      45.467  24.903  27.941  1.00  0.00     0.060 A 
ATOM     61  C   UNL A   1      44.127  25.324  28.103  1.00  0.00     0.016 A 
ATOM     62  C   UNL A   1      46.337  25.129  28.996  1.00  0.00     0.016 A 
ATOM     63  C   UNL A   1      43.716  26.088  29.232  1.00  0.00     0.010 A 
ATOM     64  C   UNL A   1      45.962  25.993  30.019  1.00  0.00     0.010 A 
ATOM     65  C   UNL A   1      44.661  26.516  30.164  1.00  0.00    -0.014 A 
BRANCH  65  66
ATOM     66  C   UNL A   1      44.535  27.630  31.189  1.00  0.00     0.031 A 
ATOM     67  C   UNL A   1      44.550  29.056  30.582  1.00  0.00     0.074 A 
ATOM     68  C   UNL A   1      44.033  27.205  32.386  1.00  0.00     0.049 A 
ATOM     69  N   UNL A   1      43.993  30.150  30.983  1.00  0.00    -0.248 NA
ATOM     70  C   UNL A   1      45.280  29.303  29.316  1.00  0.00     0.031 C 
ATOM     71  C   UNL A   1      43.011  27.698  33.304  1.00  0.00     0.029 A 
ATOM     72  N   UNL A   1      44.312  26.021  33.029  1.00  0.00    -0.354 N 
ATOM     73  C   UNL A   1      44.252  31.192  30.060  1.00  0.00     0.074 A 
ATOM     74  C   UNL A   1      44.980  30.570  28.997  1.00  0.00     0.031 C 
ATOM     75  C   UNL A   1      43.075  27.156  34.522  1.00  0.00     0.029 A 
ATOM     76  C   UNL A   1      44.114  26.229  34.398  1.00  0.00     0.049 A 
ATOM     77  H   UNL A   1      44.599  25.182  32.603  1.00  0.00     0.167 HD
ATOM     78  C   UNL A   1      43.820  32.474  30.300  1.00  0.00     0.037 A 
ATOM     79  C   UNL A   1      44.684  25.675  35.472  1.00  0.00     0.037 A 
ATOM     80  C   UNL A   1      43.377  32.508  31.655  1.00  0.00     0.049 A 
ATOM     81  C   UNL A   1      45.242  27.150  35.973  1.00  0.00     0.074 A 
ATOM     82  C   UNL A   1      42.152  32.258  32.136  1.00  0.00     0.029 A 
ATOM     83  N   UNL A   1      44.300  32.577  32.670  1.00  0.00    -0.354 N 
ATOM     84  N   UNL A   1      45.586  28.230  35.252  1.00  0.00    -0.248 NA
ATOM     85  C   UNL A   1      44.895  27.580  37.350  1.00  0.00     0.031 C 
ATOM     86  C   UNL A   1      42.452  31.735  33.389  1.00  0.00     0.029 A 
ATOM     87  C   UNL A   1      43.954  31.742  33.943  1.00  0.00     0.049 A 
ATOM     88  H   UNL A   1      45.121  33.115  32.601  1.00  0.00     0.167 HD
ATOM     89  C   UNL A   1      45.288  29.479  35.972  1.00  0.00     0.074 A 
ATOM     90  C   UNL A   1      44.814  28.927  37.270  1.00  0.00     0.031 C 
ATOM     91  C   UNL A   1      45.028  30.957  35.511  1.00  0.00     0.037 A 
BRANCH  78  92
ATOM     92  C   UNL A   1      43.652  33.760  29.498  1.00  0.00     0.057 A 
ATOM     93  C   UNL A   1      44.819  34.478  29.086  1.00  0.00     0.134 A 
ATOM     94  C   UNL A   1      42.460  34.386  29.137  1.00  0.00     0.134 A 
ATOM     95  F   UNL A   1      46.053  34.095  29.438  1.00  0.00    -0.206 F 
ATOM     96  C   UNL A   1      44.808  35.652  28.329  1.00  0.00     0.040 A 
ATOM     97  C   UNL A   1      42.434  35.589  28.390  1.00  0.00     0.040 A 
ATOM     98  F   UNL A   1      41.273  33.881  29.494  1.00  0.00    -0.206 F 
ATOM     99  C   UNL A   1      43.605  36.213  27.966  1.00  0.00     0.006 A 
ENDBRANCH  78  92
BRANCH  79 100
ATOM    100  C   UNL A   1      44.749  24.268  34.824  1.00  0.00     0.057 A 
ATOM    101  C   UNL A   1      46.118  23.767  34.615  1.00  0.00     0.134 A 
ATOM    102  C   UNL A   1      43.836  23.220  34.948  1.00  0.00     0.134 A 
ATOM    103  F   UNL A   1      47.146  24.583  34.877  1.00  0.00    -0.206 F 
ATOM    104  C   UNL A   1      46.534  22.422  34.588  1.00  0.00     0.040 A 
ATOM    105  C   UNL A   1      44.259  21.849  34.966  1.00  0.00     0.040 A 
ATOM    106  F   UNL A   1      42.577  23.474  35.322  1.00  0.00    -0.206 F 
ATOM    107  C   UNL A   1      45.595  21.447  34.813  1.00  0.00     0.006 A 
ENDBRANCH  79 100
BRANCH  91 108
ATOM    108  C   UNL A   1      46.457  31.629  36.483  1.00  0.00     0.057 A 
ATOM    109  C   UNL A   1      47.662  32.099  35.896  1.00  0.00     0.134 A 
ATOM    110  C   UNL A   1      46.589  31.827  37.931  1.00  0.00     0.134 A 
ATOM    111  F   UNL A   1      47.756  32.544  34.640  1.00  0.00    -0.206 F 
ATOM    112  C   UNL A   1      48.863  32.347  36.601  1.00  0.00     0.040 A 
ATOM    113  C   UNL A   1      47.772  32.060  38.640  1.00  0.00     0.040 A 
ATOM    114  F   UNL A   1      45.568  31.879  38.810  1.00  0.00    -0.206 F 
ATOM    115  C   UNL A   1      48.943  32.258  37.972  1.00  0.00     0.006 A 
ENDBRANCH  91 108
ENDBRANCH  65  66
ENDBRANCH  58  60
ENDBRANCH  57  58
ENDBRANCH  56  57
ENDBRANCH  55  56
ENDBRANCH  54  55
ENDBRANCH  53  54
ENDBRANCH  52  53
ENDBRANCH  51  52
ENDBRANCH  50  51
ENDBRANCH   1  50
TORSDOF 29
ENDMDL
MODEL 2
REMARK VINA RESULT:      -9.4      4.325      6.822
REMARK SMILES Cc1ccc(S(=O)(=O)n2cc(C(=O)C(=O)N[C@H](Cc3c[nH]c4ccccc34)C(=O)NCC(=O)OCCOCCOCCOCCOC(=O)c3ccc(-c4c5nc(c(-c6c(F)cccc6F)c6ccc([nH]6)c(-c6c(F)cccc6F)c6nc(c(-c7c(F)cccc7F)c7ccc4[nH]7)C=C6)C=C5)cc3)c3ccccc32)cc1
REMARK SMILES IDX 38 1 37 2 36 3 35 4 34 5 32 6 33 7 31 8 30 9 28 10 29 11
REMARK SMILES IDX 17 13 16 14 14 15 15 16 12 18 13 19 11 20 9 21 10 22 108 23
REMARK SMILES IDX 103 24 107 25 104 26 106 27 105 28 6 29 7 30 8 31 5 32 1 33
REMARK SMILES IDX 2 34 3 35 110 36 4 37 109 38 18 39 19 40 20 41 27 42 21 43
REMARK SMILES IDX 22 44 26 45 23 47 25 48 24 49 39 50 40 51 41 52 42 53 43 54
REMARK SMILES IDX 44 55 45 56 46 57 47 58 48 59 49 60 50 61 102 62 51 63
REMARK SMILES IDX 101 64 52 65 53 66 54 67 95 68 55 69 100 70 94 71 96 72
REMARK SMILES IDX 56 73 99 74 93 75 92 76 57 78 83 79 66 80 82 81 67 82 70 83
REMARK SMILES IDX 81 84 97 85 68 86 69 87 80 89 98 90 71 91 58 92 59 93 64 94
REMARK SMILES IDX 60 95 61 96 63 97 65 98 62 99 84 100 85 101 90 102 86 103
REMARK SMILES IDX 87 104 89 105 91 106 88 107 72 108 73 109 78 110 74 111
REMARK SMILES IDX 75 112 77 113 79 114 76 115
REMARK H PARENT 30 12 16 17 21 46 96 77 70 88
REMARK Flexibility Score: inf
ROOT
ATOM      1  C   UNL A   1      36.824  22.714  26.385  1.00  0.00     0.188 C 
ENDROOT
BRANCH   1   2
ATOM      2  O   UNL A   1      36.605  21.691  25.445  1.00  0.00    -0.376 OA
BRANCH   2   3
ATOM      3  C   UNL A   1      36.264  22.201  24.194  1.00  0.00     0.202 C 
BRANCH   3   4
ATOM      4  C   UNL A   1      34.779  22.489  23.924  1.00  0.00     0.261 C 
BRANCH   4   5
ATOM      5  O   UNL A   1      33.857  21.549  24.477  1.00  0.00    -0.462 OA
BRANCH   5   6
ATOM      6  C   UNL A   1      32.719  22.010  25.051  1.00  0.00     0.325 C 
ATOM      7  O   UNL A   1      31.780  21.320  25.433  1.00  0.00    -0.250 OA
BRANCH   6   8
ATOM      8  C   UNL A   1      32.605  23.498  24.979  1.00  0.00     0.238 C 
BRANCH   8   9
ATOM      9  N   UNL A   1      31.392  23.973  25.588  1.00  0.00    -0.343 N 
ATOM     10  C   UNL A   1      30.967  25.244  25.792  1.00  0.00     0.243 C 
ATOM     11  O   UNL A   1      29.912  25.310  26.432  1.00  0.00    -0.273 OA
ATOM     12  H   UNL A   1      30.778  23.271  25.904  1.00  0.00     0.164 HD
BRANCH  10  13
ATOM     13  C   UNL A   1      31.747  26.545  25.358  1.00  0.00     0.176 C 
BRANCH  13  14
ATOM     14  N   UNL A   1      31.532  27.830  26.194  1.00  0.00    -0.337 N 
ATOM     15  C   UNL A   1      32.266  28.873  26.829  1.00  0.00     0.293 C 
ATOM     16  O   UNL A   1      31.608  29.744  27.397  1.00  0.00    -0.265 OA
ATOM     17  H   UNL A   1      30.568  27.974  26.333  1.00  0.00     0.164 HD
BRANCH  15  18
ATOM     18  C   UNL A   1      33.817  28.981  26.813  1.00  0.00     0.252 C 
ATOM     19  O   UNL A   1      34.304  28.144  26.069  1.00  0.00    -0.283 OA
BRANCH  18  20
ATOM     20  C   UNL A   1      34.772  29.909  27.542  1.00  0.00     0.054 A 
ATOM     21  N   UNL A   1      36.285  30.682  29.218  1.00  0.00    -0.240 N 
ATOM     22  C   UNL A   1      35.795  29.581  28.452  1.00  0.00     0.117 A 
ATOM     23  C   UNL A   1      36.060  31.916  28.590  1.00  0.00     0.065 A 
ATOM     24  C   UNL A   1      34.641  31.414  27.641  1.00  0.00     0.012 A 
ATOM     25  C   UNL A   1      36.146  33.583  29.298  1.00  0.00     0.028 A 
ATOM     26  C   UNL A   1      33.189  32.576  27.650  1.00  0.00     0.011 A 
ATOM     27  C   UNL A   1      34.765  34.823  29.099  1.00  0.00     0.002 A 
ATOM     28  C   UNL A   1      33.257  34.306  28.306  1.00  0.00     0.001 A 
BRANCH  21  29
ATOM     29  S   UNL A   1      37.070  30.458  30.754  1.00  0.00     0.268 S 
ATOM     30  O   UNL A   1      36.798  29.055  31.039  1.00  0.00    -0.201 OA
ATOM     31  O   UNL A   1      38.427  30.886  30.457  1.00  0.00    -0.201 OA
BRANCH  29  32
ATOM     32  C   UNL A   1      36.682  31.299  32.330  1.00  0.00     0.088 A 
ATOM     33  C   UNL A   1      37.176  33.699  35.958  1.00  0.00     0.044 C 
ATOM     34  C   UNL A   1      36.933  32.809  34.772  1.00  0.00    -0.051 A 
ATOM     35  C   UNL A   1      35.991  33.150  33.803  1.00  0.00     0.005 A 
ATOM     36  C   UNL A   1      37.664  31.642  34.577  1.00  0.00     0.005 A 
ATOM     37  C   UNL A   1      35.878  32.406  32.601  1.00  0.00     0.022 A 
ATOM     38  C   UNL A   1      37.533  30.904  33.385  1.00  0.00     0.022 A 
ENDBRANCH  29  32
ENDBRANCH  21  29
ENDBRANCH  18  20
ENDBRANCH  15  18
ENDBRANCH  13  14
BRANCH  13  39
ATOM     39  C   UNL A   1      31.778  26.751  23.834  1.00  0.00     0.072 C 
BRANCH  39  40
ATOM     40  C   UNL A   1      31.082  27.865  23.063  1.00  0.00    -0.020 A 
ATOM     41  C   UNL A   1      31.829  28.733  22.271  1.00  0.00     0.087 A 
ATOM     42  C   UNL A   1      29.740  28.369  22.973  1.00  0.00     0.003 A 
ATOM     43  N   UNL A   1      31.099  29.872  22.066  1.00  0.00    -0.361 N 
ATOM     44  C   UNL A   1      29.831  29.702  22.546  1.00  0.00     0.046 A 
ATOM     45  C   UNL A   1      28.449  27.891  23.263  1.00  0.00     0.010 A 
ATOM     46  H   UNL A   1      31.437  30.691  21.635  1.00  0.00     0.166 HD
ATOM     47  C   UNL A   1      28.775  30.620  22.608  1.00  0.00     0.026 A 
ATOM     48  C   UNL A   1      27.346  28.755  23.174  1.00  0.00     0.001 A 
ATOM     49  C   UNL A   1      27.515  30.111  22.909  1.00  0.00     0.002 A 
ENDBRANCH  39  40
ENDBRANCH  13  39
ENDBRANCH  10  13
ENDBRANCH   8   9
ENDBRANCH   6   8
ENDBRANCH   5   6
ENDBRANCH   4   5
ENDBRANCH   3   4
ENDBRANCH   2   3
ENDBRANCH   1   2
BRANCH   1  50
ATOM     50  C   UNL A   1      37.995  23.692  26.078  1.00  0.00     0.188 C 
BRANCH  50  51
ATOM     51  O   UNL A   1      39.360  23.288  26.076  1.00  0.00    -0.377 OA
BRANCH  51  52
ATOM     52  C   UNL A   1      40.217  23.048  27.192  1.00  0.00     0.188 C 
BRANCH  52  53
ATOM     53  C   UNL A   1      41.213  24.100  27.620  1.00  0.00     0.188 C 
BRANCH  53  54
ATOM     54  O   UNL A   1      40.954  25.334  26.957  1.00  0.00    -0.376 OA
BRANCH  54  55
ATOM     55  C   UNL A   1      41.987  26.296  27.141  1.00  0.00     0.202 C 
BRANCH  55  56
ATOM     56  C   UNL A   1      41.433  27.475  27.956  1.00  0.00     0.261 C 
BRANCH  56  57
ATOM     57  O   UNL A   1      41.982  27.336  29.316  1.00  0.00    -0.460 OA
BRANCH  57  58
ATOM     58  C   UNL A   1      43.011  28.137  29.750  1.00  0.00     0.338 C 
ATOM     59  O   UNL A   1      42.897  29.324  30.015  1.00  0.00    -0.246 OA
BRANCH  58  60
ATOM     60  C   UNL A   1      44.371  27.466  29.597  1.00  0.00     0.060 A 
ATOM     61  C   UNL A   1      44.545  26.072  29.759  1.00  0.00     0.016 A 
ATOM     62  C   UNL A   1      45.509  28.256  29.621  1.00  0.00     0.016 A 
ATOM     63  C   UNL A   1      45.811  25.512  30.089  1.00  0.00     0.010 A 
ATOM     64  C   UNL A   1      46.706  27.719  30.082  1.00  0.00     0.010 A 
ATOM     65  C   UNL A   1      46.896  26.348  30.350  1.00  0.00    -0.014 A 
BRANCH  65  66
ATOM     66  C   UNL A   1      48.185  26.017  31.082  1.00  0.00     0.031 A 
ATOM     67  C   UNL A   1      49.464  26.184  30.223  1.00  0.00     0.074 A 
ATOM     68  C   UNL A   1      48.050  26.026  32.441  1.00  0.00     0.049 A 
ATOM     69  N   UNL A   1      50.672  26.493  30.558  1.00  0.00    -0.248 NA
ATOM     70  C   UNL A   1      49.386  25.999  28.754  1.00  0.00     0.031 C 
ATOM     71  C   UNL A   1      48.821  26.585  33.547  1.00  0.00     0.029 A 
ATOM     72  N   UNL A   1      46.978  25.564  33.170  1.00  0.00    -0.354 N 
ATOM     73  C   UNL A   1      51.489  26.575  29.405  1.00  0.00     0.074 A 
ATOM     74  C   UNL A   1      50.600  26.349  28.307  1.00  0.00     0.031 C 
ATOM     75  C   UNL A   1      48.507  26.069  34.737  1.00  0.00     0.029 A 
ATOM     76  C   UNL A   1      47.455  25.201  34.435  1.00  0.00     0.049 A 
ATOM     77  H   UNL A   1      46.047  25.502  32.859  1.00  0.00     0.167 HD
ATOM     78  C   UNL A   1      52.836  26.827  29.508  1.00  0.00     0.037 A 
ATOM     79  C   UNL A   1      47.041  24.278  35.308  1.00  0.00     0.037 A 
ATOM     80  C   UNL A   1      53.170  26.701  30.888  1.00  0.00     0.049 A 
ATOM     81  C   UNL A   1      48.504  23.510  35.233  1.00  0.00     0.074 A 
ATOM     82  C   UNL A   1      53.162  27.648  31.836  1.00  0.00     0.029 A 
ATOM     83  N   UNL A   1      53.311  25.452  31.442  1.00  0.00    -0.354 N 
ATOM     84  N   UNL A   1      49.385  23.433  34.221  1.00  0.00    -0.248 NA
ATOM     85  C   UNL A   1      49.217  23.271  36.512  1.00  0.00     0.031 C 
ATOM     86  C   UNL A   1      52.844  26.902  32.965  1.00  0.00     0.029 A 
ATOM     87  C   UNL A   1      52.770  25.305  32.900  1.00  0.00     0.049 A 
ATOM     88  H   UNL A   1      53.724  24.703  30.956  1.00  0.00     0.167 HD
ATOM     89  C   UNL A   1      50.771  23.374  34.714  1.00  0.00     0.074 A 
ATOM     90  C   UNL A   1      50.527  23.322  36.181  1.00  0.00     0.031 C 
ATOM     91  C   UNL A   1      52.161  23.734  34.079  1.00  0.00     0.037 A 
BRANCH  78  92
ATOM     92  C   UNL A   1      53.965  27.244  28.572  1.00  0.00     0.057 A 
ATOM     93  C   UNL A   1      53.868  28.494  27.882  1.00  0.00     0.134 A 
ATOM     94  C   UNL A   1      55.109  26.518  28.245  1.00  0.00     0.134 A 
ATOM     95  F   UNL A   1      52.788  29.279  27.978  1.00  0.00    -0.206 F 
ATOM     96  C   UNL A   1      54.840  29.006  27.017  1.00  0.00     0.040 A 
ATOM     97  C   UNL A   1      56.091  27.014  27.352  1.00  0.00     0.040 A 
ATOM     98  F   UNL A   1      55.329  25.301  28.755  1.00  0.00    -0.206 F 
ATOM     99  C   UNL A   1      55.969  28.266  26.753  1.00  0.00     0.006 A 
ENDBRANCH  78  92
BRANCH  79 100
ATOM    100  C   UNL A   1      45.542  24.530  35.001  1.00  0.00     0.057 A 
ATOM    101  C   UNL A   1      44.823  23.341  34.515  1.00  0.00     0.134 A 
ATOM    102  C   UNL A   1      44.676  25.431  35.621  1.00  0.00     0.134 A 
ATOM    103  F   UNL A   1      45.520  22.225  34.271  1.00  0.00    -0.206 F 
ATOM    104  C   UNL A   1      43.451  23.057  34.667  1.00  0.00     0.040 A 
ATOM    105  C   UNL A   1      43.287  25.129  35.820  1.00  0.00     0.040 A 
ATOM    106  F   UNL A   1      45.171  26.482  36.285  1.00  0.00    -0.206 F 
ATOM    107  C   UNL A   1      42.679  23.946  35.372  1.00  0.00     0.006 A 
ENDBRANCH  79 100
BRANCH  91 108
ATOM    108  C   UNL A   1      52.821  22.012  34.273  1.00  0.00     0.057 A 
ATOM    109  C   UNL A   1      52.306  20.884  33.582  1.00  0.00     0.134 A 
ATOM    110  C   UNL A   1      53.944  21.531  35.086  1.00  0.00     0.134 A 
ATOM    111  F   UNL A   1      51.647  20.956  32.422  1.00  0.00    -0.206 F 
ATOM    112  C   UNL A   1      52.585  19.536  33.909  1.00  0.00     0.040 A 
ATOM    113  C   UNL A   1      54.223  20.204  35.428  1.00  0.00     0.040 A 
ATOM    114  F   UNL A   1      54.934  22.299  35.587  1.00  0.00    -0.206 F 
ATOM    115  C   UNL A   1      53.492  19.189  34.885  1.00  0.00     0.006 A 
ENDBRANCH  91 108
ENDBRANCH  65  66
ENDBRANCH  58  60
ENDBRANCH  57  58
ENDBRANCH  56  57
ENDBRANCH  55  56
ENDBRANCH  54  55
ENDBRANCH  53  54
ENDBRANCH  52  53
ENDBRANCH  51  52
ENDBRANCH  50  51
ENDBRANCH   1  50
TORSDOF 29
ENDMDL
MODEL 3
REMARK VINA RESULT:      -9.3      2.707      6.673
REMARK SMILES Cc1ccc(S(=O)(=O)n2cc(C(=O)C(=O)N[C@H](Cc3c[nH]c4ccccc34)C(=O)NCC(=O)OCCOCCOCCOCCOC(=O)c3ccc(-c4c5nc(c(-c6c(F)cccc6F)c6ccc([nH]6)c(-c6c(F)cccc6F)c6nc(c(-c7c(F)cccc7F)c7ccc4[nH]7)C=C6)C=C5)cc3)c3ccccc32)cc1
REMARK SMILES IDX 38 1 37 2 36 3 35 4 34 5 32 6 33 7 31 8 30 9 28 10 29 11
REMARK SMILES IDX 17 13 16 14 14 15 15 16 12 18 13 19 11 20 9 21 10 22 108 23
REMARK SMILES IDX 103 24 107 25 104 26 106 27 105 28 6 29 7 30 8 31 5 32 1 33
REMARK SMILES IDX 2 34 3 35 110 36 4 37 109 38 18 39 19 40 20 41 27 42 21 43
REMARK SMILES IDX 22 44 26 45 23 47 25 48 24 49 39 50 40 51 41 52 42 53 43 54
REMARK SMILES IDX 44 55 45 56 46 57 47 58 48 59 49 60 50 61 102 62 51 63
REMARK SMILES IDX 101 64 52 65 53 66 54 67 95 68 55 69 100 70 94 71 96 72
REMARK SMILES IDX 56 73 99 74 93 75 92 76 57 78 83 79 66 80 82 81 67 82 70 83
REMARK SMILES IDX 81 84 97 85 68 86 69 87 80 89 98 90 71 91 58 92 59 93 64 94
REMARK SMILES IDX 60 95 61 96 63 97 65 98 62 99 84 100 85 101 90 102 86 103
REMARK SMILES IDX 87 104 89 105 91 106 88 107 72 108 73 109 78 110 74 111
REMARK SMILES IDX 75 112 77 113 79 114 76 115
REMARK H PARENT 30 12 16 17 21 46 96 77 70 88
REMARK Flexibility Score: inf
ROOT
ATOM      1  C   UNL A   1      35.459  20.777  25.012  1.00  0.00     0.188 C 
ENDROOT
BRANCH   1   2
ATOM      2  O   UNL A   1      34.313  20.433  25.753  1.00  0.00    -0.376 OA
BRANCH   2   3
ATOM      3  C   UNL A   1      33.213  20.205  24.929  1.00  0.00     0.202 C 
BRANCH   3   4
ATOM      4  C   UNL A   1      31.957  21.056  25.168  1.00  0.00     0.261 C 
BRANCH   4   5
ATOM      5  O   UNL A   1      32.169  22.468  25.227  1.00  0.00    -0.462 OA
BRANCH   5   6
ATOM      6  C   UNL A   1      32.088  23.091  26.428  1.00  0.00     0.325 C 
ATOM      7  O   UNL A   1      31.237  22.884  27.285  1.00  0.00    -0.250 OA
BRANCH   6   8
ATOM      8  C   UNL A   1      33.029  24.247  26.536  1.00  0.00     0.238 C 
BRANCH   8   9
ATOM      9  N   UNL A   1      33.741  24.475  25.308  1.00  0.00    -0.343 N 
ATOM     10  C   UNL A   1      33.589  25.463  24.391  1.00  0.00     0.243 C 
ATOM     11  O   UNL A   1      34.302  25.317  23.393  1.00  0.00    -0.273 OA
ATOM     12  H   UNL A   1      34.443  23.817  25.101  1.00  0.00     0.164 HD
BRANCH  10  13
ATOM     13  C   UNL A   1      32.557  26.652  24.497  1.00  0.00     0.176 C 
BRANCH  13  14
ATOM     14  N   UNL A   1      32.196  27.172  25.910  1.00  0.00    -0.337 N 
ATOM     15  C   UNL A   1      32.646  28.094  26.898  1.00  0.00     0.293 C 
ATOM     16  O   UNL A   1      31.974  28.174  27.926  1.00  0.00    -0.265 OA
ATOM     17  H   UNL A   1      31.387  26.713  26.232  1.00  0.00     0.164 HD
BRANCH  15  18
ATOM     18  C   UNL A   1      33.896  29.005  26.735  1.00  0.00     0.252 C 
ATOM     19  O   UNL A   1      34.320  28.961  25.590  1.00  0.00    -0.283 OA
BRANCH  18  20
ATOM     20  C   UNL A   1      34.637  29.889  27.721  1.00  0.00     0.054 A 
ATOM     21  N   UNL A   1      35.360  31.877  28.826  1.00  0.00    -0.240 N 
ATOM     22  C   UNL A   1      34.300  31.179  28.172  1.00  0.00     0.117 A 
ATOM     23  C   UNL A   1      36.328  31.011  29.354  1.00  0.00     0.065 A 
ATOM     24  C   UNL A   1      36.048  29.666  28.223  1.00  0.00     0.012 A 
ATOM     25  C   UNL A   1      38.006  31.395  29.924  1.00  0.00     0.028 A 
ATOM     26  C   UNL A   1      37.563  28.882  27.482  1.00  0.00     0.011 A 
ATOM     27  C   UNL A   1      39.499  30.439  29.341  1.00  0.00     0.002 A 
ATOM     28  C   UNL A   1      39.285  29.201  28.080  1.00  0.00     0.001 A 
BRANCH  21  29
ATOM     29  S   UNL A   1      35.394  33.613  28.928  1.00  0.00     0.268 S 
ATOM     30  O   UNL A   1      36.814  33.884  29.121  1.00  0.00    -0.201 OA
ATOM     31  O   UNL A   1      34.747  33.996  27.685  1.00  0.00    -0.201 OA
BRANCH  29  32
ATOM     32  C   UNL A   1      34.584  34.665  30.185  1.00  0.00     0.088 A 
ATOM     33  C   UNL A   1      31.491  36.347  32.787  1.00  0.00     0.044 C 
ATOM     34  C   UNL A   1      32.598  35.875  31.888  1.00  0.00    -0.051 A 
ATOM     35  C   UNL A   1      33.753  35.302  32.416  1.00  0.00     0.005 A 
ATOM     36  C   UNL A   1      32.494  35.954  30.503  1.00  0.00     0.005 A 
ATOM     37  C   UNL A   1      34.724  34.702  31.572  1.00  0.00     0.022 A 
ATOM     38  C   UNL A   1      33.470  35.367  29.676  1.00  0.00     0.022 A 
ENDBRANCH  29  32
ENDBRANCH  21  29
ENDBRANCH  18  20
ENDBRANCH  15  18
ENDBRANCH  13  14
BRANCH  13  39
ATOM     39  C   UNL A   1      31.371  26.511  23.527  1.00  0.00     0.072 C 
BRANCH  39  40
ATOM     40  C   UNL A   1      30.001  27.158  23.681  1.00  0.00    -0.020 A 
ATOM     41  C   UNL A   1      28.873  26.363  23.858  1.00  0.00     0.087 A 
ATOM     42  C   UNL A   1      29.485  28.497  23.613  1.00  0.00     0.003 A 
ATOM     43  N   UNL A   1      27.767  27.093  23.517  1.00  0.00    -0.361 N 
ATOM     44  C   UNL A   1      28.122  28.394  23.295  1.00  0.00     0.046 A 
ATOM     45  C   UNL A   1      30.007  29.799  23.713  1.00  0.00     0.010 A 
ATOM     46  H   UNL A   1      26.853  26.735  23.443  1.00  0.00     0.166 HD
ATOM     47  C   UNL A   1      27.333  29.468  22.864  1.00  0.00     0.026 A 
ATOM     48  C   UNL A   1      29.187  30.906  23.442  1.00  0.00     0.001 A 
ATOM     49  C   UNL A   1      27.889  30.740  22.968  1.00  0.00     0.002 A 
ENDBRANCH  39  40
ENDBRANCH  13  39
ENDBRANCH  10  13
ENDBRANCH   8   9
ENDBRANCH   6   8
ENDBRANCH   5   6
ENDBRANCH   4   5
ENDBRANCH   3   4
ENDBRANCH   2   3
ENDBRANCH   1   2
BRANCH   1  50
ATOM     50  C   UNL A   1      36.579  19.699  24.937  1.00  0.00     0.188 C 
BRANCH  50  51
ATOM     51  O   UNL A   1      37.933  20.009  24.623  1.00  0.00    -0.377 OA
BRANCH  51  52
ATOM     52  C   UNL A   1      39.030  20.199  25.516  1.00  0.00     0.188 C 
BRANCH  52  53
ATOM     53  C   UNL A   1      39.355  21.581  26.030  1.00  0.00     0.188 C 
BRANCH  53  54
ATOM     54  O   UNL A   1      40.659  21.610  26.602  1.00  0.00    -0.376 OA
BRANCH  54  55
ATOM     55  C   UNL A   1      41.580  22.398  25.857  1.00  0.00     0.202 C 
BRANCH  55  56
ATOM     56  C   UNL A   1      42.948  21.698  25.852  1.00  0.00     0.261 C 
BRANCH  56  57
ATOM     57  O   UNL A   1      43.952  22.747  25.601  1.00  0.00    -0.460 OA
BRANCH  57  58
ATOM     58  C   UNL A   1      43.832  23.994  26.166  1.00  0.00     0.338 C 
ATOM     59  O   UNL A   1      43.954  25.043  25.553  1.00  0.00    -0.246 OA
BRANCH  58  60
ATOM     60  C   UNL A   1      43.814  23.940  27.689  1.00  0.00     0.060 A 
ATOM     61  C   UNL A   1      42.836  24.618  28.454  1.00  0.00     0.016 A 
ATOM     62  C   UNL A   1      44.946  23.497  28.353  1.00  0.00     0.016 A 
ATOM     63  C   UNL A   1      43.067  24.972  29.814  1.00  0.00     0.010 A 
ATOM     64  C   UNL A   1      45.219  23.970  29.631  1.00  0.00     0.010 A 
ATOM     65  C   UNL A   1      44.312  24.733  30.394  1.00  0.00    -0.014 A 
BRANCH  65  66
ATOM     66  C   UNL A   1      44.903  25.358  31.646  1.00  0.00     0.031 A 
ATOM     67  C   UNL A   1      44.943  24.410  32.871  1.00  0.00     0.074 A 
ATOM     68  C   UNL A   1      45.652  26.471  31.390  1.00  0.00     0.049 A 
ATOM     69  N   UNL A   1      45.758  24.356  33.870  1.00  0.00    -0.248 NA
ATOM     70  C   UNL A   1      43.930  23.334  32.995  1.00  0.00     0.031 C 
ATOM     71  C   UNL A   1      46.960  26.952  31.825  1.00  0.00     0.029 A 
ATOM     72  N   UNL A   1      45.383  27.458  30.469  1.00  0.00    -0.354 N 
ATOM     73  C   UNL A   1      45.416  23.275  34.717  1.00  0.00     0.074 A 
ATOM     74  C   UNL A   1      44.325  22.623  34.060  1.00  0.00     0.031 C 
ATOM     75  C   UNL A   1      47.161  28.251  31.591  1.00  0.00     0.029 A 
ATOM     76  C   UNL A   1      45.996  28.632  30.920  1.00  0.00     0.049 A 
ATOM     77  H   UNL A   1      44.856  27.355  29.644  1.00  0.00     0.167 HD
ATOM     78  C   UNL A   1      46.098  23.049  35.889  1.00  0.00     0.037 A 
ATOM     79  C   UNL A   1      45.677  29.919  30.756  1.00  0.00     0.037 A 
ATOM     80  C   UNL A   1      46.910  24.198  36.116  1.00  0.00     0.049 A 
ATOM     81  C   UNL A   1      45.529  30.119  32.392  1.00  0.00     0.074 A 
ATOM     82  C   UNL A   1      48.165  24.425  35.706  1.00  0.00     0.029 A 
ATOM     83  N   UNL A   1      46.340  25.346  36.612  1.00  0.00    -0.354 N 
ATOM     84  N   UNL A   1      45.170  29.236  33.338  1.00  0.00    -0.248 NA
ATOM     85  C   UNL A   1      46.320  31.205  33.022  1.00  0.00     0.031 C 
ATOM     86  C   UNL A   1      48.157  25.806  35.550  1.00  0.00     0.029 A 
ATOM     87  C   UNL A   1      46.898  26.678  36.017  1.00  0.00     0.049 A 
ATOM     88  H   UNL A   1      45.630  25.331  37.293  1.00  0.00     0.167 HD
ATOM     89  C   UNL A   1      45.858  29.500  34.613  1.00  0.00     0.074 A 
ATOM     90  C   UNL A   1      46.589  30.747  34.265  1.00  0.00     0.031 C 
ATOM     91  C   UNL A   1      46.207  28.608  35.857  1.00  0.00     0.037 A 
BRANCH  78  92
ATOM     92  C   UNL A   1      46.232  21.913  36.897  1.00  0.00     0.057 A 
ATOM     93  C   UNL A   1      46.379  20.573  36.418  1.00  0.00     0.134 A 
ATOM     94  C   UNL A   1      46.182  22.001  38.288  1.00  0.00     0.134 A 
ATOM     95  F   UNL A   1      46.334  20.274  35.113  1.00  0.00    -0.206 F 
ATOM     96  C   UNL A   1      46.536  19.447  37.230  1.00  0.00     0.040 A 
ATOM     97  C   UNL A   1      46.316  20.865  39.123  1.00  0.00     0.040 A 
ATOM     98  F   UNL A   1      45.990  23.173  38.904  1.00  0.00    -0.206 F 
ATOM     99  C   UNL A   1      46.514  19.590  38.598  1.00  0.00     0.006 A 
ENDBRANCH  78  92
BRANCH  79 100
ATOM    100  C   UNL A   1      45.205  29.710  29.294  1.00  0.00     0.057 A 
ATOM    101  C   UNL A   1      43.742  29.724  29.129  1.00  0.00     0.134 A 
ATOM    102  C   UNL A   1      45.854  30.087  28.118  1.00  0.00     0.134 A 
ATOM    103  F   UNL A   1      42.974  29.789  30.224  1.00  0.00    -0.206 F 
ATOM    104  C   UNL A   1      43.021  30.109  27.982  1.00  0.00     0.040 A 
ATOM    105  C   UNL A   1      45.126  30.522  26.960  1.00  0.00     0.040 A 
ATOM    106  F   UNL A   1      47.174  30.308  28.127  1.00  0.00    -0.206 F 
ATOM    107  C   UNL A   1      43.725  30.559  26.894  1.00  0.00     0.006 A 
ENDBRANCH  79 100
BRANCH  91 108
ATOM    108  C   UNL A   1      45.243  29.671  37.031  1.00  0.00     0.057 A 
ATOM    109  C   UNL A   1      43.876  30.010  36.850  1.00  0.00     0.134 A 
ATOM    110  C   UNL A   1      45.665  30.285  38.295  1.00  0.00     0.134 A 
ATOM    111  F   UNL A   1      43.015  29.283  36.133  1.00  0.00    -0.206 F 
ATOM    112  C   UNL A   1      43.194  31.031  37.554  1.00  0.00     0.040 A 
ATOM    113  C   UNL A   1      45.009  31.304  38.993  1.00  0.00     0.040 A 
ATOM    114  F   UNL A   1      46.738  29.915  39.025  1.00  0.00    -0.206 F 
ATOM    115  C   UNL A   1      43.782  31.734  38.582  1.00  0.00     0.006 A 
ENDBRANCH  91 108
ENDBRANCH  65  66
ENDBRANCH  58  60
ENDBRANCH  57  58
ENDBRANCH  56  57
ENDBRANCH  55  56
ENDBRANCH  54  55
ENDBRANCH  53  54
ENDBRANCH  52  53
ENDBRANCH  51  52
ENDBRANCH  50  51
ENDBRANCH   1  50
TORSDOF 29
ENDMDL
