MODEL 1
REMARK VINA RESULT:     -10.2      0.000      0.000
REMARK SMILES C[C@H]1[C@H](C(=O)OCCOCCOCCOCCOC(=O)c2ccc(-c3c4nc(c(-c5c(F)cccc5F)c5ccc([nH]5)c(-c5c(F)cccc5F)c5nc(c(-c6c(F)cccc6F)c6ccc3[nH]6)C=C5)C=C4)cc2)CCN1C(=O)[C@H]1CC=CCC1
REMARK SMILES IDX 12 1 11 2 10 3 9 4 8 5 7 6 6 7 4 8 5 9 3 10 1 11 2 12 77 13
REMARK SMILES IDX 75 14 76 15 78 16 79 17 80 18 81 19 85 20 82 21 84 22 83 23
REMARK SMILES IDX 13 24 14 25 15 26 16 27 17 28 18 29 19 30 20 31 21 32 22 33
REMARK SMILES IDX 74 34 23 35 73 36 24 37 25 38 26 39 67 40 27 41 72 42 66 43
REMARK SMILES IDX 68 44 28 45 71 46 65 47 64 48 29 50 55 51 38 52 54 53 39 54
REMARK SMILES IDX 42 55 53 56 69 57 40 58 41 59 52 61 70 62 43 63 30 64 31 65
REMARK SMILES IDX 36 66 32 67 33 68 35 69 37 70 34 71 56 72 57 73 62 74 58 75
REMARK SMILES IDX 59 76 61 77 63 78 60 79 44 80 45 81 50 82 46 83 47 84 49 85
REMARK SMILES IDX 51 86 48 87
REMARK H PARENT 68 49 42 60
REMARK Flexibility Score: inf
ROOT
ATOM      1  O   UNL A   1      34.538  23.120  23.205  1.00  0.00    -0.377 OA
ENDROOT
BRANCH   1   2
ATOM      2  C   UNL A   1      33.149  22.870  23.352  1.00  0.00     0.188 C 
BRANCH   2   3
ATOM      3  C   UNL A   1      32.795  21.543  24.030  1.00  0.00     0.188 C 
BRANCH   3   4
ATOM      4  O   UNL A   1      31.996  21.600  25.201  1.00  0.00    -0.376 OA
BRANCH   4   5
ATOM      5  C   UNL A   1      31.204  22.764  25.422  1.00  0.00     0.202 C 
BRANCH   5   6
ATOM      6  C   UNL A   1      31.114  23.365  26.833  1.00  0.00     0.261 C 
BRANCH   6   7
ATOM      7  O   UNL A   1      31.496  24.762  26.935  1.00  0.00    -0.463 OA
BRANCH   7   8
ATOM      8  C   UNL A   1      30.713  25.620  26.241  1.00  0.00     0.311 C 
ATOM      9  O   UNL A   1      29.483  25.626  26.303  1.00  0.00    -0.252 OA
BRANCH   8  10
ATOM     10  C   UNL A   1      31.415  26.573  25.299  1.00  0.00     0.123 C 
ATOM     11  C   UNL A   1      31.918  26.400  22.868  1.00  0.00     0.032 C 
ATOM     12  C   UNL A   1      30.884  26.921  23.881  1.00  0.00     0.096 C 
ATOM     13  N   UNL A   1      30.831  28.404  23.840  1.00  0.00    -0.339 N 
ATOM     14  C   UNL A   1      31.539  27.908  26.028  1.00  0.00     0.039 C 
ATOM     15  C   UNL A   1      31.628  28.937  24.932  1.00  0.00     0.121 C 
BRANCH  13  16
ATOM     16  C   UNL A   1      30.276  29.322  22.974  1.00  0.00     0.226 C 
ATOM     17  O   UNL A   1      30.922  29.640  21.959  1.00  0.00    -0.275 OA
BRANCH  16  18
ATOM     18  C   UNL A   1      28.918  30.024  23.129  1.00  0.00     0.083 C 
ATOM     19  C   UNL A   1      28.924  31.379  23.835  1.00  0.00     0.040 C 
ATOM     20  C   UNL A   1      27.958  29.922  21.943  1.00  0.00     0.018 C 
ATOM     21  C   UNL A   1      28.684  32.544  22.932  1.00  0.00    -0.030 C 
ATOM     22  C   UNL A   1      27.975  31.111  20.994  1.00  0.00     0.028 C 
ATOM     23  C   UNL A   1      28.274  32.412  21.667  1.00  0.00    -0.031 C 
ENDBRANCH  16  18
ENDBRANCH  13  16
ENDBRANCH   8  10
ENDBRANCH   7   8
ENDBRANCH   6   7
ENDBRANCH   5   6
ENDBRANCH   4   5
ENDBRANCH   3   4
ENDBRANCH   2   3
ENDBRANCH   1   2
BRANCH   1  24
ATOM     24  C   UNL A   1      35.280  23.618  24.321  1.00  0.00     0.188 C 
BRANCH  24  25
ATOM     25  C   UNL A   1      36.669  23.051  24.635  1.00  0.00     0.188 C 
BRANCH  25  26
ATOM     26  O   UNL A   1      37.068  21.820  24.025  1.00  0.00    -0.376 OA
BRANCH  26  27
ATOM     27  C   UNL A   1      36.989  20.608  24.769  1.00  0.00     0.202 C 
BRANCH  27  28
ATOM     28  C   UNL A   1      38.313  19.870  24.992  1.00  0.00     0.261 C 
BRANCH  28  29
ATOM     29  O   UNL A   1      39.090  20.429  26.064  1.00  0.00    -0.460 OA
BRANCH  29  30
ATOM     30  C   UNL A   1      40.389  20.056  26.064  1.00  0.00     0.338 C 
ATOM     31  O   UNL A   1      40.859  19.023  25.620  1.00  0.00    -0.246 OA
BRANCH  30  32
ATOM     32  C   UNL A   1      41.241  21.142  26.584  1.00  0.00     0.060 A 
ATOM     33  C   UNL A   1      41.290  21.301  27.973  1.00  0.00     0.016 A 
ATOM     34  C   UNL A   1      41.857  22.072  25.739  1.00  0.00     0.016 A 
ATOM     35  C   UNL A   1      41.865  22.441  28.524  1.00  0.00     0.010 A 
ATOM     36  C   UNL A   1      42.431  23.222  26.294  1.00  0.00     0.010 A 
ATOM     37  C   UNL A   1      42.375  23.438  27.683  1.00  0.00    -0.014 A 
BRANCH  37  38
ATOM     38  C   UNL A   1      42.622  24.780  28.259  1.00  0.00     0.031 A 
ATOM     39  C   UNL A   1      44.035  25.159  28.619  1.00  0.00     0.074 A 
ATOM     40  C   UNL A   1      41.629  25.678  28.367  1.00  0.00     0.049 A 
ATOM     41  N   UNL A   1      44.500  26.291  29.082  1.00  0.00    -0.248 NA
ATOM     42  C   UNL A   1      45.062  24.123  28.426  1.00  0.00     0.031 C 
ATOM     43  C   UNL A   1      40.232  25.441  28.004  1.00  0.00     0.029 A 
ATOM     44  N   UNL A   1      41.649  26.977  28.805  1.00  0.00    -0.354 N 
ATOM     45  C   UNL A   1      45.869  26.101  29.236  1.00  0.00     0.074 A 
ATOM     46  C   UNL A   1      46.155  24.736  28.855  1.00  0.00     0.031 C 
ATOM     47  C   UNL A   1      39.528  26.561  28.235  1.00  0.00     0.029 A 
ATOM     48  C   UNL A   1      40.419  27.584  28.780  1.00  0.00     0.049 A 
ATOM     49  H   UNL A   1      42.469  27.431  29.106  1.00  0.00     0.167 HD
ATOM     50  C   UNL A   1      46.807  26.989  29.646  1.00  0.00     0.037 A 
ATOM     51  C   UNL A   1      40.056  28.823  29.165  1.00  0.00     0.037 A 
ATOM     52  C   UNL A   1      46.520  28.347  30.022  1.00  0.00     0.049 A 
ATOM     53  C   UNL A   1      41.108  29.772  29.674  1.00  0.00     0.074 A 
ATOM     54  C   UNL A   1      47.397  29.330  30.445  1.00  0.00     0.029 A 
ATOM     55  N   UNL A   1      45.253  28.913  30.023  1.00  0.00    -0.354 N 
ATOM     56  N   UNL A   1      42.401  29.589  29.798  1.00  0.00    -0.248 NA
ATOM     57  C   UNL A   1      40.650  31.107  30.086  1.00  0.00     0.031 C 
ATOM     58  C   UNL A   1      46.655  30.477  30.748  1.00  0.00     0.029 A 
ATOM     59  C   UNL A   1      45.323  30.225  30.460  1.00  0.00     0.049 A 
ATOM     60  H   UNL A   1      44.428  28.450  29.752  1.00  0.00     0.167 HD
ATOM     61  C   UNL A   1      42.914  30.791  30.271  1.00  0.00     0.074 A 
ATOM     62  C   UNL A   1      41.793  31.700  30.397  1.00  0.00     0.031 C 
ATOM     63  C   UNL A   1      44.196  31.116  30.574  1.00  0.00     0.037 A 
BRANCH  50  64
ATOM     64  C   UNL A   1      48.224  26.503  29.731  1.00  0.00     0.057 A 
ATOM     65  C   UNL A   1      48.717  25.841  30.864  1.00  0.00     0.134 A 
ATOM     66  C   UNL A   1      49.105  26.683  28.657  1.00  0.00     0.134 A 
ATOM     67  F   UNL A   1      47.932  25.651  31.935  1.00  0.00    -0.206 F 
ATOM     68  C   UNL A   1      50.041  25.399  30.935  1.00  0.00     0.040 A 
ATOM     69  C   UNL A   1      50.423  26.223  28.706  1.00  0.00     0.040 A 
ATOM     70  F   UNL A   1      48.700  27.307  27.540  1.00  0.00    -0.206 F 
ATOM     71  C   UNL A   1      50.895  25.585  29.850  1.00  0.00     0.006 A 
ENDBRANCH  50  64
BRANCH  51  72
ATOM     72  C   UNL A   1      38.633  29.239  29.087  1.00  0.00     0.057 A 
ATOM     73  C   UNL A   1      37.800  29.203  30.210  1.00  0.00     0.134 A 
ATOM     74  C   UNL A   1      38.068  29.666  27.879  1.00  0.00     0.134 A 
ATOM     75  F   UNL A   1      38.277  28.784  31.392  1.00  0.00    -0.206 F 
ATOM     76  C   UNL A   1      36.451  29.554  30.131  1.00  0.00     0.040 A 
ATOM     77  C   UNL A   1      36.729  30.044  27.791  1.00  0.00     0.040 A 
ATOM     78  F   UNL A   1      38.814  29.725  26.766  1.00  0.00    -0.206 F 
ATOM     79  C   UNL A   1      35.913  29.982  28.918  1.00  0.00     0.006 A 
ENDBRANCH  51  72
BRANCH  63  80
ATOM     80  C   UNL A   1      44.456  32.522  31.031  1.00  0.00     0.057 A 
ATOM     81  C   UNL A   1      44.684  33.567  30.126  1.00  0.00     0.134 A 
ATOM     82  C   UNL A   1      44.456  32.837  32.396  1.00  0.00     0.134 A 
ATOM     83  F   UNL A   1      44.707  33.331  28.806  1.00  0.00    -0.206 F 
ATOM     84  C   UNL A   1      44.935  34.868  30.565  1.00  0.00     0.040 A 
ATOM     85  C   UNL A   1      44.677  34.139  32.845  1.00  0.00     0.040 A 
ATOM     86  F   UNL A   1      44.232  31.885  33.315  1.00  0.00    -0.206 F 
ATOM     87  C   UNL A   1      44.927  35.158  31.928  1.00  0.00     0.006 A 
ENDBRANCH  63  80
ENDBRANCH  37  38
ENDBRANCH  30  32
ENDBRANCH  29  30
ENDBRANCH  28  29
ENDBRANCH  27  28
ENDBRANCH  26  27
ENDBRANCH  25  26
ENDBRANCH  24  25
ENDBRANCH   1  24
TORSDOF 22
ENDMDL
MODEL 2
REMARK VINA RESULT:     -10.1      0.356      6.099
REMARK SMILES C[C@H]1[C@H](C(=O)OCCOCCOCCOCCOC(=O)c2ccc(-c3c4nc(c(-c5c(F)cccc5F)c5ccc([nH]5)c(-c5c(F)cccc5F)c5nc(c(-c6c(F)cccc6F)c6ccc3[nH]6)C=C5)C=C4)cc2)CCN1C(=O)[C@H]1CC=CCC1
REMARK SMILES IDX 12 1 11 2 10 3 9 4 8 5 7 6 6 7 4 8 5 9 3 10 1 11 2 12 77 13
REMARK SMILES IDX 75 14 76 15 78 16 79 17 80 18 81 19 85 20 82 21 84 22 83 23
REMARK SMILES IDX 13 24 14 25 15 26 16 27 17 28 18 29 19 30 20 31 21 32 22 33
REMARK SMILES IDX 74 34 23 35 73 36 24 37 25 38 26 39 67 40 27 41 72 42 66 43
REMARK SMILES IDX 68 44 28 45 71 46 65 47 64 48 29 50 55 51 38 52 54 53 39 54
REMARK SMILES IDX 42 55 53 56 69 57 40 58 41 59 52 61 70 62 43 63 30 64 31 65
REMARK SMILES IDX 36 66 32 67 33 68 35 69 37 70 34 71 56 72 57 73 62 74 58 75
REMARK SMILES IDX 59 76 61 77 63 78 60 79 44 80 45 81 50 82 46 83 47 84 49 85
REMARK SMILES IDX 51 86 48 87
REMARK H PARENT 68 49 42 60
REMARK Flexibility Score: inf
ROOT
ATOM      1  O   UNL A   1      34.305  23.242  23.109  1.00  0.00    -0.377 OA
ENDROOT
BRANCH   1   2
ATOM      2  C   UNL A   1      32.981  22.801  23.366  1.00  0.00     0.188 C 
BRANCH   2   3
ATOM      3  C   UNL A   1      32.872  21.478  24.128  1.00  0.00     0.188 C 
BRANCH   3   4
ATOM      4  O   UNL A   1      32.160  21.487  25.355  1.00  0.00    -0.376 OA
BRANCH   4   5
ATOM      5  C   UNL A   1      31.176  22.499  25.558  1.00  0.00     0.202 C 
BRANCH   5   6
ATOM      6  C   UNL A   1      31.214  23.349  26.837  1.00  0.00     0.261 C 
BRANCH   6   7
ATOM      7  O   UNL A   1      31.821  24.659  26.691  1.00  0.00    -0.463 OA
BRANCH   7   8
ATOM      8  C   UNL A   1      31.013  25.607  26.163  1.00  0.00     0.311 C 
ATOM      9  O   UNL A   1      29.795  25.642  26.340  1.00  0.00    -0.252 OA
BRANCH   8  10
ATOM     10  C   UNL A   1      31.663  26.630  25.259  1.00  0.00     0.123 C 
ATOM     11  C   UNL A   1      32.245  26.547  22.840  1.00  0.00     0.032 C 
ATOM     12  C   UNL A   1      31.145  26.965  23.832  1.00  0.00     0.096 C 
ATOM     13  N   UNL A   1      30.977  28.439  23.817  1.00  0.00    -0.339 N 
ATOM     14  C   UNL A   1      31.661  27.956  26.015  1.00  0.00     0.039 C 
ATOM     15  C   UNL A   1      31.700  29.011  24.940  1.00  0.00     0.121 C 
BRANCH  13  16
ATOM     16  C   UNL A   1      30.376  29.329  22.951  1.00  0.00     0.226 C 
ATOM     17  O   UNL A   1      31.005  29.680  21.937  1.00  0.00    -0.275 OA
BRANCH  16  18
ATOM     18  C   UNL A   1      28.983  29.959  23.106  1.00  0.00     0.083 C 
ATOM     19  C   UNL A   1      28.916  31.297  23.841  1.00  0.00     0.040 C 
ATOM     20  C   UNL A   1      28.041  29.836  21.908  1.00  0.00     0.018 C 
ATOM     21  C   UNL A   1      28.626  32.468  22.960  1.00  0.00    -0.030 C 
ATOM     22  C   UNL A   1      28.008  31.044  20.985  1.00  0.00     0.028 C 
ATOM     23  C   UNL A   1      28.236  32.343  21.688  1.00  0.00    -0.031 C 
ENDBRANCH  16  18
ENDBRANCH  13  16
ENDBRANCH   8  10
ENDBRANCH   7   8
ENDBRANCH   6   7
ENDBRANCH   5   6
ENDBRANCH   4   5
ENDBRANCH   3   4
ENDBRANCH   2   3
ENDBRANCH   1   2
BRANCH   1  24
ATOM     24  C   UNL A   1      35.035  23.901  24.147  1.00  0.00     0.188 C 
BRANCH  24  25
ATOM     25  C   UNL A   1      36.466  23.461  24.478  1.00  0.00     0.188 C 
BRANCH  25  26
ATOM     26  O   UNL A   1      36.947  22.218  23.955  1.00  0.00    -0.376 OA
BRANCH  26  27
ATOM     27  C   UNL A   1      36.777  21.024  24.712  1.00  0.00     0.202 C 
BRANCH  27  28
ATOM     28  C   UNL A   1      38.054  20.236  25.019  1.00  0.00     0.261 C 
BRANCH  28  29
ATOM     29  O   UNL A   1      38.918  20.914  25.946  1.00  0.00    -0.460 OA
BRANCH  29  30
ATOM     30  C   UNL A   1      40.140  20.352  26.083  1.00  0.00     0.338 C 
ATOM     31  O   UNL A   1      40.471  19.224  25.764  1.00  0.00    -0.246 OA
BRANCH  30  32
ATOM     32  C   UNL A   1      41.115  21.342  26.579  1.00  0.00     0.060 A 
ATOM     33  C   UNL A   1      41.106  21.608  27.953  1.00  0.00     0.016 A 
ATOM     34  C   UNL A   1      41.911  22.099  25.714  1.00  0.00     0.016 A 
ATOM     35  C   UNL A   1      41.813  22.693  28.457  1.00  0.00     0.010 A 
ATOM     36  C   UNL A   1      42.619  23.194  26.221  1.00  0.00     0.010 A 
ATOM     37  C   UNL A   1      42.516  23.531  27.583  1.00  0.00    -0.014 A 
BRANCH  37  38
ATOM     38  C   UNL A   1      42.929  24.866  28.074  1.00  0.00     0.031 A 
ATOM     39  C   UNL A   1      41.865  25.909  28.299  1.00  0.00     0.074 A 
ATOM     40  C   UNL A   1      44.206  25.116  28.406  1.00  0.00     0.049 A 
ATOM     41  N   UNL A   1      41.978  27.123  28.775  1.00  0.00    -0.248 NA
ATOM     42  C   UNL A   1      40.488  25.529  27.946  1.00  0.00     0.031 C 
ATOM     43  C   UNL A   1      45.313  24.169  28.277  1.00  0.00     0.029 A 
ATOM     44  N   UNL A   1      44.784  26.243  28.931  1.00  0.00    -0.354 N 
ATOM     45  C   UNL A   1      40.690  27.649  28.775  1.00  0.00     0.074 A 
ATOM     46  C   UNL A   1      39.818  26.639  28.218  1.00  0.00     0.031 C 
ATOM     47  C   UNL A   1      46.440  24.756  28.714  1.00  0.00     0.029 A 
ATOM     48  C   UNL A   1      46.136  26.124  29.131  1.00  0.00     0.049 A 
ATOM     49  H   UNL A   1      44.276  27.059  29.146  1.00  0.00     0.167 HD
ATOM     50  C   UNL A   1      40.269  28.860  29.213  1.00  0.00     0.037 A 
ATOM     51  C   UNL A   1      47.026  27.025  29.589  1.00  0.00     0.037 A 
ATOM     52  C   UNL A   1      41.139  29.862  29.770  1.00  0.00     0.049 A 
ATOM     53  C   UNL A   1      46.543  28.386  30.014  1.00  0.00     0.074 A 
ATOM     54  C   UNL A   1      40.814  31.118  30.248  1.00  0.00     0.029 A 
ATOM     55  N   UNL A   1      42.511  29.719  29.916  1.00  0.00    -0.354 N 
ATOM     56  N   UNL A   1      45.323  28.866  30.028  1.00  0.00    -0.248 NA
ATOM     57  C   UNL A   1      47.562  29.328  30.498  1.00  0.00     0.031 C 
ATOM     58  C   UNL A   1      41.996  31.755  30.642  1.00  0.00     0.029 A 
ATOM     59  C   UNL A   1      43.050  30.873  30.459  1.00  0.00     0.049 A 
ATOM     60  H   UNL A   1      43.024  28.916  29.672  1.00  0.00     0.167 HD
ATOM     61  C   UNL A   1      45.422  30.151  30.549  1.00  0.00     0.074 A 
ATOM     62  C   UNL A   1      46.822  30.368  30.852  1.00  0.00     0.031 C 
ATOM     63  C   UNL A   1      44.446  31.068  30.759  1.00  0.00     0.037 A 
BRANCH  50  64
ATOM     64  C   UNL A   1      38.807  29.170  29.080  1.00  0.00     0.057 A 
ATOM     65  C   UNL A   1      37.929  29.095  30.171  1.00  0.00     0.134 A 
ATOM     66  C   UNL A   1      38.272  29.568  27.849  1.00  0.00     0.134 A 
ATOM     67  F   UNL A   1      38.372  28.703  31.375  1.00  0.00    -0.206 F 
ATOM     68  C   UNL A   1      36.568  29.379  30.034  1.00  0.00     0.040 A 
ATOM     69  C   UNL A   1      36.918  29.880  27.706  1.00  0.00     0.040 A 
ATOM     70  F   UNL A   1      39.055  29.663  26.764  1.00  0.00    -0.206 F 
ATOM     71  C   UNL A   1      36.061  29.780  28.799  1.00  0.00     0.006 A 
ENDBRANCH  50  64
BRANCH  51  72
ATOM     72  C   UNL A   1      48.466  26.672  29.671  1.00  0.00     0.057 A 
ATOM     73  C   UNL A   1      49.350  26.967  28.627  1.00  0.00     0.134 A 
ATOM     74  C   UNL A   1      48.989  26.013  30.790  1.00  0.00     0.134 A 
ATOM     75  F   UNL A   1      48.906  27.580  27.519  1.00  0.00    -0.206 F 
ATOM     76  C   UNL A   1      50.696  26.601  28.683  1.00  0.00     0.040 A 
ATOM     77  C   UNL A   1      50.337  25.664  30.871  1.00  0.00     0.040 A 
ATOM     78  F   UNL A   1      48.195  25.704  31.826  1.00  0.00    -0.206 F 
ATOM     79  C   UNL A   1      51.194  25.951  29.811  1.00  0.00     0.006 A 
ENDBRANCH  51  72
BRANCH  63  80
ATOM     80  C   UNL A   1      44.855  32.372  31.382  1.00  0.00     0.057 A 
ATOM     81  C   UNL A   1      44.887  32.554  32.770  1.00  0.00     0.134 A 
ATOM     82  C   UNL A   1      45.242  33.453  30.578  1.00  0.00     0.134 A 
ATOM     83  F   UNL A   1      44.519  31.563  33.596  1.00  0.00    -0.206 F 
ATOM     84  C   UNL A   1      45.259  33.775  33.336  1.00  0.00     0.040 A 
ATOM     85  C   UNL A   1      45.643  34.668  31.133  1.00  0.00     0.040 A 
ATOM     86  F   UNL A   1      45.245  33.341  29.242  1.00  0.00    -0.206 F 
ATOM     87  C   UNL A   1      45.643  34.835  32.517  1.00  0.00     0.006 A 
ENDBRANCH  63  80
ENDBRANCH  37  38
ENDBRANCH  30  32
ENDBRANCH  29  30
ENDBRANCH  28  29
ENDBRANCH  27  28
ENDBRANCH  26  27
ENDBRANCH  25  26
ENDBRANCH  24  25
ENDBRANCH   1  24
TORSDOF 22
ENDMDL
MODEL 3
REMARK VINA RESULT:     -10.0      3.604      5.435
REMARK SMILES C[C@H]1[C@H](C(=O)OCCOCCOCCOCCOC(=O)c2ccc(-c3c4nc(c(-c5c(F)cccc5F)c5ccc([nH]5)c(-c5c(F)cccc5F)c5nc(c(-c6c(F)cccc6F)c6ccc3[nH]6)C=C5)C=C4)cc2)CCN1C(=O)[C@H]1CC=CCC1
REMARK SMILES IDX 12 1 11 2 10 3 9 4 8 5 7 6 6 7 4 8 5 9 3 10 1 11 2 12 77 13
REMARK SMILES IDX 75 14 76 15 78 16 79 17 80 18 81 19 85 20 82 21 84 22 83 23
REMARK SMILES IDX 13 24 14 25 15 26 16 27 17 28 18 29 19 30 20 31 21 32 22 33
REMARK SMILES IDX 74 34 23 35 73 36 24 37 25 38 26 39 67 40 27 41 72 42 66 43
REMARK SMILES IDX 68 44 28 45 71 46 65 47 64 48 29 50 55 51 38 52 54 53 39 54
REMARK SMILES IDX 42 55 53 56 69 57 40 58 41 59 52 61 70 62 43 63 30 64 31 65
REMARK SMILES IDX 36 66 32 67 33 68 35 69 37 70 34 71 56 72 57 73 62 74 58 75
REMARK SMILES IDX 59 76 61 77 63 78 60 79 44 80 45 81 50 82 46 83 47 84 49 85
REMARK SMILES IDX 51 86 48 87
REMARK H PARENT 68 49 42 60
REMARK Flexibility Score: inf
ROOT
ATOM      1  O   UNL A   1      37.798  22.091  26.025  1.00  0.00    -0.377 OA
ENDROOT
BRANCH   1   2
ATOM      2  C   UNL A   1      36.977  22.846  25.148  1.00  0.00     0.188 C 
BRANCH   2   3
ATOM      3  C   UNL A   1      35.571  22.282  24.926  1.00  0.00     0.188 C 
BRANCH   3   4
ATOM      4  O   UNL A   1      34.614  23.131  24.313  1.00  0.00    -0.376 OA
BRANCH   4   5
ATOM      5  C   UNL A   1      34.721  23.369  22.912  1.00  0.00     0.202 C 
BRANCH   5   6
ATOM      6  C   UNL A   1      33.450  23.401  22.048  1.00  0.00     0.261 C 
BRANCH   6   7
ATOM      7  O   UNL A   1      32.611  24.571  22.227  1.00  0.00    -0.463 OA
BRANCH   7   8
ATOM      8  C   UNL A   1      32.711  25.500  21.249  1.00  0.00     0.311 C 
ATOM      9  O   UNL A   1      33.086  25.249  20.103  1.00  0.00    -0.252 OA
BRANCH   8  10
ATOM     10  C   UNL A   1      32.397  26.929  21.632  1.00  0.00     0.123 C 
ATOM     11  C   UNL A   1      30.258  28.017  22.294  1.00  0.00     0.032 C 
ATOM     12  C   UNL A   1      31.510  27.315  22.849  1.00  0.00     0.096 C 
ATOM     13  N   UNL A   1      32.327  28.272  23.635  1.00  0.00    -0.339 N 
ATOM     14  C   UNL A   1      33.732  27.632  21.861  1.00  0.00     0.039 C 
ATOM     15  C   UNL A   1      33.415  28.761  22.805  1.00  0.00     0.121 C 
BRANCH  13  16
ATOM     16  C   UNL A   1      32.216  28.821  24.896  1.00  0.00     0.226 C 
ATOM     17  O   UNL A   1      31.895  30.019  24.990  1.00  0.00    -0.275 OA
BRANCH  16  18
ATOM     18  C   UNL A   1      32.459  28.103  26.232  1.00  0.00     0.083 C 
ATOM     19  C   UNL A   1      31.296  27.285  26.790  1.00  0.00     0.040 C 
ATOM     20  C   UNL A   1      33.839  27.475  26.429  1.00  0.00     0.018 C 
ATOM     21  C   UNL A   1      31.492  25.806  26.713  1.00  0.00    -0.030 C 
ATOM     22  C   UNL A   1      33.924  25.990  26.112  1.00  0.00     0.028 C 
ATOM     23  C   UNL A   1      32.661  25.242  26.398  1.00  0.00    -0.031 C 
ENDBRANCH  16  18
ENDBRANCH  13  16
ENDBRANCH   8  10
ENDBRANCH   7   8
ENDBRANCH   6   7
ENDBRANCH   5   6
ENDBRANCH   4   5
ENDBRANCH   3   4
ENDBRANCH   2   3
ENDBRANCH   1   2
BRANCH   1  24
ATOM     24  C   UNL A   1      39.163  22.473  26.207  1.00  0.00     0.188 C 
BRANCH  24  25
ATOM     25  C   UNL A   1      40.253  21.401  26.323  1.00  0.00     0.188 C 
BRANCH  25  26
ATOM     26  O   UNL A   1      41.478  21.579  25.605  1.00  0.00    -0.376 OA
BRANCH  26  27
ATOM     27  C   UNL A   1      42.702  21.137  26.183  1.00  0.00     0.202 C 
BRANCH  27  28
ATOM     28  C   UNL A   1      43.979  21.760  25.610  1.00  0.00     0.261 C 
BRANCH  28  29
ATOM     29  O   UNL A   1      44.361  22.970  26.285  1.00  0.00    -0.460 OA
BRANCH  29  30
ATOM     30  C   UNL A   1      44.259  24.086  25.529  1.00  0.00     0.338 C 
ATOM     31  O   UNL A   1      44.718  24.265  24.415  1.00  0.00    -0.246 OA
BRANCH  30  32
ATOM     32  C   UNL A   1      43.386  25.079  26.184  1.00  0.00     0.060 A 
ATOM     33  C   UNL A   1      43.959  26.315  26.503  1.00  0.00     0.016 A 
ATOM     34  C   UNL A   1      42.092  24.764  26.609  1.00  0.00     0.016 A 
ATOM     35  C   UNL A   1      43.284  27.202  27.333  1.00  0.00     0.010 A 
ATOM     36  C   UNL A   1      41.414  25.656  27.449  1.00  0.00     0.010 A 
ATOM     37  C   UNL A   1      42.038  26.846  27.865  1.00  0.00    -0.014 A 
BRANCH  37  38
ATOM     38  C   UNL A   1      41.527  27.613  29.024  1.00  0.00     0.031 A 
ATOM     39  C   UNL A   1      42.271  27.523  30.331  1.00  0.00     0.074 A 
ATOM     40  C   UNL A   1      40.482  28.448  28.893  1.00  0.00     0.049 A 
ATOM     41  N   UNL A   1      42.047  28.144  31.460  1.00  0.00    -0.248 NA
ATOM     42  C   UNL A   1      43.428  26.614  30.365  1.00  0.00     0.031 C 
ATOM     43  C   UNL A   1      39.715  28.654  27.665  1.00  0.00     0.029 A 
ATOM     44  N   UNL A   1      39.896  29.287  29.804  1.00  0.00    -0.354 N 
ATOM     45  C   UNL A   1      43.031  27.699  32.337  1.00  0.00     0.074 A 
ATOM     46  C   UNL A   1      43.830  26.730  31.622  1.00  0.00     0.031 C 
ATOM     47  C   UNL A   1      38.756  29.565  27.902  1.00  0.00     0.029 A 
ATOM     48  C   UNL A   1      38.829  29.987  29.299  1.00  0.00     0.049 A 
ATOM     49  H   UNL A   1      40.211  29.379  30.733  1.00  0.00     0.167 HD
ATOM     50  C   UNL A   1      43.257  28.076  33.618  1.00  0.00     0.037 A 
ATOM     51  C   UNL A   1      38.003  30.861  29.904  1.00  0.00     0.037 A 
ATOM     52  C   UNL A   1      42.462  29.044  34.326  1.00  0.00     0.049 A 
ATOM     53  C   UNL A   1      38.238  31.219  31.347  1.00  0.00     0.074 A 
ATOM     54  C   UNL A   1      42.609  29.500  35.623  1.00  0.00     0.029 A 
ATOM     55  N   UNL A   1      41.363  29.701  33.792  1.00  0.00    -0.354 N 
ATOM     56  N   UNL A   1      39.182  30.808  32.160  1.00  0.00    -0.248 NA
ATOM     57  C   UNL A   1      37.298  32.172  31.954  1.00  0.00     0.031 C 
ATOM     58  C   UNL A   1      41.571  30.399  35.890  1.00  0.00     0.029 A 
ATOM     59  C   UNL A   1      40.810  30.544  34.740  1.00  0.00     0.049 A 
ATOM     60  H   UNL A   1      41.027  29.585  32.874  1.00  0.00     0.167 HD
ATOM     61  C   UNL A   1      38.968  31.474  33.362  1.00  0.00     0.074 A 
ATOM     62  C   UNL A   1      37.815  32.327  33.164  1.00  0.00     0.031 C 
ATOM     63  C   UNL A   1      39.664  31.390  34.523  1.00  0.00     0.037 A 
BRANCH  50  64
ATOM     64  C   UNL A   1      44.396  27.416  34.339  1.00  0.00     0.057 A 
ATOM     65  C   UNL A   1      45.655  28.023  34.454  1.00  0.00     0.134 A 
ATOM     66  C   UNL A   1      44.228  26.164  34.943  1.00  0.00     0.134 A 
ATOM     67  F   UNL A   1      45.890  29.215  33.884  1.00  0.00    -0.206 F 
ATOM     68  C   UNL A   1      46.710  27.397  35.121  1.00  0.00     0.040 A 
ATOM     69  C   UNL A   1      45.267  25.539  35.635  1.00  0.00     0.040 A 
ATOM     70  F   UNL A   1      43.049  25.527  34.873  1.00  0.00    -0.206 F 
ATOM     71  C   UNL A   1      46.515  26.154  35.720  1.00  0.00     0.006 A 
ENDBRANCH  50  64
BRANCH  51  72
ATOM     72  C   UNL A   1      36.873  31.461  29.149  1.00  0.00     0.057 A 
ATOM     73  C   UNL A   1      36.914  32.789  28.709  1.00  0.00     0.134 A 
ATOM     74  C   UNL A   1      35.716  30.724  28.868  1.00  0.00     0.134 A 
ATOM     75  F   UNL A   1      37.986  33.553  28.965  1.00  0.00    -0.206 F 
ATOM     76  C   UNL A   1      35.837  33.368  28.035  1.00  0.00     0.040 A 
ATOM     77  C   UNL A   1      34.644  31.282  28.173  1.00  0.00     0.040 A 
ATOM     78  F   UNL A   1      35.616  29.445  29.261  1.00  0.00    -0.206 F 
ATOM     79  C   UNL A   1      34.699  32.612  27.761  1.00  0.00     0.006 A 
ENDBRANCH  51  72
BRANCH  63  80
ATOM     80  C   UNL A   1      39.217  32.272  35.654  1.00  0.00     0.057 A 
ATOM     81  C   UNL A   1      39.648  33.599  35.774  1.00  0.00     0.134 A 
ATOM     82  C   UNL A   1      38.326  31.790  36.621  1.00  0.00     0.134 A 
ATOM     83  F   UNL A   1      40.509  34.119  34.886  1.00  0.00    -0.206 F 
ATOM     84  C   UNL A   1      39.234  34.406  36.836  1.00  0.00     0.040 A 
ATOM     85  C   UNL A   1      37.883  32.596  37.671  1.00  0.00     0.040 A 
ATOM     86  F   UNL A   1      37.866  30.532  36.558  1.00  0.00    -0.206 F 
ATOM     87  C   UNL A   1      38.345  33.905  37.786  1.00  0.00     0.006 A 
ENDBRANCH  63  80
ENDBRANCH  37  38
ENDBRANCH  30  32
ENDBRANCH  29  30
ENDBRANCH  28  29
ENDBRANCH  27  28
ENDBRANCH  26  27
ENDBRANCH  25  26
ENDBRANCH  24  25
ENDBRANCH   1  24
TORSDOF 22
ENDMDL
