MODEL 1
REMARK VINA RESULT:      -9.9      0.000      0.000
REMARK SMILES CCCc1c(C(=O)OCCOCCOCCOCCOC(=O)c2ccc(-c3c4nc(c(-c5c(F)cccc5F)c5ccc([nH]5)c(-c5c(F)cccc5F)c5nc(c(-c6c(F)cccc6F)c6ccc3[nH]6)C=C5)C=C4)cc2)nnn1-c1cc(OC)ccc1F
REMARK SMILES IDX 14 1 13 2 12 3 11 4 10 5 9 6 8 7 6 8 7 9 5 10 4 11 79 12
REMARK SMILES IDX 77 13 78 14 3 15 2 16 1 17 80 18 81 19 87 20 82 21 86 22
REMARK SMILES IDX 88 23 85 24 83 25 84 26 15 27 16 28 17 29 18 30 19 31 20 32
REMARK SMILES IDX 21 33 22 34 23 35 24 36 76 37 25 38 75 39 26 40 27 41 28 42
REMARK SMILES IDX 69 43 29 44 74 45 68 46 70 47 30 48 73 49 67 50 66 51 31 53
REMARK SMILES IDX 57 54 40 55 56 56 41 57 44 58 55 59 71 60 42 61 43 62 54 64
REMARK SMILES IDX 72 65 45 66 32 67 33 68 38 69 34 70 35 71 37 72 39 73 36 74
REMARK SMILES IDX 58 75 59 76 64 77 60 78 61 79 63 80 65 81 62 82 46 83 47 84
REMARK SMILES IDX 52 85 48 86 49 87 51 88 53 89 50 90
REMARK H PARENT 70 52 44 63
REMARK Flexibility Score: inf
ROOT
ATOM      1  O   UNL A   1      37.451  20.844  25.234  1.00  0.00    -0.377 OA
ENDROOT
BRANCH   1   2
ATOM      2  C   UNL A   1      36.046  20.645  25.100  1.00  0.00     0.188 C 
BRANCH   2   3
ATOM      3  C   UNL A   1      35.565  19.196  24.916  1.00  0.00     0.188 C 
BRANCH   3   4
ATOM      4  O   UNL A   1      34.262  19.168  24.336  1.00  0.00    -0.376 OA
BRANCH   4   5
ATOM      5  C   UNL A   1      33.182  19.507  25.187  1.00  0.00     0.202 C 
BRANCH   5   6
ATOM      6  C   UNL A   1      32.307  20.625  24.608  1.00  0.00     0.261 C 
BRANCH   6   7
ATOM      7  O   UNL A   1      31.543  21.359  25.579  1.00  0.00    -0.458 OA
BRANCH   7   8
ATOM      8  C   UNL A   1      32.248  22.178  26.418  1.00  0.00     0.360 C 
ATOM      9  O   UNL A   1      33.220  21.832  27.036  1.00  0.00    -0.244 OA
BRANCH   8  10
ATOM     10  C   UNL A   1      31.769  23.560  26.333  1.00  0.00     0.194 A 
ATOM     11  C   UNL A   1      32.421  24.730  25.960  1.00  0.00     0.080 A 
ATOM     12  N   UNL A   1      31.390  25.670  25.963  1.00  0.00    -0.214 N 
ATOM     13  N   UNL A   1      30.511  23.877  26.785  1.00  0.00    -0.122 NA
ATOM     14  N   UNL A   1      30.357  25.187  26.692  1.00  0.00    -0.061 NA
BRANCH  11  15
ATOM     15  C   UNL A   1      33.845  25.016  25.590  1.00  0.00     0.059 C 
BRANCH  15  16
ATOM     16  C   UNL A   1      34.148  24.907  24.087  1.00  0.00     0.003 C 
ATOM     17  C   UNL A   1      34.724  23.562  23.664  1.00  0.00     0.004 C 
ENDBRANCH  15  16
ENDBRANCH  11  15
BRANCH  12  18
ATOM     18  C   UNL A   1      31.237  26.893  25.273  1.00  0.00     0.106 A 
ATOM     19  C   UNL A   1      31.620  28.100  25.883  1.00  0.00     0.078 A 
ATOM     20  C   UNL A   1      30.588  26.932  24.042  1.00  0.00     0.149 A 
ATOM     21  C   UNL A   1      31.409  29.323  25.229  1.00  0.00     0.121 A 
ATOM     22  C   UNL A   1      30.376  28.141  23.389  1.00  0.00     0.045 A 
ATOM     23  F   UNL A   1      30.046  25.833  23.501  1.00  0.00    -0.205 F 
ATOM     24  C   UNL A   1      30.797  29.337  23.975  1.00  0.00     0.049 A 
BRANCH  21  25
ATOM     25  O   UNL A   1      31.842  30.427  25.912  1.00  0.00    -0.497 OA
ATOM     26  C   UNL A   1      33.152  30.366  26.467  1.00  0.00     0.278 C 
ENDBRANCH  21  25
ENDBRANCH  12  18
ENDBRANCH   8  10
ENDBRANCH   7   8
ENDBRANCH   6   7
ENDBRANCH   5   6
ENDBRANCH   4   5
ENDBRANCH   3   4
ENDBRANCH   2   3
ENDBRANCH   1   2
BRANCH   1  27
ATOM     27  C   UNL A   1      37.843  21.963  26.010  1.00  0.00     0.188 C 
BRANCH  27  28
ATOM     28  C   UNL A   1      39.365  22.231  26.081  1.00  0.00     0.188 C 
BRANCH  28  29
ATOM     29  O   UNL A   1      40.380  21.247  25.872  1.00  0.00    -0.376 OA
BRANCH  29  30
ATOM     30  C   UNL A   1      41.031  20.542  26.916  1.00  0.00     0.202 C 
BRANCH  30  31
ATOM     31  C   UNL A   1      42.180  19.601  26.570  1.00  0.00     0.261 C 
BRANCH  31  32
ATOM     32  O   UNL A   1      43.398  20.288  26.393  1.00  0.00    -0.460 OA
BRANCH  32  33
ATOM     33  C   UNL A   1      43.856  20.253  25.126  1.00  0.00     0.338 C 
ATOM     34  O   UNL A   1      43.860  19.306  24.358  1.00  0.00    -0.246 OA
BRANCH  33  35
ATOM     35  C   UNL A   1      44.498  21.544  24.844  1.00  0.00     0.060 A 
ATOM     36  C   UNL A   1      45.598  21.817  25.651  1.00  0.00     0.016 A 
ATOM     37  C   UNL A   1      43.747  22.549  24.211  1.00  0.00     0.016 A 
ATOM     38  C   UNL A   1      45.673  23.076  26.174  1.00  0.00     0.010 A 
ATOM     39  C   UNL A   1      43.816  23.808  24.737  1.00  0.00     0.010 A 
ATOM     40  C   UNL A   1      44.680  23.992  25.811  1.00  0.00    -0.014 A 
BRANCH  40  41
ATOM     41  C   UNL A   1      44.501  25.118  26.688  1.00  0.00     0.031 A 
ATOM     42  C   UNL A   1      45.590  26.098  26.615  1.00  0.00     0.074 A 
ATOM     43  C   UNL A   1      43.398  25.246  27.445  1.00  0.00     0.049 A 
ATOM     44  N   UNL A   1      46.439  26.409  27.532  1.00  0.00    -0.248 NA
ATOM     45  C   UNL A   1      45.857  26.690  25.297  1.00  0.00     0.031 C 
ATOM     46  C   UNL A   1      42.136  24.502  27.357  1.00  0.00     0.029 A 
ATOM     47  N   UNL A   1      43.138  26.183  28.389  1.00  0.00    -0.354 N 
ATOM     48  C   UNL A   1      47.241  27.389  26.963  1.00  0.00     0.074 A 
ATOM     49  C   UNL A   1      46.964  27.384  25.551  1.00  0.00     0.031 C 
ATOM     50  C   UNL A   1      41.182  25.189  28.027  1.00  0.00     0.029 A 
ATOM     51  C   UNL A   1      41.793  26.343  28.666  1.00  0.00     0.049 A 
ATOM     52  H   UNL A   1      43.844  26.703  28.836  1.00  0.00     0.167 HD
ATOM     53  C   UNL A   1      47.883  28.303  27.733  1.00  0.00     0.037 A 
ATOM     54  C   UNL A   1      41.245  27.434  29.252  1.00  0.00     0.037 A 
ATOM     55  C   UNL A   1      48.006  27.858  29.098  1.00  0.00     0.049 A 
ATOM     56  C   UNL A   1      42.344  28.179  29.934  1.00  0.00     0.074 A 
ATOM     57  C   UNL A   1      48.551  26.738  29.702  1.00  0.00     0.029 A 
ATOM     58  N   UNL A   1      47.199  28.434  30.050  1.00  0.00    -0.354 N 
ATOM     59  N   UNL A   1      42.978  27.750  30.993  1.00  0.00    -0.248 NA
ATOM     60  C   UNL A   1      43.054  29.192  29.161  1.00  0.00     0.031 C 
ATOM     61  C   UNL A   1      47.679  26.439  30.788  1.00  0.00     0.029 A 
ATOM     62  C   UNL A   1      46.677  27.410  30.799  1.00  0.00     0.049 A 
ATOM     63  H   UNL A   1      47.030  29.396  30.172  1.00  0.00     0.167 HD
ATOM     64  C   UNL A   1      44.302  28.122  30.799  1.00  0.00     0.074 A 
ATOM     65  C   UNL A   1      44.272  29.081  29.698  1.00  0.00     0.031 C 
ATOM     66  C   UNL A   1      45.337  27.411  31.339  1.00  0.00     0.037 A 
BRANCH  53  67
ATOM     67  C   UNL A   1      48.058  29.739  27.320  1.00  0.00     0.057 A 
ATOM     68  C   UNL A   1      49.324  30.332  27.449  1.00  0.00     0.134 A 
ATOM     69  C   UNL A   1      46.995  30.635  27.074  1.00  0.00     0.134 A 
ATOM     70  F   UNL A   1      50.410  29.587  27.702  1.00  0.00    -0.206 F 
ATOM     71  C   UNL A   1      49.505  31.718  27.411  1.00  0.00     0.040 A 
ATOM     72  C   UNL A   1      47.176  32.015  26.973  1.00  0.00     0.040 A 
ATOM     73  F   UNL A   1      45.717  30.245  27.018  1.00  0.00    -0.206 F 
ATOM     74  C   UNL A   1      48.428  32.565  27.178  1.00  0.00     0.006 A 
ENDBRANCH  53  67
BRANCH  54  75
ATOM     75  C   UNL A   1      39.925  28.033  28.945  1.00  0.00     0.057 A 
ATOM     76  C   UNL A   1      38.919  28.110  29.915  1.00  0.00     0.134 A 
ATOM     77  C   UNL A   1      39.683  28.748  27.754  1.00  0.00     0.134 A 
ATOM     78  F   UNL A   1      39.078  27.517  31.107  1.00  0.00    -0.206 F 
ATOM     79  C   UNL A   1      37.740  28.842  29.711  1.00  0.00     0.040 A 
ATOM     80  C   UNL A   1      38.505  29.467  27.531  1.00  0.00     0.040 A 
ATOM     81  F   UNL A   1      40.614  28.848  26.796  1.00  0.00    -0.206 F 
ATOM     82  C   UNL A   1      37.531  29.523  28.515  1.00  0.00     0.006 A 
ENDBRANCH  54  75
BRANCH  66  83
ATOM     83  C   UNL A   1      45.025  26.344  32.350  1.00  0.00     0.057 A 
ATOM     84  C   UNL A   1      44.700  25.024  32.006  1.00  0.00     0.134 A 
ATOM     85  C   UNL A   1      45.245  26.608  33.708  1.00  0.00     0.134 A 
ATOM     86  F   UNL A   1      44.584  24.651  30.726  1.00  0.00    -0.206 F 
ATOM     87  C   UNL A   1      44.555  24.024  32.972  1.00  0.00     0.040 A 
ATOM     88  C   UNL A   1      45.138  25.610  34.679  1.00  0.00     0.040 A 
ATOM     89  F   UNL A   1      45.624  27.833  34.106  1.00  0.00    -0.206 F 
ATOM     90  C   UNL A   1      44.783  24.314  34.313  1.00  0.00     0.006 A 
ENDBRANCH  66  83
ENDBRANCH  40  41
ENDBRANCH  33  35
ENDBRANCH  32  33
ENDBRANCH  31  32
ENDBRANCH  30  31
ENDBRANCH  29  30
ENDBRANCH  28  29
ENDBRANCH  27  28
ENDBRANCH   1  27
TORSDOF 24
ENDMDL
MODEL 2
REMARK VINA RESULT:      -9.9      4.147      8.152
REMARK SMILES CCCc1c(C(=O)OCCOCCOCCOCCOC(=O)c2ccc(-c3c4nc(c(-c5c(F)cccc5F)c5ccc([nH]5)c(-c5c(F)cccc5F)c5nc(c(-c6c(F)cccc6F)c6ccc3[nH]6)C=C5)C=C4)cc2)nnn1-c1cc(OC)ccc1F
REMARK SMILES IDX 14 1 13 2 12 3 11 4 10 5 9 6 8 7 6 8 7 9 5 10 4 11 79 12
REMARK SMILES IDX 77 13 78 14 3 15 2 16 1 17 80 18 81 19 87 20 82 21 86 22
REMARK SMILES IDX 88 23 85 24 83 25 84 26 15 27 16 28 17 29 18 30 19 31 20 32
REMARK SMILES IDX 21 33 22 34 23 35 24 36 76 37 25 38 75 39 26 40 27 41 28 42
REMARK SMILES IDX 69 43 29 44 74 45 68 46 70 47 30 48 73 49 67 50 66 51 31 53
REMARK SMILES IDX 57 54 40 55 56 56 41 57 44 58 55 59 71 60 42 61 43 62 54 64
REMARK SMILES IDX 72 65 45 66 32 67 33 68 38 69 34 70 35 71 37 72 39 73 36 74
REMARK SMILES IDX 58 75 59 76 64 77 60 78 61 79 63 80 65 81 62 82 46 83 47 84
REMARK SMILES IDX 52 85 48 86 49 87 51 88 53 89 50 90
REMARK H PARENT 70 52 44 63
REMARK Flexibility Score: inf
ROOT
ATOM      1  O   UNL A   1      35.523  19.988  24.892  1.00  0.00    -0.377 OA
ENDROOT
BRANCH   1   2
ATOM      2  C   UNL A   1      34.154  20.375  24.803  1.00  0.00     0.188 C 
BRANCH   2   3
ATOM      3  C   UNL A   1      33.727  21.609  25.616  1.00  0.00     0.188 C 
BRANCH   3   4
ATOM      4  O   UNL A   1      33.132  22.589  24.767  1.00  0.00    -0.376 OA
BRANCH   4   5
ATOM      5  C   UNL A   1      34.017  23.430  24.052  1.00  0.00     0.202 C 
BRANCH   5   6
ATOM      6  C   UNL A   1      33.745  23.420  22.542  1.00  0.00     0.261 C 
BRANCH   6   7
ATOM      7  O   UNL A   1      32.648  24.249  22.121  1.00  0.00    -0.458 OA
BRANCH   7   8
ATOM      8  C   UNL A   1      32.962  25.314  21.321  1.00  0.00     0.360 C 
ATOM      9  O   UNL A   1      33.037  25.256  20.122  1.00  0.00    -0.244 OA
BRANCH   8  10
ATOM     10  C   UNL A   1      33.028  26.555  22.096  1.00  0.00     0.194 A 
ATOM     11  C   UNL A   1      32.226  27.030  23.129  1.00  0.00     0.080 A 
ATOM     12  N   UNL A   1      32.888  28.194  23.522  1.00  0.00    -0.214 N 
ATOM     13  N   UNL A   1      33.927  27.533  21.747  1.00  0.00    -0.122 NA
ATOM     14  N   UNL A   1      33.723  28.580  22.529  1.00  0.00    -0.061 NA
BRANCH  11  15
ATOM     15  C   UNL A   1      30.979  26.493  23.764  1.00  0.00     0.059 C 
BRANCH  15  16
ATOM     16  C   UNL A   1      31.218  25.635  25.017  1.00  0.00     0.003 C 
ATOM     17  C   UNL A   1      30.703  26.260  26.307  1.00  0.00     0.004 C 
ENDBRANCH  15  16
ENDBRANCH  11  15
BRANCH  12  18
ATOM     18  C   UNL A   1      32.900  28.895  24.747  1.00  0.00     0.106 A 
ATOM     19  C   UNL A   1      33.957  28.714  25.655  1.00  0.00     0.078 A 
ATOM     20  C   UNL A   1      31.805  29.667  25.129  1.00  0.00     0.149 A 
ATOM     21  C   UNL A   1      33.941  29.356  26.901  1.00  0.00     0.121 A 
ATOM     22  C   UNL A   1      31.783  30.307  26.363  1.00  0.00     0.045 A 
ATOM     23  F   UNL A   1      30.697  29.728  24.379  1.00  0.00    -0.205 F 
ATOM     24  C   UNL A   1      32.854  30.163  27.246  1.00  0.00     0.049 A 
BRANCH  21  25
ATOM     25  O   UNL A   1      35.034  29.121  27.689  1.00  0.00    -0.497 OA
ATOM     26  C   UNL A   1      36.147  29.994  27.521  1.00  0.00     0.278 C 
ENDBRANCH  21  25
ENDBRANCH  12  18
ENDBRANCH   8  10
ENDBRANCH   7   8
ENDBRANCH   6   7
ENDBRANCH   5   6
ENDBRANCH   4   5
ENDBRANCH   3   4
ENDBRANCH   2   3
ENDBRANCH   1   2
BRANCH   1  27
ATOM     27  C   UNL A   1      36.413  20.978  25.374  1.00  0.00     0.188 C 
BRANCH  27  28
ATOM     28  C   UNL A   1      37.908  20.752  25.051  1.00  0.00     0.188 C 
BRANCH  28  29
ATOM     29  O   UNL A   1      38.997  21.216  25.852  1.00  0.00    -0.376 OA
BRANCH  29  30
ATOM     30  C   UNL A   1      39.065  22.509  26.431  1.00  0.00     0.202 C 
BRANCH  30  31
ATOM     31  C   UNL A   1      40.393  23.257  26.420  1.00  0.00     0.261 C 
BRANCH  31  32
ATOM     32  O   UNL A   1      40.558  24.070  27.561  1.00  0.00    -0.460 OA
BRANCH  32  33
ATOM     33  C   UNL A   1      40.990  25.315  27.277  1.00  0.00     0.338 C 
ATOM     34  O   UNL A   1      42.076  25.646  26.833  1.00  0.00    -0.246 OA
BRANCH  33  35
ATOM     35  C   UNL A   1      39.960  26.261  27.727  1.00  0.00     0.060 A 
ATOM     36  C   UNL A   1      40.099  27.541  27.201  1.00  0.00     0.016 A 
ATOM     37  C   UNL A   1      39.279  25.999  28.928  1.00  0.00     0.016 A 
ATOM     38  C   UNL A   1      39.954  28.579  28.076  1.00  0.00     0.010 A 
ATOM     39  C   UNL A   1      39.138  27.035  29.807  1.00  0.00     0.010 A 
ATOM     40  C   UNL A   1      39.623  28.273  29.400  1.00  0.00    -0.014 A 
BRANCH  40  41
ATOM     41  C   UNL A   1      39.919  29.283  30.381  1.00  0.00     0.031 A 
ATOM     42  C   UNL A   1      38.803  30.199  30.636  1.00  0.00     0.074 A 
ATOM     43  C   UNL A   1      41.102  29.312  31.017  1.00  0.00     0.049 A 
ATOM     44  N   UNL A   1      38.738  31.459  30.380  1.00  0.00    -0.248 NA
ATOM     45  C   UNL A   1      37.544  29.594  31.093  1.00  0.00     0.031 C 
ATOM     46  C   UNL A   1      42.142  28.278  31.066  1.00  0.00     0.029 A 
ATOM     47  N   UNL A   1      41.564  30.253  31.877  1.00  0.00    -0.354 N 
ATOM     48  C   UNL A   1      37.483  31.853  30.824  1.00  0.00     0.074 A 
ATOM     49  C   UNL A   1      36.734  30.650  31.072  1.00  0.00     0.031 C 
ATOM     50  C   UNL A   1      42.970  28.545  32.102  1.00  0.00     0.029 A 
ATOM     51  C   UNL A   1      42.578  29.809  32.704  1.00  0.00     0.049 A 
ATOM     52  H   UNL A   1      41.208  31.170  31.908  1.00  0.00     0.167 HD
ATOM     53  C   UNL A   1      37.243  33.135  31.198  1.00  0.00     0.037 A 
ATOM     54  C   UNL A   1      42.938  30.392  33.873  1.00  0.00     0.037 A 
ATOM     55  C   UNL A   1      38.223  34.041  30.656  1.00  0.00     0.049 A 
ATOM     56  C   UNL A   1      42.398  31.782  33.869  1.00  0.00     0.074 A 
ATOM     57  C   UNL A   1      38.661  34.334  29.376  1.00  0.00     0.029 A 
ATOM     58  N   UNL A   1      39.179  34.554  31.500  1.00  0.00    -0.354 N 
ATOM     59  N   UNL A   1      42.833  32.738  33.091  1.00  0.00    -0.248 NA
ATOM     60  C   UNL A   1      41.057  31.988  34.405  1.00  0.00     0.031 C 
ATOM     61  C   UNL A   1      40.062  34.562  29.505  1.00  0.00     0.029 A 
ATOM     62  C   UNL A   1      40.385  34.425  30.856  1.00  0.00     0.049 A 
ATOM     63  H   UNL A   1      39.029  34.940  32.393  1.00  0.00     0.167 HD
ATOM     64  C   UNL A   1      41.698  33.447  32.717  1.00  0.00     0.074 A 
ATOM     65  C   UNL A   1      40.648  32.993  33.625  1.00  0.00     0.031 C 
ATOM     66  C   UNL A   1      41.625  34.116  31.527  1.00  0.00     0.037 A 
BRANCH  53  67
ATOM     67  C   UNL A   1      36.342  33.494  32.349  1.00  0.00     0.057 A 
ATOM     68  C   UNL A   1      35.304  34.416  32.136  1.00  0.00     0.134 A 
ATOM     69  C   UNL A   1      36.618  33.199  33.701  1.00  0.00     0.134 A 
ATOM     70  F   UNL A   1      34.961  34.791  30.895  1.00  0.00    -0.206 F 
ATOM     71  C   UNL A   1      34.644  35.051  33.192  1.00  0.00     0.040 A 
ATOM     72  C   UNL A   1      35.922  33.783  34.761  1.00  0.00     0.040 A 
ATOM     73  F   UNL A   1      37.633  32.415  34.080  1.00  0.00    -0.206 F 
ATOM     74  C   UNL A   1      34.956  34.740  34.509  1.00  0.00     0.006 A 
ENDBRANCH  53  67
BRANCH  54  75
ATOM     75  C   UNL A   1      43.393  29.699  35.102  1.00  0.00     0.057 A 
ATOM     76  C   UNL A   1      42.767  28.529  35.549  1.00  0.00     0.134 A 
ATOM     77  C   UNL A   1      44.594  30.039  35.756  1.00  0.00     0.134 A 
ATOM     78  F   UNL A   1      41.652  28.084  34.953  1.00  0.00    -0.206 F 
ATOM     79  C   UNL A   1      43.296  27.751  36.590  1.00  0.00     0.040 A 
ATOM     80  C   UNL A   1      45.123  29.283  36.806  1.00  0.00     0.040 A 
ATOM     81  F   UNL A   1      45.346  31.070  35.347  1.00  0.00    -0.206 F 
ATOM     82  C   UNL A   1      44.477  28.129  37.222  1.00  0.00     0.006 A 
ENDBRANCH  54  75
BRANCH  66  83
ATOM     83  C   UNL A   1      42.880  34.278  30.718  1.00  0.00     0.057 A 
ATOM     84  C   UNL A   1      43.282  33.374  29.724  1.00  0.00     0.134 A 
ATOM     85  C   UNL A   1      43.601  35.475  30.810  1.00  0.00     0.134 A 
ATOM     86  F   UNL A   1      42.585  32.256  29.483  1.00  0.00    -0.206 F 
ATOM     87  C   UNL A   1      44.376  33.628  28.892  1.00  0.00     0.040 A 
ATOM     88  C   UNL A   1      44.675  35.757  29.963  1.00  0.00     0.040 A 
ATOM     89  F   UNL A   1      43.234  36.419  31.693  1.00  0.00    -0.206 F 
ATOM     90  C   UNL A   1      45.072  34.828  29.005  1.00  0.00     0.006 A 
ENDBRANCH  66  83
ENDBRANCH  40  41
ENDBRANCH  33  35
ENDBRANCH  32  33
ENDBRANCH  31  32
ENDBRANCH  30  31
ENDBRANCH  29  30
ENDBRANCH  28  29
ENDBRANCH  27  28
ENDBRANCH   1  27
TORSDOF 24
ENDMDL
MODEL 3
REMARK VINA RESULT:      -9.5      3.931      7.948
REMARK SMILES CCCc1c(C(=O)OCCOCCOCCOCCOC(=O)c2ccc(-c3c4nc(c(-c5c(F)cccc5F)c5ccc([nH]5)c(-c5c(F)cccc5F)c5nc(c(-c6c(F)cccc6F)c6ccc3[nH]6)C=C5)C=C4)cc2)nnn1-c1cc(OC)ccc1F
REMARK SMILES IDX 14 1 13 2 12 3 11 4 10 5 9 6 8 7 6 8 7 9 5 10 4 11 79 12
REMARK SMILES IDX 77 13 78 14 3 15 2 16 1 17 80 18 81 19 87 20 82 21 86 22
REMARK SMILES IDX 88 23 85 24 83 25 84 26 15 27 16 28 17 29 18 30 19 31 20 32
REMARK SMILES IDX 21 33 22 34 23 35 24 36 76 37 25 38 75 39 26 40 27 41 28 42
REMARK SMILES IDX 69 43 29 44 74 45 68 46 70 47 30 48 73 49 67 50 66 51 31 53
REMARK SMILES IDX 57 54 40 55 56 56 41 57 44 58 55 59 71 60 42 61 43 62 54 64
REMARK SMILES IDX 72 65 45 66 32 67 33 68 38 69 34 70 35 71 37 72 39 73 36 74
REMARK SMILES IDX 58 75 59 76 64 77 60 78 61 79 63 80 65 81 62 82 46 83 47 84
REMARK SMILES IDX 52 85 48 86 49 87 51 88 53 89 50 90
REMARK H PARENT 70 52 44 63
REMARK Flexibility Score: inf
ROOT
ATOM      1  O   UNL A   1      42.506  21.059  26.481  1.00  0.00    -0.377 OA
ENDROOT
BRANCH   1   2
ATOM      2  C   UNL A   1      41.214  21.121  27.080  1.00  0.00     0.188 C 
BRANCH   2   3
ATOM      3  C   UNL A   1      40.023  21.369  26.138  1.00  0.00     0.188 C 
BRANCH   3   4
ATOM      4  O   UNL A   1      39.091  22.270  26.733  1.00  0.00    -0.376 OA
BRANCH   4   5
ATOM      5  C   UNL A   1      38.819  23.463  26.021  1.00  0.00     0.202 C 
BRANCH   5   6
ATOM      6  C   UNL A   1      37.316  23.736  25.885  1.00  0.00     0.261 C 
BRANCH   6   7
ATOM      7  O   UNL A   1      36.474  22.585  26.066  1.00  0.00    -0.458 OA
BRANCH   7   8
ATOM      8  C   UNL A   1      35.955  22.025  24.931  1.00  0.00     0.360 C 
ATOM      9  O   UNL A   1      36.158  20.891  24.586  1.00  0.00    -0.244 OA
BRANCH   8  10
ATOM     10  C   UNL A   1      34.996  22.927  24.289  1.00  0.00     0.194 A 
ATOM     11  C   UNL A   1      33.777  23.430  24.734  1.00  0.00     0.080 A 
ATOM     12  N   UNL A   1      33.427  24.325  23.722  1.00  0.00    -0.214 N 
ATOM     13  N   UNL A   1      35.182  23.306  22.982  1.00  0.00    -0.122 NA
ATOM     14  N   UNL A   1      34.141  24.032  22.610  1.00  0.00    -0.061 NA
BRANCH  11  15
ATOM     15  C   UNL A   1      32.977  23.179  25.976  1.00  0.00     0.059 C 
BRANCH  15  16
ATOM     16  C   UNL A   1      31.791  22.221  25.788  1.00  0.00     0.003 C 
ATOM     17  C   UNL A   1      32.049  21.096  24.795  1.00  0.00     0.004 C 
ENDBRANCH  15  16
ENDBRANCH  11  15
BRANCH  12  18
ATOM     18  C   UNL A   1      32.597  25.468  23.731  1.00  0.00     0.106 A 
ATOM     19  C   UNL A   1      33.061  26.674  24.281  1.00  0.00     0.078 A 
ATOM     20  C   UNL A   1      31.270  25.379  23.317  1.00  0.00     0.149 A 
ATOM     21  C   UNL A   1      32.219  27.792  24.352  1.00  0.00     0.121 A 
ATOM     22  C   UNL A   1      30.429  26.484  23.385  1.00  0.00     0.045 A 
ATOM     23  F   UNL A   1      30.728  24.209  22.952  1.00  0.00    -0.205 F 
ATOM     24  C   UNL A   1      30.904  27.695  23.891  1.00  0.00     0.049 A 
BRANCH  21  25
ATOM     25  O   UNL A   1      32.789  28.915  24.888  1.00  0.00    -0.497 OA
ATOM     26  C   UNL A   1      31.906  29.872  25.464  1.00  0.00     0.278 C 
ENDBRANCH  21  25
ENDBRANCH  12  18
ENDBRANCH   8  10
ENDBRANCH   7   8
ENDBRANCH   6   7
ENDBRANCH   5   6
ENDBRANCH   4   5
ENDBRANCH   3   4
ENDBRANCH   2   3
ENDBRANCH   1   2
BRANCH   1  27
ATOM     27  C   UNL A   1      43.235  22.273  26.463  1.00  0.00     0.188 C 
BRANCH  27  28
ATOM     28  C   UNL A   1      43.241  23.072  27.788  1.00  0.00     0.188 C 
BRANCH  28  29
ATOM     29  O   UNL A   1      44.217  24.052  28.147  1.00  0.00    -0.376 OA
BRANCH  29  30
ATOM     30  C   UNL A   1      44.025  25.452  28.017  1.00  0.00     0.202 C 
BRANCH  30  31
ATOM     31  C   UNL A   1      44.380  26.129  26.697  1.00  0.00     0.261 C 
BRANCH  31  32
ATOM     32  O   UNL A   1      43.366  27.006  26.257  1.00  0.00    -0.460 OA
BRANCH  32  33
ATOM     33  C   UNL A   1      42.298  26.374  25.733  1.00  0.00     0.338 C 
ATOM     34  O   UNL A   1      42.292  25.446  24.942  1.00  0.00    -0.246 OA
BRANCH  33  35
ATOM     35  C   UNL A   1      41.093  27.089  26.173  1.00  0.00     0.060 A 
ATOM     36  C   UNL A   1      41.144  28.464  25.969  1.00  0.00     0.016 A 
ATOM     37  C   UNL A   1      40.265  26.491  27.138  1.00  0.00     0.016 A 
ATOM     38  C   UNL A   1      40.721  29.250  27.003  1.00  0.00     0.010 A 
ATOM     39  C   UNL A   1      39.846  27.274  28.176  1.00  0.00     0.010 A 
ATOM     40  C   UNL A   1      40.222  28.612  28.143  1.00  0.00    -0.014 A 
BRANCH  40  41
ATOM     41  C   UNL A   1      40.217  29.386  29.355  1.00  0.00     0.031 A 
ATOM     42  C   UNL A   1      39.024  30.225  29.512  1.00  0.00     0.074 A 
ATOM     43  C   UNL A   1      41.207  29.277  30.257  1.00  0.00     0.049 A 
ATOM     44  N   UNL A   1      38.956  31.511  29.517  1.00  0.00    -0.248 NA
ATOM     45  C   UNL A   1      37.727  29.536  29.504  1.00  0.00     0.031 C 
ATOM     46  C   UNL A   1      42.258  28.257  30.345  1.00  0.00     0.029 A 
ATOM     47  N   UNL A   1      41.395  30.010  31.382  1.00  0.00    -0.354 N 
ATOM     48  C   UNL A   1      37.611  31.799  29.708  1.00  0.00     0.074 A 
ATOM     49  C   UNL A   1      36.890  30.571  29.505  1.00  0.00     0.031 C 
ATOM     50  C   UNL A   1      42.795  28.294  31.586  1.00  0.00     0.029 A 
ATOM     51  C   UNL A   1      42.201  29.398  32.323  1.00  0.00     0.049 A 
ATOM     52  H   UNL A   1      40.994  30.899  31.515  1.00  0.00     0.167 HD
ATOM     53  C   UNL A   1      37.219  32.970  30.271  1.00  0.00     0.037 A 
ATOM     54  C   UNL A   1      42.235  29.714  33.640  1.00  0.00     0.037 A 
ATOM     55  C   UNL A   1      38.251  33.972  30.190  1.00  0.00     0.049 A 
ATOM     56  C   UNL A   1      41.639  31.073  33.793  1.00  0.00     0.074 A 
ATOM     57  C   UNL A   1      38.970  34.535  29.150  1.00  0.00     0.029 A 
ATOM     58  N   UNL A   1      38.946  34.291  31.333  1.00  0.00    -0.354 N 
ATOM     59  N   UNL A   1      42.197  32.175  33.366  1.00  0.00    -0.248 NA
ATOM     60  C   UNL A   1      40.198  31.158  34.010  1.00  0.00     0.031 C 
ATOM     61  C   UNL A   1      40.284  34.729  29.668  1.00  0.00     0.029 A 
ATOM     62  C   UNL A   1      40.276  34.304  30.997  1.00  0.00     0.049 A 
ATOM     63  H   UNL A   1      38.563  34.474  32.221  1.00  0.00     0.167 HD
ATOM     64  C   UNL A   1      41.150  32.947  32.879  1.00  0.00     0.074 A 
ATOM     65  C   UNL A   1      39.937  32.307  33.381  1.00  0.00     0.031 C 
ATOM     66  C   UNL A   1      41.332  33.857  31.875  1.00  0.00     0.037 A 
BRANCH  53  67
ATOM     67  C   UNL A   1      36.048  33.072  31.210  1.00  0.00     0.057 A 
ATOM     68  C   UNL A   1      35.034  34.003  30.932  1.00  0.00     0.134 A 
ATOM     69  C   UNL A   1      36.012  32.510  32.504  1.00  0.00     0.134 A 
ATOM     70  F   UNL A   1      34.974  34.619  29.743  1.00  0.00    -0.206 F 
ATOM     71  C   UNL A   1      34.101  34.398  31.895  1.00  0.00     0.040 A 
ATOM     72  C   UNL A   1      35.047  32.853  33.452  1.00  0.00     0.040 A 
ATOM     73  F   UNL A   1      36.956  31.680  32.962  1.00  0.00    -0.206 F 
ATOM     74  C   UNL A   1      34.109  33.827  33.162  1.00  0.00     0.006 A 
ENDBRANCH  53  67
BRANCH  54  75
ATOM     75  C   UNL A   1      42.415  28.773  34.771  1.00  0.00     0.057 A 
ATOM     76  C   UNL A   1      41.697  27.573  34.836  1.00  0.00     0.134 A 
ATOM     77  C   UNL A   1      43.457  28.915  35.709  1.00  0.00     0.134 A 
ATOM     78  F   UNL A   1      40.727  27.312  33.949  1.00  0.00    -0.206 F 
ATOM     79  C   UNL A   1      41.988  26.580  35.784  1.00  0.00     0.040 A 
ATOM     80  C   UNL A   1      43.746  27.942  36.671  1.00  0.00     0.040 A 
ATOM     81  F   UNL A   1      44.288  29.964  35.678  1.00  0.00    -0.206 F 
ATOM     82  C   UNL A   1      43.015  26.764  36.705  1.00  0.00     0.006 A 
ENDBRANCH  54  75
BRANCH  66  83
ATOM     83  C   UNL A   1      42.735  34.191  31.454  1.00  0.00     0.057 A 
ATOM     84  C   UNL A   1      43.433  33.487  30.463  1.00  0.00     0.134 A 
ATOM     85  C   UNL A   1      43.326  35.370  31.926  1.00  0.00     0.134 A 
ATOM     86  F   UNL A   1      42.898  32.413  29.870  1.00  0.00    -0.206 F 
ATOM     87  C   UNL A   1      44.681  33.910  29.995  1.00  0.00     0.040 A 
ATOM     88  C   UNL A   1      44.555  35.823  31.443  1.00  0.00     0.040 A 
ATOM     89  F   UNL A   1      42.686  36.133  32.827  1.00  0.00    -0.206 F 
ATOM     90  C   UNL A   1      45.242  35.088  30.480  1.00  0.00     0.006 A 
ENDBRANCH  66  83
ENDBRANCH  40  41
ENDBRANCH  33  35
ENDBRANCH  32  33
ENDBRANCH  31  32
ENDBRANCH  30  31
ENDBRANCH  29  30
ENDBRANCH  28  29
ENDBRANCH  27  28
ENDBRANCH   1  27
TORSDOF 24
ENDMDL
