MODEL 1
REMARK VINA RESULT:      -9.7      0.000      0.000
REMARK SMILES O=C(OCCOCCOCCOCCOC(=O)[C@@H]1CSCN1C(=O)c1cccc(Cl)c1)c1ccc(-c2c3nc(c(-c4c(F)cccc4F)c4ccc([nH]4)c(-c4c(F)cccc4F)c4nc(c(-c5c(F)cccc5F)c5ccc2[nH]5)C=C4)C=C3)cc1
REMARK SMILES IDX 9 1 8 2 7 3 6 4 5 5 4 6 3 7 2 8 1 9 32 10 33 11 85 12 34 13
REMARK SMILES IDX 84 14 35 15 36 16 37 17 78 18 38 19 83 20 77 21 79 22 39 23
REMARK SMILES IDX 82 24 76 25 75 26 40 28 66 29 49 30 65 31 50 32 53 33 64 34
REMARK SMILES IDX 80 35 51 36 52 37 63 39 81 40 54 41 41 42 42 43 47 44 43 45
REMARK SMILES IDX 44 46 46 47 48 48 45 49 67 50 68 51 73 52 69 53 70 54 72 55
REMARK SMILES IDX 74 56 71 57 55 58 56 59 61 60 57 61 58 62 60 63 62 64 59 65
REMARK SMILES IDX 10 66 11 67 12 68 13 69 14 70 15 71 16 72 17 73 18 74 19 75
REMARK SMILES IDX 22 76 20 77 21 78 23 79 24 80 25 81 26 82 31 83 27 84 29 85
REMARK SMILES IDX 28 86 30 87
REMARK H PARENT 79 27 53 38
REMARK Flexibility Score: inf
ROOT
ATOM      1  O   UNL A   1      35.444  33.159  28.521  1.00  0.00    -0.377 OA
ENDROOT
BRANCH   1   2
ATOM      2  C   UNL A   1      35.624  33.698  29.820  1.00  0.00     0.188 C 
BRANCH   2   3
ATOM      3  C   UNL A   1      34.358  34.183  30.528  1.00  0.00     0.188 C 
BRANCH   3   4
ATOM      4  O   UNL A   1      34.014  33.332  31.625  1.00  0.00    -0.376 OA
BRANCH   4   5
ATOM      5  C   UNL A   1      34.038  33.919  32.930  1.00  0.00     0.202 C 
BRANCH   5   6
ATOM      6  C   UNL A   1      35.156  33.445  33.855  1.00  0.00     0.261 C 
BRANCH   6   7
ATOM      7  O   UNL A   1      35.821  32.274  33.377  1.00  0.00    -0.460 OA
BRANCH   7   8
ATOM      8  C   UNL A   1      37.016  31.772  33.771  1.00  0.00     0.338 C 
ATOM      9  O   UNL A   1      37.329  31.922  34.953  1.00  0.00    -0.246 OA
BRANCH   8  10
ATOM     10  C   UNL A   1      38.020  31.109  32.866  1.00  0.00     0.060 A 
ATOM     11  C   UNL A   1      39.205  30.472  33.252  1.00  0.00     0.016 A 
ATOM     12  C   UNL A   1      37.695  31.090  31.497  1.00  0.00     0.016 A 
ATOM     13  C   UNL A   1      40.036  29.838  32.343  1.00  0.00     0.010 A 
ATOM     14  C   UNL A   1      38.550  30.511  30.559  1.00  0.00     0.010 A 
ATOM     15  C   UNL A   1      39.739  29.916  30.992  1.00  0.00    -0.014 A 
BRANCH  15  16
ATOM     16  C   UNL A   1      40.845  29.688  30.061  1.00  0.00     0.031 A 
ATOM     17  C   UNL A   1      40.880  28.350  29.392  1.00  0.00     0.074 A 
ATOM     18  C   UNL A   1      41.689  30.678  29.741  1.00  0.00     0.049 A 
ATOM     19  N   UNL A   1      41.809  27.806  28.662  1.00  0.00    -0.248 NA
ATOM     20  C   UNL A   1      39.682  27.505  29.573  1.00  0.00     0.031 C 
ATOM     21  C   UNL A   1      41.587  32.059  30.210  1.00  0.00     0.029 A 
ATOM     22  N   UNL A   1      42.798  30.667  28.945  1.00  0.00    -0.354 N 
ATOM     23  C   UNL A   1      41.334  26.540  28.345  1.00  0.00     0.074 A 
ATOM     24  C   UNL A   1      40.028  26.400  28.940  1.00  0.00     0.031 C 
ATOM     25  C   UNL A   1      42.621  32.761  29.716  1.00  0.00     0.029 A 
ATOM     26  C   UNL A   1      43.484  31.854  28.966  1.00  0.00     0.049 A 
ATOM     27  H   UNL A   1      43.075  29.888  28.409  1.00  0.00     0.167 HD
ATOM     28  C   UNL A   1      41.964  25.575  27.640  1.00  0.00     0.037 A 
ATOM     29  C   UNL A   1      44.711  32.130  28.487  1.00  0.00     0.037 A 
ATOM     30  C   UNL A   1      43.276  25.770  27.091  1.00  0.00     0.049 A 
ATOM     31  C   UNL A   1      45.455  31.015  27.802  1.00  0.00     0.074 A 
ATOM     32  C   UNL A   1      44.082  24.874  26.422  1.00  0.00     0.029 A 
ATOM     33  N   UNL A   1      43.973  26.973  27.168  1.00  0.00    -0.354 N 
ATOM     34  N   UNL A   1      45.063  29.779  27.580  1.00  0.00    -0.248 NA
ATOM     35  C   UNL A   1      46.806  31.314  27.321  1.00  0.00     0.031 C 
ATOM     36  C   UNL A   1      45.292  25.521  26.141  1.00  0.00     0.029 A 
ATOM     37  C   UNL A   1      45.212  26.840  26.576  1.00  0.00     0.049 A 
ATOM     38  H   UNL A   1      43.632  27.797  27.584  1.00  0.00     0.167 HD
ATOM     39  C   UNL A   1      46.105  29.159  26.908  1.00  0.00     0.074 A 
ATOM     40  C   UNL A   1      47.149  30.158  26.763  1.00  0.00     0.031 C 
ATOM     41  C   UNL A   1      46.199  27.885  26.447  1.00  0.00     0.037 A 
BRANCH  28  42
ATOM     42  C   UNL A   1      41.284  24.240  27.567  1.00  0.00     0.057 A 
ATOM     43  C   UNL A   1      41.721  23.126  28.298  1.00  0.00     0.134 A 
ATOM     44  C   UNL A   1      40.235  24.039  26.660  1.00  0.00     0.134 A 
ATOM     45  F   UNL A   1      42.747  23.236  29.156  1.00  0.00    -0.206 F 
ATOM     46  C   UNL A   1      41.175  21.856  28.094  1.00  0.00     0.040 A 
ATOM     47  C   UNL A   1      39.661  22.781  26.469  1.00  0.00     0.040 A 
ATOM     48  F   UNL A   1      39.773  25.056  25.916  1.00  0.00    -0.206 F 
ATOM     49  C   UNL A   1      40.141  21.681  27.176  1.00  0.00     0.006 A 
ENDBRANCH  28  42
BRANCH  29  50
ATOM     50  C   UNL A   1      45.304  33.472  28.712  1.00  0.00     0.057 A 
ATOM     51  C   UNL A   1      46.096  33.745  29.832  1.00  0.00     0.134 A 
ATOM     52  C   UNL A   1      45.135  34.506  27.779  1.00  0.00     0.134 A 
ATOM     53  F   UNL A   1      46.284  32.806  30.770  1.00  0.00    -0.206 F 
ATOM     54  C   UNL A   1      46.698  34.993  30.015  1.00  0.00     0.040 A 
ATOM     55  C   UNL A   1      45.752  35.748  27.937  1.00  0.00     0.040 A 
ATOM     56  F   UNL A   1      44.393  34.312  26.679  1.00  0.00    -0.206 F 
ATOM     57  C   UNL A   1      46.535  35.995  29.060  1.00  0.00     0.006 A 
ENDBRANCH  29  50
BRANCH  41  58
ATOM     58  C   UNL A   1      47.440  27.526  25.691  1.00  0.00     0.057 A 
ATOM     59  C   UNL A   1      48.560  26.980  26.324  1.00  0.00     0.134 A 
ATOM     60  C   UNL A   1      47.457  27.624  24.294  1.00  0.00     0.134 A 
ATOM     61  F   UNL A   1      48.602  26.870  27.661  1.00  0.00    -0.206 F 
ATOM     62  C   UNL A   1      49.662  26.544  25.590  1.00  0.00     0.040 A 
ATOM     63  C   UNL A   1      48.541  27.167  23.549  1.00  0.00     0.040 A 
ATOM     64  F   UNL A   1      46.404  28.127  23.633  1.00  0.00    -0.206 F 
ATOM     65  C   UNL A   1      49.648  26.625  24.198  1.00  0.00     0.006 A 
ENDBRANCH  41  58
ENDBRANCH  15  16
ENDBRANCH   8  10
ENDBRANCH   7   8
ENDBRANCH   6   7
ENDBRANCH   5   6
ENDBRANCH   4   5
ENDBRANCH   3   4
ENDBRANCH   2   3
ENDBRANCH   1   2
BRANCH   1  66
ATOM     66  C   UNL A   1      35.581  31.757  28.395  1.00  0.00     0.188 C 
BRANCH  66  67
ATOM     67  C   UNL A   1      34.466  30.970  27.664  1.00  0.00     0.188 C 
BRANCH  67  68
ATOM     68  O   UNL A   1      33.182  31.534  27.687  1.00  0.00    -0.376 OA
BRANCH  68  69
ATOM     69  C   UNL A   1      32.193  31.094  26.778  1.00  0.00     0.202 C 
BRANCH  69  70
ATOM     70  C   UNL A   1      32.052  29.654  26.229  1.00  0.00     0.261 C 
BRANCH  70  71
ATOM     71  O   UNL A   1      32.954  29.162  25.224  1.00  0.00    -0.462 OA
BRANCH  71  72
ATOM     72  C   UNL A   1      33.389  27.884  25.339  1.00  0.00     0.329 C 
ATOM     73  O   UNL A   1      34.070  27.487  26.279  1.00  0.00    -0.250 OA
BRANCH  72  74
ATOM     74  C   UNL A   1      32.852  26.992  24.178  1.00  0.00     0.206 C 
ATOM     75  C   UNL A   1      32.427  27.684  22.870  1.00  0.00     0.108 C 
ATOM     76  N   UNL A   1      31.659  26.346  24.715  1.00  0.00    -0.315 N 
ATOM     77  S   UNL A   1      30.666  27.343  22.604  1.00  0.00    -0.138 SA
ATOM     78  C   UNL A   1      30.430  27.025  24.355  1.00  0.00     0.191 C 
BRANCH  76  79
ATOM     79  C   UNL A   1      31.829  25.304  25.595  1.00  0.00     0.255 C 
ATOM     80  O   UNL A   1      31.357  25.287  26.729  1.00  0.00    -0.269 OA
BRANCH  79  81
ATOM     81  C   UNL A   1      32.570  24.143  25.114  1.00  0.00     0.041 A 
ATOM     82  C   UNL A   1      33.872  23.918  25.569  1.00  0.00     0.014 A 
ATOM     83  C   UNL A   1      31.970  23.331  24.155  1.00  0.00     0.034 A 
ATOM     84  C   UNL A   1      34.611  22.882  25.011  1.00  0.00     0.002 A 
ATOM     85  C   UNL A   1      32.710  22.286  23.622  1.00  0.00     0.041 A 
ATOM     86  C   UNL A   1      34.028  22.067  24.037  1.00  0.00     0.020 A 
ATOM     87  Cl  UNL A   1      32.008  21.271  22.427  1.00  0.00    -0.084 Cl
ENDBRANCH  79  81
ENDBRANCH  76  79
ENDBRANCH  72  74
ENDBRANCH  71  72
ENDBRANCH  70  71
ENDBRANCH  69  70
ENDBRANCH  68  69
ENDBRANCH  67  68
ENDBRANCH  66  67
ENDBRANCH   1  66
TORSDOF 22
ENDMDL
MODEL 2
REMARK VINA RESULT:      -9.5      4.709      8.874
REMARK SMILES O=C(OCCOCCOCCOCCOC(=O)[C@@H]1CSCN1C(=O)c1cccc(Cl)c1)c1ccc(-c2c3nc(c(-c4c(F)cccc4F)c4ccc([nH]4)c(-c4c(F)cccc4F)c4nc(c(-c5c(F)cccc5F)c5ccc2[nH]5)C=C4)C=C3)cc1
REMARK SMILES IDX 9 1 8 2 7 3 6 4 5 5 4 6 3 7 2 8 1 9 32 10 33 11 85 12 34 13
REMARK SMILES IDX 84 14 35 15 36 16 37 17 78 18 38 19 83 20 77 21 79 22 39 23
REMARK SMILES IDX 82 24 76 25 75 26 40 28 66 29 49 30 65 31 50 32 53 33 64 34
REMARK SMILES IDX 80 35 51 36 52 37 63 39 81 40 54 41 41 42 42 43 47 44 43 45
REMARK SMILES IDX 44 46 46 47 48 48 45 49 67 50 68 51 73 52 69 53 70 54 72 55
REMARK SMILES IDX 74 56 71 57 55 58 56 59 61 60 57 61 58 62 60 63 62 64 59 65
REMARK SMILES IDX 10 66 11 67 12 68 13 69 14 70 15 71 16 72 17 73 18 74 19 75
REMARK SMILES IDX 22 76 20 77 21 78 23 79 24 80 25 81 26 82 31 83 27 84 29 85
REMARK SMILES IDX 28 86 30 87
REMARK H PARENT 79 27 53 38
REMARK Flexibility Score: inf
ROOT
ATOM      1  O   UNL A   1      34.893  32.007  27.611  1.00  0.00    -0.377 OA
ENDROOT
BRANCH   1   2
ATOM      2  C   UNL A   1      34.940  33.026  28.597  1.00  0.00     0.188 C 
BRANCH   2   3
ATOM      3  C   UNL A   1      33.689  33.895  28.724  1.00  0.00     0.188 C 
BRANCH   3   4
ATOM      4  O   UNL A   1      34.007  35.287  28.638  1.00  0.00    -0.376 OA
BRANCH   4   5
ATOM      5  C   UNL A   1      32.921  36.208  28.772  1.00  0.00     0.202 C 
BRANCH   5   6
ATOM      6  C   UNL A   1      33.021  37.193  29.934  1.00  0.00     0.261 C 
BRANCH   6   7
ATOM      7  O   UNL A   1      32.231  36.815  31.062  1.00  0.00    -0.460 OA
BRANCH   7   8
ATOM      8  C   UNL A   1      32.643  36.246  32.220  1.00  0.00     0.338 C 
ATOM      9  O   UNL A   1      32.134  36.657  33.263  1.00  0.00    -0.246 OA
BRANCH   8  10
ATOM     10  C   UNL A   1      33.723  35.203  32.338  1.00  0.00     0.060 A 
ATOM     11  C   UNL A   1      33.568  33.880  32.766  1.00  0.00     0.016 A 
ATOM     12  C   UNL A   1      35.008  35.599  31.922  1.00  0.00     0.016 A 
ATOM     13  C   UNL A   1      34.619  32.978  32.784  1.00  0.00     0.010 A 
ATOM     14  C   UNL A   1      36.092  34.724  31.992  1.00  0.00     0.010 A 
ATOM     15  C   UNL A   1      35.891  33.421  32.459  1.00  0.00    -0.014 A 
BRANCH  15  16
ATOM     16  C   UNL A   1      37.013  32.620  32.952  1.00  0.00     0.031 A 
ATOM     17  C   UNL A   1      37.495  32.939  34.332  1.00  0.00     0.074 A 
ATOM     18  C   UNL A   1      37.478  31.582  32.245  1.00  0.00     0.049 A 
ATOM     19  N   UNL A   1      38.555  32.523  34.962  1.00  0.00    -0.248 NA
ATOM     20  C   UNL A   1      36.648  33.859  35.117  1.00  0.00     0.031 C 
ATOM     21  C   UNL A   1      36.920  31.102  30.982  1.00  0.00     0.029 A 
ATOM     22  N   UNL A   1      38.530  30.748  32.495  1.00  0.00    -0.354 N 
ATOM     23  C   UNL A   1      38.530  33.172  36.190  1.00  0.00     0.074 A 
ATOM     24  C   UNL A   1      37.345  33.991  36.230  1.00  0.00     0.031 C 
ATOM     25  C   UNL A   1      37.661  30.070  30.546  1.00  0.00     0.029 A 
ATOM     26  C   UNL A   1      38.780  29.879  31.463  1.00  0.00     0.049 A 
ATOM     27  H   UNL A   1      39.053  30.767  33.329  1.00  0.00     0.167 HD
ATOM     28  C   UNL A   1      39.449  33.102  37.178  1.00  0.00     0.037 A 
ATOM     29  C   UNL A   1      39.845  29.080  31.270  1.00  0.00     0.037 A 
ATOM     30  C   UNL A   1      40.622  32.283  37.067  1.00  0.00     0.049 A 
ATOM     31  C   UNL A   1      40.922  29.094  32.323  1.00  0.00     0.074 A 
ATOM     32  C   UNL A   1      41.684  32.158  37.938  1.00  0.00     0.029 A 
ATOM     33  N   UNL A   1      40.877  31.443  35.986  1.00  0.00    -0.354 N 
ATOM     34  N   UNL A   1      40.966  29.778  33.446  1.00  0.00    -0.248 NA
ATOM     35  C   UNL A   1      42.097  28.252  32.084  1.00  0.00     0.031 C 
ATOM     36  C   UNL A   1      42.609  31.283  37.356  1.00  0.00     0.029 A 
ATOM     37  C   UNL A   1      42.091  30.810  36.155  1.00  0.00     0.049 A 
ATOM     38  H   UNL A   1      40.279  31.320  35.214  1.00  0.00     0.167 HD
ATOM     39  C   UNL A   1      42.158  29.429  34.063  1.00  0.00     0.074 A 
ATOM     40  C   UNL A   1      42.808  28.473  33.184  1.00  0.00     0.031 C 
ATOM     41  C   UNL A   1      42.673  29.850  35.246  1.00  0.00     0.037 A 
BRANCH  28  42
ATOM     42  C   UNL A   1      39.254  34.022  38.346  1.00  0.00     0.057 A 
ATOM     43  C   UNL A   1      39.736  35.339  38.363  1.00  0.00     0.134 A 
ATOM     44  C   UNL A   1      38.666  33.541  39.524  1.00  0.00     0.134 A 
ATOM     45  F   UNL A   1      40.347  35.853  37.284  1.00  0.00    -0.206 F 
ATOM     46  C   UNL A   1      39.685  36.123  39.518  1.00  0.00     0.040 A 
ATOM     47  C   UNL A   1      38.582  34.326  40.676  1.00  0.00     0.040 A 
ATOM     48  F   UNL A   1      38.194  32.287  39.586  1.00  0.00    -0.206 F 
ATOM     49  C   UNL A   1      39.106  35.616  40.680  1.00  0.00     0.006 A 
ENDBRANCH  28  42
BRANCH  29  50
ATOM     50  C   UNL A   1      39.956  28.289  30.020  1.00  0.00     0.057 A 
ATOM     51  C   UNL A   1      39.294  27.068  29.863  1.00  0.00     0.134 A 
ATOM     52  C   UNL A   1      40.691  28.765  28.923  1.00  0.00     0.134 A 
ATOM     53  F   UNL A   1      38.587  26.549  30.877  1.00  0.00    -0.206 F 
ATOM     54  C   UNL A   1      39.356  26.350  28.665  1.00  0.00     0.040 A 
ATOM     55  C   UNL A   1      40.740  28.071  27.713  1.00  0.00     0.040 A 
ATOM     56  F   UNL A   1      41.347  29.932  29.002  1.00  0.00    -0.206 F 
ATOM     57  C   UNL A   1      40.072  26.858  27.582  1.00  0.00     0.006 A 
ENDBRANCH  29  50
BRANCH  41  58
ATOM     58  C   UNL A   1      43.965  29.234  35.683  1.00  0.00     0.057 A 
ATOM     59  C   UNL A   1      45.201  29.809  35.375  1.00  0.00     0.134 A 
ATOM     60  C   UNL A   1      43.953  28.113  36.522  1.00  0.00     0.134 A 
ATOM     61  F   UNL A   1      45.273  30.879  34.568  1.00  0.00    -0.206 F 
ATOM     62  C   UNL A   1      46.388  29.286  35.887  1.00  0.00     0.040 A 
ATOM     63  C   UNL A   1      45.129  27.598  37.061  1.00  0.00     0.040 A 
ATOM     64  F   UNL A   1      42.794  27.529  36.862  1.00  0.00    -0.206 F 
ATOM     65  C   UNL A   1      46.352  28.186  36.743  1.00  0.00     0.006 A 
ENDBRANCH  41  58
ENDBRANCH  15  16
ENDBRANCH   8  10
ENDBRANCH   7   8
ENDBRANCH   6   7
ENDBRANCH   5   6
ENDBRANCH   4   5
ENDBRANCH   3   4
ENDBRANCH   2   3
ENDBRANCH   1   2
BRANCH   1  66
ATOM     66  C   UNL A   1      33.711  31.232  27.560  1.00  0.00     0.188 C 
BRANCH  66  67
ATOM     67  C   UNL A   1      33.834  29.717  27.263  1.00  0.00     0.188 C 
BRANCH  67  68
ATOM     68  O   UNL A   1      33.327  29.277  26.032  1.00  0.00    -0.376 OA
BRANCH  68  69
ATOM     69  C   UNL A   1      32.058  28.655  25.966  1.00  0.00     0.202 C 
BRANCH  69  70
ATOM     70  C   UNL A   1      31.729  27.226  26.461  1.00  0.00     0.261 C 
BRANCH  70  71
ATOM     71  O   UNL A   1      32.563  26.114  26.094  1.00  0.00    -0.462 OA
BRANCH  71  72
ATOM     72  C   UNL A   1      32.111  24.868  26.375  1.00  0.00     0.329 C 
ATOM     73  O   UNL A   1      30.990  24.644  26.823  1.00  0.00    -0.250 OA
BRANCH  72  74
ATOM     74  C   UNL A   1      33.158  23.780  25.988  1.00  0.00     0.206 C 
ATOM     75  C   UNL A   1      34.644  24.078  26.258  1.00  0.00     0.108 C 
ATOM     76  N   UNL A   1      33.021  23.616  24.545  1.00  0.00    -0.315 N 
ATOM     77  S   UNL A   1      35.517  24.052  24.669  1.00  0.00    -0.138 SA
ATOM     78  C   UNL A   1      33.989  24.385  23.787  1.00  0.00     0.191 C 
BRANCH  76  79
ATOM     79  C   UNL A   1      31.940  22.910  24.075  1.00  0.00     0.255 C 
ATOM     80  O   UNL A   1      30.839  23.412  23.864  1.00  0.00    -0.269 OA
BRANCH  79  81
ATOM     81  C   UNL A   1      32.150  21.500  23.767  1.00  0.00     0.041 A 
ATOM     82  C   UNL A   1      32.057  21.059  22.444  1.00  0.00     0.014 A 
ATOM     83  C   UNL A   1      32.370  20.622  24.826  1.00  0.00     0.034 A 
ATOM     84  C   UNL A   1      32.136  19.698  22.181  1.00  0.00     0.002 A 
ATOM     85  C   UNL A   1      32.470  19.268  24.547  1.00  0.00     0.041 A 
ATOM     86  C   UNL A   1      32.342  18.802  23.234  1.00  0.00     0.020 A 
ATOM     87  Cl  UNL A   1      32.728  18.153  25.829  1.00  0.00    -0.084 Cl
ENDBRANCH  79  81
ENDBRANCH  76  79
ENDBRANCH  72  74
ENDBRANCH  71  72
ENDBRANCH  70  71
ENDBRANCH  69  70
ENDBRANCH  68  69
ENDBRANCH  67  68
ENDBRANCH  66  67
ENDBRANCH   1  66
TORSDOF 22
ENDMDL
MODEL 3
REMARK VINA RESULT:      -9.4      2.028      3.391
REMARK SMILES O=C(OCCOCCOCCOCCOC(=O)[C@@H]1CSCN1C(=O)c1cccc(Cl)c1)c1ccc(-c2c3nc(c(-c4c(F)cccc4F)c4ccc([nH]4)c(-c4c(F)cccc4F)c4nc(c(-c5c(F)cccc5F)c5ccc2[nH]5)C=C4)C=C3)cc1
REMARK SMILES IDX 9 1 8 2 7 3 6 4 5 5 4 6 3 7 2 8 1 9 32 10 33 11 85 12 34 13
REMARK SMILES IDX 84 14 35 15 36 16 37 17 78 18 38 19 83 20 77 21 79 22 39 23
REMARK SMILES IDX 82 24 76 25 75 26 40 28 66 29 49 30 65 31 50 32 53 33 64 34
REMARK SMILES IDX 80 35 51 36 52 37 63 39 81 40 54 41 41 42 42 43 47 44 43 45
REMARK SMILES IDX 44 46 46 47 48 48 45 49 67 50 68 51 73 52 69 53 70 54 72 55
REMARK SMILES IDX 74 56 71 57 55 58 56 59 61 60 57 61 58 62 60 63 62 64 59 65
REMARK SMILES IDX 10 66 11 67 12 68 13 69 14 70 15 71 16 72 17 73 18 74 19 75
REMARK SMILES IDX 22 76 20 77 21 78 23 79 24 80 25 81 26 82 31 83 27 84 29 85
REMARK SMILES IDX 28 86 30 87
REMARK H PARENT 79 27 53 38
REMARK Flexibility Score: inf
ROOT
ATOM      1  O   UNL A   1      34.205  29.666  26.491  1.00  0.00    -0.377 OA
ENDROOT
BRANCH   1   2
ATOM      2  C   UNL A   1      35.031  30.258  27.481  1.00  0.00     0.188 C 
BRANCH   2   3
ATOM      3  C   UNL A   1      34.560  31.605  28.030  1.00  0.00     0.188 C 
BRANCH   3   4
ATOM      4  O   UNL A   1      35.665  32.438  28.392  1.00  0.00    -0.376 OA
BRANCH   4   5
ATOM      5  C   UNL A   1      35.536  33.193  29.600  1.00  0.00     0.202 C 
BRANCH   5   6
ATOM      6  C   UNL A   1      35.083  32.412  30.830  1.00  0.00     0.261 C 
BRANCH   6   7
ATOM      7  O   UNL A   1      35.950  31.324  31.156  1.00  0.00    -0.460 OA
BRANCH   7   8
ATOM      8  C   UNL A   1      37.223  31.377  31.614  1.00  0.00     0.338 C 
ATOM      9  O   UNL A   1      37.457  32.152  32.542  1.00  0.00    -0.246 OA
BRANCH   8  10
ATOM     10  C   UNL A   1      38.387  30.618  31.034  1.00  0.00     0.060 A 
ATOM     11  C   UNL A   1      39.361  29.906  31.742  1.00  0.00     0.016 A 
ATOM     12  C   UNL A   1      38.461  30.586  29.629  1.00  0.00     0.016 A 
ATOM     13  C   UNL A   1      40.363  29.188  31.110  1.00  0.00     0.010 A 
ATOM     14  C   UNL A   1      39.499  29.921  28.975  1.00  0.00     0.010 A 
ATOM     15  C   UNL A   1      40.467  29.252  29.730  1.00  0.00    -0.014 A 
BRANCH  15  16
ATOM     16  C   UNL A   1      41.770  28.919  29.152  1.00  0.00     0.031 A 
ATOM     17  C   UNL A   1      41.919  27.527  28.621  1.00  0.00     0.074 A 
ATOM     18  C   UNL A   1      42.713  29.857  28.997  1.00  0.00     0.049 A 
ATOM     19  N   UNL A   1      42.984  26.901  28.212  1.00  0.00    -0.248 NA
ATOM     20  C   UNL A   1      40.679  26.730  28.536  1.00  0.00     0.031 C 
ATOM     21  C   UNL A   1      42.553  31.275  29.314  1.00  0.00     0.029 A 
ATOM     22  N   UNL A   1      43.992  29.751  28.532  1.00  0.00    -0.354 N 
ATOM     23  C   UNL A   1      42.552  25.624  27.876  1.00  0.00     0.074 A 
ATOM     24  C   UNL A   1      41.130  25.567  28.106  1.00  0.00     0.031 C 
ATOM     25  C   UNL A   1      43.713  31.907  29.066  1.00  0.00     0.029 A 
ATOM     26  C   UNL A   1      44.702  30.919  28.647  1.00  0.00     0.049 A 
ATOM     27  H   UNL A   1      44.366  28.922  28.152  1.00  0.00     0.167 HD
ATOM     28  C   UNL A   1      43.302  24.587  27.444  1.00  0.00     0.037 A 
ATOM     29  C   UNL A   1      46.023  31.123  28.497  1.00  0.00     0.037 A 
ATOM     30  C   UNL A   1      44.721  24.703  27.256  1.00  0.00     0.049 A 
ATOM     31  C   UNL A   1      46.871  29.936  28.126  1.00  0.00     0.074 A 
ATOM     32  C   UNL A   1      45.634  23.734  26.898  1.00  0.00     0.029 A 
ATOM     33  N   UNL A   1      45.427  25.891  27.425  1.00  0.00    -0.354 N 
ATOM     34  N   UNL A   1      46.496  28.695  27.901  1.00  0.00    -0.248 NA
ATOM     35  C   UNL A   1      48.314  30.160  28.005  1.00  0.00     0.031 C 
ATOM     36  C   UNL A   1      46.903  24.325  26.906  1.00  0.00     0.029 A 
ATOM     37  C   UNL A   1      46.771  25.678  27.201  1.00  0.00     0.049 A 
ATOM     38  H   UNL A   1      45.026  26.755  27.670  1.00  0.00     0.167 HD
ATOM     39  C   UNL A   1      47.650  27.994  27.584  1.00  0.00     0.074 A 
ATOM     40  C   UNL A   1      48.740  28.953  27.650  1.00  0.00     0.031 C 
ATOM     41  C   UNL A   1      47.805  26.685  27.264  1.00  0.00     0.037 A 
BRANCH  28  42
ATOM     42  C   UNL A   1      42.605  23.268  27.291  1.00  0.00     0.057 A 
ATOM     43  C   UNL A   1      42.203  22.763  26.046  1.00  0.00     0.134 A 
ATOM     44  C   UNL A   1      42.232  22.539  28.428  1.00  0.00     0.134 A 
ATOM     45  F   UNL A   1      42.490  23.430  24.917  1.00  0.00    -0.206 F 
ATOM     46  C   UNL A   1      41.415  21.613  25.942  1.00  0.00     0.040 A 
ATOM     47  C   UNL A   1      41.471  21.372  28.335  1.00  0.00     0.040 A 
ATOM     48  F   UNL A   1      42.571  22.968  29.654  1.00  0.00    -0.206 F 
ATOM     49  C   UNL A   1      41.047  20.914  27.090  1.00  0.00     0.006 A 
ENDBRANCH  28  42
BRANCH  29  50
ATOM     50  C   UNL A   1      46.596  32.464  28.771  1.00  0.00     0.057 A 
ATOM     51  C   UNL A   1      46.695  33.438  27.772  1.00  0.00     0.134 A 
ATOM     52  C   UNL A   1      47.016  32.825  30.061  1.00  0.00     0.134 A 
ATOM     53  F   UNL A   1      46.327  33.154  26.514  1.00  0.00    -0.206 F 
ATOM     54  C   UNL A   1      47.185  34.718  28.044  1.00  0.00     0.040 A 
ATOM     55  C   UNL A   1      47.483  34.108  30.351  1.00  0.00     0.040 A 
ATOM     56  F   UNL A   1      46.945  31.942  31.067  1.00  0.00    -0.206 F 
ATOM     57  C   UNL A   1      47.571  35.059  29.339  1.00  0.00     0.006 A 
ENDBRANCH  29  50
BRANCH  41  58
ATOM     58  C   UNL A   1      49.184  26.232  26.901  1.00  0.00     0.057 A 
ATOM     59  C   UNL A   1      49.677  26.332  25.596  1.00  0.00     0.134 A 
ATOM     60  C   UNL A   1      50.062  25.801  27.903  1.00  0.00     0.134 A 
ATOM     61  F   UNL A   1      48.877  26.731  24.595  1.00  0.00    -0.206 F 
ATOM     62  C   UNL A   1      51.001  26.014  25.299  1.00  0.00     0.040 A 
ATOM     63  C   UNL A   1      51.394  25.507  27.623  1.00  0.00     0.040 A 
ATOM     64  F   UNL A   1      49.647  25.700  29.175  1.00  0.00    -0.206 F 
ATOM     65  C   UNL A   1      51.866  25.613  26.317  1.00  0.00     0.006 A 
ENDBRANCH  41  58
ENDBRANCH  15  16
ENDBRANCH   8  10
ENDBRANCH   7   8
ENDBRANCH   6   7
ENDBRANCH   5   6
ENDBRANCH   4   5
ENDBRANCH   3   4
ENDBRANCH   2   3
ENDBRANCH   1   2
BRANCH   1  66
ATOM     66  C   UNL A   1      32.857  30.093  26.455  1.00  0.00     0.188 C 
BRANCH  66  67
ATOM     67  C   UNL A   1      31.756  29.037  26.193  1.00  0.00     0.188 C 
BRANCH  67  68
ATOM     68  O   UNL A   1      31.811  28.366  24.962  1.00  0.00    -0.376 OA
BRANCH  68  69
ATOM     69  C   UNL A   1      31.580  26.972  24.899  1.00  0.00     0.202 C 
BRANCH  69  70
ATOM     70  C   UNL A   1      31.047  26.095  26.057  1.00  0.00     0.261 C 
BRANCH  70  71
ATOM     71  O   UNL A   1      31.786  24.945  26.503  1.00  0.00    -0.462 OA
BRANCH  71  72
ATOM     72  C   UNL A   1      31.463  23.743  25.968  1.00  0.00     0.329 C 
ATOM     73  O   UNL A   1      30.482  23.092  26.317  1.00  0.00    -0.250 OA
BRANCH  72  74
ATOM     74  C   UNL A   1      32.443  23.346  24.822  1.00  0.00     0.206 C 
ATOM     75  C   UNL A   1      31.878  23.229  23.395  1.00  0.00     0.108 C 
ATOM     76  N   UNL A   1      32.937  22.022  25.185  1.00  0.00    -0.315 N 
ATOM     77  S   UNL A   1      32.122  21.522  22.835  1.00  0.00    -0.138 SA
ATOM     78  C   UNL A   1      32.218  20.945  24.532  1.00  0.00     0.191 C 
BRANCH  76  79
ATOM     79  C   UNL A   1      33.879  21.934  26.181  1.00  0.00     0.255 C 
ATOM     80  O   UNL A   1      33.603  21.868  27.376  1.00  0.00    -0.269 OA
BRANCH  79  81
ATOM     81  C   UNL A   1      35.277  21.864  25.768  1.00  0.00     0.041 A 
ATOM     82  C   UNL A   1      35.757  20.709  25.145  1.00  0.00     0.014 A 
ATOM     83  C   UNL A   1      36.108  22.938  26.079  1.00  0.00     0.034 A 
ATOM     84  C   UNL A   1      37.114  20.606  24.871  1.00  0.00     0.002 A 
ATOM     85  C   UNL A   1      37.458  22.832  25.778  1.00  0.00     0.041 A 
ATOM     86  C   UNL A   1      37.964  21.669  25.188  1.00  0.00     0.020 A 
ATOM     87  Cl  UNL A   1      38.516  24.131  26.158  1.00  0.00    -0.084 Cl
ENDBRANCH  79  81
ENDBRANCH  76  79
ENDBRANCH  72  74
ENDBRANCH  71  72
ENDBRANCH  70  71
ENDBRANCH  69  70
ENDBRANCH  68  69
ENDBRANCH  67  68
ENDBRANCH  66  67
ENDBRANCH   1  66
TORSDOF 22
ENDMDL
