MODEL 1
REMARK VINA RESULT:      -8.8      0.000      0.000
REMARK SMILES CCCN(C(=O)NCC(=O)OCCOCCOCCOCCOC(=O)c1ccc(-c2c3nc(c(-c4c(F)cccc4F)c4ccc([nH]4)c(-c4c(F)cccc4F)c4nc(c(-c5c(F)cccc5F)c5ccc2[nH]5)C=C4)C=C3)cc1)C(C)C
REMARK SMILES IDX 16 1 15 2 14 3 13 4 12 5 11 6 9 7 10 8 8 9 7 10 5 11 6 12
REMARK SMILES IDX 4 14 3 15 2 16 1 17 80 18 81 19 82 20 17 21 18 22 19 23
REMARK SMILES IDX 20 24 21 25 22 26 23 27 24 28 25 29 26 30 27 31 79 32 28 33
REMARK SMILES IDX 78 34 29 35 30 36 31 37 72 38 32 39 77 40 71 41 73 42 33 43
REMARK SMILES IDX 76 44 70 45 69 46 34 48 60 49 43 50 59 51 44 52 47 53 58 54
REMARK SMILES IDX 74 55 45 56 46 57 57 59 75 60 48 61 35 62 36 63 41 64 37 65
REMARK SMILES IDX 38 66 40 67 42 68 39 69 61 70 62 71 67 72 63 73 64 74 66 75
REMARK SMILES IDX 68 76 65 77 49 78 50 79 55 80 51 81 52 82 54 83 56 84 53 85
REMARK H PARENT 7 13 73 47 47 58
REMARK Flexibility Score: inf
ROOT
ATOM      1  C   UNL A   1      41.115  19.987  26.875  1.00  0.00     0.188 C 
ENDROOT
BRANCH   1   2
ATOM      2  C   UNL A   1      40.601  21.370  26.433  1.00  0.00     0.188 C 
BRANCH   2   3
ATOM      3  O   UNL A   1      39.262  21.773  26.683  1.00  0.00    -0.376 OA
BRANCH   3   4
ATOM      4  C   UNL A   1      38.672  22.856  25.977  1.00  0.00     0.202 C 
BRANCH   4   5
ATOM      5  C   UNL A   1      37.545  22.643  24.948  1.00  0.00     0.261 C 
BRANCH   5   6
ATOM      6  O   UNL A   1      36.445  23.564  25.012  1.00  0.00    -0.462 OA
BRANCH   6   7
ATOM      7  C   UNL A   1      35.212  23.017  25.125  1.00  0.00     0.325 C 
ATOM      8  O   UNL A   1      34.686  22.698  26.188  1.00  0.00    -0.250 OA
BRANCH   7   9
ATOM      9  C   UNL A   1      34.434  22.994  23.805  1.00  0.00     0.240 C 
BRANCH   9  10
ATOM     10  N   UNL A   1      33.981  24.211  23.136  1.00  0.00    -0.327 N 
ATOM     11  C   UNL A   1      33.262  25.305  23.413  1.00  0.00     0.318 C 
ATOM     12  O   UNL A   1      33.278  26.149  22.509  1.00  0.00    -0.249 OA
ATOM     13  H   UNL A   1      34.299  24.232  22.205  1.00  0.00     0.166 HD
BRANCH  11  14
ATOM     14  N   UNL A   1      32.575  25.493  24.583  1.00  0.00    -0.322 N 
BRANCH  14  15
ATOM     15  C   UNL A   1      33.170  25.905  25.854  1.00  0.00     0.121 C 
BRANCH  15  16
ATOM     16  C   UNL A   1      33.603  27.375  25.915  1.00  0.00     0.018 C 
ATOM     17  C   UNL A   1      32.817  28.231  26.889  1.00  0.00     0.006 C 
ENDBRANCH  15  16
ENDBRANCH  14  15
BRANCH  14  18
ATOM     18  C   UNL A   1      31.106  25.266  24.519  1.00  0.00     0.080 C 
ATOM     19  C   UNL A   1      30.289  26.520  24.203  1.00  0.00     0.031 C 
ATOM     20  C   UNL A   1      30.741  24.114  23.587  1.00  0.00     0.031 C 
ENDBRANCH  14  18
ENDBRANCH  11  14
ENDBRANCH   9  10
ENDBRANCH   7   9
ENDBRANCH   6   7
ENDBRANCH   5   6
ENDBRANCH   4   5
ENDBRANCH   3   4
ENDBRANCH   2   3
ENDBRANCH   1   2
BRANCH   1  21
ATOM     21  O   UNL A   1      41.421  19.105  25.816  1.00  0.00    -0.377 OA
BRANCH  21  22
ATOM     22  C   UNL A   1      42.777  18.692  25.717  1.00  0.00     0.188 C 
BRANCH  22  23
ATOM     23  C   UNL A   1      43.851  19.798  25.681  1.00  0.00     0.188 C 
BRANCH  23  24
ATOM     24  O   UNL A   1      44.297  20.133  24.372  1.00  0.00    -0.376 OA
BRANCH  24  25
ATOM     25  C   UNL A   1      45.013  21.343  24.177  1.00  0.00     0.202 C 
BRANCH  25  26
ATOM     26  C   UNL A   1      44.220  22.595  23.764  1.00  0.00     0.261 C 
BRANCH  26  27
ATOM     27  O   UNL A   1      43.730  23.422  24.831  1.00  0.00    -0.460 OA
BRANCH  27  28
ATOM     28  C   UNL A   1      44.415  24.542  25.128  1.00  0.00     0.338 C 
ATOM     29  O   UNL A   1      45.461  24.923  24.625  1.00  0.00    -0.246 OA
BRANCH  28  30
ATOM     30  C   UNL A   1      43.580  25.360  26.030  1.00  0.00     0.060 A 
ATOM     31  C   UNL A   1      43.744  26.752  26.022  1.00  0.00     0.016 A 
ATOM     32  C   UNL A   1      42.645  24.764  26.881  1.00  0.00     0.016 A 
ATOM     33  C   UNL A   1      43.011  27.548  26.901  1.00  0.00     0.010 A 
ATOM     34  C   UNL A   1      41.929  25.560  27.779  1.00  0.00     0.010 A 
ATOM     35  C   UNL A   1      42.143  26.950  27.821  1.00  0.00    -0.014 A 
BRANCH  35  36
ATOM     36  C   UNL A   1      41.640  27.745  28.966  1.00  0.00     0.031 A 
ATOM     37  C   UNL A   1      42.359  27.628  30.283  1.00  0.00     0.074 A 
ATOM     38  C   UNL A   1      40.596  28.580  28.839  1.00  0.00     0.049 A 
ATOM     39  N   UNL A   1      42.094  28.195  31.431  1.00  0.00    -0.248 NA
ATOM     40  C   UNL A   1      43.535  26.744  30.303  1.00  0.00     0.031 C 
ATOM     41  C   UNL A   1      39.845  28.815  27.609  1.00  0.00     0.029 A 
ATOM     42  N   UNL A   1      39.983  29.381  29.770  1.00  0.00    -0.354 N 
ATOM     43  C   UNL A   1      43.061  27.727  32.312  1.00  0.00     0.074 A 
ATOM     44  C   UNL A   1      43.897  26.804  31.575  1.00  0.00     0.031 C 
ATOM     45  C   UNL A   1      38.858  29.692  27.864  1.00  0.00     0.029 A 
ATOM     46  C   UNL A   1      38.890  30.053  29.281  1.00  0.00     0.049 A 
ATOM     47  H   UNL A   1      40.297  29.465  30.699  1.00  0.00     0.167 HD
ATOM     48  C   UNL A   1      43.242  28.041  33.616  1.00  0.00     0.037 A 
ATOM     49  C   UNL A   1      38.005  30.847  29.913  1.00  0.00     0.037 A 
ATOM     50  C   UNL A   1      42.404  28.955  34.347  1.00  0.00     0.049 A 
ATOM     51  C   UNL A   1      38.180  31.129  31.383  1.00  0.00     0.074 A 
ATOM     52  C   UNL A   1      42.516  29.361  35.666  1.00  0.00     0.029 A 
ATOM     53  N   UNL A   1      41.287  29.591  33.826  1.00  0.00    -0.354 N 
ATOM     54  N   UNL A   1      39.113  30.708  32.202  1.00  0.00    -0.248 NA
ATOM     55  C   UNL A   1      37.179  32.001  32.014  1.00  0.00     0.031 C 
ATOM     56  C   UNL A   1      41.430  30.190  35.960  1.00  0.00     0.029 A 
ATOM     57  C   UNL A   1      40.680  30.360  34.806  1.00  0.00     0.049 A 
ATOM     58  H   UNL A   1      40.973  29.509  32.897  1.00  0.00     0.167 HD
ATOM     59  C   UNL A   1      38.831  31.287  33.436  1.00  0.00     0.074 A 
ATOM     60  C   UNL A   1      37.645  32.097  33.252  1.00  0.00     0.031 C 
ATOM     61  C   UNL A   1      39.497  31.162  34.612  1.00  0.00     0.037 A 
BRANCH  48  62
ATOM     62  C   UNL A   1      44.363  27.350  34.341  1.00  0.00     0.057 A 
ATOM     63  C   UNL A   1      45.682  27.821  34.302  1.00  0.00     0.134 A 
ATOM     64  C   UNL A   1      44.115  26.192  35.089  1.00  0.00     0.134 A 
ATOM     65  F   UNL A   1      45.993  28.916  33.592  1.00  0.00    -0.206 F 
ATOM     66  C   UNL A   1      46.719  27.144  34.948  1.00  0.00     0.040 A 
ATOM     67  C   UNL A   1      45.137  25.525  35.765  1.00  0.00     0.040 A 
ATOM     68  F   UNL A   1      42.875  25.686  35.173  1.00  0.00    -0.206 F 
ATOM     69  C   UNL A   1      46.446  25.995  35.687  1.00  0.00     0.006 A 
ENDBRANCH  48  62
BRANCH  49  70
ATOM     70  C   UNL A   1      36.862  31.423  29.159  1.00  0.00     0.057 A 
ATOM     71  C   UNL A   1      35.711  30.674  28.895  1.00  0.00     0.134 A 
ATOM     72  C   UNL A   1      36.897  32.740  28.682  1.00  0.00     0.134 A 
ATOM     73  F   UNL A   1      35.627  29.399  29.303  1.00  0.00    -0.206 F 
ATOM     74  C   UNL A   1      34.640  31.208  28.176  1.00  0.00     0.040 A 
ATOM     75  C   UNL A   1      35.822  33.296  27.987  1.00  0.00     0.040 A 
ATOM     76  F   UNL A   1      37.972  33.511  28.901  1.00  0.00    -0.206 F 
ATOM     77  C   UNL A   1      34.690  32.527  27.728  1.00  0.00     0.006 A 
ENDBRANCH  49  70
BRANCH  61  78
ATOM     78  C   UNL A   1      38.985  31.949  35.785  1.00  0.00     0.057 A 
ATOM     79  C   UNL A   1      38.172  31.377  36.771  1.00  0.00     0.134 A 
ATOM     80  C   UNL A   1      39.349  33.293  35.951  1.00  0.00     0.134 A 
ATOM     81  F   UNL A   1      37.778  30.098  36.669  1.00  0.00    -0.206 F 
ATOM     82  C   UNL A   1      37.717  32.118  37.864  1.00  0.00     0.040 A 
ATOM     83  C   UNL A   1      38.928  34.035  37.056  1.00  0.00     0.040 A 
ATOM     84  F   UNL A   1      40.137  33.903  35.051  1.00  0.00    -0.206 F 
ATOM     85  C   UNL A   1      38.102  33.449  38.013  1.00  0.00     0.006 A 
ENDBRANCH  61  78
ENDBRANCH  35  36
ENDBRANCH  28  30
ENDBRANCH  27  28
ENDBRANCH  26  27
ENDBRANCH  25  26
ENDBRANCH  24  25
ENDBRANCH  23  24
ENDBRANCH  22  23
ENDBRANCH  21  22
ENDBRANCH   1  21
TORSDOF 25
ENDMDL
MODEL 2
REMARK VINA RESULT:      -8.5      3.337      8.720
REMARK SMILES CCCN(C(=O)NCC(=O)OCCOCCOCCOCCOC(=O)c1ccc(-c2c3nc(c(-c4c(F)cccc4F)c4ccc([nH]4)c(-c4c(F)cccc4F)c4nc(c(-c5c(F)cccc5F)c5ccc2[nH]5)C=C4)C=C3)cc1)C(C)C
REMARK SMILES IDX 16 1 15 2 14 3 13 4 12 5 11 6 9 7 10 8 8 9 7 10 5 11 6 12
REMARK SMILES IDX 4 14 3 15 2 16 1 17 80 18 81 19 82 20 17 21 18 22 19 23
REMARK SMILES IDX 20 24 21 25 22 26 23 27 24 28 25 29 26 30 27 31 79 32 28 33
REMARK SMILES IDX 78 34 29 35 30 36 31 37 72 38 32 39 77 40 71 41 73 42 33 43
REMARK SMILES IDX 76 44 70 45 69 46 34 48 60 49 43 50 59 51 44 52 47 53 58 54
REMARK SMILES IDX 74 55 45 56 46 57 57 59 75 60 48 61 35 62 36 63 41 64 37 65
REMARK SMILES IDX 38 66 40 67 42 68 39 69 61 70 62 71 67 72 63 73 64 74 66 75
REMARK SMILES IDX 68 76 65 77 49 78 50 79 55 80 51 81 52 82 54 83 56 84 53 85
REMARK H PARENT 7 13 73 47 47 58
REMARK Flexibility Score: inf
ROOT
ATOM      1  C   UNL A   1      33.559  28.773  24.125  1.00  0.00     0.188 C 
ENDROOT
BRANCH   1   2
ATOM      2  C   UNL A   1      33.271  27.874  22.907  1.00  0.00     0.188 C 
BRANCH   2   3
ATOM      3  O   UNL A   1      31.955  27.737  22.388  1.00  0.00    -0.376 OA
BRANCH   3   4
ATOM      4  C   UNL A   1      31.183  26.568  22.631  1.00  0.00     0.202 C 
BRANCH   4   5
ATOM      5  C   UNL A   1      31.556  25.560  23.734  1.00  0.00     0.261 C 
BRANCH   5   6
ATOM      6  O   UNL A   1      30.593  25.385  24.785  1.00  0.00    -0.462 OA
BRANCH   6   7
ATOM      7  C   UNL A   1      31.052  24.831  25.932  1.00  0.00     0.325 C 
ATOM      8  O   UNL A   1      30.338  24.447  26.854  1.00  0.00    -0.250 OA
BRANCH   7   9
ATOM      9  C   UNL A   1      32.559  24.550  25.911  1.00  0.00     0.240 C 
BRANCH   9  10
ATOM     10  N   UNL A   1      33.176  23.505  26.723  1.00  0.00    -0.327 N 
ATOM     11  C   UNL A   1      34.109  22.553  26.602  1.00  0.00     0.318 C 
ATOM     12  O   UNL A   1      34.380  21.987  27.667  1.00  0.00    -0.249 OA
ATOM     13  H   UNL A   1      32.792  23.499  27.629  1.00  0.00     0.166 HD
BRANCH  11  14
ATOM     14  N   UNL A   1      34.722  22.229  25.420  1.00  0.00    -0.322 N 
BRANCH  14  15
ATOM     15  C   UNL A   1      34.409  21.059  24.600  1.00  0.00     0.121 C 
BRANCH  15  16
ATOM     16  C   UNL A   1      32.960  20.990  24.105  1.00  0.00     0.018 C 
ATOM     17  C   UNL A   1      32.628  21.939  22.971  1.00  0.00     0.006 C 
ENDBRANCH  15  16
ENDBRANCH  14  15
BRANCH  14  18
ATOM     18  C   UNL A   1      35.775  23.171  24.954  1.00  0.00     0.080 C 
ATOM     19  C   UNL A   1      36.672  23.713  26.069  1.00  0.00     0.031 C 
ATOM     20  C   UNL A   1      36.600  22.592  23.808  1.00  0.00     0.031 C 
ENDBRANCH  14  18
ENDBRANCH  11  14
ENDBRANCH   9  10
ENDBRANCH   7   9
ENDBRANCH   6   7
ENDBRANCH   5   6
ENDBRANCH   4   5
ENDBRANCH   3   4
ENDBRANCH   2   3
ENDBRANCH   1   2
BRANCH   1  21
ATOM     21  O   UNL A   1      33.023  28.305  25.344  1.00  0.00    -0.377 OA
BRANCH  21  22
ATOM     22  C   UNL A   1      31.816  28.917  25.775  1.00  0.00     0.188 C 
BRANCH  22  23
ATOM     23  C   UNL A   1      31.927  30.017  26.851  1.00  0.00     0.188 C 
BRANCH  23  24
ATOM     24  O   UNL A   1      33.237  30.183  27.379  1.00  0.00    -0.376 OA
BRANCH  24  25
ATOM     25  C   UNL A   1      33.724  31.495  27.615  1.00  0.00     0.202 C 
BRANCH  25  26
ATOM     26  C   UNL A   1      32.710  32.652  27.623  1.00  0.00     0.261 C 
BRANCH  26  27
ATOM     27  O   UNL A   1      33.254  33.980  27.584  1.00  0.00    -0.460 OA
BRANCH  27  28
ATOM     28  C   UNL A   1      33.336  34.664  28.740  1.00  0.00     0.338 C 
ATOM     29  O   UNL A   1      32.522  35.458  29.187  1.00  0.00    -0.246 OA
BRANCH  28  30
ATOM     30  C   UNL A   1      34.487  34.137  29.501  1.00  0.00     0.060 A 
ATOM     31  C   UNL A   1      35.777  34.331  28.990  1.00  0.00     0.016 A 
ATOM     32  C   UNL A   1      34.299  33.453  30.705  1.00  0.00     0.016 A 
ATOM     33  C   UNL A   1      36.880  33.797  29.654  1.00  0.00     0.010 A 
ATOM     34  C   UNL A   1      35.403  32.898  31.358  1.00  0.00     0.010 A 
ATOM     35  C   UNL A   1      36.692  33.030  30.810  1.00  0.00    -0.014 A 
BRANCH  35  36
ATOM     36  C   UNL A   1      37.803  32.187  31.309  1.00  0.00     0.031 A 
ATOM     37  C   UNL A   1      38.360  32.482  32.675  1.00  0.00     0.074 A 
ATOM     38  C   UNL A   1      38.287  31.161  30.590  1.00  0.00     0.049 A 
ATOM     39  N   UNL A   1      39.346  31.909  33.315  1.00  0.00    -0.248 NA
ATOM     40  C   UNL A   1      37.717  33.578  33.416  1.00  0.00     0.031 C 
ATOM     41  C   UNL A   1      37.803  30.748  29.275  1.00  0.00     0.029 A 
ATOM     42  N   UNL A   1      39.305  30.284  30.869  1.00  0.00    -0.354 N 
ATOM     43  C   UNL A   1      39.450  32.583  34.526  1.00  0.00     0.074 A 
ATOM     44  C   UNL A   1      38.450  33.628  34.517  1.00  0.00     0.031 C 
ATOM     45  C   UNL A   1      38.537  29.703  28.852  1.00  0.00     0.029 A 
ATOM     46  C   UNL A   1      39.560  29.398  29.852  1.00  0.00     0.049 A 
ATOM     47  H   UNL A   1      39.805  30.291  31.717  1.00  0.00     0.167 HD
ATOM     48  C   UNL A   1      40.296  32.349  35.556  1.00  0.00     0.037 A 
ATOM     49  C   UNL A   1      40.526  28.466  29.735  1.00  0.00     0.037 A 
ATOM     50  C   UNL A   1      41.295  31.312  35.557  1.00  0.00     0.049 A 
ATOM     51  C   UNL A   1      41.506  28.269  30.862  1.00  0.00     0.074 A 
ATOM     52  C   UNL A   1      42.187  30.975  36.561  1.00  0.00     0.029 A 
ATOM     53  N   UNL A   1      41.544  30.455  34.496  1.00  0.00    -0.354 N 
ATOM     54  N   UNL A   1      41.578  28.887  32.015  1.00  0.00    -0.248 NA
ATOM     55  C   UNL A   1      42.536  27.237  30.671  1.00  0.00     0.031 C 
ATOM     56  C   UNL A   1      43.019  29.960  36.081  1.00  0.00     0.029 A 
ATOM     57  C   UNL A   1      42.599  29.613  34.806  1.00  0.00     0.049 A 
ATOM     58  H   UNL A   1      41.044  30.446  33.648  1.00  0.00     0.167 HD
ATOM     59  C   UNL A   1      42.639  28.302  32.699  1.00  0.00     0.074 A 
ATOM     60  C   UNL A   1      43.172  27.271  31.833  1.00  0.00     0.031 C 
ATOM     61  C   UNL A   1      43.124  28.590  33.934  1.00  0.00     0.037 A 
BRANCH  48  62
ATOM     62  C   UNL A   1      40.205  33.266  36.743  1.00  0.00     0.057 A 
ATOM     63  C   UNL A   1      39.299  33.048  37.790  1.00  0.00     0.134 A 
ATOM     64  C   UNL A   1      41.038  34.389  36.836  1.00  0.00     0.134 A 
ATOM     65  F   UNL A   1      38.461  32.002  37.757  1.00  0.00    -0.206 F 
ATOM     66  C   UNL A   1      39.199  33.933  38.866  1.00  0.00     0.040 A 
ATOM     67  C   UNL A   1      40.970  35.262  37.922  1.00  0.00     0.040 A 
ATOM     68  F   UNL A   1      41.932  34.658  35.871  1.00  0.00    -0.206 F 
ATOM     69  C   UNL A   1      40.040  35.041  38.936  1.00  0.00     0.006 A 
ENDBRANCH  48  62
BRANCH  49  70
ATOM     70  C   UNL A   1      40.620  27.656  28.493  1.00  0.00     0.057 A 
ATOM     71  C   UNL A   1      41.353  28.100  27.387  1.00  0.00     0.134 A 
ATOM     72  C   UNL A   1      39.976  26.417  28.384  1.00  0.00     0.134 A 
ATOM     73  F   UNL A   1      41.970  29.290  27.420  1.00  0.00    -0.206 F 
ATOM     74  C   UNL A   1      41.434  27.347  26.214  1.00  0.00     0.040 A 
ATOM     75  C   UNL A   1      40.072  25.641  27.228  1.00  0.00     0.040 A 
ATOM     76  F   UNL A   1      39.258  25.934  29.408  1.00  0.00    -0.206 F 
ATOM     77  C   UNL A   1      40.800  26.108  26.136  1.00  0.00     0.006 A 
ENDBRANCH  49  70
BRANCH  61  78
ATOM     78  C   UNL A   1      44.264  27.753  34.443  1.00  0.00     0.057 A 
ATOM     79  C   UNL A   1      45.600  28.157  34.319  1.00  0.00     0.134 A 
ATOM     80  C   UNL A   1      44.016  26.543  35.106  1.00  0.00     0.134 A 
ATOM     81  F   UNL A   1      45.909  29.299  33.687  1.00  0.00    -0.206 F 
ATOM     82  C   UNL A   1      46.647  27.376  34.812  1.00  0.00     0.040 A 
ATOM     83  C   UNL A   1      45.052  25.770  35.632  1.00  0.00     0.040 A 
ATOM     84  F   UNL A   1      42.759  26.101  35.272  1.00  0.00    -0.206 F 
ATOM     85  C   UNL A   1      46.374  26.182  35.477  1.00  0.00     0.006 A 
ENDBRANCH  61  78
ENDBRANCH  35  36
ENDBRANCH  28  30
ENDBRANCH  27  28
ENDBRANCH  26  27
ENDBRANCH  25  26
ENDBRANCH  24  25
ENDBRANCH  23  24
ENDBRANCH  22  23
ENDBRANCH  21  22
ENDBRANCH   1  21
TORSDOF 25
ENDMDL
MODEL 3
REMARK VINA RESULT:      -7.8      4.078      8.867
REMARK SMILES CCCN(C(=O)NCC(=O)OCCOCCOCCOCCOC(=O)c1ccc(-c2c3nc(c(-c4c(F)cccc4F)c4ccc([nH]4)c(-c4c(F)cccc4F)c4nc(c(-c5c(F)cccc5F)c5ccc2[nH]5)C=C4)C=C3)cc1)C(C)C
REMARK SMILES IDX 16 1 15 2 14 3 13 4 12 5 11 6 9 7 10 8 8 9 7 10 5 11 6 12
REMARK SMILES IDX 4 14 3 15 2 16 1 17 80 18 81 19 82 20 17 21 18 22 19 23
REMARK SMILES IDX 20 24 21 25 22 26 23 27 24 28 25 29 26 30 27 31 79 32 28 33
REMARK SMILES IDX 78 34 29 35 30 36 31 37 72 38 32 39 77 40 71 41 73 42 33 43
REMARK SMILES IDX 76 44 70 45 69 46 34 48 60 49 43 50 59 51 44 52 47 53 58 54
REMARK SMILES IDX 74 55 45 56 46 57 57 59 75 60 48 61 35 62 36 63 41 64 37 65
REMARK SMILES IDX 38 66 40 67 42 68 39 69 61 70 62 71 67 72 63 73 64 74 66 75
REMARK SMILES IDX 68 76 65 77 49 78 50 79 55 80 51 81 52 82 54 83 56 84 53 85
REMARK H PARENT 7 13 73 47 47 58
REMARK Flexibility Score: inf
ROOT
ATOM      1  C   UNL A   1      33.621  29.061  24.236  1.00  0.00     0.188 C 
ENDROOT
BRANCH   1   2
ATOM      2  C   UNL A   1      32.905  28.691  22.923  1.00  0.00     0.188 C 
BRANCH   2   3
ATOM      3  O   UNL A   1      31.633  29.236  22.599  1.00  0.00    -0.376 OA
BRANCH   3   4
ATOM      4  C   UNL A   1      30.486  28.407  22.471  1.00  0.00     0.202 C 
BRANCH   4   5
ATOM      5  C   UNL A   1      30.579  26.871  22.532  1.00  0.00     0.261 C 
BRANCH   5   6
ATOM      6  O   UNL A   1      30.115  26.255  23.744  1.00  0.00    -0.462 OA
BRANCH   6   7
ATOM      7  C   UNL A   1      30.988  25.429  24.369  1.00  0.00     0.325 C 
ATOM      8  O   UNL A   1      31.847  25.797  25.163  1.00  0.00    -0.250 OA
BRANCH   7   9
ATOM      9  C   UNL A   1      30.691  23.943  24.135  1.00  0.00     0.240 C 
BRANCH   9  10
ATOM     10  N   UNL A   1      31.393  23.148  23.132  1.00  0.00    -0.327 N 
ATOM     11  C   UNL A   1      32.500  22.402  23.030  1.00  0.00     0.318 C 
ATOM     12  O   UNL A   1      32.592  21.797  21.956  1.00  0.00    -0.249 OA
ATOM     13  H   UNL A   1      30.909  23.166  22.276  1.00  0.00     0.166 HD
BRANCH  11  14
ATOM     14  N   UNL A   1      33.447  22.301  24.015  1.00  0.00    -0.322 N 
BRANCH  14  15
ATOM     15  C   UNL A   1      34.333  23.382  24.448  1.00  0.00     0.121 C 
BRANCH  15  16
ATOM     16  C   UNL A   1      35.424  23.761  23.440  1.00  0.00     0.018 C 
ATOM     17  C   UNL A   1      36.525  22.731  23.275  1.00  0.00     0.006 C 
ENDBRANCH  15  16
ENDBRANCH  14  15
BRANCH  14  18
ATOM     18  C   UNL A   1      33.548  20.978  24.687  1.00  0.00     0.080 C 
ATOM     19  C   UNL A   1      34.255  21.015  26.044  1.00  0.00     0.031 C 
ATOM     20  C   UNL A   1      32.196  20.276  24.784  1.00  0.00     0.031 C 
ENDBRANCH  14  18
ENDBRANCH  11  14
ENDBRANCH   9  10
ENDBRANCH   7   9
ENDBRANCH   6   7
ENDBRANCH   5   6
ENDBRANCH   4   5
ENDBRANCH   3   4
ENDBRANCH   2   3
ENDBRANCH   1   2
BRANCH   1  21
ATOM     21  O   UNL A   1      32.959  28.639  25.409  1.00  0.00    -0.377 OA
BRANCH  21  22
ATOM     22  C   UNL A   1      31.779  29.351  25.754  1.00  0.00     0.188 C 
BRANCH  22  23
ATOM     23  C   UNL A   1      31.884  30.379  26.898  1.00  0.00     0.188 C 
BRANCH  23  24
ATOM     24  O   UNL A   1      33.168  30.440  27.509  1.00  0.00    -0.376 OA
BRANCH  24  25
ATOM     25  C   UNL A   1      33.767  31.708  27.730  1.00  0.00     0.202 C 
BRANCH  25  26
ATOM     26  C   UNL A   1      32.903  32.963  27.512  1.00  0.00     0.261 C 
BRANCH  26  27
ATOM     27  O   UNL A   1      33.485  34.215  27.906  1.00  0.00    -0.460 OA
BRANCH  27  28
ATOM     28  C   UNL A   1      33.534  34.504  29.220  1.00  0.00     0.338 C 
ATOM     29  O   UNL A   1      32.616  34.895  29.925  1.00  0.00    -0.246 OA
BRANCH  28  30
ATOM     30  C   UNL A   1      34.849  34.067  29.733  1.00  0.00     0.060 A 
ATOM     31  C   UNL A   1      35.988  34.305  28.953  1.00  0.00     0.016 A 
ATOM     32  C   UNL A   1      34.959  33.423  30.968  1.00  0.00     0.016 A 
ATOM     33  C   UNL A   1      37.236  33.855  29.383  1.00  0.00     0.010 A 
ATOM     34  C   UNL A   1      36.206  32.951  31.387  1.00  0.00     0.010 A 
ATOM     35  C   UNL A   1      37.340  33.127  30.574  1.00  0.00    -0.014 A 
BRANCH  35  36
ATOM     36  C   UNL A   1      38.579  32.361  30.848  1.00  0.00     0.031 A 
ATOM     37  C   UNL A   1      39.566  32.936  31.828  1.00  0.00     0.074 A 
ATOM     38  C   UNL A   1      38.812  31.169  30.276  1.00  0.00     0.049 A 
ATOM     39  N   UNL A   1      40.728  32.473  32.208  1.00  0.00    -0.248 NA
ATOM     40  C   UNL A   1      39.188  34.210  32.458  1.00  0.00     0.031 C 
ATOM     41  C   UNL A   1      37.915  30.488  29.346  1.00  0.00     0.029 A 
ATOM     42  N   UNL A   1      39.888  30.325  30.390  1.00  0.00    -0.354 N 
ATOM     43  C   UNL A   1      41.226  33.405  33.111  1.00  0.00     0.074 A 
ATOM     44  C   UNL A   1      40.255  34.475  33.195  1.00  0.00     0.031 C 
ATOM     45  C   UNL A   1      38.486  29.333  28.960  1.00  0.00     0.029 A 
ATOM     46  C   UNL A   1      39.800  29.212  29.591  1.00  0.00     0.049 A 
ATOM     47  H   UNL A   1      40.650  30.502  30.988  1.00  0.00     0.167 HD
ATOM     48  C   UNL A   1      42.383  33.371  33.813  1.00  0.00     0.037 A 
ATOM     49  C   UNL A   1      40.691  28.225  29.377  1.00  0.00     0.037 A 
ATOM     50  C   UNL A   1      43.349  32.308  33.721  1.00  0.00     0.049 A 
ATOM     51  C   UNL A   1      42.007  28.241  30.113  1.00  0.00     0.074 A 
ATOM     52  C   UNL A   1      44.542  32.165  34.408  1.00  0.00     0.029 A 
ATOM     53  N   UNL A   1      43.239  31.213  32.876  1.00  0.00    -0.354 N 
ATOM     54  N   UNL A   1      42.456  29.108  30.988  1.00  0.00    -0.248 NA
ATOM     55  C   UNL A   1      42.935  27.137  29.834  1.00  0.00     0.031 C 
ATOM     56  C   UNL A   1      45.184  31.019  33.930  1.00  0.00     0.029 A 
ATOM     57  C   UNL A   1      44.359  30.407  32.999  1.00  0.00     0.049 A 
ATOM     58  H   UNL A   1      42.477  31.034  32.280  1.00  0.00     0.167 HD
ATOM     59  C   UNL A   1      43.704  28.639  31.386  1.00  0.00     0.074 A 
ATOM     60  C   UNL A   1      43.933  27.405  30.664  1.00  0.00     0.031 C 
ATOM     61  C   UNL A   1      44.578  29.180  32.272  1.00  0.00     0.037 A 
BRANCH  48  62
ATOM     62  C   UNL A   1      42.682  34.545  34.703  1.00  0.00     0.057 A 
ATOM     63  C   UNL A   1      42.256  34.601  36.036  1.00  0.00     0.134 A 
ATOM     64  C   UNL A   1      43.408  35.638  34.212  1.00  0.00     0.134 A 
ATOM     65  F   UNL A   1      41.543  33.596  36.566  1.00  0.00    -0.206 F 
ATOM     66  C   UNL A   1      42.508  35.717  36.838  1.00  0.00     0.040 A 
ATOM     67  C   UNL A   1      43.694  36.745  35.013  1.00  0.00     0.040 A 
ATOM     68  F   UNL A   1      43.851  35.651  32.945  1.00  0.00    -0.206 F 
ATOM     69  C   UNL A   1      43.234  36.791  36.327  1.00  0.00     0.006 A 
ENDBRANCH  48  62
BRANCH  49  70
ATOM     70  C   UNL A   1      40.373  27.142  28.411  1.00  0.00     0.057 A 
ATOM     71  C   UNL A   1      39.509  26.095  28.749  1.00  0.00     0.134 A 
ATOM     72  C   UNL A   1      40.929  27.130  27.126  1.00  0.00     0.134 A 
ATOM     73  F   UNL A   1      38.965  26.037  29.974  1.00  0.00    -0.206 F 
ATOM     74  C   UNL A   1      39.216  25.070  27.848  1.00  0.00     0.040 A 
ATOM     75  C   UNL A   1      40.623  26.127  26.205  1.00  0.00     0.040 A 
ATOM     76  F   UNL A   1      41.765  28.105  26.740  1.00  0.00    -0.206 F 
ATOM     77  C   UNL A   1      39.767  25.089  26.568  1.00  0.00     0.006 A 
ENDBRANCH  49  70
BRANCH  61  78
ATOM     78  C   UNL A   1      45.847  28.422  32.545  1.00  0.00     0.057 A 
ATOM     79  C   UNL A   1      47.028  28.661  31.830  1.00  0.00     0.134 A 
ATOM     80  C   UNL A   1      45.898  27.466  33.569  1.00  0.00     0.134 A 
ATOM     81  F   UNL A   1      47.048  29.556  30.830  1.00  0.00    -0.206 F 
ATOM     82  C   UNL A   1      48.203  27.960  32.106  1.00  0.00     0.040 A 
ATOM     83  C   UNL A   1      47.075  26.783  33.876  1.00  0.00     0.040 A 
ATOM     84  F   UNL A   1      44.807  27.195  34.303  1.00  0.00    -0.206 F 
ATOM     85  C   UNL A   1      48.231  27.023  33.137  1.00  0.00     0.006 A 
ENDBRANCH  61  78
ENDBRANCH  35  36
ENDBRANCH  28  30
ENDBRANCH  27  28
ENDBRANCH  26  27
ENDBRANCH  25  26
ENDBRANCH  24  25
ENDBRANCH  23  24
ENDBRANCH  22  23
ENDBRANCH  21  22
ENDBRANCH   1  21
TORSDOF 25
ENDMDL
