MODEL 1
REMARK VINA RESULT:      -9.5      0.000      0.000
REMARK SMILES C[C@@H](C(=O)OCCOCCOCCOCCOC(=O)c1ccc(-c2c3nc(c(-c4c(F)cccc4F)c4ccc([nH]4)c(-c4c(F)cccc4F)c4nc(c(-c5c(F)cccc5F)c5ccc2[nH]5)C=C4)C=C3)cc1)c1ccc(C[C@H]2CCC[C@@H]2O)cc1
REMARK SMILES IDX 10 1 9 2 8 3 7 4 6 5 5 6 3 7 4 8 2 9 1 10 74 11 75 12 86 13
REMARK SMILES IDX 76 14 85 15 77 16 78 17 79 18 80 19 83 20 81 21 82 22 84 23
REMARK SMILES IDX 11 25 12 26 13 27 14 28 15 29 16 30 17 31 18 32 19 33 20 34
REMARK SMILES IDX 21 35 73 36 22 37 72 38 23 39 24 40 25 41 66 42 26 43 71 44
REMARK SMILES IDX 65 45 67 46 27 47 70 48 64 49 63 50 28 52 54 53 37 54 53 55
REMARK SMILES IDX 38 56 41 57 52 58 68 59 39 60 40 61 51 63 69 64 42 65 29 66
REMARK SMILES IDX 30 67 35 68 31 69 32 70 34 71 36 72 33 73 55 74 56 75 61 76
REMARK SMILES IDX 57 77 58 78 60 79 62 80 59 81 43 82 44 83 49 84 45 85 46 86
REMARK SMILES IDX 48 87 50 88 47 89
REMARK H PARENT 84 24 67 51 41 62
REMARK Flexibility Score: inf
ROOT
ATOM      1  C   UNL A   1      35.269  33.623  28.141  1.00  0.00     0.188 C 
ENDROOT
BRANCH   1   2
ATOM      2  C   UNL A   1      34.520  32.363  28.601  1.00  0.00     0.188 C 
BRANCH   2   3
ATOM      3  O   UNL A   1      34.149  31.446  27.594  1.00  0.00    -0.376 OA
BRANCH   3   4
ATOM      4  C   UNL A   1      34.711  30.142  27.550  1.00  0.00     0.202 C 
BRANCH   4   5
ATOM      5  C   UNL A   1      34.179  28.947  26.728  1.00  0.00     0.261 C 
BRANCH   5   6
ATOM      6  O   UNL A   1      33.243  29.240  25.687  1.00  0.00    -0.463 OA
BRANCH   6   7
ATOM      7  C   UNL A   1      32.647  28.199  25.058  1.00  0.00     0.313 C 
ATOM      8  O   UNL A   1      31.437  28.110  24.869  1.00  0.00    -0.252 OA
BRANCH   7   9
ATOM      9  C   UNL A   1      33.657  27.192  24.494  1.00  0.00     0.126 C 
ATOM     10  C   UNL A   1      33.615  27.111  22.958  1.00  0.00     0.025 C 
BRANCH   9  11
ATOM     11  C   UNL A   1      33.679  25.848  25.234  1.00  0.00    -0.034 A 
ATOM     12  C   UNL A   1      34.663  24.887  24.946  1.00  0.00     0.005 A 
ATOM     13  C   UNL A   1      32.672  25.480  26.139  1.00  0.00     0.005 A 
ATOM     14  C   UNL A   1      34.630  23.613  25.507  1.00  0.00     0.004 A 
ATOM     15  C   UNL A   1      32.599  24.175  26.648  1.00  0.00     0.004 A 
ATOM     16  C   UNL A   1      33.540  23.210  26.273  1.00  0.00    -0.048 A 
BRANCH  16  17
ATOM     17  C   UNL A   1      33.317  21.743  26.555  1.00  0.00     0.041 C 
BRANCH  17  18
ATOM     18  C   UNL A   1      32.558  20.986  25.438  1.00  0.00     0.022 C 
ATOM     19  C   UNL A   1      31.985  21.867  24.311  1.00  0.00     0.007 C 
ATOM     20  C   UNL A   1      33.340  19.890  24.701  1.00  0.00     0.117 C 
ATOM     21  C   UNL A   1      32.170  21.079  23.010  1.00  0.00     0.003 C 
ATOM     22  C   UNL A   1      32.522  19.664  23.439  1.00  0.00     0.032 C 
BRANCH  20  23
ATOM     23  O   UNL A   1      33.435  18.701  25.460  1.00  0.00    -0.393 OA
ATOM     24  H   UNL A   1      32.743  18.696  26.140  1.00  0.00     0.210 HD
ENDBRANCH  20  23
ENDBRANCH  17  18
ENDBRANCH  16  17
ENDBRANCH   9  11
ENDBRANCH   7   9
ENDBRANCH   6   7
ENDBRANCH   5   6
ENDBRANCH   4   5
ENDBRANCH   3   4
ENDBRANCH   2   3
ENDBRANCH   1   2
BRANCH   1  25
ATOM     25  O   UNL A   1      34.624  34.854  28.410  1.00  0.00    -0.377 OA
BRANCH  25  26
ATOM     26  C   UNL A   1      33.344  34.839  29.030  1.00  0.00     0.188 C 
BRANCH  26  27
ATOM     27  C   UNL A   1      33.022  35.721  30.257  1.00  0.00     0.188 C 
BRANCH  27  28
ATOM     28  O   UNL A   1      32.942  35.033  31.494  1.00  0.00    -0.376 OA
BRANCH  28  29
ATOM     29  C   UNL A   1      33.890  34.014  31.769  1.00  0.00     0.202 C 
BRANCH  29  30
ATOM     30  C   UNL A   1      35.260  34.448  32.314  1.00  0.00     0.261 C 
BRANCH  30  31
ATOM     31  O   UNL A   1      36.390  33.670  31.885  1.00  0.00    -0.460 OA
BRANCH  31  32
ATOM     32  C   UNL A   1      36.644  32.516  32.534  1.00  0.00     0.338 C 
ATOM     33  O   UNL A   1      36.035  32.049  33.482  1.00  0.00    -0.246 OA
BRANCH  32  34
ATOM     34  C   UNL A   1      37.685  31.793  31.775  1.00  0.00     0.060 A 
ATOM     35  C   UNL A   1      38.732  31.176  32.474  1.00  0.00     0.016 A 
ATOM     36  C   UNL A   1      37.626  31.719  30.381  1.00  0.00     0.016 A 
ATOM     37  C   UNL A   1      39.746  30.520  31.778  1.00  0.00     0.010 A 
ATOM     38  C   UNL A   1      38.655  31.082  29.684  1.00  0.00     0.010 A 
ATOM     39  C   UNL A   1      39.739  30.512  30.378  1.00  0.00    -0.014 A 
BRANCH  39  40
ATOM     40  C   UNL A   1      40.957  30.101  29.639  1.00  0.00     0.031 A 
ATOM     41  C   UNL A   1      41.025  28.694  29.108  1.00  0.00     0.074 A 
ATOM     42  C   UNL A   1      41.972  30.954  29.421  1.00  0.00     0.049 A 
ATOM     43  N   UNL A   1      42.002  28.083  28.489  1.00  0.00    -0.248 NA
ATOM     44  C   UNL A   1      39.825  27.865  29.307  1.00  0.00     0.031 C 
ATOM     45  C   UNL A   1      42.009  32.352  29.841  1.00  0.00     0.029 A 
ATOM     46  N   UNL A   1      43.178  30.757  28.795  1.00  0.00    -0.354 N 
ATOM     47  C   UNL A   1      41.537  26.799  28.230  1.00  0.00     0.074 A 
ATOM     48  C   UNL A   1      40.207  26.707  28.791  1.00  0.00     0.031 C 
ATOM     49  C   UNL A   1      43.189  32.885  29.476  1.00  0.00     0.029 A 
ATOM     50  C   UNL A   1      44.002  31.856  28.830  1.00  0.00     0.049 A 
ATOM     51  H   UNL A   1      43.429  29.909  28.362  1.00  0.00     0.167 HD
ATOM     52  C   UNL A   1      42.159  25.790  27.576  1.00  0.00     0.037 A 
ATOM     53  C   UNL A   1      45.275  32.001  28.414  1.00  0.00     0.037 A 
ATOM     54  C   UNL A   1      43.485  25.881  27.027  1.00  0.00     0.049 A 
ATOM     55  C   UNL A   1      45.980  30.836  27.765  1.00  0.00     0.074 A 
ATOM     56  C   UNL A   1      44.201  24.917  26.340  1.00  0.00     0.029 A 
ATOM     57  N   UNL A   1      44.299  27.001  27.110  1.00  0.00    -0.354 N 
ATOM     58  N   UNL A   1      45.528  29.632  27.508  1.00  0.00    -0.248 NA
ATOM     59  C   UNL A   1      47.373  31.053  27.346  1.00  0.00     0.031 C 
ATOM     60  C   UNL A   1      45.470  25.433  26.061  1.00  0.00     0.029 A 
ATOM     61  C   UNL A   1      45.521  26.742  26.512  1.00  0.00     0.049 A 
ATOM     62  H   UNL A   1      44.046  27.853  27.532  1.00  0.00     0.167 HD
ATOM     63  C   UNL A   1      46.566  28.961  26.869  1.00  0.00     0.074 A 
ATOM     64  C   UNL A   1      47.666  29.897  26.766  1.00  0.00     0.031 C 
ATOM     65  C   UNL A   1      46.605  27.687  26.408  1.00  0.00     0.037 A 
BRANCH  52  66
ATOM     66  C   UNL A   1      41.418  24.490  27.447  1.00  0.00     0.057 A 
ATOM     67  C   UNL A   1      40.371  24.319  26.532  1.00  0.00     0.134 A 
ATOM     68  C   UNL A   1      41.773  23.387  28.234  1.00  0.00     0.134 A 
ATOM     69  F   UNL A   1      39.968  25.340  25.760  1.00  0.00    -0.206 F 
ATOM     70  C   UNL A   1      39.688  23.106  26.422  1.00  0.00     0.040 A 
ATOM     71  C   UNL A   1      41.119  22.160  28.111  1.00  0.00     0.040 A 
ATOM     72  F   UNL A   1      42.769  23.480  29.129  1.00  0.00    -0.206 F 
ATOM     73  C   UNL A   1      40.067  22.020  27.208  1.00  0.00     0.006 A 
ENDBRANCH  52  66
BRANCH  53  74
ATOM     74  C   UNL A   1      45.984  33.292  28.617  1.00  0.00     0.057 A 
ATOM     75  C   UNL A   1      45.979  34.290  27.635  1.00  0.00     0.134 A 
ATOM     76  C   UNL A   1      46.714  33.545  29.785  1.00  0.00     0.134 A 
ATOM     77  F   UNL A   1      45.320  34.100  26.483  1.00  0.00    -0.206 F 
ATOM     78  C   UNL A   1      46.689  35.482  27.798  1.00  0.00     0.040 A 
ATOM     79  C   UNL A   1      47.404  34.743  29.974  1.00  0.00     0.040 A 
ATOM     80  F   UNL A   1      46.764  32.629  30.764  1.00  0.00    -0.206 F 
ATOM     81  C   UNL A   1      47.400  35.712  28.974  1.00  0.00     0.006 A 
ENDBRANCH  53  74
BRANCH  65  82
ATOM     82  C   UNL A   1      47.857  27.239  25.706  1.00  0.00     0.057 A 
ATOM     83  C   UNL A   1      48.930  26.658  26.393  1.00  0.00     0.134 A 
ATOM     84  C   UNL A   1      47.968  27.350  24.313  1.00  0.00     0.134 A 
ATOM     85  F   UNL A   1      48.893  26.529  27.728  1.00  0.00    -0.206 F 
ATOM     86  C   UNL A   1      50.079  26.230  25.725  1.00  0.00     0.040 A 
ATOM     87  C   UNL A   1      49.098  26.898  23.631  1.00  0.00     0.040 A 
ATOM     88  F   UNL A   1      46.973  27.886  23.591  1.00  0.00    -0.206 F 
ATOM     89  C   UNL A   1      50.160  26.342  24.338  1.00  0.00     0.006 A 
ENDBRANCH  65  82
ENDBRANCH  39  40
ENDBRANCH  32  34
ENDBRANCH  31  32
ENDBRANCH  30  31
ENDBRANCH  29  30
ENDBRANCH  28  29
ENDBRANCH  27  28
ENDBRANCH  26  27
ENDBRANCH  25  26
ENDBRANCH   1  25
TORSDOF 24
ENDMDL
MODEL 2
REMARK VINA RESULT:      -9.4      1.543      6.355
REMARK SMILES C[C@@H](C(=O)OCCOCCOCCOCCOC(=O)c1ccc(-c2c3nc(c(-c4c(F)cccc4F)c4ccc([nH]4)c(-c4c(F)cccc4F)c4nc(c(-c5c(F)cccc5F)c5ccc2[nH]5)C=C4)C=C3)cc1)c1ccc(C[C@H]2CCC[C@@H]2O)cc1
REMARK SMILES IDX 10 1 9 2 8 3 7 4 6 5 5 6 3 7 4 8 2 9 1 10 74 11 75 12 86 13
REMARK SMILES IDX 76 14 85 15 77 16 78 17 79 18 80 19 83 20 81 21 82 22 84 23
REMARK SMILES IDX 11 25 12 26 13 27 14 28 15 29 16 30 17 31 18 32 19 33 20 34
REMARK SMILES IDX 21 35 73 36 22 37 72 38 23 39 24 40 25 41 66 42 26 43 71 44
REMARK SMILES IDX 65 45 67 46 27 47 70 48 64 49 63 50 28 52 54 53 37 54 53 55
REMARK SMILES IDX 38 56 41 57 52 58 68 59 39 60 40 61 51 63 69 64 42 65 29 66
REMARK SMILES IDX 30 67 35 68 31 69 32 70 34 71 36 72 33 73 55 74 56 75 61 76
REMARK SMILES IDX 57 77 58 78 60 79 62 80 59 81 43 82 44 83 49 84 45 85 46 86
REMARK SMILES IDX 48 87 50 88 47 89
REMARK H PARENT 84 24 67 51 41 62
REMARK Flexibility Score: inf
ROOT
ATOM      1  C   UNL A   1      34.313  32.699  28.036  1.00  0.00     0.188 C 
ENDROOT
BRANCH   1   2
ATOM      2  C   UNL A   1      34.384  31.169  28.151  1.00  0.00     0.188 C 
BRANCH   2   3
ATOM      3  O   UNL A   1      34.324  30.441  26.943  1.00  0.00    -0.376 OA
BRANCH   3   4
ATOM      4  C   UNL A   1      33.141  29.754  26.562  1.00  0.00     0.202 C 
BRANCH   4   5
ATOM      5  C   UNL A   1      31.962  30.345  25.757  1.00  0.00     0.261 C 
BRANCH   5   6
ATOM      6  O   UNL A   1      31.421  29.537  24.709  1.00  0.00    -0.463 OA
BRANCH   6   7
ATOM      7  C   UNL A   1      30.391  30.039  23.987  1.00  0.00     0.313 C 
ATOM      8  O   UNL A   1      29.740  31.029  24.312  1.00  0.00    -0.252 OA
BRANCH   7   9
ATOM      9  C   UNL A   1      30.195  29.313  22.651  1.00  0.00     0.126 C 
ATOM     10  C   UNL A   1      29.012  29.872  21.842  1.00  0.00     0.025 C 
BRANCH   9  11
ATOM     11  C   UNL A   1      30.271  27.784  22.755  1.00  0.00    -0.034 A 
ATOM     12  C   UNL A   1      29.436  27.083  23.641  1.00  0.00     0.005 A 
ATOM     13  C   UNL A   1      31.235  27.038  22.060  1.00  0.00     0.005 A 
ATOM     14  C   UNL A   1      29.573  25.713  23.850  1.00  0.00     0.004 A 
ATOM     15  C   UNL A   1      31.420  25.672  22.323  1.00  0.00     0.004 A 
ATOM     16  C   UNL A   1      30.635  25.018  23.279  1.00  0.00    -0.048 A 
BRANCH  16  17
ATOM     17  C   UNL A   1      31.006  23.648  23.797  1.00  0.00     0.041 C 
BRANCH  17  18
ATOM     18  C   UNL A   1      32.226  23.636  24.752  1.00  0.00     0.022 C 
ATOM     19  C   UNL A   1      33.599  23.481  24.071  1.00  0.00     0.007 C 
ATOM     20  C   UNL A   1      32.392  24.859  25.665  1.00  0.00     0.117 C 
ATOM     21  C   UNL A   1      34.569  24.380  24.845  1.00  0.00     0.003 C 
ATOM     22  C   UNL A   1      33.838  24.760  26.123  1.00  0.00     0.032 C 
BRANCH  20  23
ATOM     23  O   UNL A   1      31.509  24.823  26.770  1.00  0.00    -0.393 OA
ATOM     24  H   UNL A   1      31.396  23.905  27.063  1.00  0.00     0.210 HD
ENDBRANCH  20  23
ENDBRANCH  17  18
ENDBRANCH  16  17
ENDBRANCH   9  11
ENDBRANCH   7   9
ENDBRANCH   6   7
ENDBRANCH   5   6
ENDBRANCH   4   5
ENDBRANCH   3   4
ENDBRANCH   2   3
ENDBRANCH   1   2
BRANCH   1  25
ATOM     25  O   UNL A   1      33.548  33.356  29.029  1.00  0.00    -0.377 OA
BRANCH  25  26
ATOM     26  C   UNL A   1      33.386  34.767  28.951  1.00  0.00     0.188 C 
BRANCH  26  27
ATOM     27  C   UNL A   1      33.268  35.646  30.216  1.00  0.00     0.188 C 
BRANCH  27  28
ATOM     28  O   UNL A   1      33.093  34.939  31.432  1.00  0.00    -0.376 OA
BRANCH  28  29
ATOM     29  C   UNL A   1      33.841  35.344  32.569  1.00  0.00     0.202 C 
BRANCH  29  30
ATOM     30  C   UNL A   1      34.993  34.434  33.020  1.00  0.00     0.261 C 
BRANCH  30  31
ATOM     31  O   UNL A   1      35.836  33.912  31.981  1.00  0.00    -0.460 OA
BRANCH  31  32
ATOM     32  C   UNL A   1      35.861  32.577  31.798  1.00  0.00     0.338 C 
ATOM     33  O   UNL A   1      34.920  31.803  31.860  1.00  0.00    -0.246 OA
BRANCH  32  34
ATOM     34  C   UNL A   1      37.208  32.213  31.312  1.00  0.00     0.060 A 
ATOM     35  C   UNL A   1      37.572  32.550  30.001  1.00  0.00     0.016 A 
ATOM     36  C   UNL A   1      38.109  31.549  32.148  1.00  0.00     0.016 A 
ATOM     37  C   UNL A   1      38.824  32.185  29.507  1.00  0.00     0.010 A 
ATOM     38  C   UNL A   1      39.354  31.162  31.644  1.00  0.00     0.010 A 
ATOM     39  C   UNL A   1      39.701  31.446  30.310  1.00  0.00    -0.014 A 
BRANCH  39  40
ATOM     40  C   UNL A   1      40.882  30.791  29.696  1.00  0.00     0.031 A 
ATOM     41  C   UNL A   1      42.124  31.615  29.489  1.00  0.00     0.074 A 
ATOM     42  C   UNL A   1      40.869  29.492  29.351  1.00  0.00     0.049 A 
ATOM     43  N   UNL A   1      43.256  31.289  28.919  1.00  0.00    -0.248 NA
ATOM     44  C   UNL A   1      42.079  32.998  29.991  1.00  0.00     0.031 C 
ATOM     45  C   UNL A   1      39.748  28.575  29.544  1.00  0.00     0.029 A 
ATOM     46  N   UNL A   1      41.836  28.723  28.753  1.00  0.00    -0.354 N 
ATOM     47  C   UNL A   1      44.053  32.425  28.990  1.00  0.00     0.074 A 
ATOM     48  C   UNL A   1      43.264  33.459  29.623  1.00  0.00     0.031 C 
ATOM     49  C   UNL A   1      40.084  27.368  29.055  1.00  0.00     0.029 A 
ATOM     50  C   UNL A   1      41.429  27.438  28.485  1.00  0.00     0.049 A 
ATOM     51  H   UNL A   1      42.736  29.059  28.538  1.00  0.00     0.167 HD
ATOM     52  C   UNL A   1      45.330  32.590  28.574  1.00  0.00     0.037 A 
ATOM     53  C   UNL A   1      42.061  26.446  27.828  1.00  0.00     0.037 A 
ATOM     54  C   UNL A   1      46.110  31.562  27.937  1.00  0.00     0.049 A 
ATOM     55  C   UNL A   1      43.452  26.679  27.295  1.00  0.00     0.074 A 
ATOM     56  C   UNL A   1      47.416  31.627  27.484  1.00  0.00     0.029 A 
ATOM     57  N   UNL A   1      45.652  30.284  27.655  1.00  0.00    -0.354 N 
ATOM     58  N   UNL A   1      44.205  27.749  27.381  1.00  0.00    -0.248 NA
ATOM     59  C   UNL A   1      44.083  25.562  26.574  1.00  0.00     0.031 C 
ATOM     60  C   UNL A   1      47.727  30.408  26.874  1.00  0.00     0.029 A 
ATOM     61  C   UNL A   1      46.639  29.560  27.007  1.00  0.00     0.049 A 
ATOM     62  H   UNL A   1      44.756  29.942  27.880  1.00  0.00     0.167 HD
ATOM     63  C   UNL A   1      45.406  27.425  26.758  1.00  0.00     0.074 A 
ATOM     64  C   UNL A   1      45.286  26.053  26.311  1.00  0.00     0.031 C 
ATOM     65  C   UNL A   1      46.509  28.191  26.575  1.00  0.00     0.037 A 
BRANCH  52  66
ATOM     66  C   UNL A   1      45.952  33.943  28.769  1.00  0.00     0.057 A 
ATOM     67  C   UNL A   1      45.861  34.950  27.800  1.00  0.00     0.134 A 
ATOM     68  C   UNL A   1      46.633  34.248  29.956  1.00  0.00     0.134 A 
ATOM     69  F   UNL A   1      45.239  34.718  26.634  1.00  0.00    -0.206 F 
ATOM     70  C   UNL A   1      46.444  36.203  27.992  1.00  0.00     0.040 A 
ATOM     71  C   UNL A   1      47.193  35.508  30.172  1.00  0.00     0.040 A 
ATOM     72  F   UNL A   1      46.755  33.332  30.928  1.00  0.00    -0.206 F 
ATOM     73  C   UNL A   1      47.106  36.488  29.185  1.00  0.00     0.006 A 
ENDBRANCH  52  66
BRANCH  53  74
ATOM     74  C   UNL A   1      41.379  25.142  27.610  1.00  0.00     0.057 A 
ATOM     75  C   UNL A   1      40.379  24.993  26.641  1.00  0.00     0.134 A 
ATOM     76  C   UNL A   1      41.689  24.021  28.390  1.00  0.00     0.134 A 
ATOM     77  F   UNL A   1      40.018  26.036  25.879  1.00  0.00    -0.206 F 
ATOM     78  C   UNL A   1      39.698  23.786  26.471  1.00  0.00     0.040 A 
ATOM     79  C   UNL A   1      41.038  22.800  28.211  1.00  0.00     0.040 A 
ATOM     80  F   UNL A   1      42.635  24.096  29.338  1.00  0.00    -0.206 F 
ATOM     81  C   UNL A   1      40.032  22.684  27.255  1.00  0.00     0.006 A 
ENDBRANCH  53  74
BRANCH  65  82
ATOM     82  C   UNL A   1      47.695  27.555  25.904  1.00  0.00     0.057 A 
ATOM     83  C   UNL A   1      48.720  26.937  26.631  1.00  0.00     0.134 A 
ATOM     84  C   UNL A   1      47.787  27.523  24.506  1.00  0.00     0.134 A 
ATOM     85  F   UNL A   1      48.700  26.939  27.972  1.00  0.00    -0.206 F 
ATOM     86  C   UNL A   1      49.806  26.334  25.993  1.00  0.00     0.040 A 
ATOM     87  C   UNL A   1      48.851  26.896  23.856  1.00  0.00     0.040 A 
ATOM     88  F   UNL A   1      46.834  28.086  23.748  1.00  0.00    -0.206 F 
ATOM     89  C   UNL A   1      49.868  26.306  24.600  1.00  0.00     0.006 A 
ENDBRANCH  65  82
ENDBRANCH  39  40
ENDBRANCH  32  34
ENDBRANCH  31  32
ENDBRANCH  30  31
ENDBRANCH  29  30
ENDBRANCH  28  29
ENDBRANCH  27  28
ENDBRANCH  26  27
ENDBRANCH  25  26
ENDBRANCH   1  25
TORSDOF 24
ENDMDL
MODEL 3
REMARK VINA RESULT:      -9.3      2.684      7.635
REMARK SMILES C[C@@H](C(=O)OCCOCCOCCOCCOC(=O)c1ccc(-c2c3nc(c(-c4c(F)cccc4F)c4ccc([nH]4)c(-c4c(F)cccc4F)c4nc(c(-c5c(F)cccc5F)c5ccc2[nH]5)C=C4)C=C3)cc1)c1ccc(C[C@H]2CCC[C@@H]2O)cc1
REMARK SMILES IDX 10 1 9 2 8 3 7 4 6 5 5 6 3 7 4 8 2 9 1 10 74 11 75 12 86 13
REMARK SMILES IDX 76 14 85 15 77 16 78 17 79 18 80 19 83 20 81 21 82 22 84 23
REMARK SMILES IDX 11 25 12 26 13 27 14 28 15 29 16 30 17 31 18 32 19 33 20 34
REMARK SMILES IDX 21 35 73 36 22 37 72 38 23 39 24 40 25 41 66 42 26 43 71 44
REMARK SMILES IDX 65 45 67 46 27 47 70 48 64 49 63 50 28 52 54 53 37 54 53 55
REMARK SMILES IDX 38 56 41 57 52 58 68 59 39 60 40 61 51 63 69 64 42 65 29 66
REMARK SMILES IDX 30 67 35 68 31 69 32 70 34 71 36 72 33 73 55 74 56 75 61 76
REMARK SMILES IDX 57 77 58 78 60 79 62 80 59 81 43 82 44 83 49 84 45 85 46 86
REMARK SMILES IDX 48 87 50 88 47 89
REMARK H PARENT 84 24 67 51 41 62
REMARK Flexibility Score: inf
ROOT
ATOM      1  C   UNL A   1      40.435  34.199  32.157  1.00  0.00     0.188 C 
ENDROOT
BRANCH   1   2
ATOM      2  C   UNL A   1      39.656  32.886  31.982  1.00  0.00     0.188 C 
BRANCH   2   3
ATOM      3  O   UNL A   1      38.263  33.000  31.782  1.00  0.00    -0.376 OA
BRANCH   3   4
ATOM      4  C   UNL A   1      37.732  33.930  30.850  1.00  0.00     0.202 C 
BRANCH   4   5
ATOM      5  C   UNL A   1      36.969  33.586  29.551  1.00  0.00     0.261 C 
BRANCH   5   6
ATOM      6  O   UNL A   1      36.124  32.433  29.580  1.00  0.00    -0.463 OA
BRANCH   6   7
ATOM      7  C   UNL A   1      34.784  32.627  29.583  1.00  0.00     0.313 C 
ATOM      8  O   UNL A   1      34.117  32.805  30.598  1.00  0.00    -0.252 OA
BRANCH   7   9
ATOM      9  C   UNL A   1      34.197  32.724  28.170  1.00  0.00     0.126 C 
ATOM     10  C   UNL A   1      33.257  33.931  28.002  1.00  0.00     0.025 C 
BRANCH   9  11
ATOM     11  C   UNL A   1      33.679  31.390  27.616  1.00  0.00    -0.034 A 
ATOM     12  C   UNL A   1      32.334  31.246  27.235  1.00  0.00     0.005 A 
ATOM     13  C   UNL A   1      34.484  30.242  27.566  1.00  0.00     0.005 A 
ATOM     14  C   UNL A   1      31.808  30.015  26.853  1.00  0.00     0.004 A 
ATOM     15  C   UNL A   1      33.937  28.989  27.250  1.00  0.00     0.004 A 
ATOM     16  C   UNL A   1      32.574  28.858  26.964  1.00  0.00    -0.048 A 
BRANCH  16  17
ATOM     17  C   UNL A   1      31.906  27.504  26.922  1.00  0.00     0.041 C 
BRANCH  17  18
ATOM     18  C   UNL A   1      32.203  26.686  25.640  1.00  0.00     0.022 C 
ATOM     19  C   UNL A   1      32.569  27.516  24.394  1.00  0.00     0.007 C 
ATOM     20  C   UNL A   1      33.322  25.640  25.740  1.00  0.00     0.117 C 
ATOM     21  C   UNL A   1      33.658  26.730  23.658  1.00  0.00     0.003 C 
ATOM     22  C   UNL A   1      33.657  25.347  24.287  1.00  0.00     0.032 C 
BRANCH  20  23
ATOM     23  O   UNL A   1      32.896  24.467  26.406  1.00  0.00    -0.393 OA
ATOM     24  H   UNL A   1      32.494  24.706  27.256  1.00  0.00     0.210 HD
ENDBRANCH  20  23
ENDBRANCH  17  18
ENDBRANCH  16  17
ENDBRANCH   9  11
ENDBRANCH   7   9
ENDBRANCH   6   7
ENDBRANCH   5   6
ENDBRANCH   4   5
ENDBRANCH   3   4
ENDBRANCH   2   3
ENDBRANCH   1   2
BRANCH   1  25
ATOM     25  O   UNL A   1      41.543  34.376  31.294  1.00  0.00    -0.377 OA
BRANCH  25  26
ATOM     26  C   UNL A   1      41.308  34.574  29.905  1.00  0.00     0.188 C 
BRANCH  26  27
ATOM     27  C   UNL A   1      42.414  35.087  28.956  1.00  0.00     0.188 C 
BRANCH  27  28
ATOM     28  O   UNL A   1      41.968  35.906  27.889  1.00  0.00    -0.376 OA
BRANCH  28  29
ATOM     29  C   UNL A   1      42.909  36.740  27.231  1.00  0.00     0.202 C 
BRANCH  29  30
ATOM     30  C   UNL A   1      44.069  37.300  28.069  1.00  0.00     0.261 C 
BRANCH  30  31
ATOM     31  O   UNL A   1      45.392  36.916  27.662  1.00  0.00    -0.460 OA
BRANCH  31  32
ATOM     32  C   UNL A   1      46.197  36.349  28.583  1.00  0.00     0.338 C 
ATOM     33  O   UNL A   1      46.807  36.910  29.479  1.00  0.00    -0.246 OA
BRANCH  32  34
ATOM     34  C   UNL A   1      46.069  34.884  28.452  1.00  0.00     0.060 A 
ATOM     35  C   UNL A   1      45.832  34.331  27.186  1.00  0.00     0.016 A 
ATOM     36  C   UNL A   1      46.189  34.058  29.573  1.00  0.00     0.016 A 
ATOM     37  C   UNL A   1      45.670  32.953  27.043  1.00  0.00     0.010 A 
ATOM     38  C   UNL A   1      46.003  32.680  29.432  1.00  0.00     0.010 A 
ATOM     39  C   UNL A   1      45.706  32.127  28.173  1.00  0.00    -0.014 A 
BRANCH  39  40
ATOM     40  C   UNL A   1      45.227  30.726  28.073  1.00  0.00     0.031 A 
ATOM     41  C   UNL A   1      46.188  29.681  27.572  1.00  0.00     0.074 A 
ATOM     42  C   UNL A   1      43.982  30.379  28.438  1.00  0.00     0.049 A 
ATOM     43  N   UNL A   1      45.988  28.409  27.339  1.00  0.00    -0.248 NA
ATOM     44  C   UNL A   1      47.559  30.137  27.294  1.00  0.00     0.031 C 
ATOM     45  C   UNL A   1      42.974  31.286  28.983  1.00  0.00     0.029 A 
ATOM     46  N   UNL A   1      43.351  29.160  28.393  1.00  0.00    -0.354 N 
ATOM     47  C   UNL A   1      47.205  27.916  26.883  1.00  0.00     0.074 A 
ATOM     48  C   UNL A   1      48.125  29.031  26.837  1.00  0.00     0.031 C 
ATOM     49  C   UNL A   1      41.842  30.595  29.205  1.00  0.00     0.029 A 
ATOM     50  C   UNL A   1      42.035  29.207  28.786  1.00  0.00     0.049 A 
ATOM     51  H   UNL A   1      43.799  28.332  28.107  1.00  0.00     0.167 HD
ATOM     52  C   UNL A   1      47.529  26.647  26.542  1.00  0.00     0.037 A 
ATOM     53  C   UNL A   1      41.091  28.246  28.778  1.00  0.00     0.037 A 
ATOM     54  C   UNL A   1      46.609  25.541  26.581  1.00  0.00     0.049 A 
ATOM     55  C   UNL A   1      41.452  26.858  28.311  1.00  0.00     0.074 A 
ATOM     56  C   UNL A   1      46.842  24.216  26.261  1.00  0.00     0.029 A 
ATOM     57  N   UNL A   1      45.277  25.635  26.954  1.00  0.00    -0.354 N 
ATOM     58  N   UNL A   1      42.607  26.395  27.898  1.00  0.00    -0.248 NA
ATOM     59  C   UNL A   1      40.374  25.856  28.312  1.00  0.00     0.031 C 
ATOM     60  C   UNL A   1      45.636  23.519  26.384  1.00  0.00     0.029 A 
ATOM     61  C   UNL A   1      44.667  24.396  26.845  1.00  0.00     0.049 A 
ATOM     62  H   UNL A   1      44.830  26.461  27.252  1.00  0.00     0.167 HD
ATOM     63  C   UNL A   1      42.405  25.046  27.623  1.00  0.00     0.074 A 
ATOM     64  C   UNL A   1      41.019  24.762  27.930  1.00  0.00     0.031 C 
ATOM     65  C   UNL A   1      43.287  24.126  27.162  1.00  0.00     0.037 A 
BRANCH  52  66
ATOM     66  C   UNL A   1      48.931  26.395  26.069  1.00  0.00     0.057 A 
ATOM     67  C   UNL A   1      49.315  26.601  24.737  1.00  0.00     0.134 A 
ATOM     68  C   UNL A   1      49.918  25.963  26.965  1.00  0.00     0.134 A 
ATOM     69  F   UNL A   1      48.416  26.997  23.823  1.00  0.00    -0.206 F 
ATOM     70  C   UNL A   1      50.622  26.362  24.308  1.00  0.00     0.040 A 
ATOM     71  C   UNL A   1      51.235  25.751  26.554  1.00  0.00     0.040 A 
ATOM     72  F   UNL A   1      49.621  25.749  28.256  1.00  0.00    -0.206 F 
ATOM     73  C   UNL A   1      51.589  25.942  25.220  1.00  0.00     0.006 A 
ENDBRANCH  52  66
BRANCH  53  74
ATOM     74  C   UNL A   1      39.702  28.560  29.202  1.00  0.00     0.057 A 
ATOM     75  C   UNL A   1      38.767  29.092  28.306  1.00  0.00     0.134 A 
ATOM     76  C   UNL A   1      39.285  28.367  30.525  1.00  0.00     0.134 A 
ATOM     77  F   UNL A   1      39.111  29.324  27.031  1.00  0.00    -0.206 F 
ATOM     78  C   UNL A   1      37.477  29.440  28.714  1.00  0.00     0.040 A 
ATOM     79  C   UNL A   1      37.990  28.683  30.940  1.00  0.00     0.040 A 
ATOM     80  F   UNL A   1      40.131  27.864  31.436  1.00  0.00    -0.206 F 
ATOM     81  C   UNL A   1      37.085  29.231  30.034  1.00  0.00     0.006 A 
ENDBRANCH  53  74
BRANCH  65  82
ATOM     82  C   UNL A   1      42.799  22.712  27.004  1.00  0.00     0.057 A 
ATOM     83  C   UNL A   1      42.530  22.153  25.748  1.00  0.00     0.134 A 
ATOM     84  C   UNL A   1      42.639  21.886  28.125  1.00  0.00     0.134 A 
ATOM     85  F   UNL A   1      42.653  22.890  24.634  1.00  0.00    -0.206 F 
ATOM     86  C   UNL A   1      42.095  20.833  25.616  1.00  0.00     0.040 A 
ATOM     87  C   UNL A   1      42.235  20.557  28.003  1.00  0.00     0.040 A 
ATOM     88  F   UNL A   1      42.890  22.354  29.357  1.00  0.00    -0.206 F 
ATOM     89  C   UNL A   1      41.954  20.029  26.746  1.00  0.00     0.006 A 
ENDBRANCH  65  82
ENDBRANCH  39  40
ENDBRANCH  32  34
ENDBRANCH  31  32
ENDBRANCH  30  31
ENDBRANCH  29  30
ENDBRANCH  28  29
ENDBRANCH  27  28
ENDBRANCH  26  27
ENDBRANCH  25  26
ENDBRANCH   1  25
TORSDOF 24
ENDMDL
