MODEL 1
REMARK VINA RESULT:     -10.3      0.000      0.000
REMARK SMILES Cc1ccc(C(=O)Nc2cccc(F)c2C(=O)OCCOCCOCCOCCOC(=O)c2ccc(-c3c4nc(c(-c5c(F)cccc5F)c5ccc([nH]5)c(-c5c(F)cccc5F)c5nc(c(-c6c(F)cccc6F)c6ccc3[nH]6)C=C5)C=C4)cc2)c(F)c1
REMARK SMILES IDX 24 1 23 2 22 3 21 4 20 5 19 6 18 7 16 8 17 9 15 10 9 11
REMARK SMILES IDX 10 12 11 13 13 14 12 15 14 16 8 17 6 18 7 19 5 21 1 22 2 23
REMARK SMILES IDX 3 24 89 25 4 26 87 27 88 28 25 29 26 30 27 31 28 32 29 33
REMARK SMILES IDX 30 34 31 35 32 36 33 37 34 38 86 39 35 40 85 41 36 42 37 43
REMARK SMILES IDX 38 44 79 45 39 46 84 47 78 48 80 49 40 50 83 51 77 52 76 53
REMARK SMILES IDX 41 55 67 56 50 57 66 58 51 59 54 60 65 61 81 62 52 63 53 64
REMARK SMILES IDX 64 66 82 67 55 68 42 69 43 70 48 71 44 72 45 73 47 74 49 75
REMARK SMILES IDX 46 76 68 77 69 78 74 79 70 80 71 81 73 82 75 83 72 84 56 85
REMARK SMILES IDX 57 86 62 87 58 88 59 89 61 90 63 91 60 92
REMARK H PARENT 8 20 80 54 54 65
REMARK Flexibility Score: inf
ROOT
ATOM      1  O   UNL A   1      33.440  33.952  28.233  1.00  0.00    -0.377 OA
ENDROOT
BRANCH   1   2
ATOM      2  C   UNL A   1      34.086  32.768  28.673  1.00  0.00     0.188 C 
BRANCH   2   3
ATOM      3  C   UNL A   1      34.482  31.692  27.637  1.00  0.00     0.188 C 
BRANCH   3   4
ATOM      4  O   UNL A   1      33.727  30.496  27.719  1.00  0.00    -0.376 OA
BRANCH   4   5
ATOM      5  C   UNL A   1      32.492  30.429  27.031  1.00  0.00     0.202 C 
BRANCH   5   6
ATOM      6  C   UNL A   1      31.947  29.044  26.652  1.00  0.00     0.261 C 
BRANCH   6   7
ATOM      7  O   UNL A   1      32.317  28.572  25.351  1.00  0.00    -0.460 OA
BRANCH   7   8
ATOM      8  C   UNL A   1      33.227  27.577  25.288  1.00  0.00     0.343 C 
ATOM      9  O   UNL A   1      34.047  27.287  26.140  1.00  0.00    -0.246 OA
BRANCH   8  10
ATOM     10  C   UNL A   1      32.894  26.733  24.125  1.00  0.00     0.119 A 
ATOM     11  C   UNL A   1      32.102  25.578  24.275  1.00  0.00     0.059 A 
ATOM     12  C   UNL A   1      31.775  24.817  23.141  1.00  0.00     0.027 A 
ATOM     13  C   UNL A   1      32.271  25.175  21.884  1.00  0.00     0.005 A 
ATOM     14  C   UNL A   1      33.398  27.067  22.869  1.00  0.00     0.139 A 
ATOM     15  C   UNL A   1      33.095  26.292  21.752  1.00  0.00     0.040 A 
ATOM     16  F   UNL A   1      34.213  28.120  22.714  1.00  0.00    -0.206 F 
BRANCH  11  17
ATOM     17  N   UNL A   1      31.639  25.188  25.545  1.00  0.00    -0.321 N 
ATOM     18  C   UNL A   1      31.901  24.059  26.287  1.00  0.00     0.258 C 
ATOM     19  O   UNL A   1      31.181  23.840  27.260  1.00  0.00    -0.269 OA
ATOM     20  H   UNL A   1      31.025  25.829  25.972  1.00  0.00     0.170 HD
BRANCH  18  21
ATOM     21  C   UNL A   1      33.102  23.217  26.025  1.00  0.00     0.075 A 
ATOM     22  C   UNL A   1      36.553  20.809  25.070  1.00  0.00     0.044 C 
ATOM     23  C   UNL A   1      35.350  21.624  25.425  1.00  0.00    -0.048 A 
ATOM     24  C   UNL A   1      35.492  22.772  26.200  1.00  0.00     0.004 A 
ATOM     25  C   UNL A   1      34.067  21.220  25.041  1.00  0.00     0.043 A 
ATOM     26  C   UNL A   1      34.370  23.527  26.535  1.00  0.00     0.017 A 
ATOM     27  C   UNL A   1      32.959  22.021  25.324  1.00  0.00     0.136 A 
ATOM     28  F   UNL A   1      31.761  21.590  24.904  1.00  0.00    -0.206 F 
ENDBRANCH  18  21
ENDBRANCH  11  17
ENDBRANCH   8  10
ENDBRANCH   7   8
ENDBRANCH   6   7
ENDBRANCH   5   6
ENDBRANCH   4   5
ENDBRANCH   3   4
ENDBRANCH   2   3
ENDBRANCH   1   2
BRANCH   1  29
ATOM     29  C   UNL A   1      33.615  35.153  28.980  1.00  0.00     0.188 C 
BRANCH  29  30
ATOM     30  C   UNL A   1      33.055  35.271  30.421  1.00  0.00     0.188 C 
BRANCH  30  31
ATOM     31  O   UNL A   1      33.849  36.041  31.307  1.00  0.00    -0.376 OA
BRANCH  31  32
ATOM     32  C   UNL A   1      34.070  35.528  32.610  1.00  0.00     0.202 C 
BRANCH  32  33
ATOM     33  C   UNL A   1      35.382  34.772  32.863  1.00  0.00     0.261 C 
BRANCH  33  34
ATOM     34  O   UNL A   1      35.884  33.979  31.776  1.00  0.00    -0.460 OA
BRANCH  34  35
ATOM     35  C   UNL A   1      35.800  32.631  31.885  1.00  0.00     0.338 C 
ATOM     36  O   UNL A   1      34.830  31.974  32.182  1.00  0.00    -0.246 OA
BRANCH  35  37
ATOM     37  C   UNL A   1      37.078  32.085  31.370  1.00  0.00     0.060 A 
ATOM     38  C   UNL A   1      37.379  32.198  30.005  1.00  0.00     0.016 A 
ATOM     39  C   UNL A   1      38.002  31.528  32.255  1.00  0.00     0.016 A 
ATOM     40  C   UNL A   1      38.616  31.762  29.523  1.00  0.00     0.010 A 
ATOM     41  C   UNL A   1      39.222  31.060  31.766  1.00  0.00     0.010 A 
ATOM     42  C   UNL A   1      39.532  31.166  30.398  1.00  0.00    -0.014 A 
BRANCH  42  43
ATOM     43  C   UNL A   1      40.763  30.527  29.882  1.00  0.00     0.031 A 
ATOM     44  C   UNL A   1      41.981  31.376  29.677  1.00  0.00     0.074 A 
ATOM     45  C   UNL A   1      40.786  29.222  29.560  1.00  0.00     0.049 A 
ATOM     46  N   UNL A   1      43.119  31.072  29.112  1.00  0.00    -0.248 NA
ATOM     47  C   UNL A   1      41.901  32.761  30.172  1.00  0.00     0.031 C 
ATOM     48  C   UNL A   1      39.682  28.286  29.756  1.00  0.00     0.029 A 
ATOM     49  N   UNL A   1      41.773  28.467  28.975  1.00  0.00    -0.354 N 
ATOM     50  C   UNL A   1      43.884  32.229  29.165  1.00  0.00     0.074 A 
ATOM     51  C   UNL A   1      43.077  33.246  29.805  1.00  0.00     0.031 C 
ATOM     52  C   UNL A   1      40.042  27.085  29.273  1.00  0.00     0.029 A 
ATOM     53  C   UNL A   1      41.381  27.181  28.692  1.00  0.00     0.049 A 
ATOM     54  H   UNL A   1      42.672  28.813  28.778  1.00  0.00     0.167 HD
ATOM     55  C   UNL A   1      45.145  32.422  28.715  1.00  0.00     0.037 A 
ATOM     56  C   UNL A   1      42.011  26.208  28.004  1.00  0.00     0.037 A 
ATOM     57  C   UNL A   1      45.939  31.403  28.083  1.00  0.00     0.049 A 
ATOM     58  C   UNL A   1      43.382  26.467  27.436  1.00  0.00     0.074 A 
ATOM     59  C   UNL A   1      47.248  31.487  27.644  1.00  0.00     0.029 A 
ATOM     60  N   UNL A   1      45.495  30.124  27.783  1.00  0.00    -0.354 N 
ATOM     61  N   UNL A   1      44.117  27.550  27.521  1.00  0.00    -0.248 NA
ATOM     62  C   UNL A   1      44.008  25.378  26.671  1.00  0.00     0.031 C 
ATOM     63  C   UNL A   1      47.571  30.286  27.009  1.00  0.00     0.029 A 
ATOM     64  C   UNL A   1      46.487  29.428  27.114  1.00  0.00     0.049 A 
ATOM     65  H   UNL A   1      44.607  29.766  28.011  1.00  0.00     0.167 HD
ATOM     66  C   UNL A   1      45.291  27.273  26.832  1.00  0.00     0.074 A 
ATOM     67  C   UNL A   1      45.180  25.913  26.347  1.00  0.00     0.031 C 
ATOM     68  C   UNL A   1      46.363  28.076  26.624  1.00  0.00     0.037 A 
BRANCH  55  69
ATOM     69  C   UNL A   1      45.736  33.795  28.852  1.00  0.00     0.057 A 
ATOM     70  C   UNL A   1      45.653  34.707  27.793  1.00  0.00     0.134 A 
ATOM     71  C   UNL A   1      46.436  34.195  29.997  1.00  0.00     0.134 A 
ATOM     72  F   UNL A   1      44.999  34.386  26.666  1.00  0.00    -0.206 F 
ATOM     73  C   UNL A   1      46.257  35.963  27.861  1.00  0.00     0.040 A 
ATOM     74  C   UNL A   1      47.020  35.459  30.088  1.00  0.00     0.040 A 
ATOM     75  F   UNL A   1      46.540  33.375  31.053  1.00  0.00    -0.206 F 
ATOM     76  C   UNL A   1      46.941  36.343  29.013  1.00  0.00     0.006 A 
ENDBRANCH  55  69
BRANCH  56  77
ATOM     77  C   UNL A   1      41.324  24.908  27.797  1.00  0.00     0.057 A 
ATOM     78  C   UNL A   1      41.713  23.760  28.499  1.00  0.00     0.134 A 
ATOM     79  C   UNL A   1      40.306  24.769  26.849  1.00  0.00     0.134 A 
ATOM     80  F   UNL A   1      42.682  23.829  29.425  1.00  0.00    -0.206 F 
ATOM     81  C   UNL A   1      41.142  22.513  28.240  1.00  0.00     0.040 A 
ATOM     82  C   UNL A   1      39.709  23.532  26.596  1.00  0.00     0.040 A 
ATOM     83  F   UNL A   1      39.872  25.836  26.163  1.00  0.00    -0.206 F 
ATOM     84  C   UNL A   1      40.137  22.397  27.283  1.00  0.00     0.006 A 
ENDBRANCH  56  77
BRANCH  68  85
ATOM     85  C   UNL A   1      47.515  27.531  25.829  1.00  0.00     0.057 A 
ATOM     86  C   UNL A   1      47.523  27.614  24.430  1.00  0.00     0.134 A 
ATOM     87  C   UNL A   1      48.548  26.810  26.439  1.00  0.00     0.134 A 
ATOM     88  F   UNL A   1      46.554  28.279  23.782  1.00  0.00    -0.206 F 
ATOM     89  C   UNL A   1      48.499  26.973  23.665  1.00  0.00     0.040 A 
ATOM     90  C   UNL A   1      49.546  26.187  25.686  1.00  0.00     0.040 A 
ATOM     91  F   UNL A   1      48.604  26.698  27.775  1.00  0.00    -0.206 F 
ATOM     92  C   UNL A   1      49.514  26.255  24.294  1.00  0.00     0.006 A 
ENDBRANCH  68  85
ENDBRANCH  42  43
ENDBRANCH  35  37
ENDBRANCH  34  35
ENDBRANCH  33  34
ENDBRANCH  32  33
ENDBRANCH  31  32
ENDBRANCH  30  31
ENDBRANCH  29  30
ENDBRANCH   1  29
TORSDOF 22
ENDMDL
MODEL 2
REMARK VINA RESULT:     -10.1      4.906     10.036
REMARK SMILES Cc1ccc(C(=O)Nc2cccc(F)c2C(=O)OCCOCCOCCOCCOC(=O)c2ccc(-c3c4nc(c(-c5c(F)cccc5F)c5ccc([nH]5)c(-c5c(F)cccc5F)c5nc(c(-c6c(F)cccc6F)c6ccc3[nH]6)C=C5)C=C4)cc2)c(F)c1
REMARK SMILES IDX 24 1 23 2 22 3 21 4 20 5 19 6 18 7 16 8 17 9 15 10 9 11
REMARK SMILES IDX 10 12 11 13 13 14 12 15 14 16 8 17 6 18 7 19 5 21 1 22 2 23
REMARK SMILES IDX 3 24 89 25 4 26 87 27 88 28 25 29 26 30 27 31 28 32 29 33
REMARK SMILES IDX 30 34 31 35 32 36 33 37 34 38 86 39 35 40 85 41 36 42 37 43
REMARK SMILES IDX 38 44 79 45 39 46 84 47 78 48 80 49 40 50 83 51 77 52 76 53
REMARK SMILES IDX 41 55 67 56 50 57 66 58 51 59 54 60 65 61 81 62 52 63 53 64
REMARK SMILES IDX 64 66 82 67 55 68 42 69 43 70 48 71 44 72 45 73 47 74 49 75
REMARK SMILES IDX 46 76 68 77 69 78 74 79 70 80 71 81 73 82 75 83 72 84 56 85
REMARK SMILES IDX 57 86 62 87 58 88 59 89 61 90 63 91 60 92
REMARK H PARENT 8 20 80 54 54 65
REMARK Flexibility Score: inf
ROOT
ATOM      1  O   UNL A   1      38.942  20.996  26.174  1.00  0.00    -0.377 OA
ENDROOT
BRANCH   1   2
ATOM      2  C   UNL A   1      38.012  21.548  25.255  1.00  0.00     0.188 C 
BRANCH   2   3
ATOM      3  C   UNL A   1      36.498  21.383  25.520  1.00  0.00     0.188 C 
BRANCH   3   4
ATOM      4  O   UNL A   1      35.780  22.602  25.589  1.00  0.00    -0.376 OA
BRANCH   4   5
ATOM      5  C   UNL A   1      35.768  23.443  24.451  1.00  0.00     0.202 C 
BRANCH   5   6
ATOM      6  C   UNL A   1      34.628  23.273  23.435  1.00  0.00     0.261 C 
BRANCH   6   7
ATOM      7  O   UNL A   1      33.864  22.069  23.565  1.00  0.00    -0.460 OA
BRANCH   7   8
ATOM      8  C   UNL A   1      32.582  22.099  23.143  1.00  0.00     0.343 C 
ATOM      9  O   UNL A   1      32.096  21.437  22.244  1.00  0.00    -0.246 OA
BRANCH   8  10
ATOM     10  C   UNL A   1      31.802  22.882  24.120  1.00  0.00     0.119 A 
ATOM     11  C   UNL A   1      31.248  24.128  23.769  1.00  0.00     0.059 A 
ATOM     12  C   UNL A   1      30.481  24.830  24.712  1.00  0.00     0.027 A 
ATOM     13  C   UNL A   1      30.311  24.321  26.002  1.00  0.00     0.005 A 
ATOM     14  C   UNL A   1      31.641  22.395  25.417  1.00  0.00     0.139 A 
ATOM     15  C   UNL A   1      30.904  23.110  26.358  1.00  0.00     0.040 A 
ATOM     16  F   UNL A   1      32.220  21.247  25.795  1.00  0.00    -0.206 F 
BRANCH  11  17
ATOM     17  N   UNL A   1      31.454  24.667  22.485  1.00  0.00    -0.321 N 
ATOM     18  C   UNL A   1      31.507  25.975  22.060  1.00  0.00     0.258 C 
ATOM     19  O   UNL A   1      31.455  26.180  20.848  1.00  0.00    -0.269 OA
ATOM     20  H   UNL A   1      31.582  23.997  21.775  1.00  0.00     0.170 HD
BRANCH  18  21
ATOM     21  C   UNL A   1      31.774  27.092  23.009  1.00  0.00     0.075 A 
ATOM     22  C   UNL A   1      32.415  30.245  25.885  1.00  0.00     0.044 C 
ATOM     23  C   UNL A   1      32.196  29.173  24.864  1.00  0.00    -0.048 A 
ATOM     24  C   UNL A   1      33.253  28.352  24.480  1.00  0.00     0.004 A 
ATOM     25  C   UNL A   1      30.955  29.016  24.239  1.00  0.00     0.043 A 
ATOM     26  C   UNL A   1      33.049  27.358  23.526  1.00  0.00     0.017 A 
ATOM     27  C   UNL A   1      30.744  27.974  23.334  1.00  0.00     0.136 A 
ATOM     28  F   UNL A   1      29.524  27.862  22.791  1.00  0.00    -0.206 F 
ENDBRANCH  18  21
ENDBRANCH  11  17
ENDBRANCH   8  10
ENDBRANCH   7   8
ENDBRANCH   6   7
ENDBRANCH   5   6
ENDBRANCH   4   5
ENDBRANCH   3   4
ENDBRANCH   2   3
ENDBRANCH   1   2
BRANCH   1  29
ATOM     29  C   UNL A   1      39.939  21.843  26.739  1.00  0.00     0.188 C 
BRANCH  29  30
ATOM     30  C   UNL A   1      41.070  21.249  27.617  1.00  0.00     0.188 C 
BRANCH  30  31
ATOM     31  O   UNL A   1      41.826  20.222  26.999  1.00  0.00    -0.376 OA
BRANCH  31  32
ATOM     32  C   UNL A   1      42.641  20.574  25.895  1.00  0.00     0.202 C 
BRANCH  32  33
ATOM     33  C   UNL A   1      43.493  21.846  26.018  1.00  0.00     0.261 C 
BRANCH  33  34
ATOM     34  O   UNL A   1      42.891  23.066  25.558  1.00  0.00    -0.460 OA
BRANCH  34  35
ATOM     35  C   UNL A   1      43.684  24.158  25.441  1.00  0.00     0.338 C 
ATOM     36  O   UNL A   1      44.457  24.417  24.548  1.00  0.00    -0.246 OA
BRANCH  35  37
ATOM     37  C   UNL A   1      43.282  25.091  26.521  1.00  0.00     0.060 A 
ATOM     38  C   UNL A   1      42.243  24.734  27.392  1.00  0.00     0.016 A 
ATOM     39  C   UNL A   1      43.983  26.282  26.707  1.00  0.00     0.016 A 
ATOM     40  C   UNL A   1      41.910  25.566  28.463  1.00  0.00     0.010 A 
ATOM     41  C   UNL A   1      43.625  27.131  27.755  1.00  0.00     0.010 A 
ATOM     42  C   UNL A   1      42.582  26.782  28.632  1.00  0.00    -0.014 A 
BRANCH  42  43
ATOM     43  C   UNL A   1      42.124  27.765  29.640  1.00  0.00     0.031 A 
ATOM     44  C   UNL A   1      42.811  27.802  30.971  1.00  0.00     0.074 A 
ATOM     45  C   UNL A   1      41.086  28.582  29.391  1.00  0.00     0.049 A 
ATOM     46  N   UNL A   1      42.498  28.473  32.048  1.00  0.00    -0.248 NA
ATOM     47  C   UNL A   1      44.011  26.960  31.109  1.00  0.00     0.031 C 
ATOM     48  C   UNL A   1      40.368  28.670  28.121  1.00  0.00     0.029 A 
ATOM     49  N   UNL A   1      40.441  29.476  30.209  1.00  0.00    -0.354 N 
ATOM     50  C   UNL A   1      43.448  28.122  32.997  1.00  0.00     0.074 A 
ATOM     51  C   UNL A   1      44.342  27.169  32.375  1.00  0.00     0.031 C 
ATOM     52  C   UNL A   1      39.362  29.550  28.254  1.00  0.00     0.029 A 
ATOM     53  C   UNL A   1      39.336  30.050  29.629  1.00  0.00     0.049 A 
ATOM     54  H   UNL A   1      40.741  29.685  31.123  1.00  0.00     0.167 HD
ATOM     55  C   UNL A   1      43.560  28.557  34.272  1.00  0.00     0.037 A 
ATOM     56  C   UNL A   1      38.388  30.849  30.157  1.00  0.00     0.037 A 
ATOM     57  C   UNL A   1      42.667  29.507  34.880  1.00  0.00     0.049 A 
ATOM     58  C   UNL A   1      38.481  31.257  31.604  1.00  0.00     0.074 A 
ATOM     59  C   UNL A   1      42.731  30.051  36.151  1.00  0.00     0.029 A 
ATOM     60  N   UNL A   1      41.541  30.038  34.272  1.00  0.00    -0.354 N 
ATOM     61  N   UNL A   1      39.402  30.953  32.487  1.00  0.00    -0.248 NA
ATOM     62  C   UNL A   1      37.403  32.106  32.133  1.00  0.00     0.031 C 
ATOM     63  C   UNL A   1      41.603  30.852  36.337  1.00  0.00     0.029 A 
ATOM     64  C   UNL A   1      40.871  30.862  35.160  1.00  0.00     0.049 A 
ATOM     65  H   UNL A   1      41.259  29.857  33.346  1.00  0.00     0.167 HD
ATOM     66  C   UNL A   1      39.023  31.579  33.669  1.00  0.00     0.074 A 
ATOM     67  C   UNL A   1      37.795  32.293  33.387  1.00  0.00     0.031 C 
ATOM     68  C   UNL A   1      39.641  31.561  34.875  1.00  0.00     0.037 A 
BRANCH  55  69
ATOM     69  C   UNL A   1      44.661  27.983  35.115  1.00  0.00     0.057 A 
ATOM     70  C   UNL A   1      44.446  26.813  35.856  1.00  0.00     0.134 A 
ATOM     71  C   UNL A   1      45.906  28.611  35.246  1.00  0.00     0.134 A 
ATOM     72  F   UNL A   1      43.276  26.163  35.779  1.00  0.00    -0.206 F 
ATOM     73  C   UNL A   1      45.424  26.297  36.706  1.00  0.00     0.040 A 
ATOM     74  C   UNL A   1      46.902  28.089  36.071  1.00  0.00     0.040 A 
ATOM     75  F   UNL A   1      46.181  29.727  34.553  1.00  0.00    -0.206 F 
ATOM     76  C   UNL A   1      46.658  26.934  36.813  1.00  0.00     0.006 A 
ENDBRANCH  55  69
BRANCH  56  77
ATOM     77  C   UNL A   1      37.254  31.287  29.304  1.00  0.00     0.057 A 
ATOM     78  C   UNL A   1      37.231  32.564  28.727  1.00  0.00     0.134 A 
ATOM     79  C   UNL A   1      36.142  30.466  29.097  1.00  0.00     0.134 A 
ATOM     80  F   UNL A   1      38.269  33.398  28.885  1.00  0.00    -0.206 F 
ATOM     81  C   UNL A   1      36.126  33.022  28.007  1.00  0.00     0.040 A 
ATOM     82  C   UNL A   1      35.040  30.903  28.358  1.00  0.00     0.040 A 
ATOM     83  F   UNL A   1      36.117  29.224  29.602  1.00  0.00    -0.206 F 
ATOM     84  C   UNL A   1      35.025  32.189  27.823  1.00  0.00     0.006 A 
ENDBRANCH  56  77
BRANCH  68  85
ATOM     85  C   UNL A   1      39.012  32.323  36.006  1.00  0.00     0.057 A 
ATOM     86  C   UNL A   1      39.362  33.658  36.252  1.00  0.00     0.134 A 
ATOM     87  C   UNL A   1      38.162  31.698  36.926  1.00  0.00     0.134 A 
ATOM     88  F   UNL A   1      40.183  34.312  35.417  1.00  0.00    -0.206 F 
ATOM     89  C   UNL A   1      38.914  34.333  37.389  1.00  0.00     0.040 A 
ATOM     90  C   UNL A   1      37.686  32.371  38.053  1.00  0.00     0.040 A 
ATOM     91  F   UNL A   1      37.782  30.424  36.745  1.00  0.00    -0.206 F 
ATOM     92  C   UNL A   1      38.075  33.688  38.294  1.00  0.00     0.006 A 
ENDBRANCH  68  85
ENDBRANCH  42  43
ENDBRANCH  35  37
ENDBRANCH  34  35
ENDBRANCH  33  34
ENDBRANCH  32  33
ENDBRANCH  31  32
ENDBRANCH  30  31
ENDBRANCH  29  30
ENDBRANCH   1  29
TORSDOF 22
ENDMDL
MODEL 3
REMARK VINA RESULT:      -9.9      4.865     10.194
REMARK SMILES Cc1ccc(C(=O)Nc2cccc(F)c2C(=O)OCCOCCOCCOCCOC(=O)c2ccc(-c3c4nc(c(-c5c(F)cccc5F)c5ccc([nH]5)c(-c5c(F)cccc5F)c5nc(c(-c6c(F)cccc6F)c6ccc3[nH]6)C=C5)C=C4)cc2)c(F)c1
REMARK SMILES IDX 24 1 23 2 22 3 21 4 20 5 19 6 18 7 16 8 17 9 15 10 9 11
REMARK SMILES IDX 10 12 11 13 13 14 12 15 14 16 8 17 6 18 7 19 5 21 1 22 2 23
REMARK SMILES IDX 3 24 89 25 4 26 87 27 88 28 25 29 26 30 27 31 28 32 29 33
REMARK SMILES IDX 30 34 31 35 32 36 33 37 34 38 86 39 35 40 85 41 36 42 37 43
REMARK SMILES IDX 38 44 79 45 39 46 84 47 78 48 80 49 40 50 83 51 77 52 76 53
REMARK SMILES IDX 41 55 67 56 50 57 66 58 51 59 54 60 65 61 81 62 52 63 53 64
REMARK SMILES IDX 64 66 82 67 55 68 42 69 43 70 48 71 44 72 45 73 47 74 49 75
REMARK SMILES IDX 46 76 68 77 69 78 74 79 70 80 71 81 73 82 75 83 72 84 56 85
REMARK SMILES IDX 57 86 62 87 58 88 59 89 61 90 63 91 60 92
REMARK H PARENT 8 20 80 54 54 65
REMARK Flexibility Score: inf
ROOT
ATOM      1  O   UNL A   1      40.033  21.568  25.674  1.00  0.00    -0.377 OA
ENDROOT
BRANCH   1   2
ATOM      2  C   UNL A   1      38.805  22.045  26.202  1.00  0.00     0.188 C 
BRANCH   2   3
ATOM      3  C   UNL A   1      37.685  22.483  25.232  1.00  0.00     0.188 C 
BRANCH   3   4
ATOM      4  O   UNL A   1      36.965  23.629  25.649  1.00  0.00    -0.376 OA
BRANCH   4   5
ATOM      5  C   UNL A   1      35.555  23.619  25.534  1.00  0.00     0.202 C 
BRANCH   5   6
ATOM      6  C   UNL A   1      34.936  23.943  24.165  1.00  0.00     0.261 C 
BRANCH   6   7
ATOM      7  O   UNL A   1      34.425  22.819  23.440  1.00  0.00    -0.460 OA
BRANCH   7   8
ATOM      8  C   UNL A   1      33.084  22.710  23.329  1.00  0.00     0.343 C 
ATOM      9  O   UNL A   1      32.393  21.790  23.728  1.00  0.00    -0.246 OA
BRANCH   8  10
ATOM     10  C   UNL A   1      32.561  24.012  22.871  1.00  0.00     0.119 A 
ATOM     11  C   UNL A   1      31.796  24.824  23.731  1.00  0.00     0.059 A 
ATOM     12  C   UNL A   1      31.345  26.073  23.275  1.00  0.00     0.027 A 
ATOM     13  C   UNL A   1      31.608  26.483  21.966  1.00  0.00     0.005 A 
ATOM     14  C   UNL A   1      32.800  24.425  21.561  1.00  0.00     0.139 A 
ATOM     15  C   UNL A   1      32.324  25.651  21.104  1.00  0.00     0.040 A 
ATOM     16  F   UNL A   1      33.462  23.636  20.703  1.00  0.00    -0.206 F 
BRANCH  11  17
ATOM     17  N   UNL A   1      31.490  24.395  25.036  1.00  0.00    -0.321 N 
ATOM     18  C   UNL A   1      31.881  24.893  26.258  1.00  0.00     0.258 C 
ATOM     19  O   UNL A   1      31.676  24.192  27.248  1.00  0.00    -0.269 OA
ATOM     20  H   UNL A   1      30.897  23.610  25.081  1.00  0.00     0.170 HD
BRANCH  18  21
ATOM     21  C   UNL A   1      32.390  26.286  26.405  1.00  0.00     0.075 A 
ATOM     22  C   UNL A   1      33.819  30.309  27.027  1.00  0.00     0.044 C 
ATOM     23  C   UNL A   1      33.313  28.923  26.783  1.00  0.00    -0.048 A 
ATOM     24  C   UNL A   1      34.182  27.936  26.327  1.00  0.00     0.004 A 
ATOM     25  C   UNL A   1      31.960  28.611  26.948  1.00  0.00     0.043 A 
ATOM     26  C   UNL A   1      33.709  26.646  26.095  1.00  0.00     0.017 A 
ATOM     27  C   UNL A   1      31.510  27.300  26.778  1.00  0.00     0.136 A 
ATOM     28  F   UNL A   1      30.206  27.062  26.978  1.00  0.00    -0.206 F 
ENDBRANCH  18  21
ENDBRANCH  11  17
ENDBRANCH   8  10
ENDBRANCH   7   8
ENDBRANCH   6   7
ENDBRANCH   5   6
ENDBRANCH   4   5
ENDBRANCH   3   4
ENDBRANCH   2   3
ENDBRANCH   1   2
BRANCH   1  29
ATOM     29  C   UNL A   1      40.760  20.581  26.401  1.00  0.00     0.188 C 
BRANCH  29  30
ATOM     30  C   UNL A   1      42.284  20.402  26.178  1.00  0.00     0.188 C 
BRANCH  30  31
ATOM     31  O   UNL A   1      42.916  21.475  25.502  1.00  0.00    -0.376 OA
BRANCH  31  32
ATOM     32  C   UNL A   1      43.841  22.261  26.232  1.00  0.00     0.202 C 
BRANCH  32  33
ATOM     33  C   UNL A   1      43.680  23.787  26.174  1.00  0.00     0.261 C 
BRANCH  33  34
ATOM     34  O   UNL A   1      42.369  24.302  26.452  1.00  0.00    -0.460 OA
BRANCH  34  35
ATOM     35  C   UNL A   1      42.045  25.515  25.944  1.00  0.00     0.338 C 
ATOM     36  O   UNL A   1      41.916  25.818  24.781  1.00  0.00    -0.246 OA
BRANCH  35  37
ATOM     37  C   UNL A   1      41.675  26.371  27.097  1.00  0.00     0.060 A 
ATOM     38  C   UNL A   1      42.386  27.557  27.335  1.00  0.00     0.016 A 
ATOM     39  C   UNL A   1      40.582  26.030  27.893  1.00  0.00     0.016 A 
ATOM     40  C   UNL A   1      41.994  28.412  28.367  1.00  0.00     0.010 A 
ATOM     41  C   UNL A   1      40.214  26.867  28.948  1.00  0.00     0.010 A 
ATOM     42  C   UNL A   1      40.923  28.056  29.195  1.00  0.00    -0.014 A 
BRANCH  42  43
ATOM     43  C   UNL A   1      40.610  28.847  30.407  1.00  0.00     0.031 A 
ATOM     44  C   UNL A   1      39.512  29.865  30.336  1.00  0.00     0.074 A 
ATOM     45  C   UNL A   1      41.319  28.693  31.539  1.00  0.00     0.049 A 
ATOM     46  N   UNL A   1      39.154  30.762  31.216  1.00  0.00    -0.248 NA
ATOM     47  C   UNL A   1      38.712  29.876  29.100  1.00  0.00     0.031 C 
ATOM     48  C   UNL A   1      42.377  27.708  31.743  1.00  0.00     0.029 A 
ATOM     49  N   UNL A   1      41.267  29.388  32.722  1.00  0.00    -0.354 N 
ATOM     50  C   UNL A   1      38.103  31.458  30.636  1.00  0.00     0.074 A 
ATOM     51  C   UNL A   1      37.887  30.888  29.322  1.00  0.00     0.031 C 
ATOM     52  C   UNL A   1      42.896  27.879  32.971  1.00  0.00     0.029 A 
ATOM     53  C   UNL A   1      42.239  29.015  33.618  1.00  0.00     0.049 A 
ATOM     54  H   UNL A   1      40.598  30.085  32.910  1.00  0.00     0.167 HD
ATOM     55  C   UNL A   1      37.386  32.480  31.154  1.00  0.00     0.037 A 
ATOM     56  C   UNL A   1      42.589  29.555  34.803  1.00  0.00     0.037 A 
ATOM     57  C   UNL A   1      37.607  33.036  32.462  1.00  0.00     0.049 A 
ATOM     58  C   UNL A   1      41.834  30.748  35.328  1.00  0.00     0.074 A 
ATOM     59  C   UNL A   1      36.895  34.038  33.098  1.00  0.00     0.029 A 
ATOM     60  N   UNL A   1      38.623  32.655  33.325  1.00  0.00    -0.354 N 
ATOM     61  N   UNL A   1      40.816  31.378  34.793  1.00  0.00    -0.248 NA
ATOM     62  C   UNL A   1      42.279  31.311  36.611  1.00  0.00     0.031 C 
ATOM     63  C   UNL A   1      37.527  34.316  34.312  1.00  0.00     0.029 A 
ATOM     64  C   UNL A   1      38.591  33.440  34.465  1.00  0.00     0.049 A 
ATOM     65  H   UNL A   1      39.270  31.933  33.152  1.00  0.00     0.167 HD
ATOM     66  C   UNL A   1      40.492  32.403  35.673  1.00  0.00     0.074 A 
ATOM     67  C   UNL A   1      41.412  32.302  36.787  1.00  0.00     0.031 C 
ATOM     68  C   UNL A   1      39.519  33.340  35.565  1.00  0.00     0.037 A 
BRANCH  55  69
ATOM     69  C   UNL A   1      36.320  33.096  30.295  1.00  0.00     0.057 A 
ATOM     70  C   UNL A   1      34.974  32.759  30.492  1.00  0.00     0.134 A 
ATOM     71  C   UNL A   1      36.621  33.967  29.241  1.00  0.00     0.134 A 
ATOM     72  F   UNL A   1      34.617  31.927  31.481  1.00  0.00    -0.206 F 
ATOM     73  C   UNL A   1      33.969  33.255  29.662  1.00  0.00     0.040 A 
ATOM     74  C   UNL A   1      35.621  34.493  28.423  1.00  0.00     0.040 A 
ATOM     75  F   UNL A   1      37.888  34.341  29.009  1.00  0.00    -0.206 F 
ATOM     76  C   UNL A   1      34.291  34.128  28.626  1.00  0.00     0.006 A 
ENDBRANCH  55  69
BRANCH  56  77
ATOM     77  C   UNL A   1      43.733  28.976  35.551  1.00  0.00     0.057 A 
ATOM     78  C   UNL A   1      43.541  27.969  36.507  1.00  0.00     0.134 A 
ATOM     79  C   UNL A   1      45.034  29.457  35.374  1.00  0.00     0.134 A 
ATOM     80  F   UNL A   1      42.318  27.463  36.721  1.00  0.00    -0.206 F 
ATOM     81  C   UNL A   1      44.595  27.489  37.287  1.00  0.00     0.040 A 
ATOM     82  C   UNL A   1      46.101  28.968  36.131  1.00  0.00     0.040 A 
ATOM     83  F   UNL A   1      45.285  30.401  34.456  1.00  0.00    -0.206 F 
ATOM     84  C   UNL A   1      45.880  27.992  37.100  1.00  0.00     0.006 A 
ENDBRANCH  56  77
BRANCH  68  85
ATOM     85  C   UNL A   1      39.383  34.353  36.666  1.00  0.00     0.057 A 
ATOM     86  C   UNL A   1      40.024  35.596  36.578  1.00  0.00     0.134 A 
ATOM     87  C   UNL A   1      38.728  34.046  37.865  1.00  0.00     0.134 A 
ATOM     88  F   UNL A   1      40.681  35.947  35.462  1.00  0.00    -0.206 F 
ATOM     89  C   UNL A   1      40.045  36.485  37.654  1.00  0.00     0.040 A 
ATOM     90  C   UNL A   1      38.719  34.939  38.939  1.00  0.00     0.040 A 
ATOM     91  F   UNL A   1      38.089  32.876  38.011  1.00  0.00    -0.206 F 
ATOM     92  C   UNL A   1      39.393  36.155  38.840  1.00  0.00     0.006 A 
ENDBRANCH  68  85
ENDBRANCH  42  43
ENDBRANCH  35  37
ENDBRANCH  34  35
ENDBRANCH  33  34
ENDBRANCH  32  33
ENDBRANCH  31  32
ENDBRANCH  30  31
ENDBRANCH  29  30
ENDBRANCH   1  29
TORSDOF 22
ENDMDL
