MODEL 1
REMARK VINA RESULT:     -10.4      0.000      0.000
REMARK SMILES O=C(OCCOCCOCCOCCOC(=O)c1nn(Cc2ccc(F)cc2)c2ccccc12)c1ccc(-c2c3nc(c(-c4c(F)cccc4F)c4ccc([nH]4)c(-c4c(F)cccc4F)c4nc(c(-c5c(F)cccc5F)c5ccc2[nH]5)C=C4)C=C3)cc1
REMARK SMILES IDX 9 1 8 2 7 3 6 4 5 5 4 6 3 7 2 8 1 9 35 10 36 11 88 12 37 13
REMARK SMILES IDX 87 14 38 15 39 16 40 17 81 18 41 19 86 20 80 21 82 22 42 23
REMARK SMILES IDX 85 24 79 25 78 26 43 28 69 29 52 30 68 31 53 32 56 33 67 34
REMARK SMILES IDX 83 35 54 36 55 37 66 39 84 40 57 41 44 42 45 43 50 44 46 45
REMARK SMILES IDX 47 46 49 47 51 48 48 49 70 50 71 51 76 52 72 53 73 54 75 55
REMARK SMILES IDX 77 56 74 57 58 58 59 59 64 60 60 61 61 62 63 63 65 64 62 65
REMARK SMILES IDX 10 66 11 67 12 68 13 69 14 70 15 71 16 72 17 73 18 74 19 75
REMARK SMILES IDX 34 76 20 77 29 78 33 79 30 80 32 81 31 82 21 83 22 84 23 85
REMARK SMILES IDX 28 86 24 87 27 88 25 89 26 90
REMARK H PARENT 82 27 56 38
REMARK Flexibility Score: inf
ROOT
ATOM      1  O   UNL A   1      33.672  26.786  23.458  1.00  0.00    -0.377 OA
ENDROOT
BRANCH   1   2
ATOM      2  C   UNL A   1      33.650  27.942  24.297  1.00  0.00     0.188 C 
BRANCH   2   3
ATOM      3  C   UNL A   1      32.602  28.972  23.872  1.00  0.00     0.188 C 
BRANCH   3   4
ATOM      4  O   UNL A   1      32.297  29.816  24.977  1.00  0.00    -0.376 OA
BRANCH   4   5
ATOM      5  C   UNL A   1      33.135  29.673  26.115  1.00  0.00     0.202 C 
BRANCH   5   6
ATOM      6  C   UNL A   1      33.119  30.952  26.951  1.00  0.00     0.261 C 
BRANCH   6   7
ATOM      7  O   UNL A   1      34.026  30.845  28.065  1.00  0.00    -0.460 OA
BRANCH   7   8
ATOM      8  C   UNL A   1      35.038  31.751  28.054  1.00  0.00     0.338 C 
ATOM      9  O   UNL A   1      34.967  32.884  27.611  1.00  0.00    -0.246 OA
BRANCH   8  10
ATOM     10  C   UNL A   1      36.278  31.091  28.553  1.00  0.00     0.060 A 
ATOM     11  C   UNL A   1      36.243  29.730  28.871  1.00  0.00     0.016 A 
ATOM     12  C   UNL A   1      37.435  31.844  28.824  1.00  0.00     0.016 A 
ATOM     13  C   UNL A   1      37.359  29.136  29.458  1.00  0.00     0.010 A 
ATOM     14  C   UNL A   1      38.535  31.260  29.436  1.00  0.00     0.010 A 
ATOM     15  C   UNL A   1      38.506  29.901  29.737  1.00  0.00    -0.014 A 
BRANCH  15  16
ATOM     16  C   UNL A   1      39.765  29.209  30.023  1.00  0.00     0.031 A 
ATOM     17  C   UNL A   1      40.155  29.359  31.423  1.00  0.00     0.074 A 
ATOM     18  C   UNL A   1      40.518  28.451  29.199  1.00  0.00     0.049 A 
ATOM     19  N   UNL A   1      41.094  30.130  31.851  1.00  0.00    -0.248 NA
ATOM     20  C   UNL A   1      39.360  28.702  32.469  1.00  0.00     0.031 C 
ATOM     21  C   UNL A   1      40.129  28.136  27.845  1.00  0.00     0.029 A 
ATOM     22  N   UNL A   1      41.721  27.784  29.348  1.00  0.00    -0.354 N 
ATOM     23  C   UNL A   1      41.251  29.753  33.165  1.00  0.00     0.074 A 
ATOM     24  C   UNL A   1      40.042  29.066  33.558  1.00  0.00     0.031 C 
ATOM     25  C   UNL A   1      41.027  27.313  27.278  1.00  0.00     0.029 A 
ATOM     26  C   UNL A   1      42.072  27.018  28.235  1.00  0.00     0.049 A 
ATOM     27  H   UNL A   1      42.276  27.845  30.159  1.00  0.00     0.167 HD
ATOM     28  C   UNL A   1      42.515  29.621  33.634  1.00  0.00     0.037 A 
ATOM     29  C   UNL A   1      43.140  26.213  27.994  1.00  0.00     0.037 A 
ATOM     30  C   UNL A   1      43.488  30.325  32.837  1.00  0.00     0.049 A 
ATOM     31  C   UNL A   1      44.306  26.795  28.694  1.00  0.00     0.074 A 
ATOM     32  C   UNL A   1      43.817  31.643  32.607  1.00  0.00     0.029 A 
ATOM     33  N   UNL A   1      44.065  29.592  31.836  1.00  0.00    -0.354 N 
ATOM     34  N   UNL A   1      44.899  27.892  28.304  1.00  0.00    -0.248 NA
ATOM     35  C   UNL A   1      44.674  26.330  30.027  1.00  0.00     0.031 C 
ATOM     36  C   UNL A   1      44.597  31.678  31.414  1.00  0.00     0.029 A 
ATOM     37  C   UNL A   1      44.735  30.382  30.933  1.00  0.00     0.049 A 
ATOM     38  H   UNL A   1      44.006  28.611  31.770  1.00  0.00     0.167 HD
ATOM     39  C   UNL A   1      45.296  28.481  29.484  1.00  0.00     0.074 A 
ATOM     40  C   UNL A   1      45.317  27.412  30.470  1.00  0.00     0.031 C 
ATOM     41  C   UNL A   1      45.180  29.826  29.672  1.00  0.00     0.037 A 
BRANCH  28  42
ATOM     42  C   UNL A   1      42.899  28.451  34.482  1.00  0.00     0.057 A 
ATOM     43  C   UNL A   1      42.994  28.518  35.889  1.00  0.00     0.134 A 
ATOM     44  C   UNL A   1      42.918  27.173  33.922  1.00  0.00     0.134 A 
ATOM     45  F   UNL A   1      42.806  29.663  36.559  1.00  0.00    -0.206 F 
ATOM     46  C   UNL A   1      43.183  27.388  36.682  1.00  0.00     0.040 A 
ATOM     47  C   UNL A   1      43.045  26.028  34.712  1.00  0.00     0.040 A 
ATOM     48  F   UNL A   1      42.753  27.006  32.601  1.00  0.00    -0.206 F 
ATOM     49  C   UNL A   1      43.193  26.133  36.094  1.00  0.00     0.006 A 
ENDBRANCH  28  42
BRANCH  29  50
ATOM     50  C   UNL A   1      43.244  25.083  27.030  1.00  0.00     0.057 A 
ATOM     51  C   UNL A   1      43.892  25.236  25.786  1.00  0.00     0.134 A 
ATOM     52  C   UNL A   1      42.545  23.878  27.195  1.00  0.00     0.134 A 
ATOM     53  F   UNL A   1      44.509  26.379  25.458  1.00  0.00    -0.206 F 
ATOM     54  C   UNL A   1      43.874  24.252  24.791  1.00  0.00     0.040 A 
ATOM     55  C   UNL A   1      42.501  22.891  26.197  1.00  0.00     0.040 A 
ATOM     56  F   UNL A   1      41.834  23.643  28.307  1.00  0.00    -0.206 F 
ATOM     57  C   UNL A   1      43.165  23.077  24.988  1.00  0.00     0.006 A 
ENDBRANCH  29  50
BRANCH  41  58
ATOM     58  C   UNL A   1      45.401  30.727  28.495  1.00  0.00     0.057 A 
ATOM     59  C   UNL A   1      44.275  31.104  27.747  1.00  0.00     0.134 A 
ATOM     60  C   UNL A   1      46.639  31.209  28.054  1.00  0.00     0.134 A 
ATOM     61  F   UNL A   1      43.053  30.675  28.100  1.00  0.00    -0.206 F 
ATOM     62  C   UNL A   1      44.367  31.913  26.612  1.00  0.00     0.040 A 
ATOM     63  C   UNL A   1      46.737  32.059  26.943  1.00  0.00     0.040 A 
ATOM     64  F   UNL A   1      47.785  30.854  28.653  1.00  0.00    -0.206 F 
ATOM     65  C   UNL A   1      45.603  32.402  26.211  1.00  0.00     0.006 A 
ENDBRANCH  41  58
ENDBRANCH  15  16
ENDBRANCH   8  10
ENDBRANCH   7   8
ENDBRANCH   6   7
ENDBRANCH   5   6
ENDBRANCH   4   5
ENDBRANCH   3   4
ENDBRANCH   2   3
ENDBRANCH   1   2
BRANCH   1  66
ATOM     66  C   UNL A   1      33.088  26.932  22.158  1.00  0.00     0.188 C 
BRANCH  66  67
ATOM     67  C   UNL A   1      31.781  26.172  21.911  1.00  0.00     0.188 C 
BRANCH  67  68
ATOM     68  O   UNL A   1      31.286  25.617  23.126  1.00  0.00    -0.376 OA
BRANCH  68  69
ATOM     69  C   UNL A   1      30.125  26.248  23.633  1.00  0.00     0.202 C 
BRANCH  69  70
ATOM     70  C   UNL A   1      29.953  25.885  25.111  1.00  0.00     0.261 C 
BRANCH  70  71
ATOM     71  O   UNL A   1      31.111  25.530  25.900  1.00  0.00    -0.458 OA
BRANCH  71  72
ATOM     72  C   UNL A   1      31.253  24.243  26.309  1.00  0.00     0.359 C 
ATOM     73  O   UNL A   1      30.760  23.796  27.326  1.00  0.00    -0.244 OA
BRANCH  72  74
ATOM     74  C   UNL A   1      32.072  23.408  25.437  1.00  0.00     0.178 A 
ATOM     75  N   UNL A   1      31.548  22.355  24.778  1.00  0.00    -0.164 NA
ATOM     76  C   UNL A   1      33.474  23.482  25.267  1.00  0.00     0.035 A 
ATOM     77  N   UNL A   1      32.603  21.801  24.150  1.00  0.00    -0.260 N 
ATOM     78  C   UNL A   1      33.807  22.375  24.489  1.00  0.00     0.070 A 
ATOM     79  C   UNL A   1      34.491  24.328  25.744  1.00  0.00     0.013 A 
ATOM     80  C   UNL A   1      35.137  22.056  24.186  1.00  0.00     0.028 A 
ATOM     81  C   UNL A   1      35.817  24.037  25.432  1.00  0.00     0.001 A 
ATOM     82  C   UNL A   1      36.133  22.913  24.672  1.00  0.00     0.002 A 
BRANCH  77  83
ATOM     83  C   UNL A   1      32.368  20.713  23.207  1.00  0.00     0.180 C 
BRANCH  83  84
ATOM     84  C   UNL A   1      32.636  19.371  23.854  1.00  0.00    -0.026 A 
ATOM     85  C   UNL A   1      32.841  18.229  23.061  1.00  0.00     0.008 A 
ATOM     86  C   UNL A   1      32.629  19.232  25.252  1.00  0.00     0.008 A 
ATOM     87  C   UNL A   1      33.006  16.975  23.648  1.00  0.00     0.039 A 
ATOM     88  C   UNL A   1      32.808  17.976  25.838  1.00  0.00     0.039 A 
ATOM     89  C   UNL A   1      32.986  16.859  25.031  1.00  0.00     0.123 A 
ATOM     90  F   UNL A   1      33.136  15.654  25.593  1.00  0.00    -0.207 F 
ENDBRANCH  83  84
ENDBRANCH  77  83
ENDBRANCH  72  74
ENDBRANCH  71  72
ENDBRANCH  70  71
ENDBRANCH  69  70
ENDBRANCH  68  69
ENDBRANCH  67  68
ENDBRANCH  66  67
ENDBRANCH   1  66
TORSDOF 22
ENDMDL
MODEL 2
REMARK VINA RESULT:     -10.4      2.461      6.417
REMARK SMILES O=C(OCCOCCOCCOCCOC(=O)c1nn(Cc2ccc(F)cc2)c2ccccc12)c1ccc(-c2c3nc(c(-c4c(F)cccc4F)c4ccc([nH]4)c(-c4c(F)cccc4F)c4nc(c(-c5c(F)cccc5F)c5ccc2[nH]5)C=C4)C=C3)cc1
REMARK SMILES IDX 9 1 8 2 7 3 6 4 5 5 4 6 3 7 2 8 1 9 35 10 36 11 88 12 37 13
REMARK SMILES IDX 87 14 38 15 39 16 40 17 81 18 41 19 86 20 80 21 82 22 42 23
REMARK SMILES IDX 85 24 79 25 78 26 43 28 69 29 52 30 68 31 53 32 56 33 67 34
REMARK SMILES IDX 83 35 54 36 55 37 66 39 84 40 57 41 44 42 45 43 50 44 46 45
REMARK SMILES IDX 47 46 49 47 51 48 48 49 70 50 71 51 76 52 72 53 73 54 75 55
REMARK SMILES IDX 77 56 74 57 58 58 59 59 64 60 60 61 61 62 63 63 65 64 62 65
REMARK SMILES IDX 10 66 11 67 12 68 13 69 14 70 15 71 16 72 17 73 18 74 19 75
REMARK SMILES IDX 34 76 20 77 29 78 33 79 30 80 32 81 31 82 21 83 22 84 23 85
REMARK SMILES IDX 28 86 24 87 27 88 25 89 26 90
REMARK H PARENT 82 27 56 38
REMARK Flexibility Score: inf
ROOT
ATOM      1  O   UNL A   1      31.722  29.951  24.549  1.00  0.00    -0.377 OA
ENDROOT
BRANCH   1   2
ATOM      2  C   UNL A   1      32.105  29.149  25.668  1.00  0.00     0.188 C 
BRANCH   2   3
ATOM      3  C   UNL A   1      32.011  29.895  27.001  1.00  0.00     0.188 C 
BRANCH   3   4
ATOM      4  O   UNL A   1      32.736  31.117  26.907  1.00  0.00    -0.376 OA
BRANCH   4   5
ATOM      5  C   UNL A   1      33.735  31.321  27.897  1.00  0.00     0.202 C 
BRANCH   5   6
ATOM      6  C   UNL A   1      35.072  30.746  27.429  1.00  0.00     0.261 C 
BRANCH   6   7
ATOM      7  O   UNL A   1      35.456  29.622  28.243  1.00  0.00    -0.460 OA
BRANCH   7   8
ATOM      8  C   UNL A   1      36.274  29.935  29.282  1.00  0.00     0.338 C 
ATOM      9  O   UNL A   1      35.979  30.652  30.222  1.00  0.00    -0.246 OA
BRANCH   8  10
ATOM     10  C   UNL A   1      37.626  29.366  29.016  1.00  0.00     0.060 A 
ATOM     11  C   UNL A   1      38.293  29.719  27.839  1.00  0.00     0.016 A 
ATOM     12  C   UNL A   1      38.174  28.388  29.866  1.00  0.00     0.016 A 
ATOM     13  C   UNL A   1      39.498  29.093  27.522  1.00  0.00     0.010 A 
ATOM     14  C   UNL A   1      39.358  27.743  29.536  1.00  0.00     0.010 A 
ATOM     15  C   UNL A   1      40.031  28.108  28.373  1.00  0.00    -0.014 A 
BRANCH  15  16
ATOM     16  C   UNL A   1      41.434  27.719  28.212  1.00  0.00     0.031 A 
ATOM     17  C   UNL A   1      41.560  26.401  27.596  1.00  0.00     0.074 A 
ATOM     18  C   UNL A   1      42.545  28.429  28.500  1.00  0.00     0.049 A 
ATOM     19  N   UNL A   1      41.882  25.320  28.220  1.00  0.00    -0.248 NA
ATOM     20  C   UNL A   1      41.173  26.219  26.191  1.00  0.00     0.031 C 
ATOM     21  C   UNL A   1      42.507  29.792  28.975  1.00  0.00     0.029 A 
ATOM     22  N   UNL A   1      43.899  28.158  28.419  1.00  0.00    -0.354 N 
ATOM     23  C   UNL A   1      42.110  24.416  27.208  1.00  0.00     0.074 A 
ATOM     24  C   UNL A   1      41.449  24.923  26.027  1.00  0.00     0.031 C 
ATOM     25  C   UNL A   1      43.752  30.275  29.115  1.00  0.00     0.029 A 
ATOM     26  C   UNL A   1      44.704  29.256  28.725  1.00  0.00     0.049 A 
ATOM     27  H   UNL A   1      44.260  27.275  28.173  1.00  0.00     0.167 HD
ATOM     28  C   UNL A   1      43.195  23.612  27.317  1.00  0.00     0.037 A 
ATOM     29  C   UNL A   1      46.054  29.410  28.741  1.00  0.00     0.037 A 
ATOM     30  C   UNL A   1      43.684  23.505  28.669  1.00  0.00     0.049 A 
ATOM     31  C   UNL A   1      46.646  28.119  29.155  1.00  0.00     0.074 A 
ATOM     32  C   UNL A   1      43.252  22.915  29.837  1.00  0.00     0.029 A 
ATOM     33  N   UNL A   1      44.649  24.411  29.015  1.00  0.00    -0.354 N 
ATOM     34  N   UNL A   1      46.569  27.656  30.374  1.00  0.00    -0.248 NA
ATOM     35  C   UNL A   1      47.097  27.158  28.153  1.00  0.00     0.031 C 
ATOM     36  C   UNL A   1      43.981  23.518  30.904  1.00  0.00     0.029 A 
ATOM     37  C   UNL A   1      44.848  24.466  30.374  1.00  0.00     0.049 A 
ATOM     38  H   UNL A   1      45.144  24.961  28.365  1.00  0.00     0.167 HD
ATOM     39  C   UNL A   1      46.478  26.292  30.196  1.00  0.00     0.074 A 
ATOM     40  C   UNL A   1      47.001  26.033  28.864  1.00  0.00     0.031 C 
ATOM     41  C   UNL A   1      45.628  25.541  30.951  1.00  0.00     0.037 A 
BRANCH  28  42
ATOM     42  C   UNL A   1      44.086  23.364  26.142  1.00  0.00     0.057 A 
ATOM     43  C   UNL A   1      44.941  24.350  25.602  1.00  0.00     0.134 A 
ATOM     44  C   UNL A   1      44.297  22.057  25.704  1.00  0.00     0.134 A 
ATOM     45  F   UNL A   1      44.963  25.605  26.073  1.00  0.00    -0.206 F 
ATOM     46  C   UNL A   1      45.890  24.064  24.623  1.00  0.00     0.040 A 
ATOM     47  C   UNL A   1      45.287  21.748  24.767  1.00  0.00     0.040 A 
ATOM     48  F   UNL A   1      43.588  21.042  26.222  1.00  0.00    -0.206 F 
ATOM     49  C   UNL A   1      46.076  22.753  24.213  1.00  0.00     0.006 A 
ENDBRANCH  28  42
BRANCH  29  50
ATOM     50  C   UNL A   1      46.841  30.667  28.610  1.00  0.00     0.057 A 
ATOM     51  C   UNL A   1      47.307  31.363  29.745  1.00  0.00     0.134 A 
ATOM     52  C   UNL A   1      46.995  31.343  27.390  1.00  0.00     0.134 A 
ATOM     53  F   UNL A   1      47.129  30.878  30.981  1.00  0.00    -0.206 F 
ATOM     54  C   UNL A   1      47.910  32.624  29.672  1.00  0.00     0.040 A 
ATOM     55  C   UNL A   1      47.579  32.617  27.304  1.00  0.00     0.040 A 
ATOM     56  F   UNL A   1      46.532  30.814  26.248  1.00  0.00    -0.206 F 
ATOM     57  C   UNL A   1      48.037  33.263  28.448  1.00  0.00     0.006 A 
ENDBRANCH  29  50
BRANCH  41  58
ATOM     58  C   UNL A   1      45.414  25.934  32.381  1.00  0.00     0.057 A 
ATOM     59  C   UNL A   1      44.304  26.742  32.673  1.00  0.00     0.134 A 
ATOM     60  C   UNL A   1      46.241  25.590  33.457  1.00  0.00     0.134 A 
ATOM     61  F   UNL A   1      43.468  27.123  31.693  1.00  0.00    -0.206 F 
ATOM     62  C   UNL A   1      44.027  27.196  33.964  1.00  0.00     0.040 A 
ATOM     63  C   UNL A   1      45.945  26.002  34.765  1.00  0.00     0.040 A 
ATOM     64  F   UNL A   1      47.365  24.881  33.280  1.00  0.00    -0.206 F 
ATOM     65  C   UNL A   1      44.846  26.817  35.019  1.00  0.00     0.006 A 
ENDBRANCH  41  58
ENDBRANCH  15  16
ENDBRANCH   8  10
ENDBRANCH   7   8
ENDBRANCH   6   7
ENDBRANCH   5   6
ENDBRANCH   4   5
ENDBRANCH   3   4
ENDBRANCH   2   3
ENDBRANCH   1   2
BRANCH   1  66
ATOM     66  C   UNL A   1      30.469  29.628  23.934  1.00  0.00     0.188 C 
BRANCH  66  67
ATOM     67  C   UNL A   1      30.510  29.310  22.436  1.00  0.00     0.188 C 
BRANCH  67  68
ATOM     68  O   UNL A   1      30.140  27.954  22.201  1.00  0.00    -0.376 OA
BRANCH  68  69
ATOM     69  C   UNL A   1      29.373  27.364  23.234  1.00  0.00     0.202 C 
BRANCH  69  70
ATOM     70  C   UNL A   1      29.935  25.975  23.555  1.00  0.00     0.261 C 
BRANCH  70  71
ATOM     71  O   UNL A   1      31.214  25.579  23.010  1.00  0.00    -0.458 OA
BRANCH  71  72
ATOM     72  C   UNL A   1      32.319  25.689  23.793  1.00  0.00     0.359 C 
ATOM     73  O   UNL A   1      32.629  26.699  24.390  1.00  0.00    -0.244 OA
BRANCH  72  74
ATOM     74  C   UNL A   1      33.146  24.489  23.860  1.00  0.00     0.178 A 
ATOM     75  N   UNL A   1      34.333  24.415  23.223  1.00  0.00    -0.164 NA
ATOM     76  C   UNL A   1      32.795  23.249  24.445  1.00  0.00     0.035 A 
ATOM     77  N   UNL A   1      34.754  23.157  23.453  1.00  0.00    -0.260 N 
ATOM     78  C   UNL A   1      33.822  22.375  24.096  1.00  0.00     0.070 A 
ATOM     79  C   UNL A   1      31.689  22.770  25.170  1.00  0.00     0.013 A 
ATOM     80  C   UNL A   1      33.777  21.014  24.422  1.00  0.00     0.028 A 
ATOM     81  C   UNL A   1      31.641  21.423  25.521  1.00  0.00     0.001 A 
ATOM     82  C   UNL A   1      32.667  20.559  25.145  1.00  0.00     0.002 A 
BRANCH  77  83
ATOM     83  C   UNL A   1      36.098  22.778  23.031  1.00  0.00     0.180 C 
BRANCH  83  84
ATOM     84  C   UNL A   1      37.011  22.612  24.227  1.00  0.00    -0.026 A 
ATOM     85  C   UNL A   1      37.295  23.707  25.061  1.00  0.00     0.008 A 
ATOM     86  C   UNL A   1      37.633  21.380  24.493  1.00  0.00     0.008 A 
ATOM     87  C   UNL A   1      38.199  23.584  26.115  1.00  0.00     0.039 A 
ATOM     88  C   UNL A   1      38.528  21.256  25.558  1.00  0.00     0.039 A 
ATOM     89  C   UNL A   1      38.809  22.360  26.354  1.00  0.00     0.123 A 
ATOM     90  F   UNL A   1      39.683  22.246  27.361  1.00  0.00    -0.207 F 
ENDBRANCH  83  84
ENDBRANCH  77  83
ENDBRANCH  72  74
ENDBRANCH  71  72
ENDBRANCH  70  71
ENDBRANCH  69  70
ENDBRANCH  68  69
ENDBRANCH  67  68
ENDBRANCH  66  67
ENDBRANCH   1  66
TORSDOF 22
ENDMDL
MODEL 3
REMARK VINA RESULT:      -9.9      2.857      7.825
REMARK SMILES O=C(OCCOCCOCCOCCOC(=O)c1nn(Cc2ccc(F)cc2)c2ccccc12)c1ccc(-c2c3nc(c(-c4c(F)cccc4F)c4ccc([nH]4)c(-c4c(F)cccc4F)c4nc(c(-c5c(F)cccc5F)c5ccc2[nH]5)C=C4)C=C3)cc1
REMARK SMILES IDX 9 1 8 2 7 3 6 4 5 5 4 6 3 7 2 8 1 9 35 10 36 11 88 12 37 13
REMARK SMILES IDX 87 14 38 15 39 16 40 17 81 18 41 19 86 20 80 21 82 22 42 23
REMARK SMILES IDX 85 24 79 25 78 26 43 28 69 29 52 30 68 31 53 32 56 33 67 34
REMARK SMILES IDX 83 35 54 36 55 37 66 39 84 40 57 41 44 42 45 43 50 44 46 45
REMARK SMILES IDX 47 46 49 47 51 48 48 49 70 50 71 51 76 52 72 53 73 54 75 55
REMARK SMILES IDX 77 56 74 57 58 58 59 59 64 60 60 61 61 62 63 63 65 64 62 65
REMARK SMILES IDX 10 66 11 67 12 68 13 69 14 70 15 71 16 72 17 73 18 74 19 75
REMARK SMILES IDX 34 76 20 77 29 78 33 79 30 80 32 81 31 82 21 83 22 84 23 85
REMARK SMILES IDX 28 86 24 87 27 88 25 89 26 90
REMARK H PARENT 82 27 56 38
REMARK Flexibility Score: inf
ROOT
ATOM      1  O   UNL A   1      34.263  23.217  23.495  1.00  0.00    -0.377 OA
ENDROOT
BRANCH   1   2
ATOM      2  C   UNL A   1      34.493  22.050  24.286  1.00  0.00     0.188 C 
BRANCH   2   3
ATOM      3  C   UNL A   1      34.967  22.370  25.705  1.00  0.00     0.188 C 
BRANCH   3   4
ATOM      4  O   UNL A   1      36.290  21.876  25.881  1.00  0.00    -0.376 OA
BRANCH   4   5
ATOM      5  C   UNL A   1      36.651  20.767  25.070  1.00  0.00     0.202 C 
BRANCH   5   6
ATOM      6  C   UNL A   1      38.134  20.442  25.242  1.00  0.00     0.261 C 
BRANCH   6   7
ATOM      7  O   UNL A   1      38.893  21.641  25.492  1.00  0.00    -0.460 OA
BRANCH   7   8
ATOM      8  C   UNL A   1      39.806  21.528  26.492  1.00  0.00     0.338 C 
ATOM      9  O   UNL A   1      40.244  20.480  26.934  1.00  0.00    -0.246 OA
BRANCH   8  10
ATOM     10  C   UNL A   1      40.085  22.885  27.042  1.00  0.00     0.060 A 
ATOM     11  C   UNL A   1      41.232  23.082  27.817  1.00  0.00     0.016 A 
ATOM     12  C   UNL A   1      39.150  23.926  26.898  1.00  0.00     0.016 A 
ATOM     13  C   UNL A   1      41.433  24.313  28.440  1.00  0.00     0.010 A 
ATOM     14  C   UNL A   1      39.334  25.141  27.543  1.00  0.00     0.010 A 
ATOM     15  C   UNL A   1      40.485  25.342  28.300  1.00  0.00    -0.014 A 
BRANCH  15  16
ATOM     16  C   UNL A   1      40.868  26.710  28.661  1.00  0.00     0.031 A 
ATOM     17  C   UNL A   1      42.137  27.093  28.047  1.00  0.00     0.074 A 
ATOM     18  C   UNL A   1      40.189  27.609  29.403  1.00  0.00     0.049 A 
ATOM     19  N   UNL A   1      43.263  27.177  28.667  1.00  0.00    -0.248 NA
ATOM     20  C   UNL A   1      42.209  27.278  26.591  1.00  0.00     0.031 C 
ATOM     21  C   UNL A   1      38.866  27.359  29.925  1.00  0.00     0.029 A 
ATOM     22  N   UNL A   1      40.461  28.896  29.828  1.00  0.00    -0.354 N 
ATOM     23  C   UNL A   1      44.089  27.797  27.757  1.00  0.00     0.074 A 
ATOM     24  C   UNL A   1      43.490  27.626  26.453  1.00  0.00     0.031 C 
ATOM     25  C   UNL A   1      38.401  28.445  30.566  1.00  0.00     0.029 A 
ATOM     26  C   UNL A   1      39.393  29.497  30.498  1.00  0.00     0.049 A 
ATOM     27  H   UNL A   1      41.324  29.346  29.676  1.00  0.00     0.167 HD
ATOM     28  C   UNL A   1      44.905  28.776  28.215  1.00  0.00     0.037 A 
ATOM     29  C   UNL A   1      39.249  30.734  31.041  1.00  0.00     0.037 A 
ATOM     30  C   UNL A   1      45.117  28.713  29.639  1.00  0.00     0.049 A 
ATOM     31  C   UNL A   1      40.571  31.153  31.556  1.00  0.00     0.074 A 
ATOM     32  C   UNL A   1      45.792  27.881  30.507  1.00  0.00     0.029 A 
ATOM     33  N   UNL A   1      44.246  29.450  30.393  1.00  0.00    -0.354 N 
ATOM     34  N   UNL A   1      41.125  30.627  32.615  1.00  0.00    -0.248 NA
ATOM     35  C   UNL A   1      41.455  31.976  30.736  1.00  0.00     0.031 C 
ATOM     36  C   UNL A   1      45.276  28.132  31.812  1.00  0.00     0.029 A 
ATOM     37  C   UNL A   1      44.296  29.113  31.725  1.00  0.00     0.049 A 
ATOM     38  H   UNL A   1      43.651  30.143  30.024  1.00  0.00     0.167 HD
ATOM     39  C   UNL A   1      42.470  30.643  32.318  1.00  0.00     0.074 A 
ATOM     40  C   UNL A   1      42.630  31.642  31.273  1.00  0.00     0.031 C 
ATOM     41  C   UNL A   1      43.272  29.587  32.633  1.00  0.00     0.037 A 
BRANCH  28  42
ATOM     42  C   UNL A   1      45.068  30.055  27.457  1.00  0.00     0.057 A 
ATOM     43  C   UNL A   1      44.037  31.011  27.327  1.00  0.00     0.134 A 
ATOM     44  C   UNL A   1      46.345  30.468  27.073  1.00  0.00     0.134 A 
ATOM     45  F   UNL A   1      42.811  30.802  27.827  1.00  0.00    -0.206 F 
ATOM     46  C   UNL A   1      44.248  32.270  26.770  1.00  0.00     0.040 A 
ATOM     47  C   UNL A   1      46.580  31.750  26.570  1.00  0.00     0.040 A 
ATOM     48  F   UNL A   1      47.401  29.657  27.236  1.00  0.00    -0.206 F 
ATOM     49  C   UNL A   1      45.529  32.649  26.402  1.00  0.00     0.006 A 
ENDBRANCH  28  42
BRANCH  29  50
ATOM     50  C   UNL A   1      37.990  31.481  31.313  1.00  0.00     0.057 A 
ATOM     51  C   UNL A   1      37.515  32.470  30.426  1.00  0.00     0.134 A 
ATOM     52  C   UNL A   1      37.312  31.405  32.539  1.00  0.00     0.134 A 
ATOM     53  F   UNL A   1      38.136  32.718  29.264  1.00  0.00    -0.206 F 
ATOM     54  C   UNL A   1      36.429  33.300  30.720  1.00  0.00     0.040 A 
ATOM     55  C   UNL A   1      36.233  32.246  32.856  1.00  0.00     0.040 A 
ATOM     56  F   UNL A   1      37.711  30.551  33.493  1.00  0.00    -0.206 F 
ATOM     57  C   UNL A   1      35.789  33.200  31.946  1.00  0.00     0.006 A 
ENDBRANCH  29  50
BRANCH  41  58
ATOM     58  C   UNL A   1      42.987  28.833  33.896  1.00  0.00     0.057 A 
ATOM     59  C   UNL A   1      43.763  29.141  35.025  1.00  0.00     0.134 A 
ATOM     60  C   UNL A   1      42.029  27.823  34.048  1.00  0.00     0.134 A 
ATOM     61  F   UNL A   1      44.709  30.091  34.956  1.00  0.00    -0.206 F 
ATOM     62  C   UNL A   1      43.607  28.478  36.244  1.00  0.00     0.040 A 
ATOM     63  C   UNL A   1      41.834  27.183  35.281  1.00  0.00     0.040 A 
ATOM     64  F   UNL A   1      41.283  27.402  33.017  1.00  0.00    -0.206 F 
ATOM     65  C   UNL A   1      42.631  27.500  36.378  1.00  0.00     0.006 A 
ENDBRANCH  41  58
ENDBRANCH  15  16
ENDBRANCH   8  10
ENDBRANCH   7   8
ENDBRANCH   6   7
ENDBRANCH   5   6
ENDBRANCH   4   5
ENDBRANCH   3   4
ENDBRANCH   2   3
ENDBRANCH   1   2
BRANCH   1  66
ATOM     66  C   UNL A   1      34.797  24.445  24.004  1.00  0.00     0.188 C 
BRANCH  66  67
ATOM     67  C   UNL A   1      33.812  25.612  24.131  1.00  0.00     0.188 C 
BRANCH  67  68
ATOM     68  O   UNL A   1      33.666  26.000  25.494  1.00  0.00    -0.376 OA
BRANCH  68  69
ATOM     69  C   UNL A   1      33.779  27.391  25.728  1.00  0.00     0.202 C 
BRANCH  69  70
ATOM     70  C   UNL A   1      34.037  28.111  24.401  1.00  0.00     0.261 C 
BRANCH  70  71
ATOM     71  O   UNL A   1      33.380  29.370  24.132  1.00  0.00    -0.458 OA
BRANCH  71  72
ATOM     72  C   UNL A   1      32.301  29.717  24.880  1.00  0.00     0.359 C 
ATOM     73  O   UNL A   1      32.365  30.380  25.896  1.00  0.00    -0.244 OA
BRANCH  72  74
ATOM     74  C   UNL A   1      31.024  29.216  24.385  1.00  0.00     0.178 A 
ATOM     75  N   UNL A   1      30.816  27.899  24.181  1.00  0.00    -0.164 NA
ATOM     76  C   UNL A   1      29.926  29.989  23.940  1.00  0.00     0.035 A 
ATOM     77  N   UNL A   1      29.574  27.837  23.663  1.00  0.00    -0.260 N 
ATOM     78  C   UNL A   1      29.028  29.072  23.399  1.00  0.00     0.070 A 
ATOM     79  C   UNL A   1      29.636  31.364  23.881  1.00  0.00     0.013 A 
ATOM     80  C   UNL A   1      27.846  29.478  22.766  1.00  0.00     0.028 A 
ATOM     81  C   UNL A   1      28.454  31.782  23.275  1.00  0.00     0.001 A 
ATOM     82  C   UNL A   1      27.578  30.852  22.719  1.00  0.00     0.002 A 
BRANCH  77  83
ATOM     83  C   UNL A   1      28.962  26.528  23.463  1.00  0.00     0.180 C 
BRANCH  83  84
ATOM     84  C   UNL A   1      29.750  25.450  24.176  1.00  0.00    -0.026 A 
ATOM     85  C   UNL A   1      30.335  24.400  23.447  1.00  0.00     0.008 A 
ATOM     86  C   UNL A   1      29.864  25.448  25.576  1.00  0.00     0.008 A 
ATOM     87  C   UNL A   1      30.991  23.359  24.101  1.00  0.00     0.039 A 
ATOM     88  C   UNL A   1      30.534  24.409  26.228  1.00  0.00     0.039 A 
ATOM     89  C   UNL A   1      31.084  23.371  25.486  1.00  0.00     0.123 A 
ATOM     90  F   UNL A   1      31.706  22.366  26.113  1.00  0.00    -0.207 F 
ENDBRANCH  83  84
ENDBRANCH  77  83
ENDBRANCH  72  74
ENDBRANCH  71  72
ENDBRANCH  70  71
ENDBRANCH  69  70
ENDBRANCH  68  69
ENDBRANCH  67  68
ENDBRANCH  66  67
ENDBRANCH   1  66
TORSDOF 22
ENDMDL
