MODEL 1
REMARK VINA RESULT:     -11.5      0.000      0.000
REMARK SMILES O=C(COc1ccc(Cl)c2ccccc12)N[C@@H](Cc1c[nH]c2ccccc12)C(=O)OCCOCCOCCOCCOC(=O)c1ccc(-c2c3nc(c(-c4c(F)cccc4F)c4ccc([nH]4)c(-c4c(F)cccc4F)c4nc(c(-c5c(F)cccc5F)c5ccc2[nH]5)C=C4)C=C3)cc1
REMARK SMILES IDX 35 1 34 2 33 3 32 4 31 5 30 6 28 7 29 8 17 9 16 10 1 11 2 12
REMARK SMILES IDX 3 14 4 15 5 16 6 17 15 18 7 19 10 20 14 21 8 22 11 23 13 24
REMARK SMILES IDX 9 25 12 26 18 27 19 28 20 29 27 30 21 31 22 32 26 33 23 35
REMARK SMILES IDX 25 36 24 37 36 38 37 39 38 40 39 41 40 42 41 43 42 44 43 45
REMARK SMILES IDX 44 46 45 47 46 48 98 49 47 50 97 51 48 52 49 53 50 54 91 55
REMARK SMILES IDX 51 56 96 57 90 58 92 59 52 60 95 61 89 62 88 63 53 65 79 66
REMARK SMILES IDX 62 67 78 68 63 69 66 70 77 71 93 72 64 73 65 74 76 76 94 77
REMARK SMILES IDX 67 78 54 79 55 80 60 81 56 82 57 83 59 84 61 85 58 86 80 87
REMARK SMILES IDX 81 88 86 89 82 90 83 91 85 92 87 93 84 94 68 95 69 96 74 97
REMARK SMILES IDX 70 98 71 99 73 100 75 101 72 102
REMARK H PARENT 16 13 21 34 92 64 66 75
REMARK Flexibility Score: inf
ROOT
ATOM      1  C   UNL A   1      34.597  31.619  28.281  1.00  0.00     0.188 C 
ENDROOT
BRANCH   1   2
ATOM      2  C   UNL A   1      35.014  30.410  27.433  1.00  0.00     0.188 C 
BRANCH   2   3
ATOM      3  O   UNL A   1      34.102  29.308  27.422  1.00  0.00    -0.376 OA
BRANCH   3   4
ATOM      4  C   UNL A   1      32.721  29.618  27.243  1.00  0.00     0.202 C 
BRANCH   4   5
ATOM      5  C   UNL A   1      31.845  28.393  27.428  1.00  0.00     0.261 C 
BRANCH   5   6
ATOM      6  O   UNL A   1      32.319  27.350  26.559  1.00  0.00    -0.462 OA
BRANCH   6   7
ATOM      7  C   UNL A   1      31.358  26.603  25.965  1.00  0.00     0.329 C 
ATOM      8  O   UNL A   1      30.722  25.717  26.529  1.00  0.00    -0.250 OA
BRANCH   7   9
ATOM      9  C   UNL A   1      31.331  26.801  24.445  1.00  0.00     0.196 C 
BRANCH   9  10
ATOM     10  N   UNL A   1      31.602  25.702  23.506  1.00  0.00    -0.339 N 
ATOM     11  O   UNL A   1      33.678  26.459  22.943  1.00  0.00    -0.271 OA
ATOM     12  C   UNL A   1      32.754  25.672  22.751  1.00  0.00     0.258 C 
ATOM     13  H   UNL A   1      30.946  24.973  23.414  1.00  0.00     0.164 HD
BRANCH  12  14
ATOM     14  C   UNL A   1      32.781  24.641  21.606  1.00  0.00     0.329 C 
BRANCH  14  15
ATOM     15  O   UNL A   1      33.723  23.584  21.721  1.00  0.00    -0.483 OA
BRANCH  15  16
ATOM     16  C   UNL A   1      33.501  22.677  22.736  1.00  0.00     0.128 A 
ATOM     17  C   UNL A   1      32.319  21.937  22.807  1.00  0.00     0.048 A 
ATOM     18  C   UNL A   1      34.569  22.405  23.633  1.00  0.00     0.025 A 
ATOM     19  C   UNL A   1      32.180  20.917  23.742  1.00  0.00     0.025 A 
ATOM     20  C   UNL A   1      34.432  21.356  24.588  1.00  0.00     0.004 A 
ATOM     21  C   UNL A   1      35.786  23.123  23.597  1.00  0.00     0.012 A 
ATOM     22  C   UNL A   1      33.224  20.620  24.614  1.00  0.00     0.049 A 
ATOM     23  C   UNL A   1      35.534  21.054  25.426  1.00  0.00     0.010 A 
ATOM     24  C   UNL A   1      36.854  22.804  24.439  1.00  0.00     0.001 A 
ATOM     25  Cl  UNL A   1      32.983  19.266  25.670  1.00  0.00    -0.084 Cl
ATOM     26  C   UNL A   1      36.733  21.760  25.343  1.00  0.00     0.001 A 
ENDBRANCH  15  16
ENDBRANCH  14  15
ENDBRANCH  12  14
ENDBRANCH   9  10
BRANCH   9  27
ATOM     27  C   UNL A   1      30.021  27.514  24.102  1.00  0.00     0.074 C 
BRANCH  27  28
ATOM     28  C   UNL A   1      29.996  28.750  23.225  1.00  0.00    -0.020 A 
ATOM     29  C   UNL A   1      30.962  28.917  22.243  1.00  0.00     0.087 A 
ATOM     30  C   UNL A   1      29.119  29.897  23.110  1.00  0.00     0.003 A 
ATOM     31  N   UNL A   1      30.709  30.059  21.547  1.00  0.00    -0.361 N 
ATOM     32  C   UNL A   1      29.592  30.677  22.046  1.00  0.00     0.046 A 
ATOM     33  C   UNL A   1      27.970  30.389  23.772  1.00  0.00     0.010 A 
ATOM     34  H   UNL A   1      31.248  30.392  20.794  1.00  0.00     0.166 HD
ATOM     35  C   UNL A   1      28.981  31.864  21.621  1.00  0.00     0.026 A 
ATOM     36  C   UNL A   1      27.350  31.581  23.374  1.00  0.00     0.001 A 
ATOM     37  C   UNL A   1      27.849  32.302  22.301  1.00  0.00     0.002 A 
ENDBRANCH  27  28
ENDBRANCH   9  27
ENDBRANCH   7   9
ENDBRANCH   6   7
ENDBRANCH   5   6
ENDBRANCH   4   5
ENDBRANCH   3   4
ENDBRANCH   2   3
ENDBRANCH   1   2
BRANCH   1  38
ATOM     38  O   UNL A   1      34.336  32.874  27.650  1.00  0.00    -0.377 OA
BRANCH  38  39
ATOM     39  C   UNL A   1      33.304  33.717  28.154  1.00  0.00     0.188 C 
BRANCH  39  40
ATOM     40  C   UNL A   1      33.860  34.901  28.947  1.00  0.00     0.188 C 
BRANCH  40  41
ATOM     41  O   UNL A   1      33.748  34.795  30.368  1.00  0.00    -0.376 OA
BRANCH  41  42
ATOM     42  C   UNL A   1      34.828  34.151  31.042  1.00  0.00     0.202 C 
BRANCH  42  43
ATOM     43  C   UNL A   1      34.434  33.100  32.081  1.00  0.00     0.261 C 
BRANCH  43  44
ATOM     44  O   UNL A   1      35.179  31.880  31.964  1.00  0.00    -0.460 OA
BRANCH  44  45
ATOM     45  C   UNL A   1      36.295  31.813  32.706  1.00  0.00     0.338 C 
ATOM     46  O   UNL A   1      36.505  32.339  33.801  1.00  0.00    -0.246 OA
BRANCH  45  47
ATOM     47  C   UNL A   1      37.297  30.978  32.032  1.00  0.00     0.060 A 
ATOM     48  C   UNL A   1      38.435  30.548  32.726  1.00  0.00     0.016 A 
ATOM     49  C   UNL A   1      37.189  30.776  30.655  1.00  0.00     0.016 A 
ATOM     50  C   UNL A   1      39.491  29.963  32.035  1.00  0.00     0.010 A 
ATOM     51  C   UNL A   1      38.247  30.183  29.962  1.00  0.00     0.010 A 
ATOM     52  C   UNL A   1      39.421  29.824  30.644  1.00  0.00    -0.014 A 
BRANCH  52  53
ATOM     53  C   UNL A   1      40.654  29.506  29.891  1.00  0.00     0.031 A 
ATOM     54  C   UNL A   1      40.816  28.120  29.333  1.00  0.00     0.074 A 
ATOM     55  C   UNL A   1      41.581  30.449  29.659  1.00  0.00     0.049 A 
ATOM     56  N   UNL A   1      41.802  27.617  28.636  1.00  0.00    -0.248 NA
ATOM     57  C   UNL A   1      39.712  27.180  29.582  1.00  0.00     0.031 C 
ATOM     58  C   UNL A   1      41.484  31.843  30.081  1.00  0.00     0.029 A 
ATOM     59  N   UNL A   1      42.784  30.375  29.007  1.00  0.00    -0.354 N 
ATOM     60  C   UNL A   1      41.435  26.305  28.362  1.00  0.00     0.074 A 
ATOM     61  C   UNL A   1      40.154  26.079  28.994  1.00  0.00     0.031 C 
ATOM     62  C   UNL A   1      42.593  32.494  29.693  1.00  0.00     0.029 A 
ATOM     63  C   UNL A   1      43.482  31.557  29.011  1.00  0.00     0.049 A 
ATOM     64  H   UNL A   1      43.116  29.554  28.577  1.00  0.00     0.167 HD
ATOM     65  C   UNL A   1      42.103  25.378  27.638  1.00  0.00     0.037 A 
ATOM     66  C   UNL A   1      44.705  31.840  28.526  1.00  0.00     0.037 A 
ATOM     67  C   UNL A   1      43.380  25.608  27.018  1.00  0.00     0.049 A 
ATOM     68  C   UNL A   1      45.477  30.760  27.819  1.00  0.00     0.074 A 
ATOM     69  C   UNL A   1      44.139  24.742  26.253  1.00  0.00     0.029 A 
ATOM     70  N   UNL A   1      44.090  26.797  27.106  1.00  0.00    -0.354 N 
ATOM     71  N   UNL A   1      45.116  29.528  27.548  1.00  0.00    -0.248 NA
ATOM     72  C   UNL A   1      46.823  31.110  27.346  1.00  0.00     0.031 C 
ATOM     73  C   UNL A   1      45.332  25.393  25.916  1.00  0.00     0.029 A 
ATOM     74  C   UNL A   1      45.296  26.677  26.436  1.00  0.00     0.049 A 
ATOM     75  H   UNL A   1      43.783  27.605  27.575  1.00  0.00     0.167 HD
ATOM     76  C   UNL A   1      46.173  28.965  26.846  1.00  0.00     0.074 A 
ATOM     77  C   UNL A   1      47.190  29.992  26.731  1.00  0.00     0.031 C 
ATOM     78  C   UNL A   1      46.291  27.715  26.335  1.00  0.00     0.037 A 
BRANCH  65  79
ATOM     79  C   UNL A   1      41.473  24.022  27.519  1.00  0.00     0.057 A 
ATOM     80  C   UNL A   1      41.929  22.924  28.262  1.00  0.00     0.134 A 
ATOM     81  C   UNL A   1      40.405  23.809  26.641  1.00  0.00     0.134 A 
ATOM     82  F   UNL A   1      42.962  23.057  29.107  1.00  0.00    -0.206 F 
ATOM     83  C   UNL A   1      41.362  21.657  28.112  1.00  0.00     0.040 A 
ATOM     84  C   UNL A   1      39.815  22.551  26.499  1.00  0.00     0.040 A 
ATOM     85  F   UNL A   1      39.922  24.817  25.899  1.00  0.00    -0.206 F 
ATOM     86  C   UNL A   1      40.299  21.469  27.231  1.00  0.00     0.006 A 
ENDBRANCH  65  79
BRANCH  66  87
ATOM     87  C   UNL A   1      45.268  33.203  28.685  1.00  0.00     0.057 A 
ATOM     88  C   UNL A   1      46.076  33.529  29.779  1.00  0.00     0.134 A 
ATOM     89  C   UNL A   1      45.010  34.212  27.749  1.00  0.00     0.134 A 
ATOM     90  F   UNL A   1      46.343  32.610  30.719  1.00  0.00    -0.206 F 
ATOM     91  C   UNL A   1      46.603  34.812  29.942  1.00  0.00     0.040 A 
ATOM     92  C   UNL A   1      45.544  35.494  27.889  1.00  0.00     0.040 A 
ATOM     93  F   UNL A   1      44.244  33.963  26.676  1.00  0.00    -0.206 F 
ATOM     94  C   UNL A   1      46.341  35.797  28.992  1.00  0.00     0.006 A 
ENDBRANCH  66  87
BRANCH  78  95
ATOM     95  C   UNL A   1      47.548  27.403  25.581  1.00  0.00     0.057 A 
ATOM     96  C   UNL A   1      48.671  26.856  26.214  1.00  0.00     0.134 A 
ATOM     97  C   UNL A   1      47.621  27.616  24.199  1.00  0.00     0.134 A 
ATOM     98  F   UNL A   1      48.668  26.642  27.538  1.00  0.00    -0.206 F 
ATOM     99  C   UNL A   1      49.831  26.550  25.500  1.00  0.00     0.040 A 
ATOM    100  C   UNL A   1      48.765  27.292  23.471  1.00  0.00     0.040 A 
ATOM    101  F   UNL A   1      46.576  28.130  23.532  1.00  0.00    -0.206 F 
ATOM    102  C   UNL A   1      49.877  26.761  24.123  1.00  0.00     0.006 A 
ENDBRANCH  78  95
ENDBRANCH  52  53
ENDBRANCH  45  47
ENDBRANCH  44  45
ENDBRANCH  43  44
ENDBRANCH  42  43
ENDBRANCH  41  42
ENDBRANCH  40  41
ENDBRANCH  39  40
ENDBRANCH  38  39
ENDBRANCH   1  38
TORSDOF 26
ENDMDL
MODEL 2
REMARK VINA RESULT:     -11.4      4.596     10.044
REMARK SMILES O=C(COc1ccc(Cl)c2ccccc12)N[C@@H](Cc1c[nH]c2ccccc12)C(=O)OCCOCCOCCOCCOC(=O)c1ccc(-c2c3nc(c(-c4c(F)cccc4F)c4ccc([nH]4)c(-c4c(F)cccc4F)c4nc(c(-c5c(F)cccc5F)c5ccc2[nH]5)C=C4)C=C3)cc1
REMARK SMILES IDX 35 1 34 2 33 3 32 4 31 5 30 6 28 7 29 8 17 9 16 10 1 11 2 12
REMARK SMILES IDX 3 14 4 15 5 16 6 17 15 18 7 19 10 20 14 21 8 22 11 23 13 24
REMARK SMILES IDX 9 25 12 26 18 27 19 28 20 29 27 30 21 31 22 32 26 33 23 35
REMARK SMILES IDX 25 36 24 37 36 38 37 39 38 40 39 41 40 42 41 43 42 44 43 45
REMARK SMILES IDX 44 46 45 47 46 48 98 49 47 50 97 51 48 52 49 53 50 54 91 55
REMARK SMILES IDX 51 56 96 57 90 58 92 59 52 60 95 61 89 62 88 63 53 65 79 66
REMARK SMILES IDX 62 67 78 68 63 69 66 70 77 71 93 72 64 73 65 74 76 76 94 77
REMARK SMILES IDX 67 78 54 79 55 80 60 81 56 82 57 83 59 84 61 85 58 86 80 87
REMARK SMILES IDX 81 88 86 89 82 90 83 91 85 92 87 93 84 94 68 95 69 96 74 97
REMARK SMILES IDX 70 98 71 99 73 100 75 101 72 102
REMARK H PARENT 16 13 21 34 92 64 66 75
REMARK Flexibility Score: inf
ROOT
ATOM      1  C   UNL A   1      40.407  21.418  27.259  1.00  0.00     0.188 C 
ENDROOT
BRANCH   1   2
ATOM      2  C   UNL A   1      39.407  21.793  26.156  1.00  0.00     0.188 C 
BRANCH   2   3
ATOM      3  O   UNL A   1      38.932  23.142  26.173  1.00  0.00    -0.376 OA
BRANCH   3   4
ATOM      4  C   UNL A   1      37.780  23.429  25.382  1.00  0.00     0.202 C 
BRANCH   4   5
ATOM      5  C   UNL A   1      36.508  23.378  26.207  1.00  0.00     0.261 C 
BRANCH   5   6
ATOM      6  O   UNL A   1      35.542  22.566  25.518  1.00  0.00    -0.462 OA
BRANCH   6   7
ATOM      7  C   UNL A   1      34.509  22.120  26.273  1.00  0.00     0.329 C 
ATOM      8  O   UNL A   1      34.637  21.479  27.312  1.00  0.00    -0.250 OA
BRANCH   7   9
ATOM      9  C   UNL A   1      33.163  22.273  25.555  1.00  0.00     0.196 C 
BRANCH   9  10
ATOM     10  N   UNL A   1      32.208  23.339  25.896  1.00  0.00    -0.339 N 
ATOM     11  O   UNL A   1      30.464  21.909  26.236  1.00  0.00    -0.271 OA
ATOM     12  C   UNL A   1      30.880  23.061  26.133  1.00  0.00     0.258 C 
ATOM     13  H   UNL A   1      32.525  24.269  25.957  1.00  0.00     0.164 HD
BRANCH  12  14
ATOM     14  C   UNL A   1      29.937  24.280  26.187  1.00  0.00     0.329 C 
BRANCH  14  15
ATOM     15  O   UNL A   1      30.530  25.531  26.505  1.00  0.00    -0.483 OA
BRANCH  15  16
ATOM     16  C   UNL A   1      30.534  26.477  25.501  1.00  0.00     0.128 A 
ATOM     17  C   UNL A   1      29.898  26.246  24.280  1.00  0.00     0.048 A 
ATOM     18  C   UNL A   1      31.079  27.756  25.792  1.00  0.00     0.025 A 
ATOM     19  C   UNL A   1      29.776  27.267  23.344  1.00  0.00     0.025 A 
ATOM     20  C   UNL A   1      30.950  28.806  24.837  1.00  0.00     0.004 A 
ATOM     21  C   UNL A   1      31.727  28.040  27.016  1.00  0.00     0.012 A 
ATOM     22  C   UNL A   1      30.283  28.534  23.620  1.00  0.00     0.049 A 
ATOM     23  C   UNL A   1      31.438  30.093  25.175  1.00  0.00     0.010 A 
ATOM     24  C   UNL A   1      32.201  29.319  27.319  1.00  0.00     0.001 A 
ATOM     25  Cl  UNL A   1      29.989  29.758  22.427  1.00  0.00    -0.084 Cl
ATOM     26  C   UNL A   1      32.043  30.348  26.404  1.00  0.00     0.001 A 
ENDBRANCH  15  16
ENDBRANCH  14  15
ENDBRANCH  12  14
ENDBRANCH   9  10
BRANCH   9  27
ATOM     27  C   UNL A   1      33.443  22.242  24.051  1.00  0.00     0.074 C 
BRANCH  27  28
ATOM     28  C   UNL A   1      33.335  23.490  23.197  1.00  0.00    -0.020 A 
ATOM     29  C   UNL A   1      32.874  23.394  21.892  1.00  0.00     0.087 A 
ATOM     30  C   UNL A   1      33.576  24.900  23.424  1.00  0.00     0.003 A 
ATOM     31  N   UNL A   1      32.805  24.636  21.342  1.00  0.00    -0.361 N 
ATOM     32  C   UNL A   1      33.221  25.576  22.249  1.00  0.00     0.046 A 
ATOM     33  C   UNL A   1      34.054  25.709  24.481  1.00  0.00     0.010 A 
ATOM     34  H   UNL A   1      32.499  24.832  20.427  1.00  0.00     0.166 HD
ATOM     35  C   UNL A   1      33.299  26.967  22.098  1.00  0.00     0.026 A 
ATOM     36  C   UNL A   1      34.155  27.101  24.349  1.00  0.00     0.001 A 
ATOM     37  C   UNL A   1      33.769  27.720  23.171  1.00  0.00     0.002 A 
ENDBRANCH  27  28
ENDBRANCH   9  27
ENDBRANCH   7   9
ENDBRANCH   6   7
ENDBRANCH   5   6
ENDBRANCH   4   5
ENDBRANCH   3   4
ENDBRANCH   2   3
ENDBRANCH   1   2
BRANCH   1  38
ATOM     38  O   UNL A   1      40.770  20.051  27.455  1.00  0.00    -0.377 OA
BRANCH  38  39
ATOM     39  C   UNL A   1      42.143  19.673  27.424  1.00  0.00     0.188 C 
BRANCH  39  40
ATOM     40  C   UNL A   1      42.546  19.066  26.078  1.00  0.00     0.188 C 
BRANCH  40  41
ATOM     41  O   UNL A   1      42.990  20.002  25.093  1.00  0.00    -0.376 OA
BRANCH  41  42
ATOM     42  C   UNL A   1      44.126  20.793  25.437  1.00  0.00     0.202 C 
BRANCH  42  43
ATOM     43  C   UNL A   1      44.166  22.199  24.837  1.00  0.00     0.261 C 
BRANCH  43  44
ATOM     44  O   UNL A   1      43.320  23.133  25.522  1.00  0.00    -0.460 OA
BRANCH  44  45
ATOM     45  C   UNL A   1      43.712  24.415  25.464  1.00  0.00     0.338 C 
ATOM     46  O   UNL A   1      44.126  25.033  24.482  1.00  0.00    -0.246 OA
BRANCH  45  47
ATOM     47  C   UNL A   1      43.568  25.045  26.783  1.00  0.00     0.060 A 
ATOM     48  C   UNL A   1      42.638  24.543  27.703  1.00  0.00     0.016 A 
ATOM     49  C   UNL A   1      44.231  26.248  27.031  1.00  0.00     0.016 A 
ATOM     50  C   UNL A   1      42.331  25.271  28.848  1.00  0.00     0.010 A 
ATOM     51  C   UNL A   1      43.927  26.976  28.183  1.00  0.00     0.010 A 
ATOM     52  C   UNL A   1      42.938  26.513  29.067  1.00  0.00    -0.014 A 
BRANCH  52  53
ATOM     53  C   UNL A   1      42.379  27.414  30.099  1.00  0.00     0.031 A 
ATOM     54  C   UNL A   1      43.047  27.465  31.444  1.00  0.00     0.074 A 
ATOM     55  C   UNL A   1      41.335  28.212  29.823  1.00  0.00     0.049 A 
ATOM     56  N   UNL A   1      42.741  28.181  32.495  1.00  0.00    -0.248 NA
ATOM     57  C   UNL A   1      44.226  26.603  31.624  1.00  0.00     0.031 C 
ATOM     58  C   UNL A   1      40.669  28.303  28.528  1.00  0.00     0.029 A 
ATOM     59  N   UNL A   1      40.659  29.101  30.617  1.00  0.00    -0.354 N 
ATOM     60  C   UNL A   1      43.690  27.859  33.457  1.00  0.00     0.074 A 
ATOM     61  C   UNL A   1      44.562  26.860  32.879  1.00  0.00     0.031 C 
ATOM     62  C   UNL A   1      39.662  29.188  28.617  1.00  0.00     0.029 A 
ATOM     63  C   UNL A   1      39.606  29.710  29.981  1.00  0.00     0.049 A 
ATOM     64  H   UNL A   1      40.904  29.285  31.552  1.00  0.00     0.167 HD
ATOM     65  C   UNL A   1      43.828  28.361  34.706  1.00  0.00     0.037 A 
ATOM     66  C   UNL A   1      38.698  30.582  30.455  1.00  0.00     0.037 A 
ATOM     67  C   UNL A   1      42.953  29.350  35.276  1.00  0.00     0.049 A 
ATOM     68  C   UNL A   1      38.806  31.044  31.882  1.00  0.00     0.074 A 
ATOM     69  C   UNL A   1      43.008  29.936  36.527  1.00  0.00     0.029 A 
ATOM     70  N   UNL A   1      41.852  29.890  34.626  1.00  0.00    -0.354 N 
ATOM     71  N   UNL A   1      39.717  30.749  32.780  1.00  0.00    -0.248 NA
ATOM     72  C   UNL A   1      37.765  31.963  32.363  1.00  0.00     0.031 C 
ATOM     73  C   UNL A   1      41.912  30.797  36.652  1.00  0.00     0.029 A 
ATOM     74  C   UNL A   1      41.199  30.779  35.462  1.00  0.00     0.049 A 
ATOM     75  H   UNL A   1      41.576  29.673  33.707  1.00  0.00     0.167 HD
ATOM     76  C   UNL A   1      39.379  31.468  33.918  1.00  0.00     0.074 A 
ATOM     77  C   UNL A   1      38.180  32.217  33.597  1.00  0.00     0.031 C 
ATOM     78  C   UNL A   1      40.008  31.513  35.119  1.00  0.00     0.037 A 
BRANCH  65  79
ATOM     79  C   UNL A   1      44.945  27.811  35.542  1.00  0.00     0.057 A 
ATOM     80  C   UNL A   1      46.247  28.325  35.470  1.00  0.00     0.134 A 
ATOM     81  C   UNL A   1      44.718  26.745  36.420  1.00  0.00     0.134 A 
ATOM     82  F   UNL A   1      46.535  29.333  34.634  1.00  0.00    -0.206 F 
ATOM     83  C   UNL A   1      47.289  27.777  36.222  1.00  0.00     0.040 A 
ATOM     84  C   UNL A   1      45.747  26.205  37.194  1.00  0.00     0.040 A 
ATOM     85  F   UNL A   1      43.495  26.207  36.535  1.00  0.00    -0.206 F 
ATOM     86  C   UNL A   1      47.039  26.716  37.090  1.00  0.00     0.006 A 
ENDBRANCH  65  79
BRANCH  66  87
ATOM     87  C   UNL A   1      37.616  31.080  29.571  1.00  0.00     0.057 A 
ATOM     88  C   UNL A   1      36.502  30.287  29.274  1.00  0.00     0.134 A 
ATOM     89  C   UNL A   1      37.670  32.358  29.002  1.00  0.00     0.134 A 
ATOM     90  F   UNL A   1      36.403  29.047  29.774  1.00  0.00    -0.206 F 
ATOM     91  C   UNL A   1      35.484  30.744  28.435  1.00  0.00     0.040 A 
ATOM     92  C   UNL A   1      36.650  32.834  28.176  1.00  0.00     0.040 A 
ATOM     93  F   UNL A   1      38.710  33.168  29.250  1.00  0.00    -0.206 F 
ATOM     94  C   UNL A   1      35.554  32.023  27.887  1.00  0.00     0.006 A 
ENDBRANCH  66  87
BRANCH  78  95
ATOM     95  C   UNL A   1      39.426  32.423  36.158  1.00  0.00     0.057 A 
ATOM     96  C   UNL A   1      39.882  33.736  36.327  1.00  0.00     0.134 A 
ATOM     97  C   UNL A   1      38.372  31.991  36.973  1.00  0.00     0.134 A 
ATOM     98  F   UNL A   1      40.898  34.204  35.587  1.00  0.00    -0.206 F 
ATOM     99  C   UNL A   1      39.320  34.582  37.285  1.00  0.00     0.040 A 
ATOM    100  C   UNL A   1      37.787  32.835  37.916  1.00  0.00     0.040 A 
ATOM    101  F   UNL A   1      37.885  30.746  36.854  1.00  0.00    -0.206 F 
ATOM    102  C   UNL A   1      38.265  34.134  38.078  1.00  0.00     0.006 A 
ENDBRANCH  78  95
ENDBRANCH  52  53
ENDBRANCH  45  47
ENDBRANCH  44  45
ENDBRANCH  43  44
ENDBRANCH  42  43
ENDBRANCH  41  42
ENDBRANCH  40  41
ENDBRANCH  39  40
ENDBRANCH  38  39
ENDBRANCH   1  38
TORSDOF 26
ENDMDL
MODEL 3
REMARK VINA RESULT:     -11.3      4.478      9.747
REMARK SMILES O=C(COc1ccc(Cl)c2ccccc12)N[C@@H](Cc1c[nH]c2ccccc12)C(=O)OCCOCCOCCOCCOC(=O)c1ccc(-c2c3nc(c(-c4c(F)cccc4F)c4ccc([nH]4)c(-c4c(F)cccc4F)c4nc(c(-c5c(F)cccc5F)c5ccc2[nH]5)C=C4)C=C3)cc1
REMARK SMILES IDX 35 1 34 2 33 3 32 4 31 5 30 6 28 7 29 8 17 9 16 10 1 11 2 12
REMARK SMILES IDX 3 14 4 15 5 16 6 17 15 18 7 19 10 20 14 21 8 22 11 23 13 24
REMARK SMILES IDX 9 25 12 26 18 27 19 28 20 29 27 30 21 31 22 32 26 33 23 35
REMARK SMILES IDX 25 36 24 37 36 38 37 39 38 40 39 41 40 42 41 43 42 44 43 45
REMARK SMILES IDX 44 46 45 47 46 48 98 49 47 50 97 51 48 52 49 53 50 54 91 55
REMARK SMILES IDX 51 56 96 57 90 58 92 59 52 60 95 61 89 62 88 63 53 65 79 66
REMARK SMILES IDX 62 67 78 68 63 69 66 70 77 71 93 72 64 73 65 74 76 76 94 77
REMARK SMILES IDX 67 78 54 79 55 80 60 81 56 82 57 83 59 84 61 85 58 86 80 87
REMARK SMILES IDX 81 88 86 89 82 90 83 91 85 92 87 93 84 94 68 95 69 96 74 97
REMARK SMILES IDX 70 98 71 99 73 100 75 101 72 102
REMARK H PARENT 16 13 21 34 92 64 66 75
REMARK Flexibility Score: inf
ROOT
ATOM      1  C   UNL A   1      39.073  22.316  26.137  1.00  0.00     0.188 C 
ENDROOT
BRANCH   1   2
ATOM      2  C   UNL A   1      38.374  23.678  26.252  1.00  0.00     0.188 C 
BRANCH   2   3
ATOM      3  O   UNL A   1      37.054  23.752  25.706  1.00  0.00    -0.376 OA
BRANCH   3   4
ATOM      4  C   UNL A   1      36.889  23.313  24.359  1.00  0.00     0.202 C 
BRANCH   4   5
ATOM      5  C   UNL A   1      36.302  21.916  24.294  1.00  0.00     0.261 C 
BRANCH   5   6
ATOM      6  O   UNL A   1      35.266  21.803  25.285  1.00  0.00    -0.462 OA
BRANCH   6   7
ATOM      7  C   UNL A   1      34.318  20.868  25.035  1.00  0.00     0.329 C 
ATOM      8  O   UNL A   1      34.557  19.688  24.794  1.00  0.00    -0.250 OA
BRANCH   7   9
ATOM      9  C   UNL A   1      32.934  21.492  24.826  1.00  0.00     0.196 C 
BRANCH   9  10
ATOM     10  N   UNL A   1      32.462  22.639  25.617  1.00  0.00    -0.339 N 
ATOM     11  O   UNL A   1      30.362  21.801  25.908  1.00  0.00    -0.271 OA
ATOM     12  C   UNL A   1      31.152  22.734  26.031  1.00  0.00     0.258 C 
ATOM     13  H   UNL A   1      33.097  23.354  25.856  1.00  0.00     0.164 HD
BRANCH  12  14
ATOM     14  C   UNL A   1      30.720  24.105  26.588  1.00  0.00     0.329 C 
BRANCH  14  15
ATOM     15  O   UNL A   1      30.247  25.057  25.646  1.00  0.00    -0.483 OA
BRANCH  15  16
ATOM     16  C   UNL A   1      30.624  26.366  25.861  1.00  0.00     0.128 A 
ATOM     17  C   UNL A   1      31.223  26.766  27.057  1.00  0.00     0.048 A 
ATOM     18  C   UNL A   1      30.519  27.277  24.776  1.00  0.00     0.025 A 
ATOM     19  C   UNL A   1      31.739  28.050  27.193  1.00  0.00     0.025 A 
ATOM     20  C   UNL A   1      31.052  28.592  24.910  1.00  0.00     0.004 A 
ATOM     21  C   UNL A   1      29.925  26.918  23.544  1.00  0.00     0.012 A 
ATOM     22  C   UNL A   1      31.666  28.950  26.132  1.00  0.00     0.049 A 
ATOM     23  C   UNL A   1      31.000  29.461  23.792  1.00  0.00     0.010 A 
ATOM     24  C   UNL A   1      29.885  27.799  22.461  1.00  0.00     0.001 A 
ATOM     25  Cl  UNL A   1      32.428  30.488  26.374  1.00  0.00    -0.084 Cl
ATOM     26  C   UNL A   1      30.436  29.066  22.581  1.00  0.00     0.001 A 
ENDBRANCH  15  16
ENDBRANCH  14  15
ENDBRANCH  12  14
ENDBRANCH   9  10
BRANCH   9  27
ATOM     27  C   UNL A   1      32.773  21.750  23.327  1.00  0.00     0.074 C 
BRANCH  27  28
ATOM     28  C   UNL A   1      32.953  23.135  22.736  1.00  0.00    -0.020 A 
ATOM     29  C   UNL A   1      32.680  23.351  21.392  1.00  0.00     0.087 A 
ATOM     30  C   UNL A   1      33.339  24.425  23.269  1.00  0.00     0.003 A 
ATOM     31  N   UNL A   1      32.854  24.669  21.100  1.00  0.00    -0.361 N 
ATOM     32  C   UNL A   1      33.251  25.351  22.221  1.00  0.00     0.046 A 
ATOM     33  C   UNL A   1      33.758  24.943  24.517  1.00  0.00     0.010 A 
ATOM     34  H   UNL A   1      32.714  25.074  20.215  1.00  0.00     0.166 HD
ATOM     35  C   UNL A   1      33.529  26.717  22.365  1.00  0.00     0.026 A 
ATOM     36  C   UNL A   1      34.057  26.303  24.682  1.00  0.00     0.001 A 
ATOM     37  C   UNL A   1      33.931  27.178  23.616  1.00  0.00     0.002 A 
ENDBRANCH  27  28
ENDBRANCH   9  27
ENDBRANCH   7   9
ENDBRANCH   6   7
ENDBRANCH   5   6
ENDBRANCH   4   5
ENDBRANCH   3   4
ENDBRANCH   2   3
ENDBRANCH   1   2
BRANCH   1  38
ATOM     38  O   UNL A   1      39.851  21.822  27.228  1.00  0.00    -0.377 OA
BRANCH  38  39
ATOM     39  C   UNL A   1      41.058  21.110  26.970  1.00  0.00     0.188 C 
BRANCH  39  40
ATOM     40  C   UNL A   1      42.220  21.612  27.829  1.00  0.00     0.188 C 
BRANCH  40  41
ATOM     41  O   UNL A   1      43.440  21.860  27.126  1.00  0.00    -0.376 OA
BRANCH  41  42
ATOM     42  C   UNL A   1      43.527  21.333  25.804  1.00  0.00     0.202 C 
BRANCH  42  43
ATOM     43  C   UNL A   1      43.861  22.342  24.704  1.00  0.00     0.261 C 
BRANCH  43  44
ATOM     44  O   UNL A   1      43.094  23.550  24.789  1.00  0.00    -0.460 OA
BRANCH  44  45
ATOM     45  C   UNL A   1      43.795  24.661  25.066  1.00  0.00     0.338 C 
ATOM     46  O   UNL A   1      44.947  24.930  24.721  1.00  0.00    -0.246 OA
BRANCH  45  47
ATOM     47  C   UNL A   1      42.979  25.585  25.863  1.00  0.00     0.060 A 
ATOM     48  C   UNL A   1      43.365  26.925  25.997  1.00  0.00     0.016 A 
ATOM     49  C   UNL A   1      41.930  25.070  26.626  1.00  0.00     0.016 A 
ATOM     50  C   UNL A   1      42.734  27.739  26.932  1.00  0.00     0.010 A 
ATOM     51  C   UNL A   1      41.294  25.889  27.562  1.00  0.00     0.010 A 
ATOM     52  C   UNL A   1      41.731  27.210  27.752  1.00  0.00    -0.014 A 
BRANCH  52  53
ATOM     53  C   UNL A   1      41.299  27.974  28.943  1.00  0.00     0.031 A 
ATOM     54  C   UNL A   1      42.064  27.800  30.224  1.00  0.00     0.074 A 
ATOM     55  C   UNL A   1      40.283  28.850  28.868  1.00  0.00     0.049 A 
ATOM     56  N   UNL A   1      41.876  28.368  31.387  1.00  0.00    -0.248 NA
ATOM     57  C   UNL A   1      43.205  26.870  30.184  1.00  0.00     0.031 C 
ATOM     58  C   UNL A   1      39.529  29.158  27.656  1.00  0.00     0.029 A 
ATOM     59  N   UNL A   1      39.715  29.642  29.831  1.00  0.00    -0.354 N 
ATOM     60  C   UNL A   1      42.873  27.868  32.214  1.00  0.00     0.074 A 
ATOM     61  C   UNL A   1      43.645  26.927  31.432  1.00  0.00     0.031 C 
ATOM     62  C   UNL A   1      38.581  30.062  27.951  1.00  0.00     0.029 A 
ATOM     63  C   UNL A   1      38.654  30.382  29.375  1.00  0.00     0.049 A 
ATOM     64  H   UNL A   1      40.038  29.677  30.761  1.00  0.00     0.167 HD
ATOM     65  C   UNL A   1      43.129  28.176  33.507  1.00  0.00     0.037 A 
ATOM     66  C   UNL A   1      37.832  31.215  30.040  1.00  0.00     0.037 A 
ATOM     67  C   UNL A   1      42.354  29.108  34.280  1.00  0.00     0.049 A 
ATOM     68  C   UNL A   1      38.070  31.459  31.504  1.00  0.00     0.074 A 
ATOM     69  C   UNL A   1      42.533  29.503  35.592  1.00  0.00     0.029 A 
ATOM     70  N   UNL A   1      41.240  29.785  33.803  1.00  0.00    -0.354 N 
ATOM     71  N   UNL A   1      39.025  30.996  32.275  1.00  0.00    -0.248 NA
ATOM     72  C   UNL A   1      37.118  32.342  32.192  1.00  0.00     0.031 C 
ATOM     73  C   UNL A   1      41.497  30.384  35.926  1.00  0.00     0.029 A 
ATOM     74  C   UNL A   1      40.700  30.570  34.807  1.00  0.00     0.049 A 
ATOM     75  H   UNL A   1      40.886  29.716  32.888  1.00  0.00     0.167 HD
ATOM     76  C   UNL A   1      38.812  31.555  33.527  1.00  0.00     0.074 A 
ATOM     77  C   UNL A   1      37.635  32.395  33.413  1.00  0.00     0.031 C 
ATOM     78  C   UNL A   1      39.528  31.398  34.668  1.00  0.00     0.037 A 
BRANCH  65  79
ATOM     79  C   UNL A   1      44.273  27.462  34.164  1.00  0.00     0.057 A 
ATOM     80  C   UNL A   1      44.128  26.183  34.719  1.00  0.00     0.134 A 
ATOM     81  C   UNL A   1      45.531  28.067  34.255  1.00  0.00     0.134 A 
ATOM     82  F   UNL A   1      42.942  25.556  34.682  1.00  0.00    -0.206 F 
ATOM     83  C   UNL A   1      45.188  25.545  35.366  1.00  0.00     0.040 A 
ATOM     84  C   UNL A   1      46.605  27.429  34.880  1.00  0.00     0.040 A 
ATOM     85  F   UNL A   1      45.737  29.291  33.746  1.00  0.00    -0.206 F 
ATOM     86  C   UNL A   1      46.432  26.167  35.445  1.00  0.00     0.006 A 
ENDBRANCH  65  79
BRANCH  66  87
ATOM     87  C   UNL A   1      36.717  31.883  29.325  1.00  0.00     0.057 A 
ATOM     88  C   UNL A   1      36.807  33.223  28.935  1.00  0.00     0.134 A 
ATOM     89  C   UNL A   1      35.535  31.198  29.015  1.00  0.00     0.134 A 
ATOM     90  F   UNL A   1      37.905  33.936  29.220  1.00  0.00    -0.206 F 
ATOM     91  C   UNL A   1      35.759  33.862  28.270  1.00  0.00     0.040 A 
ATOM     92  C   UNL A   1      34.486  31.819  28.335  1.00  0.00     0.040 A 
ATOM     93  F   UNL A   1      35.387  29.910  29.359  1.00  0.00    -0.206 F 
ATOM     94  C   UNL A   1      34.596  33.158  27.964  1.00  0.00     0.006 A 
ENDBRANCH  66  87
BRANCH  78  95
ATOM     95  C   UNL A   1      39.075  32.171  35.869  1.00  0.00     0.057 A 
ATOM     96  C   UNL A   1      38.235  31.606  36.836  1.00  0.00     0.134 A 
ATOM     97  C   UNL A   1      39.517  33.483  36.080  1.00  0.00     0.134 A 
ATOM     98  F   UNL A   1      37.767  30.358  36.684  1.00  0.00    -0.206 F 
ATOM     99  C   UNL A   1      37.835  32.328  37.962  1.00  0.00     0.040 A 
ATOM    100  C   UNL A   1      39.144  34.206  37.212  1.00  0.00     0.040 A 
ATOM    101  F   UNL A   1      40.331  34.078  35.193  1.00  0.00    -0.206 F 
ATOM    102  C   UNL A   1      38.295  33.629  38.156  1.00  0.00     0.006 A 
ENDBRANCH  78  95
ENDBRANCH  52  53
ENDBRANCH  45  47
ENDBRANCH  44  45
ENDBRANCH  43  44
ENDBRANCH  42  43
ENDBRANCH  41  42
ENDBRANCH  40  41
ENDBRANCH  39  40
ENDBRANCH  38  39
ENDBRANCH   1  38
TORSDOF 26
ENDMDL
