MODEL 1
REMARK VINA RESULT:     -10.0      0.000      0.000
REMARK SMILES COc1ccc(-n2c(=S)[nH]cc(CC(=O)OCCOCCOCCOCCOC(=O)c3ccc(-c4c5nc(c(-c6c(F)cccc6F)c6ccc([nH]6)c(-c6c(F)cccc6F)c6nc(c(-c7c(F)cccc7F)c7ccc4[nH]7)C=C6)C=C5)cc3)c2=O)cc1Cl
REMARK SMILES IDX 21 1 20 2 19 3 18 4 17 5 16 6 14 7 15 8 13 9 12 10 7 11 8 12
REMARK SMILES IDX 85 13 9 14 10 15 86 16 11 17 6 19 3 20 4 21 88 22 5 23 87 24
REMARK SMILES IDX 89 25 2 26 1 27 22 28 23 29 24 30 25 31 26 32 27 33 28 34
REMARK SMILES IDX 29 35 30 36 31 37 32 38 84 39 33 40 83 41 34 42 35 43 36 44
REMARK SMILES IDX 77 45 37 46 82 47 76 48 78 49 38 50 81 51 75 52 74 53 39 55
REMARK SMILES IDX 65 56 48 57 64 58 49 59 52 60 63 61 79 62 50 63 51 64 62 66
REMARK SMILES IDX 80 67 53 68 40 69 41 70 46 71 42 72 43 73 45 74 47 75 44 76
REMARK SMILES IDX 66 77 67 78 72 79 68 80 69 81 71 82 73 83 70 84 54 85 55 86
REMARK SMILES IDX 60 87 56 88 57 89 59 90 61 91 58 92
REMARK H PARENT 10 18 78 54 52 65
REMARK Flexibility Score: inf
ROOT
ATOM      1  C   UNL A   1      34.889  29.962  27.763  1.00  0.00     0.188 C 
ENDROOT
BRANCH   1   2
ATOM      2  C   UNL A   1      33.866  28.966  27.219  1.00  0.00     0.188 C 
BRANCH   2   3
ATOM      3  O   UNL A   1      33.299  29.198  25.948  1.00  0.00    -0.376 OA
BRANCH   3   4
ATOM      4  C   UNL A   1      32.028  29.823  25.839  1.00  0.00     0.202 C 
BRANCH   4   5
ATOM      5  C   UNL A   1      31.065  29.602  24.651  1.00  0.00     0.261 C 
BRANCH   5   6
ATOM      6  O   UNL A   1      31.590  28.949  23.474  1.00  0.00    -0.463 OA
BRANCH   6   7
ATOM      7  C   UNL A   1      31.004  27.773  23.131  1.00  0.00     0.310 C 
ATOM      8  O   UNL A   1      30.581  27.529  22.003  1.00  0.00    -0.252 OA
BRANCH   7   9
ATOM      9  C   UNL A   1      31.016  26.678  24.204  1.00  0.00     0.165 C 
BRANCH   9  10
ATOM     10  C   UNL A   1      32.260  25.903  24.547  1.00  0.00     0.045 A 
ATOM     11  N   UNL A   1      33.312  23.736  25.073  1.00  0.00    -0.253 N 
ATOM     12  C   UNL A   1      34.581  24.338  25.083  1.00  0.00     0.184 A 
ATOM     13  C   UNL A   1      32.123  24.475  24.955  1.00  0.00     0.262 A 
ATOM     14  S   UNL A   1      36.077  23.665  25.440  1.00  0.00    -0.040 S 
ATOM     15  N   UNL A   1      34.604  25.639  24.650  1.00  0.00    -0.338 N 
ATOM     16  O   UNL A   1      30.992  24.010  25.102  1.00  0.00    -0.269 OA
ATOM     17  C   UNL A   1      33.498  26.352  24.314  1.00  0.00     0.095 A 
ATOM     18  H   UNL A   1      35.479  26.085  24.578  1.00  0.00     0.168 HD
BRANCH  11  19
ATOM     19  C   UNL A   1      33.214  22.325  24.844  1.00  0.00     0.053 A 
ATOM     20  C   UNL A   1      32.578  19.606  24.619  1.00  0.00     0.137 A 
ATOM     21  C   UNL A   1      32.912  20.141  25.864  1.00  0.00     0.050 A 
ATOM     22  C   UNL A   1      32.578  20.425  23.483  1.00  0.00     0.085 A 
ATOM     23  C   UNL A   1      33.245  21.489  25.973  1.00  0.00     0.031 A 
ATOM     24  C   UNL A   1      32.904  21.783  23.594  1.00  0.00     0.051 A 
ATOM     25  Cl  UNL A   1      32.092  19.843  21.932  1.00  0.00    -0.080 Cl
BRANCH  20  26
ATOM     26  O   UNL A   1      32.147  18.305  24.631  1.00  0.00    -0.495 OA
ATOM     27  C   UNL A   1      32.664  17.569  25.737  1.00  0.00     0.278 C 
ENDBRANCH  20  26
ENDBRANCH  11  19
ENDBRANCH   9  10
ENDBRANCH   7   9
ENDBRANCH   6   7
ENDBRANCH   5   6
ENDBRANCH   4   5
ENDBRANCH   3   4
ENDBRANCH   2   3
ENDBRANCH   1   2
BRANCH   1  28
ATOM     28  O   UNL A   1      34.806  31.295  27.311  1.00  0.00    -0.377 OA
BRANCH  28  29
ATOM     29  C   UNL A   1      34.316  32.295  28.191  1.00  0.00     0.188 C 
BRANCH  29  30
ATOM     30  C   UNL A   1      34.956  33.690  28.224  1.00  0.00     0.188 C 
BRANCH  30  31
ATOM     31  O   UNL A   1      35.266  34.166  29.529  1.00  0.00    -0.376 OA
BRANCH  31  32
ATOM     32  C   UNL A   1      34.197  34.303  30.454  1.00  0.00     0.202 C 
BRANCH  32  33
ATOM     33  C   UNL A   1      34.443  33.715  31.851  1.00  0.00     0.261 C 
BRANCH  33  34
ATOM     34  O   UNL A   1      35.053  32.418  31.892  1.00  0.00    -0.460 OA
BRANCH  34  35
ATOM     35  C   UNL A   1      36.056  32.209  32.778  1.00  0.00     0.338 C 
ATOM     36  O   UNL A   1      36.016  32.328  33.980  1.00  0.00    -0.246 OA
BRANCH  35  37
ATOM     37  C   UNL A   1      37.179  31.609  32.020  1.00  0.00     0.060 A 
ATOM     38  C   UNL A   1      37.114  31.498  30.630  1.00  0.00     0.016 A 
ATOM     39  C   UNL A   1      38.286  31.120  32.723  1.00  0.00     0.016 A 
ATOM     40  C   UNL A   1      38.179  30.922  29.935  1.00  0.00     0.010 A 
ATOM     41  C   UNL A   1      39.345  30.532  32.028  1.00  0.00     0.010 A 
ATOM     42  C   UNL A   1      39.309  30.451  30.627  1.00  0.00    -0.014 A 
BRANCH  42  43
ATOM     43  C   UNL A   1      40.520  30.050  29.871  1.00  0.00     0.031 A 
ATOM     44  C   UNL A   1      41.641  31.003  29.590  1.00  0.00     0.074 A 
ATOM     45  C   UNL A   1      40.579  28.785  29.416  1.00  0.00     0.049 A 
ATOM     46  N   UNL A   1      42.788  30.770  29.002  1.00  0.00    -0.248 NA
ATOM     47  C   UNL A   1      41.451  32.396  30.014  1.00  0.00     0.031 C 
ATOM     48  C   UNL A   1      39.529  27.780  29.597  1.00  0.00     0.029 A 
ATOM     49  N   UNL A   1      41.555  28.127  28.713  1.00  0.00    -0.354 N 
ATOM     50  C   UNL A   1      43.470  31.978  29.003  1.00  0.00     0.074 A 
ATOM     51  C   UNL A   1      42.586  32.954  29.610  1.00  0.00     0.031 C 
ATOM     52  C   UNL A   1      39.922  26.630  29.030  1.00  0.00     0.029 A 
ATOM     53  C   UNL A   1      41.240  26.821  28.433  1.00  0.00     0.049 A 
ATOM     54  H   UNL A   1      42.399  28.551  28.435  1.00  0.00     0.167 HD
ATOM     55  C   UNL A   1      44.723  32.240  28.553  1.00  0.00     0.037 A 
ATOM     56  C   UNL A   1      41.935  25.880  27.770  1.00  0.00     0.037 A 
ATOM     57  C   UNL A   1      45.586  31.268  27.925  1.00  0.00     0.049 A 
ATOM     58  C   UNL A   1      43.300  26.214  27.239  1.00  0.00     0.074 A 
ATOM     59  C   UNL A   1      46.888  31.427  27.480  1.00  0.00     0.029 A 
ATOM     60  N   UNL A   1      45.225  29.960  27.631  1.00  0.00    -0.354 N 
ATOM     61  N   UNL A   1      43.974  27.334  27.335  1.00  0.00    -0.248 NA
ATOM     62  C   UNL A   1      44.004  25.146  26.517  1.00  0.00     0.031 C 
ATOM     63  C   UNL A   1      47.295  30.234  26.869  1.00  0.00     0.029 A 
ATOM     64  C   UNL A   1      46.266  29.314  26.979  1.00  0.00     0.049 A 
ATOM     65  H   UNL A   1      44.358  29.551  27.852  1.00  0.00     0.167 HD
ATOM     66  C   UNL A   1      45.189  27.099  26.708  1.00  0.00     0.074 A 
ATOM     67  C   UNL A   1      45.168  25.723  26.254  1.00  0.00     0.031 C 
ATOM     68  C   UNL A   1      46.231  27.947  26.523  1.00  0.00     0.037 A 
BRANCH  55  69
ATOM     69  C   UNL A   1      45.244  33.639  28.721  1.00  0.00     0.057 A 
ATOM     70  C   UNL A   1      45.125  34.582  27.691  1.00  0.00     0.134 A 
ATOM     71  C   UNL A   1      45.917  34.039  29.882  1.00  0.00     0.134 A 
ATOM     72  F   UNL A   1      44.503  34.264  26.545  1.00  0.00    -0.206 F 
ATOM     73  C   UNL A   1      45.655  35.868  27.811  1.00  0.00     0.040 A 
ATOM     74  C   UNL A   1      46.431  35.330  30.025  1.00  0.00     0.040 A 
ATOM     75  F   UNL A   1      46.067  33.187  30.909  1.00  0.00    -0.206 F 
ATOM     76  C   UNL A   1      46.305  36.247  28.983  1.00  0.00     0.006 A 
ENDBRANCH  55  69
BRANCH  56  77
ATOM     77  C   UNL A   1      41.361  24.526  27.585  1.00  0.00     0.057 A 
ATOM     78  C   UNL A   1      41.779  23.444  28.368  1.00  0.00     0.134 A 
ATOM     79  C   UNL A   1      40.366  24.287  26.630  1.00  0.00     0.134 A 
ATOM     80  F   UNL A   1      42.736  23.607  29.293  1.00  0.00    -0.206 F 
ATOM     81  C   UNL A   1      41.228  22.172  28.209  1.00  0.00     0.040 A 
ATOM     82  C   UNL A   1      39.786  23.028  26.479  1.00  0.00     0.040 A 
ATOM     83  F   UNL A   1      39.914  25.289  25.862  1.00  0.00    -0.206 F 
ATOM     84  C   UNL A   1      40.220  21.964  27.269  1.00  0.00     0.006 A 
ENDBRANCH  56  77
BRANCH  68  85
ATOM     85  C   UNL A   1      47.437  27.396  25.816  1.00  0.00     0.057 A 
ATOM     86  C   UNL A   1      48.474  26.789  26.536  1.00  0.00     0.134 A 
ATOM     87  C   UNL A   1      47.572  27.465  24.423  1.00  0.00     0.134 A 
ATOM     88  F   UNL A   1      48.411  26.695  27.873  1.00  0.00    -0.206 F 
ATOM     89  C   UNL A   1      49.599  26.268  25.896  1.00  0.00     0.040 A 
ATOM     90  C   UNL A   1      48.680  26.921  23.770  1.00  0.00     0.040 A 
ATOM     91  F   UNL A   1      46.607  28.016  23.672  1.00  0.00    -0.206 F 
ATOM     92  C   UNL A   1      49.700  26.325  24.508  1.00  0.00     0.006 A 
ENDBRANCH  68  85
ENDBRANCH  42  43
ENDBRANCH  35  37
ENDBRANCH  34  35
ENDBRANCH  33  34
ENDBRANCH  32  33
ENDBRANCH  31  32
ENDBRANCH  30  31
ENDBRANCH  29  30
ENDBRANCH  28  29
ENDBRANCH   1  28
TORSDOF 23
ENDMDL
MODEL 2
REMARK VINA RESULT:      -9.9      4.944     10.390
REMARK SMILES COc1ccc(-n2c(=S)[nH]cc(CC(=O)OCCOCCOCCOCCOC(=O)c3ccc(-c4c5nc(c(-c6c(F)cccc6F)c6ccc([nH]6)c(-c6c(F)cccc6F)c6nc(c(-c7c(F)cccc7F)c7ccc4[nH]7)C=C6)C=C5)cc3)c2=O)cc1Cl
REMARK SMILES IDX 21 1 20 2 19 3 18 4 17 5 16 6 14 7 15 8 13 9 12 10 7 11 8 12
REMARK SMILES IDX 85 13 9 14 10 15 86 16 11 17 6 19 3 20 4 21 88 22 5 23 87 24
REMARK SMILES IDX 89 25 2 26 1 27 22 28 23 29 24 30 25 31 26 32 27 33 28 34
REMARK SMILES IDX 29 35 30 36 31 37 32 38 84 39 33 40 83 41 34 42 35 43 36 44
REMARK SMILES IDX 77 45 37 46 82 47 76 48 78 49 38 50 81 51 75 52 74 53 39 55
REMARK SMILES IDX 65 56 48 57 64 58 49 59 52 60 63 61 79 62 50 63 51 64 62 66
REMARK SMILES IDX 80 67 53 68 40 69 41 70 46 71 42 72 43 73 45 74 47 75 44 76
REMARK SMILES IDX 66 77 67 78 72 79 68 80 69 81 71 82 73 83 70 84 54 85 55 86
REMARK SMILES IDX 60 87 56 88 57 89 59 90 61 91 58 92
REMARK H PARENT 10 18 78 54 52 65
REMARK Flexibility Score: inf
ROOT
ATOM      1  C   UNL A   1      42.645  18.749  26.026  1.00  0.00     0.188 C 
ENDROOT
BRANCH   1   2
ATOM      2  C   UNL A   1      42.214  19.886  26.949  1.00  0.00     0.188 C 
BRANCH   2   3
ATOM      3  O   UNL A   1      40.837  20.078  27.195  1.00  0.00    -0.376 OA
BRANCH   3   4
ATOM      4  C   UNL A   1      40.217  21.309  26.849  1.00  0.00     0.202 C 
BRANCH   4   5
ATOM      5  C   UNL A   1      38.965  21.413  25.950  1.00  0.00     0.261 C 
BRANCH   5   6
ATOM      6  O   UNL A   1      38.455  22.733  25.658  1.00  0.00    -0.463 OA
BRANCH   6   7
ATOM      7  C   UNL A   1      37.150  22.803  25.290  1.00  0.00     0.310 C 
ATOM      8  O   UNL A   1      36.645  22.070  24.442  1.00  0.00    -0.252 OA
BRANCH   7   9
ATOM      9  C   UNL A   1      36.274  23.768  26.096  1.00  0.00     0.165 C 
BRANCH   9  10
ATOM     10  C   UNL A   1      34.780  23.614  26.185  1.00  0.00     0.045 A 
ATOM     11  N   UNL A   1      32.537  24.491  25.657  1.00  0.00    -0.253 N 
ATOM     12  C   UNL A   1      31.943  23.341  26.202  1.00  0.00     0.184 A 
ATOM     13  C   UNL A   1      33.916  24.747  25.745  1.00  0.00     0.262 A 
ATOM     14  S   UNL A   1      30.317  22.974  26.400  1.00  0.00    -0.040 S 
ATOM     15  N   UNL A   1      32.821  22.342  26.535  1.00  0.00    -0.338 N 
ATOM     16  O   UNL A   1      34.453  25.808  25.426  1.00  0.00    -0.269 OA
ATOM     17  C   UNL A   1      34.172  22.450  26.443  1.00  0.00     0.095 A 
ATOM     18  H   UNL A   1      32.449  21.491  26.862  1.00  0.00     0.168 HD
BRANCH  11  19
ATOM     19  C   UNL A   1      31.802  25.267  24.703  1.00  0.00     0.053 A 
ATOM     20  C   UNL A   1      30.679  27.152  22.961  1.00  0.00     0.137 A 
ATOM     21  C   UNL A   1      30.480  27.272  24.336  1.00  0.00     0.050 A 
ATOM     22  C   UNL A   1      31.426  26.081  22.453  1.00  0.00     0.085 A 
ATOM     23  C   UNL A   1      31.024  26.326  25.201  1.00  0.00     0.031 A 
ATOM     24  C   UNL A   1      31.980  25.133  23.324  1.00  0.00     0.051 A 
ATOM     25  Cl  UNL A   1      31.777  25.924  20.770  1.00  0.00    -0.080 Cl
BRANCH  20  26
ATOM     26  O   UNL A   1      30.214  28.194  22.203  1.00  0.00    -0.495 OA
ATOM     27  C   UNL A   1      29.044  28.792  22.757  1.00  0.00     0.278 C 
ENDBRANCH  20  26
ENDBRANCH  11  19
ENDBRANCH   9  10
ENDBRANCH   7   9
ENDBRANCH   6   7
ENDBRANCH   5   6
ENDBRANCH   4   5
ENDBRANCH   3   4
ENDBRANCH   2   3
ENDBRANCH   1   2
BRANCH   1  28
ATOM     28  O   UNL A   1      44.023  18.456  25.949  1.00  0.00    -0.377 OA
BRANCH  28  29
ATOM     29  C   UNL A   1      44.768  18.919  24.834  1.00  0.00     0.188 C 
BRANCH  29  30
ATOM     30  C   UNL A   1      44.956  20.424  24.590  1.00  0.00     0.188 C 
BRANCH  30  31
ATOM     31  O   UNL A   1      45.368  21.160  25.736  1.00  0.00    -0.376 OA
BRANCH  31  32
ATOM     32  C   UNL A   1      45.892  22.465  25.530  1.00  0.00     0.202 C 
BRANCH  32  33
ATOM     33  C   UNL A   1      45.198  23.300  24.445  1.00  0.00     0.261 C 
BRANCH  33  34
ATOM     34  O   UNL A   1      44.341  24.352  24.910  1.00  0.00    -0.460 OA
BRANCH  34  35
ATOM     35  C   UNL A   1      43.104  24.022  25.354  1.00  0.00     0.338 C 
ATOM     36  O   UNL A   1      42.413  23.099  24.994  1.00  0.00    -0.246 OA
BRANCH  35  37
ATOM     37  C   UNL A   1      42.821  24.894  26.517  1.00  0.00     0.060 A 
ATOM     38  C   UNL A   1      43.436  26.143  26.633  1.00  0.00     0.016 A 
ATOM     39  C   UNL A   1      41.960  24.429  27.518  1.00  0.00     0.016 A 
ATOM     40  C   UNL A   1      43.161  26.945  27.741  1.00  0.00     0.010 A 
ATOM     41  C   UNL A   1      41.697  25.228  28.634  1.00  0.00     0.010 A 
ATOM     42  C   UNL A   1      42.277  26.501  28.740  1.00  0.00    -0.014 A 
BRANCH  42  43
ATOM     43  C   UNL A   1      41.822  27.444  29.791  1.00  0.00     0.031 A 
ATOM     44  C   UNL A   1      40.654  28.360  29.593  1.00  0.00     0.074 A 
ATOM     45  C   UNL A   1      42.513  27.469  30.946  1.00  0.00     0.049 A 
ATOM     46  N   UNL A   1      40.104  29.185  30.449  1.00  0.00    -0.248 NA
ATOM     47  C   UNL A   1      40.026  28.360  28.265  1.00  0.00     0.031 C 
ATOM     48  C   UNL A   1      43.691  26.648  31.235  1.00  0.00     0.029 A 
ATOM     49  N   UNL A   1      42.329  28.207  32.086  1.00  0.00    -0.354 N 
ATOM     50  C   UNL A   1      39.051  29.788  29.777  1.00  0.00     0.074 A 
ATOM     51  C   UNL A   1      39.069  29.266  28.424  1.00  0.00     0.031 C 
ATOM     52  C   UNL A   1      44.117  26.919  32.478  1.00  0.00     0.029 A 
ATOM     53  C   UNL A   1      43.256  27.941  33.063  1.00  0.00     0.049 A 
ATOM     54  H   UNL A   1      41.604  28.863  32.194  1.00  0.00     0.167 HD
ATOM     55  C   UNL A   1      38.146  30.680  30.252  1.00  0.00     0.037 A 
ATOM     56  C   UNL A   1      43.397  28.463  34.295  1.00  0.00     0.037 A 
ATOM     57  C   UNL A   1      38.153  31.215  31.594  1.00  0.00     0.049 A 
ATOM     58  C   UNL A   1      42.410  29.486  34.777  1.00  0.00     0.074 A 
ATOM     59  C   UNL A   1      37.250  32.086  32.181  1.00  0.00     0.029 A 
ATOM     60  N   UNL A   1      39.123  30.946  32.549  1.00  0.00    -0.354 N 
ATOM     61  N   UNL A   1      41.358  29.974  34.164  1.00  0.00    -0.248 NA
ATOM     62  C   UNL A   1      42.624  30.023  36.127  1.00  0.00     0.031 C 
ATOM     63  C   UNL A   1      37.704  32.387  33.472  1.00  0.00     0.029 A 
ATOM     64  C   UNL A   1      38.860  31.663  33.708  1.00  0.00     0.049 A 
ATOM     65  H   UNL A   1      39.885  30.337  32.423  1.00  0.00     0.167 HD
ATOM     66  C   UNL A   1      40.772  30.855  35.061  1.00  0.00     0.074 A 
ATOM     67  C   UNL A   1      41.573  30.818  36.268  1.00  0.00     0.031 C 
ATOM     68  C   UNL A   1      39.670  31.627  34.901  1.00  0.00     0.037 A 
BRANCH  55  69
ATOM     69  C   UNL A   1      37.066  31.142  29.315  1.00  0.00     0.057 A 
ATOM     70  C   UNL A   1      37.069  32.444  28.797  1.00  0.00     0.134 A 
ATOM     71  C   UNL A   1      35.989  30.316  28.971  1.00  0.00     0.134 A 
ATOM     72  F   UNL A   1      38.063  33.294  29.095  1.00  0.00    -0.206 F 
ATOM     73  C   UNL A   1      36.041  32.905  27.972  1.00  0.00     0.040 A 
ATOM     74  C   UNL A   1      34.967  30.757  28.126  1.00  0.00     0.040 A 
ATOM     75  F   UNL A   1      35.923  29.057  29.431  1.00  0.00    -0.206 F 
ATOM     76  C   UNL A   1      34.989  32.058  27.629  1.00  0.00     0.006 A 
ENDBRANCH  55  69
BRANCH  56  77
ATOM     77  C   UNL A   1      44.508  28.012  35.168  1.00  0.00     0.057 A 
ATOM     78  C   UNL A   1      44.356  26.929  36.041  1.00  0.00     0.134 A 
ATOM     79  C   UNL A   1      45.756  28.647  35.134  1.00  0.00     0.134 A 
ATOM     80  F   UNL A   1      43.182  26.287  36.126  1.00  0.00    -0.206 F 
ATOM     81  C   UNL A   1      45.405  26.492  36.850  1.00  0.00     0.040 A 
ATOM     82  C   UNL A   1      46.821  28.203  35.917  1.00  0.00     0.040 A 
ATOM     83  F   UNL A   1      45.965  29.680  34.306  1.00  0.00    -0.206 F 
ATOM     84  C   UNL A   1      46.645  27.124  36.782  1.00  0.00     0.006 A 
ENDBRANCH  56  77
BRANCH  68  85
ATOM     85  C   UNL A   1      39.260  32.477  36.070  1.00  0.00     0.057 A 
ATOM     86  C   UNL A   1      39.782  33.766  36.237  1.00  0.00     0.134 A 
ATOM     87  C   UNL A   1      38.348  32.020  37.032  1.00  0.00     0.134 A 
ATOM     88  F   UNL A   1      40.663  34.264  35.356  1.00  0.00    -0.206 F 
ATOM     89  C   UNL A   1      39.409  34.571  37.314  1.00  0.00     0.040 A 
ATOM     90  C   UNL A   1      37.947  32.828  38.098  1.00  0.00     0.040 A 
ATOM     91  F   UNL A   1      37.796  30.802  36.922  1.00  0.00    -0.206 F 
ATOM     92  C   UNL A   1      38.482  34.106  38.244  1.00  0.00     0.006 A 
ENDBRANCH  68  85
ENDBRANCH  42  43
ENDBRANCH  35  37
ENDBRANCH  34  35
ENDBRANCH  33  34
ENDBRANCH  32  33
ENDBRANCH  31  32
ENDBRANCH  30  31
ENDBRANCH  29  30
ENDBRANCH  28  29
ENDBRANCH   1  28
TORSDOF 23
ENDMDL
MODEL 3
REMARK VINA RESULT:      -9.7      4.842     10.099
REMARK SMILES COc1ccc(-n2c(=S)[nH]cc(CC(=O)OCCOCCOCCOCCOC(=O)c3ccc(-c4c5nc(c(-c6c(F)cccc6F)c6ccc([nH]6)c(-c6c(F)cccc6F)c6nc(c(-c7c(F)cccc7F)c7ccc4[nH]7)C=C6)C=C5)cc3)c2=O)cc1Cl
REMARK SMILES IDX 21 1 20 2 19 3 18 4 17 5 16 6 14 7 15 8 13 9 12 10 7 11 8 12
REMARK SMILES IDX 85 13 9 14 10 15 86 16 11 17 6 19 3 20 4 21 88 22 5 23 87 24
REMARK SMILES IDX 89 25 2 26 1 27 22 28 23 29 24 30 25 31 26 32 27 33 28 34
REMARK SMILES IDX 29 35 30 36 31 37 32 38 84 39 33 40 83 41 34 42 35 43 36 44
REMARK SMILES IDX 77 45 37 46 82 47 76 48 78 49 38 50 81 51 75 52 74 53 39 55
REMARK SMILES IDX 65 56 48 57 64 58 49 59 52 60 63 61 79 62 50 63 51 64 62 66
REMARK SMILES IDX 80 67 53 68 40 69 41 70 46 71 42 72 43 73 45 74 47 75 44 76
REMARK SMILES IDX 66 77 67 78 72 79 68 80 69 81 71 82 73 83 70 84 54 85 55 86
REMARK SMILES IDX 60 87 56 88 57 89 59 90 61 91 58 92
REMARK H PARENT 10 18 78 54 52 65
REMARK Flexibility Score: inf
ROOT
ATOM      1  C   UNL A   1      39.026  21.336  25.760  1.00  0.00     0.188 C 
ENDROOT
BRANCH   1   2
ATOM      2  C   UNL A   1      37.697  21.535  25.036  1.00  0.00     0.188 C 
BRANCH   2   3
ATOM      3  O   UNL A   1      36.496  21.310  25.742  1.00  0.00    -0.376 OA
BRANCH   3   4
ATOM      4  C   UNL A   1      35.384  20.720  25.084  1.00  0.00     0.202 C 
BRANCH   4   5
ATOM      5  C   UNL A   1      33.920  21.157  25.320  1.00  0.00     0.261 C 
BRANCH   5   6
ATOM      6  O   UNL A   1      32.968  20.913  24.261  1.00  0.00    -0.463 OA
BRANCH   6   7
ATOM      7  C   UNL A   1      32.564  22.002  23.557  1.00  0.00     0.310 C 
ATOM      8  O   UNL A   1      33.041  22.323  22.471  1.00  0.00    -0.252 OA
BRANCH   7   9
ATOM      9  C   UNL A   1      31.359  22.760  24.125  1.00  0.00     0.165 C 
BRANCH   9  10
ATOM     10  C   UNL A   1      31.494  24.106  24.785  1.00  0.00     0.045 A 
ATOM     11  N   UNL A   1      31.351  26.561  24.611  1.00  0.00    -0.253 N 
ATOM     12  C   UNL A   1      31.609  26.688  25.985  1.00  0.00     0.184 A 
ATOM     13  C   UNL A   1      31.421  25.330  23.937  1.00  0.00     0.262 A 
ATOM     14  S   UNL A   1      31.800  28.077  26.909  1.00  0.00    -0.040 S 
ATOM     15  N   UNL A   1      31.613  25.507  26.682  1.00  0.00    -0.338 N 
ATOM     16  O   UNL A   1      31.361  25.196  22.714  1.00  0.00    -0.269 OA
ATOM     17  C   UNL A   1      31.471  24.283  26.111  1.00  0.00     0.095 A 
ATOM     18  H   UNL A   1      31.726  25.549  27.659  1.00  0.00     0.168 HD
BRANCH  11  19
ATOM     19  C   UNL A   1      30.682  27.627  23.928  1.00  0.00     0.053 A 
ATOM     20  C   UNL A   1      29.464  29.447  22.179  1.00  0.00     0.137 A 
ATOM     21  C   UNL A   1      30.854  29.326  22.199  1.00  0.00     0.050 A 
ATOM     22  C   UNL A   1      28.682  28.671  23.046  1.00  0.00     0.085 A 
ATOM     23  C   UNL A   1      31.460  28.434  23.079  1.00  0.00     0.031 A 
ATOM     24  C   UNL A   1      29.292  27.768  23.926  1.00  0.00     0.051 A 
ATOM     25  Cl  UNL A   1      26.957  28.715  23.011  1.00  0.00    -0.080 Cl
BRANCH  20  26
ATOM     26  O   UNL A   1      28.954  30.255  21.197  1.00  0.00    -0.495 OA
ATOM     27  C   UNL A   1      28.613  31.552  21.681  1.00  0.00     0.278 C 
ENDBRANCH  20  26
ENDBRANCH  11  19
ENDBRANCH   9  10
ENDBRANCH   7   9
ENDBRANCH   6   7
ENDBRANCH   5   6
ENDBRANCH   4   5
ENDBRANCH   3   4
ENDBRANCH   2   3
ENDBRANCH   1   2
BRANCH   1  28
ATOM     28  O   UNL A   1      39.594  20.045  25.741  1.00  0.00    -0.377 OA
BRANCH  28  29
ATOM     29  C   UNL A   1      40.899  19.855  26.267  1.00  0.00     0.188 C 
BRANCH  29  30
ATOM     30  C   UNL A   1      41.460  20.810  27.331  1.00  0.00     0.188 C 
BRANCH  30  31
ATOM     31  O   UNL A   1      42.330  21.814  26.822  1.00  0.00    -0.376 OA
BRANCH  31  32
ATOM     32  C   UNL A   1      43.217  21.450  25.773  1.00  0.00     0.202 C 
BRANCH  32  33
ATOM     33  C   UNL A   1      43.536  22.553  24.754  1.00  0.00     0.261 C 
BRANCH  33  34
ATOM     34  O   UNL A   1      43.122  23.880  25.110  1.00  0.00    -0.460 OA
BRANCH  34  35
ATOM     35  C   UNL A   1      44.080  24.814  25.325  1.00  0.00     0.338 C 
ATOM     36  O   UNL A   1      44.978  25.134  24.583  1.00  0.00    -0.246 OA
BRANCH  35  37
ATOM     37  C   UNL A   1      43.713  25.525  26.571  1.00  0.00     0.060 A 
ATOM     38  C   UNL A   1      44.323  26.737  26.900  1.00  0.00     0.016 A 
ATOM     39  C   UNL A   1      42.776  24.942  27.433  1.00  0.00     0.016 A 
ATOM     40  C   UNL A   1      43.969  27.387  28.084  1.00  0.00     0.010 A 
ATOM     41  C   UNL A   1      42.433  25.587  28.623  1.00  0.00     0.010 A 
ATOM     42  C   UNL A   1      43.009  26.825  28.945  1.00  0.00    -0.014 A 
BRANCH  42  43
ATOM     43  C   UNL A   1      42.480  27.624  30.076  1.00  0.00     0.031 A 
ATOM     44  C   UNL A   1      43.105  27.597  31.437  1.00  0.00     0.074 A 
ATOM     45  C   UNL A   1      41.389  28.379  29.849  1.00  0.00     0.049 A 
ATOM     46  N   UNL A   1      42.789  28.296  32.499  1.00  0.00    -0.248 NA
ATOM     47  C   UNL A   1      44.218  26.661  31.639  1.00  0.00     0.031 C 
ATOM     48  C   UNL A   1      40.674  28.454  28.573  1.00  0.00     0.029 A 
ATOM     49  N   UNL A   1      40.691  29.220  30.675  1.00  0.00    -0.354 N 
ATOM     50  C   UNL A   1      43.677  27.906  33.492  1.00  0.00     0.074 A 
ATOM     51  C   UNL A   1      44.514  26.871  32.916  1.00  0.00     0.031 C 
ATOM     52  C   UNL A   1      39.646  29.306  28.697  1.00  0.00     0.029 A 
ATOM     53  C   UNL A   1      39.619  29.821  30.063  1.00  0.00     0.049 A 
ATOM     54  H   UNL A   1      40.934  29.379  31.615  1.00  0.00     0.167 HD
ATOM     55  C   UNL A   1      43.789  28.380  34.758  1.00  0.00     0.037 A 
ATOM     56  C   UNL A   1      38.714  30.691  30.546  1.00  0.00     0.037 A 
ATOM     57  C   UNL A   1      42.933  29.391  35.331  1.00  0.00     0.049 A 
ATOM     58  C   UNL A   1      38.834  31.161  31.967  1.00  0.00     0.074 A 
ATOM     59  C   UNL A   1      42.999  29.970  36.588  1.00  0.00     0.029 A 
ATOM     60  N   UNL A   1      41.839  29.959  34.692  1.00  0.00    -0.354 N 
ATOM     61  N   UNL A   1      39.740  30.857  32.866  1.00  0.00    -0.248 NA
ATOM     62  C   UNL A   1      37.811  32.103  32.438  1.00  0.00     0.031 C 
ATOM     63  C   UNL A   1      41.915  30.845  36.729  1.00  0.00     0.029 A 
ATOM     64  C   UNL A   1      41.202  30.852  35.542  1.00  0.00     0.049 A 
ATOM     65  H   UNL A   1      41.556  29.756  33.771  1.00  0.00     0.167 HD
ATOM     66  C   UNL A   1      39.410  31.589  33.997  1.00  0.00     0.074 A 
ATOM     67  C   UNL A   1      38.234  32.367  33.665  1.00  0.00     0.031 C 
ATOM     68  C   UNL A   1      40.026  31.614  35.205  1.00  0.00     0.037 A 
BRANCH  55  69
ATOM     69  C   UNL A   1      44.880  27.811  35.620  1.00  0.00     0.057 A 
ATOM     70  C   UNL A   1      46.163  28.373  35.626  1.00  0.00     0.134 A 
ATOM     71  C   UNL A   1      44.676  26.666  36.403  1.00  0.00     0.134 A 
ATOM     72  F   UNL A   1      46.433  29.462  34.890  1.00  0.00    -0.206 F 
ATOM     73  C   UNL A   1      47.201  27.819  36.378  1.00  0.00     0.040 A 
ATOM     74  C   UNL A   1      45.700  26.117  37.179  1.00  0.00     0.040 A 
ATOM     75  F   UNL A   1      43.472  26.077  36.444  1.00  0.00    -0.206 F 
ATOM     76  C   UNL A   1      46.969  26.692  37.162  1.00  0.00     0.006 A 
ENDBRANCH  55  69
BRANCH  56  77
ATOM     77  C   UNL A   1      37.624  31.190  29.673  1.00  0.00     0.057 A 
ATOM     78  C   UNL A   1      37.699  32.445  29.059  1.00  0.00     0.134 A 
ATOM     79  C   UNL A   1      36.490  30.411  29.418  1.00  0.00     0.134 A 
ATOM     80  F   UNL A   1      38.756  33.241  29.272  1.00  0.00    -0.206 F 
ATOM     81  C   UNL A   1      36.683  32.909  28.223  1.00  0.00     0.040 A 
ATOM     82  C   UNL A   1      35.480  30.850  28.562  1.00  0.00     0.040 A 
ATOM     83  F   UNL A   1      36.370  29.192  29.966  1.00  0.00    -0.206 F 
ATOM     84  C   UNL A   1      35.574  32.106  27.965  1.00  0.00     0.006 A 
ENDBRANCH  56  77
BRANCH  68  85
ATOM     85  C   UNL A   1      39.444  32.530  36.244  1.00  0.00     0.057 A 
ATOM     86  C   UNL A   1      39.925  33.836  36.398  1.00  0.00     0.134 A 
ATOM     87  C   UNL A   1      38.405  32.121  37.092  1.00  0.00     0.134 A 
ATOM     88  F   UNL A   1      40.921  34.292  35.622  1.00  0.00    -0.206 F 
ATOM     89  C   UNL A   1      39.393  34.702  37.354  1.00  0.00     0.040 A 
ATOM     90  C   UNL A   1      37.846  32.988  38.033  1.00  0.00     0.040 A 
ATOM     91  F   UNL A   1      37.885  30.889  36.985  1.00  0.00    -0.206 F 
ATOM     92  C   UNL A   1      38.345  34.282  38.169  1.00  0.00     0.006 A 
ENDBRANCH  68  85
ENDBRANCH  42  43
ENDBRANCH  35  37
ENDBRANCH  34  35
ENDBRANCH  33  34
ENDBRANCH  32  33
ENDBRANCH  31  32
ENDBRANCH  30  31
ENDBRANCH  29  30
ENDBRANCH  28  29
ENDBRANCH   1  28
TORSDOF 23
ENDMDL
