MODEL 1
REMARK VINA RESULT:      -9.8      0.000      0.000
REMARK SMILES Cc1nc(C[C@@H](C(=O)OCCOCCOCCOCCOC(=O)c2ccc(-c3c4nc(c(-c5c(F)cccc5F)c5ccc([nH]5)c(-c5c(F)cccc5F)c5nc(c(-c6c(F)cccc6F)c6ccc3[nH]6)C=C5)C=C4)cc2)[C@@H]2CCS(=O)(=O)C2)sc1C
REMARK SMILES IDX 15 1 14 2 13 3 12 4 11 5 10 6 9 7 7 8 8 9 6 10 5 11 4 12
REMARK SMILES IDX 1 13 2 14 3 15 86 16 85 17 87 18 78 19 79 20 84 21 80 22
REMARK SMILES IDX 81 23 82 24 83 25 16 26 17 27 18 28 19 29 20 30 21 31 22 32
REMARK SMILES IDX 23 33 24 34 25 35 77 36 26 37 76 38 27 39 28 40 29 41 70 42
REMARK SMILES IDX 30 43 75 44 69 45 71 46 31 47 74 48 68 49 67 50 32 52 58 53
REMARK SMILES IDX 41 54 57 55 42 56 45 57 56 58 72 59 43 60 44 61 55 63 73 64
REMARK SMILES IDX 46 65 33 66 34 67 39 68 35 69 36 70 38 71 40 72 37 73 59 74
REMARK SMILES IDX 60 75 65 76 61 77 62 78 64 79 66 80 63 81 47 82 48 83 53 84
REMARK SMILES IDX 49 85 50 86 52 87 54 88 51 89
REMARK H PARENT 71 51 45 62
REMARK Flexibility Score: inf
ROOT
ATOM      1  O   UNL A   1      34.881  33.006  28.360  1.00  0.00    -0.377 OA
ENDROOT
BRANCH   1   2
ATOM      2  C   UNL A   1      34.502  31.649  28.523  1.00  0.00     0.188 C 
BRANCH   2   3
ATOM      3  C   UNL A   1      34.226  30.685  27.344  1.00  0.00     0.188 C 
BRANCH   3   4
ATOM      4  O   UNL A   1      34.549  29.323  27.597  1.00  0.00    -0.376 OA
BRANCH   4   5
ATOM      5  C   UNL A   1      33.552  28.365  27.258  1.00  0.00     0.202 C 
BRANCH   5   6
ATOM      6  C   UNL A   1      32.238  28.958  26.753  1.00  0.00     0.261 C 
BRANCH   6   7
ATOM      7  O   UNL A   1      31.800  28.302  25.549  1.00  0.00    -0.463 OA
BRANCH   7   8
ATOM      8  C   UNL A   1      32.608  28.261  24.483  1.00  0.00     0.309 C 
ATOM      9  O   UNL A   1      33.295  29.199  24.099  1.00  0.00    -0.252 OA
BRANCH   8  10
ATOM     10  C   UNL A   1      32.644  26.894  23.794  1.00  0.00     0.110 C 
BRANCH  10  11
ATOM     11  C   UNL A   1      31.545  26.527  22.763  1.00  0.00     0.083 C 
BRANCH  11  12
ATOM     12  C   UNL A   1      30.358  27.444  22.624  1.00  0.00     0.094 A 
ATOM     13  C   UNL A   1      29.111  30.685  21.658  1.00  0.00     0.068 C 
ATOM     14  C   UNL A   1      29.221  29.323  22.243  1.00  0.00     0.051 A 
ATOM     15  N   UNL A   1      30.374  28.596  21.993  1.00  0.00    -0.246 NA
ATOM     16  C   UNL A   1      28.302  28.679  23.051  1.00  0.00     0.024 A 
ATOM     17  S   UNL A   1      28.907  27.139  23.502  1.00  0.00    -0.124 S 
ATOM     18  C   UNL A   1      26.974  29.163  23.522  1.00  0.00     0.058 C 
ENDBRANCH  11  12
ENDBRANCH  10  11
BRANCH  10  19
ATOM     19  C   UNL A   1      32.962  25.681  24.740  1.00  0.00     0.020 C 
ATOM     20  C   UNL A   1      34.401  25.464  25.263  1.00  0.00     0.021 C 
ATOM     21  C   UNL A   1      32.423  24.324  24.279  1.00  0.00     0.141 C 
ATOM     22  C   UNL A   1      35.054  24.215  24.679  1.00  0.00     0.137 C 
ATOM     23  S   UNL A   1      33.805  23.297  23.832  1.00  0.00     0.150 S 
ATOM     24  O   UNL A   1      34.054  23.423  22.412  1.00  0.00    -0.229 OA
ATOM     25  O   UNL A   1      33.661  22.012  24.485  1.00  0.00    -0.229 OA
ENDBRANCH  10  19
ENDBRANCH   8  10
ENDBRANCH   7   8
ENDBRANCH   6   7
ENDBRANCH   5   6
ENDBRANCH   4   5
ENDBRANCH   3   4
ENDBRANCH   2   3
ENDBRANCH   1   2
BRANCH   1  26
ATOM     26  C   UNL A   1      33.833  33.945  28.222  1.00  0.00     0.188 C 
BRANCH  26  27
ATOM     27  C   UNL A   1      33.906  35.032  29.307  1.00  0.00     0.188 C 
BRANCH  27  28
ATOM     28  O   UNL A   1      33.258  34.644  30.516  1.00  0.00    -0.376 OA
BRANCH  28  29
ATOM     29  C   UNL A   1      34.019  34.621  31.717  1.00  0.00     0.202 C 
BRANCH  29  30
ATOM     30  C   UNL A   1      34.459  33.293  32.368  1.00  0.00     0.261 C 
BRANCH  30  31
ATOM     31  O   UNL A   1      35.632  32.645  31.853  1.00  0.00    -0.460 OA
BRANCH  31  32
ATOM     32  C   UNL A   1      36.551  32.180  32.724  1.00  0.00     0.338 C 
ATOM     33  O   UNL A   1      36.477  32.156  33.935  1.00  0.00    -0.246 OA
BRANCH  32  34
ATOM     34  C   UNL A   1      37.599  31.505  31.920  1.00  0.00     0.060 A 
ATOM     35  C   UNL A   1      38.649  30.857  32.584  1.00  0.00     0.016 A 
ATOM     36  C   UNL A   1      37.516  31.466  30.525  1.00  0.00     0.016 A 
ATOM     37  C   UNL A   1      39.639  30.197  31.854  1.00  0.00     0.010 A 
ATOM     38  C   UNL A   1      38.526  30.836  29.792  1.00  0.00     0.010 A 
ATOM     39  C   UNL A   1      39.609  30.230  30.454  1.00  0.00    -0.014 A 
BRANCH  39  40
ATOM     40  C   UNL A   1      40.828  29.863  29.696  1.00  0.00     0.031 A 
ATOM     41  C   UNL A   1      40.912  28.466  29.145  1.00  0.00     0.074 A 
ATOM     42  C   UNL A   1      41.821  30.742  29.473  1.00  0.00     0.049 A 
ATOM     43  N   UNL A   1      41.878  27.890  28.479  1.00  0.00    -0.248 NA
ATOM     44  C   UNL A   1      39.741  27.603  29.377  1.00  0.00     0.031 C 
ATOM     45  C   UNL A   1      41.832  32.137  29.906  1.00  0.00     0.029 A 
ATOM     46  N   UNL A   1      43.020  30.581  28.825  1.00  0.00    -0.354 N 
ATOM     47  C   UNL A   1      41.431  26.601  28.212  1.00  0.00     0.074 A 
ATOM     48  C   UNL A   1      40.123  26.468  28.814  1.00  0.00     0.031 C 
ATOM     49  C   UNL A   1      42.993  32.701  29.529  1.00  0.00     0.029 A 
ATOM     50  C   UNL A   1      43.816  31.700  28.851  1.00  0.00     0.049 A 
ATOM     51  H   UNL A   1      43.285  29.741  28.383  1.00  0.00     0.167 HD
ATOM     52  C   UNL A   1      42.050  25.619  27.520  1.00  0.00     0.037 A 
ATOM     53  C   UNL A   1      45.069  31.882  28.393  1.00  0.00     0.037 A 
ATOM     54  C   UNL A   1      43.354  25.750  26.929  1.00  0.00     0.049 A 
ATOM     55  C   UNL A   1      45.775  30.744  27.699  1.00  0.00     0.074 A 
ATOM     56  C   UNL A   1      44.068  24.815  26.201  1.00  0.00     0.029 A 
ATOM     57  N   UNL A   1      44.143  26.887  27.006  1.00  0.00    -0.354 N 
ATOM     58  N   UNL A   1      45.336  29.537  27.430  1.00  0.00    -0.248 NA
ATOM     59  C   UNL A   1      47.151  30.994  27.241  1.00  0.00     0.031 C 
ATOM     60  C   UNL A   1      45.311  25.370  25.881  1.00  0.00     0.029 A 
ATOM     61  C   UNL A   1      45.348  26.669  26.362  1.00  0.00     0.049 A 
ATOM     62  H   UNL A   1      43.884  27.726  27.453  1.00  0.00     0.167 HD
ATOM     63  C   UNL A   1      46.363  28.900  26.742  1.00  0.00     0.074 A 
ATOM     64  C   UNL A   1      47.444  29.855  26.628  1.00  0.00     0.031 C 
ATOM     65  C   UNL A   1      46.407  27.638  26.247  1.00  0.00     0.037 A 
BRANCH  52  66
ATOM     66  C   UNL A   1      41.335  24.308  27.391  1.00  0.00     0.057 A 
ATOM     67  C   UNL A   1      40.254  24.138  26.517  1.00  0.00     0.134 A 
ATOM     68  C   UNL A   1      41.750  23.196  28.133  1.00  0.00     0.134 A 
ATOM     69  F   UNL A   1      39.793  25.169  25.793  1.00  0.00    -0.206 F 
ATOM     70  C   UNL A   1      39.601  22.910  26.397  1.00  0.00     0.040 A 
ATOM     71  C   UNL A   1      41.122  21.957  28.003  1.00  0.00     0.040 A 
ATOM     72  F   UNL A   1      42.777  23.294  28.990  1.00  0.00    -0.206 F 
ATOM     73  C   UNL A   1      40.041  21.812  27.136  1.00  0.00     0.006 A 
ENDBRANCH  52  66
BRANCH  53  74
ATOM     74  C   UNL A   1      45.759  33.185  28.586  1.00  0.00     0.057 A 
ATOM     75  C   UNL A   1      45.628  34.224  27.657  1.00  0.00     0.134 A 
ATOM     76  C   UNL A   1      46.602  33.406  29.682  1.00  0.00     0.134 A 
ATOM     77  F   UNL A   1      44.855  34.066  26.573  1.00  0.00    -0.206 F 
ATOM     78  C   UNL A   1      46.328  35.424  27.796  1.00  0.00     0.040 A 
ATOM     79  C   UNL A   1      47.288  34.611  29.848  1.00  0.00     0.040 A 
ATOM     80  F   UNL A   1      46.771  32.452  30.610  1.00  0.00    -0.206 F 
ATOM     81  C   UNL A   1      47.160  35.620  28.897  1.00  0.00     0.006 A 
ENDBRANCH  53  74
BRANCH  65  82
ATOM     82  C   UNL A   1      47.642  27.232  25.495  1.00  0.00     0.057 A 
ATOM     83  C   UNL A   1      47.782  27.455  24.121  1.00  0.00     0.134 A 
ATOM     84  C   UNL A   1      48.727  26.657  26.171  1.00  0.00     0.134 A 
ATOM     85  F   UNL A   1      46.777  27.993  23.412  1.00  0.00    -0.206 F 
ATOM     86  C   UNL A   1      48.948  27.100  23.440  1.00  0.00     0.040 A 
ATOM     87  C   UNL A   1      49.908  26.325  25.508  1.00  0.00     0.040 A 
ATOM     88  F   UNL A   1      48.663  26.427  27.492  1.00  0.00    -0.206 F 
ATOM     89  C   UNL A   1      50.019  26.540  24.137  1.00  0.00     0.006 A 
ENDBRANCH  65  82
ENDBRANCH  39  40
ENDBRANCH  32  34
ENDBRANCH  31  32
ENDBRANCH  30  31
ENDBRANCH  29  30
ENDBRANCH  28  29
ENDBRANCH  27  28
ENDBRANCH  26  27
ENDBRANCH   1  26
TORSDOF 23
ENDMDL
MODEL 2
REMARK VINA RESULT:      -8.5      4.714      9.848
REMARK SMILES Cc1nc(C[C@@H](C(=O)OCCOCCOCCOCCOC(=O)c2ccc(-c3c4nc(c(-c5c(F)cccc5F)c5ccc([nH]5)c(-c5c(F)cccc5F)c5nc(c(-c6c(F)cccc6F)c6ccc3[nH]6)C=C5)C=C4)cc2)[C@@H]2CCS(=O)(=O)C2)sc1C
REMARK SMILES IDX 15 1 14 2 13 3 12 4 11 5 10 6 9 7 7 8 8 9 6 10 5 11 4 12
REMARK SMILES IDX 1 13 2 14 3 15 86 16 85 17 87 18 78 19 79 20 84 21 80 22
REMARK SMILES IDX 81 23 82 24 83 25 16 26 17 27 18 28 19 29 20 30 21 31 22 32
REMARK SMILES IDX 23 33 24 34 25 35 77 36 26 37 76 38 27 39 28 40 29 41 70 42
REMARK SMILES IDX 30 43 75 44 69 45 71 46 31 47 74 48 68 49 67 50 32 52 58 53
REMARK SMILES IDX 41 54 57 55 42 56 45 57 56 58 72 59 43 60 44 61 55 63 73 64
REMARK SMILES IDX 46 65 33 66 34 67 39 68 35 69 36 70 38 71 40 72 37 73 59 74
REMARK SMILES IDX 60 75 65 76 61 77 62 78 64 79 66 80 63 81 47 82 48 83 53 84
REMARK SMILES IDX 49 85 50 86 52 87 54 88 51 89
REMARK H PARENT 71 51 45 62
REMARK Flexibility Score: inf
ROOT
ATOM      1  O   UNL A   1      40.427  28.308  28.993  1.00  0.00    -0.377 OA
ENDROOT
BRANCH   1   2
ATOM      2  C   UNL A   1      39.364  27.917  29.847  1.00  0.00     0.188 C 
BRANCH   2   3
ATOM      3  C   UNL A   1      38.124  28.797  30.136  1.00  0.00     0.188 C 
BRANCH   3   4
ATOM      4  O   UNL A   1      38.395  30.187  30.268  1.00  0.00    -0.376 OA
BRANCH   4   5
ATOM      5  C   UNL A   1      38.176  30.985  29.111  1.00  0.00     0.202 C 
BRANCH   5   6
ATOM      6  C   UNL A   1      38.162  32.493  29.365  1.00  0.00     0.261 C 
BRANCH   6   7
ATOM      7  O   UNL A   1      38.877  32.824  30.569  1.00  0.00    -0.463 OA
BRANCH   7   8
ATOM      8  C   UNL A   1      38.277  33.550  31.520  1.00  0.00     0.309 C 
ATOM      9  O   UNL A   1      38.249  34.774  31.541  1.00  0.00    -0.252 OA
BRANCH   8  10
ATOM     10  C   UNL A   1      37.566  32.705  32.580  1.00  0.00     0.110 C 
BRANCH  10  11
ATOM     11  C   UNL A   1      36.035  32.859  32.781  1.00  0.00     0.083 C 
BRANCH  11  12
ATOM     12  C   UNL A   1      35.171  33.077  31.565  1.00  0.00     0.094 A 
ATOM     13  C   UNL A   1      34.264  32.010  28.245  1.00  0.00     0.068 C 
ATOM     14  C   UNL A   1      34.405  32.809  29.490  1.00  0.00     0.051 A 
ATOM     15  N   UNL A   1      35.067  32.235  30.563  1.00  0.00    -0.246 NA
ATOM     16  C   UNL A   1      33.970  34.103  29.711  1.00  0.00     0.024 A 
ATOM     17  S   UNL A   1      34.406  34.597  31.294  1.00  0.00    -0.124 S 
ATOM     18  C   UNL A   1      33.239  35.013  28.785  1.00  0.00     0.058 C 
ENDBRANCH  11  12
ENDBRANCH  10  11
BRANCH  10  19
ATOM     19  C   UNL A   1      38.312  32.600  33.958  1.00  0.00     0.020 C 
ATOM     20  C   UNL A   1      39.843  32.798  34.026  1.00  0.00     0.021 C 
ATOM     21  C   UNL A   1      37.961  31.374  34.807  1.00  0.00     0.141 C 
ATOM     22  C   UNL A   1      40.586  31.513  34.375  1.00  0.00     0.137 C 
ATOM     23  S   UNL A   1      39.387  30.313  34.870  1.00  0.00     0.150 S 
ATOM     24  O   UNL A   1      39.294  29.325  33.817  1.00  0.00    -0.229 OA
ATOM     25  O   UNL A   1      39.642  29.957  36.251  1.00  0.00    -0.229 OA
ENDBRANCH  10  19
ENDBRANCH   8  10
ENDBRANCH   7   8
ENDBRANCH   6   7
ENDBRANCH   5   6
ENDBRANCH   4   5
ENDBRANCH   3   4
ENDBRANCH   2   3
ENDBRANCH   1   2
BRANCH   1  26
ATOM     26  C   UNL A   1      40.730  27.441  27.918  1.00  0.00     0.188 C 
BRANCH  26  27
ATOM     27  C   UNL A   1      39.740  26.268  27.845  1.00  0.00     0.188 C 
BRANCH  27  28
ATOM     28  O   UNL A   1      39.797  25.579  26.600  1.00  0.00    -0.376 OA
BRANCH  28  29
ATOM     29  C   UNL A   1      39.289  24.252  26.534  1.00  0.00     0.202 C 
BRANCH  29  30
ATOM     30  C   UNL A   1      40.078  23.057  27.107  1.00  0.00     0.261 C 
BRANCH  30  31
ATOM     31  O   UNL A   1      41.487  23.220  27.327  1.00  0.00    -0.460 OA
BRANCH  31  32
ATOM     32  C   UNL A   1      42.315  23.215  26.263  1.00  0.00     0.338 C 
ATOM     33  O   UNL A   1      42.288  22.465  25.309  1.00  0.00    -0.246 OA
BRANCH  32  34
ATOM     34  C   UNL A   1      43.150  24.436  26.364  1.00  0.00     0.060 A 
ATOM     35  C   UNL A   1      43.386  25.193  25.208  1.00  0.00     0.016 A 
ATOM     36  C   UNL A   1      43.652  24.859  27.598  1.00  0.00     0.016 A 
ATOM     37  C   UNL A   1      44.153  26.357  25.277  1.00  0.00     0.010 A 
ATOM     38  C   UNL A   1      44.449  26.006  27.661  1.00  0.00     0.010 A 
ATOM     39  C   UNL A   1      44.731  26.737  26.494  1.00  0.00    -0.014 A 
BRANCH  39  40
ATOM     40  C   UNL A   1      45.825  27.737  26.492  1.00  0.00     0.031 A 
ATOM     41  C   UNL A   1      45.445  29.187  26.625  1.00  0.00     0.074 A 
ATOM     42  C   UNL A   1      47.119  27.379  26.407  1.00  0.00     0.049 A 
ATOM     43  N   UNL A   1      46.204  30.251  26.618  1.00  0.00    -0.248 NA
ATOM     44  C   UNL A   1      44.009  29.471  26.789  1.00  0.00     0.031 C 
ATOM     45  C   UNL A   1      47.615  26.008  26.332  1.00  0.00     0.029 A 
ATOM     46  N   UNL A   1      48.253  28.151  26.366  1.00  0.00    -0.354 N 
ATOM     47  C   UNL A   1      45.340  31.327  26.779  1.00  0.00     0.074 A 
ATOM     48  C   UNL A   1      43.999  30.793  26.848  1.00  0.00     0.031 C 
ATOM     49  C   UNL A   1      48.956  26.034  26.233  1.00  0.00     0.029 A 
ATOM     50  C   UNL A   1      49.409  27.425  26.213  1.00  0.00     0.049 A 
ATOM     51  H   UNL A   1      48.239  29.133  26.440  1.00  0.00     0.167 HD
ATOM     52  C   UNL A   1      45.639  32.643  26.871  1.00  0.00     0.037 A 
ATOM     53  C   UNL A   1      50.679  27.843  26.057  1.00  0.00     0.037 A 
ATOM     54  C   UNL A   1      46.972  33.173  26.794  1.00  0.00     0.049 A 
ATOM     55  C   UNL A   1      50.978  29.322  26.075  1.00  0.00     0.074 A 
ATOM     56  C   UNL A   1      47.381  34.491  26.882  1.00  0.00     0.029 A 
ATOM     57  N   UNL A   1      48.114  32.409  26.603  1.00  0.00    -0.354 N 
ATOM     58  N   UNL A   1      50.158  30.331  26.252  1.00  0.00    -0.248 NA
ATOM     59  C   UNL A   1      52.380  29.720  25.877  1.00  0.00     0.031 C 
ATOM     60  C   UNL A   1      48.766  34.530  26.693  1.00  0.00     0.029 A 
ATOM     61  C   UNL A   1      49.225  33.232  26.543  1.00  0.00     0.049 A 
ATOM     62  H   UNL A   1      48.131  31.428  26.522  1.00  0.00     0.167 HD
ATOM     63  C   UNL A   1      50.948  31.476  26.223  1.00  0.00     0.074 A 
ATOM     64  C   UNL A   1      52.312  31.037  26.020  1.00  0.00     0.031 C 
ATOM     65  C   UNL A   1      50.578  32.774  26.355  1.00  0.00     0.037 A 
BRANCH  52  66
ATOM     66  C   UNL A   1      44.496  33.600  27.034  1.00  0.00     0.057 A 
ATOM     67  C   UNL A   1      44.009  33.963  28.296  1.00  0.00     0.134 A 
ATOM     68  C   UNL A   1      43.894  34.185  25.914  1.00  0.00     0.134 A 
ATOM     69  F   UNL A   1      44.529  33.422  29.408  1.00  0.00    -0.206 F 
ATOM     70  C   UNL A   1      42.951  34.863  28.437  1.00  0.00     0.040 A 
ATOM     71  C   UNL A   1      42.853  35.105  26.043  1.00  0.00     0.040 A 
ATOM     72  F   UNL A   1      44.312  33.877  24.677  1.00  0.00    -0.206 F 
ATOM     73  C   UNL A   1      42.376  35.443  27.307  1.00  0.00     0.006 A 
ENDBRANCH  52  66
BRANCH  53  74
ATOM     74  C   UNL A   1      51.775  26.860  25.849  1.00  0.00     0.057 A 
ATOM     75  C   UNL A   1      52.155  26.453  24.564  1.00  0.00     0.134 A 
ATOM     76  C   UNL A   1      52.436  26.269  26.933  1.00  0.00     0.134 A 
ATOM     77  F   UNL A   1      51.543  26.963  23.486  1.00  0.00    -0.206 F 
ATOM     78  C   UNL A   1      53.134  25.477  24.366  1.00  0.00     0.040 A 
ATOM     79  C   UNL A   1      53.435  25.312  26.748  1.00  0.00     0.040 A 
ATOM     80  F   UNL A   1      52.120  26.615  28.190  1.00  0.00    -0.206 F 
ATOM     81  C   UNL A   1      53.779  24.906  25.461  1.00  0.00     0.006 A 
ENDBRANCH  53  74
BRANCH  65  82
ATOM     82  C   UNL A   1      51.665  33.810  26.332  1.00  0.00     0.057 A 
ATOM     83  C   UNL A   1      52.115  34.387  25.139  1.00  0.00     0.134 A 
ATOM     84  C   UNL A   1      52.229  34.273  27.529  1.00  0.00     0.134 A 
ATOM     85  F   UNL A   1      51.622  33.982  23.958  1.00  0.00    -0.206 F 
ATOM     86  C   UNL A   1      53.104  35.372  25.135  1.00  0.00     0.040 A 
ATOM     87  C   UNL A   1      53.198  35.276  27.539  1.00  0.00     0.040 A 
ATOM     88  F   UNL A   1      51.833  33.770  28.708  1.00  0.00    -0.206 F 
ATOM     89  C   UNL A   1      53.643  35.824  26.339  1.00  0.00     0.006 A 
ENDBRANCH  65  82
ENDBRANCH  39  40
ENDBRANCH  32  34
ENDBRANCH  31  32
ENDBRANCH  30  31
ENDBRANCH  29  30
ENDBRANCH  28  29
ENDBRANCH  27  28
ENDBRANCH  26  27
ENDBRANCH   1  26
TORSDOF 23
ENDMDL
MODEL 3
REMARK VINA RESULT:      -8.3      1.461      6.330
REMARK SMILES Cc1nc(C[C@@H](C(=O)OCCOCCOCCOCCOC(=O)c2ccc(-c3c4nc(c(-c5c(F)cccc5F)c5ccc([nH]5)c(-c5c(F)cccc5F)c5nc(c(-c6c(F)cccc6F)c6ccc3[nH]6)C=C5)C=C4)cc2)[C@@H]2CCS(=O)(=O)C2)sc1C
REMARK SMILES IDX 15 1 14 2 13 3 12 4 11 5 10 6 9 7 7 8 8 9 6 10 5 11 4 12
REMARK SMILES IDX 1 13 2 14 3 15 86 16 85 17 87 18 78 19 79 20 84 21 80 22
REMARK SMILES IDX 81 23 82 24 83 25 16 26 17 27 18 28 19 29 20 30 21 31 22 32
REMARK SMILES IDX 23 33 24 34 25 35 77 36 26 37 76 38 27 39 28 40 29 41 70 42
REMARK SMILES IDX 30 43 75 44 69 45 71 46 31 47 74 48 68 49 67 50 32 52 58 53
REMARK SMILES IDX 41 54 57 55 42 56 45 57 56 58 72 59 43 60 44 61 55 63 73 64
REMARK SMILES IDX 46 65 33 66 34 67 39 68 35 69 36 70 38 71 40 72 37 73 59 74
REMARK SMILES IDX 60 75 65 76 61 77 62 78 64 79 66 80 63 81 47 82 48 83 53 84
REMARK SMILES IDX 49 85 50 86 52 87 54 88 51 89
REMARK H PARENT 71 51 45 62
REMARK Flexibility Score: inf
ROOT
ATOM      1  O   UNL A   1      37.279  29.341  30.308  1.00  0.00    -0.377 OA
ENDROOT
BRANCH   1   2
ATOM      2  C   UNL A   1      36.120  29.897  29.709  1.00  0.00     0.188 C 
BRANCH   2   3
ATOM      3  C   UNL A   1      36.158  30.974  28.598  1.00  0.00     0.188 C 
BRANCH   3   4
ATOM      4  O   UNL A   1      35.207  30.792  27.556  1.00  0.00    -0.376 OA
BRANCH   4   5
ATOM      5  C   UNL A   1      34.886  29.446  27.223  1.00  0.00     0.202 C 
BRANCH   5   6
ATOM      6  C   UNL A   1      33.408  29.195  26.924  1.00  0.00     0.261 C 
BRANCH   6   7
ATOM      7  O   UNL A   1      33.043  27.832  27.210  1.00  0.00    -0.463 OA
BRANCH   7   8
ATOM      8  C   UNL A   1      32.173  27.197  26.417  1.00  0.00     0.309 C 
ATOM      9  O   UNL A   1      30.966  27.142  26.618  1.00  0.00    -0.252 OA
BRANCH   8  10
ATOM     10  C   UNL A   1      32.818  26.571  25.178  1.00  0.00     0.110 C 
BRANCH  10  11
ATOM     11  C   UNL A   1      32.653  27.261  23.798  1.00  0.00     0.083 C 
BRANCH  11  12
ATOM     12  C   UNL A   1      31.378  28.015  23.522  1.00  0.00     0.094 A 
ATOM     13  C   UNL A   1      29.517  31.081  23.881  1.00  0.00     0.068 C 
ATOM     14  C   UNL A   1      29.882  29.665  23.616  1.00  0.00     0.051 A 
ATOM     15  N   UNL A   1      31.216  29.304  23.720  1.00  0.00    -0.246 NA
ATOM     16  C   UNL A   1      29.030  28.624  23.295  1.00  0.00     0.024 A 
ATOM     17  S   UNL A   1      29.929  27.173  23.125  1.00  0.00    -0.124 S 
ATOM     18  C   UNL A   1      27.552  28.650  23.112  1.00  0.00     0.058 C 
ENDBRANCH  11  12
ENDBRANCH  10  11
BRANCH  10  19
ATOM     19  C   UNL A   1      32.653  25.013  25.057  1.00  0.00     0.020 C 
ATOM     20  C   UNL A   1      32.395  24.162  26.321  1.00  0.00     0.021 C 
ATOM     21  C   UNL A   1      33.721  24.299  24.222  1.00  0.00     0.141 C 
ATOM     22  C   UNL A   1      33.574  23.259  26.670  1.00  0.00     0.137 C 
ATOM     23  S   UNL A   1      34.706  23.300  25.315  1.00  0.00     0.150 S 
ATOM     24  O   UNL A   1      35.868  24.054  25.735  1.00  0.00    -0.229 OA
ATOM     25  O   UNL A   1      34.805  21.964  24.763  1.00  0.00    -0.229 OA
ENDBRANCH  10  19
ENDBRANCH   8  10
ENDBRANCH   7   8
ENDBRANCH   6   7
ENDBRANCH   5   6
ENDBRANCH   4   5
ENDBRANCH   3   4
ENDBRANCH   2   3
ENDBRANCH   1   2
BRANCH   1  26
ATOM     26  C   UNL A   1      37.585  29.772  31.619  1.00  0.00     0.188 C 
BRANCH  26  27
ATOM     27  C   UNL A   1      36.316  30.162  32.394  1.00  0.00     0.188 C 
BRANCH  27  28
ATOM     28  O   UNL A   1      36.363  31.498  32.886  1.00  0.00    -0.376 OA
BRANCH  28  29
ATOM     29  C   UNL A   1      35.408  32.434  32.402  1.00  0.00     0.202 C 
BRANCH  29  30
ATOM     30  C   UNL A   1      35.629  33.954  32.535  1.00  0.00     0.261 C 
BRANCH  30  31
ATOM     31  O   UNL A   1      36.808  34.520  31.942  1.00  0.00    -0.460 OA
BRANCH  31  32
ATOM     32  C   UNL A   1      37.970  34.459  32.623  1.00  0.00     0.338 C 
ATOM     33  O   UNL A   1      38.222  34.953  33.701  1.00  0.00    -0.246 OA
BRANCH  32  34
ATOM     34  C   UNL A   1      38.836  33.491  31.905  1.00  0.00     0.060 A 
ATOM     35  C   UNL A   1      39.776  32.752  32.637  1.00  0.00     0.016 A 
ATOM     36  C   UNL A   1      38.686  33.278  30.532  1.00  0.00     0.016 A 
ATOM     37  C   UNL A   1      40.591  31.821  31.991  1.00  0.00     0.010 A 
ATOM     38  C   UNL A   1      39.526  32.372  29.880  1.00  0.00     0.010 A 
ATOM     39  C   UNL A   1      40.505  31.667  30.602  1.00  0.00    -0.014 A 
BRANCH  39  40
ATOM     40  C   UNL A   1      41.599  30.973  29.883  1.00  0.00     0.031 A 
ATOM     41  C   UNL A   1      42.824  31.774  29.536  1.00  0.00     0.074 A 
ATOM     42  C   UNL A   1      41.531  29.666  29.571  1.00  0.00     0.049 A 
ATOM     43  N   UNL A   1      43.899  31.413  28.886  1.00  0.00    -0.248 NA
ATOM     44  C   UNL A   1      42.835  33.176  29.988  1.00  0.00     0.031 C 
ATOM     45  C   UNL A   1      40.425  28.772  29.903  1.00  0.00     0.029 A 
ATOM     46  N   UNL A   1      42.420  28.868  28.896  1.00  0.00    -0.354 N 
ATOM     47  C   UNL A   1      44.712  32.540  28.854  1.00  0.00     0.074 A 
ATOM     48  C   UNL A   1      43.995  33.604  29.519  1.00  0.00     0.031 C 
ATOM     49  C   UNL A   1      40.691  27.549  29.411  1.00  0.00     0.029 A 
ATOM     50  C   UNL A   1      41.975  27.581  28.710  1.00  0.00     0.049 A 
ATOM     51  H   UNL A   1      43.295  29.187  28.575  1.00  0.00     0.167 HD
ATOM     52  C   UNL A   1      45.949  32.673  28.325  1.00  0.00     0.037 A 
ATOM     53  C   UNL A   1      42.536  26.560  28.035  1.00  0.00     0.037 A 
ATOM     54  C   UNL A   1      46.657  31.616  27.656  1.00  0.00     0.049 A 
ATOM     55  C   UNL A   1      43.879  26.759  27.378  1.00  0.00     0.074 A 
ATOM     56  C   UNL A   1      47.919  31.648  27.090  1.00  0.00     0.029 A 
ATOM     57  N   UNL A   1      46.158  30.338  27.456  1.00  0.00    -0.354 N 
ATOM     58  N   UNL A   1      44.651  27.819  27.373  1.00  0.00    -0.248 NA
ATOM     59  C   UNL A   1      44.432  25.615  26.635  1.00  0.00     0.031 C 
ATOM     60  C   UNL A   1      48.163  30.403  26.503  1.00  0.00     0.029 A 
ATOM     61  C   UNL A   1      47.077  29.579  26.752  1.00  0.00     0.049 A 
ATOM     62  H   UNL A   1      45.281  30.017  27.769  1.00  0.00     0.167 HD
ATOM     63  C   UNL A   1      45.791  27.460  26.662  1.00  0.00     0.074 A 
ATOM     64  C   UNL A   1      45.614  26.081  26.258  1.00  0.00     0.031 C 
ATOM     65  C   UNL A   1      46.888  28.203  26.371  1.00  0.00     0.037 A 
BRANCH  52  66
ATOM     66  C   UNL A   1      46.601  34.020  28.423  1.00  0.00     0.057 A 
ATOM     67  C   UNL A   1      47.436  34.361  29.495  1.00  0.00     0.134 A 
ATOM     68  C   UNL A   1      46.409  34.977  27.421  1.00  0.00     0.134 A 
ATOM     69  F   UNL A   1      47.645  33.496  30.499  1.00  0.00    -0.206 F 
ATOM     70  C   UNL A   1      48.046  35.614  29.572  1.00  0.00     0.040 A 
ATOM     71  C   UNL A   1      47.034  36.224  27.474  1.00  0.00     0.040 A 
ATOM     72  F   UNL A   1      45.618  34.714  26.369  1.00  0.00    -0.206 F 
ATOM     73  C   UNL A   1      47.852  36.547  28.554  1.00  0.00     0.006 A 
ENDBRANCH  52  66
BRANCH  53  74
ATOM     74  C   UNL A   1      41.831  25.256  27.921  1.00  0.00     0.057 A 
ATOM     75  C   UNL A   1      42.211  24.152  28.693  1.00  0.00     0.134 A 
ATOM     76  C   UNL A   1      40.789  25.071  27.004  1.00  0.00     0.134 A 
ATOM     77  F   UNL A   1      43.219  24.258  29.571  1.00  0.00    -0.206 F 
ATOM     78  C   UNL A   1      41.600  22.906  28.541  1.00  0.00     0.040 A 
ATOM     79  C   UNL A   1      40.150  23.837  26.859  1.00  0.00     0.040 A 
ATOM     80  F   UNL A   1      40.374  26.088  26.234  1.00  0.00    -0.206 F 
ATOM     81  C   UNL A   1      40.564  22.747  27.622  1.00  0.00     0.006 A 
ENDBRANCH  53  74
BRANCH  65  82
ATOM     82  C   UNL A   1      48.002  27.531  25.622  1.00  0.00     0.057 A 
ATOM     83  C   UNL A   1      48.024  27.467  24.224  1.00  0.00     0.134 A 
ATOM     84  C   UNL A   1      49.094  26.986  26.311  1.00  0.00     0.134 A 
ATOM     85  F   UNL A   1      47.005  27.962  23.504  1.00  0.00    -0.206 F 
ATOM     86  C   UNL A   1      49.081  26.867  23.538  1.00  0.00     0.040 A 
ATOM     87  C   UNL A   1      50.169  26.409  25.637  1.00  0.00     0.040 A 
ATOM     88  F   UNL A   1      49.141  27.024  27.652  1.00  0.00    -0.206 F 
ATOM     89  C   UNL A   1      50.162  26.342  24.246  1.00  0.00     0.006 A 
ENDBRANCH  65  82
ENDBRANCH  39  40
ENDBRANCH  32  34
ENDBRANCH  31  32
ENDBRANCH  30  31
ENDBRANCH  29  30
ENDBRANCH  28  29
ENDBRANCH  27  28
ENDBRANCH  26  27
ENDBRANCH   1  26
TORSDOF 23
ENDMDL
