MODEL 1
REMARK VINA RESULT:     -11.2      0.000      0.000
REMARK SMILES Cc1oc2cc3c(cc2c1C)[C@H](C)[C@@H](CC(=O)N[C@H](CC1=c2ccccc2=NC1)C(=O)OCCOCCOCCOCCOC(=O)c1ccc(-c2c4nc(c(-c5c(F)cccc5F)c5ccc([nH]5)c(-c5c(F)cccc5F)c5nc(c(-c6c(F)cccc6F)c6ccc2[nH]6)C=C5)C=C4)cc1)C(=O)O3
REMARK SMILES IDX 37 1 36 2 35 3 34 4 33 5 32 6 30 7 31 8 19 9 18 10 16 11
REMARK SMILES IDX 17 12 15 14 14 15 1 16 2 17 3 18 10 19 4 20 9 21 11 22 5 23
REMARK SMILES IDX 8 24 6 25 7 26 103 27 12 28 101 29 13 30 102 31 20 32 21 33
REMARK SMILES IDX 22 34 29 35 23 36 27 37 28 38 24 39 26 40 25 41 38 42 39 43
REMARK SMILES IDX 40 44 41 45 42 46 43 47 44 48 45 49 46 50 47 51 48 52 100 53
REMARK SMILES IDX 49 54 99 55 50 56 51 57 52 58 93 59 53 60 98 61 92 62 94 63
REMARK SMILES IDX 54 64 97 65 91 66 90 67 55 69 81 70 64 71 80 72 65 73 68 74
REMARK SMILES IDX 79 75 95 76 66 77 67 78 78 80 96 81 69 82 56 83 57 84 62 85
REMARK SMILES IDX 58 86 59 87 61 88 63 89 60 90 82 91 83 92 88 93 84 94 85 95
REMARK SMILES IDX 87 96 89 97 86 98 70 99 71 100 76 101 72 102 73 103 75 104
REMARK SMILES IDX 77 105 74 106
REMARK H PARENT 18 13 94 68 68 79
REMARK Flexibility Score: inf
ROOT
ATOM      1  C   UNL A   1      37.335  21.390  24.834  1.00  0.00     0.188 C 
ENDROOT
BRANCH   1   2
ATOM      2  C   UNL A   1      36.333  20.259  24.995  1.00  0.00     0.188 C 
BRANCH   2   3
ATOM      3  O   UNL A   1      34.949  20.523  24.758  1.00  0.00    -0.376 OA
BRANCH   3   4
ATOM      4  C   UNL A   1      34.022  19.446  24.730  1.00  0.00     0.202 C 
BRANCH   4   5
ATOM      5  C   UNL A   1      32.607  19.760  24.205  1.00  0.00     0.261 C 
BRANCH   5   6
ATOM      6  O   UNL A   1      32.035  21.089  24.419  1.00  0.00    -0.462 OA
BRANCH   6   7
ATOM      7  C   UNL A   1      31.852  21.794  23.275  1.00  0.00     0.329 C 
ATOM      8  O   UNL A   1      32.177  21.325  22.177  1.00  0.00    -0.250 OA
BRANCH   7   9
ATOM      9  C   UNL A   1      31.302  23.271  23.340  1.00  0.00     0.196 C 
BRANCH   9  10
ATOM     10  N   UNL A   1      32.475  24.020  22.827  1.00  0.00    -0.342 N 
ATOM     11  C   UNL A   1      32.428  25.069  21.949  1.00  0.00     0.221 C 
ATOM     12  O   UNL A   1      33.413  25.305  21.249  1.00  0.00    -0.275 OA
ATOM     13  H   UNL A   1      33.363  23.739  23.147  1.00  0.00     0.164 HD
BRANCH  11  14
ATOM     14  C   UNL A   1      31.201  25.965  21.916  1.00  0.00     0.116 C 
BRANCH  14  15
ATOM     15  C   UNL A   1      31.431  27.414  22.381  1.00  0.00     0.116 C 
ATOM     16  C   UNL A   1      34.093  31.968  29.071  1.00  0.00     0.088 C 
ATOM     17  C   UNL A   1      33.819  31.141  27.878  1.00  0.00     0.105 A 
ATOM     18  O   UNL A   1      32.570  31.256  27.354  1.00  0.00    -0.461 OA
ATOM     19  C   UNL A   1      34.583  30.261  27.131  1.00  0.00    -0.002 A 
ATOM     20  C   UNL A   1      32.520  30.453  26.261  1.00  0.00     0.138 A 
ATOM     21  C   UNL A   1      33.725  29.782  26.096  1.00  0.00     0.024 A 
ATOM     22  C   UNL A   1      36.005  29.897  27.324  1.00  0.00     0.049 C 
ATOM     23  C   UNL A   1      31.425  30.317  25.422  1.00  0.00     0.095 A 
ATOM     24  C   UNL A   1      33.853  28.856  25.041  1.00  0.00     0.020 A 
ATOM     25  C   UNL A   1      31.589  29.407  24.378  1.00  0.00     0.138 A 
ATOM     26  C   UNL A   1      32.769  28.660  24.172  1.00  0.00    -0.001 A 
ATOM     27  O   UNL A   1      30.484  29.223  23.559  1.00  0.00    -0.426 OA
ATOM     28  C   UNL A   1      32.792  27.551  23.118  1.00  0.00     0.035 C 
ATOM     29  C   UNL A   1      30.451  27.863  23.441  1.00  0.00     0.315 C 
ATOM     30  C   UNL A   1      33.953  27.713  22.139  1.00  0.00     0.014 C 
ATOM     31  O   UNL A   1      29.880  27.145  24.250  1.00  0.00    -0.251 OA
ENDBRANCH  14  15
ENDBRANCH  11  14
ENDBRANCH   9  10
BRANCH   9  32
ATOM     32  C   UNL A   1      30.664  24.050  24.518  1.00  0.00     0.070 C 
BRANCH  32  33
ATOM     33  C   UNL A   1      31.385  24.026  25.885  1.00  0.00    -0.037 C 
ATOM     34  C   UNL A   1      32.453  23.244  26.199  1.00  0.00     0.001 A 
ATOM     35  C   UNL A   1      31.696  25.421  26.310  1.00  0.00     0.174 C 
ATOM     36  C   UNL A   1      32.713  22.638  27.523  1.00  0.00     0.010 A 
ATOM     37  C   UNL A   1      33.514  24.289  26.024  1.00  0.00     0.065 A 
ATOM     38  N   UNL A   1      33.135  25.523  26.053  1.00  0.00    -0.280 NA
ATOM     39  C   UNL A   1      33.984  22.553  27.978  1.00  0.00     0.001 A 
ATOM     40  C   UNL A   1      34.907  23.825  26.119  1.00  0.00     0.028 A 
ATOM     41  C   UNL A   1      35.105  22.984  27.147  1.00  0.00     0.002 A 
ENDBRANCH  32  33
ENDBRANCH   9  32
ENDBRANCH   7   9
ENDBRANCH   6   7
ENDBRANCH   5   6
ENDBRANCH   4   5
ENDBRANCH   3   4
ENDBRANCH   2   3
ENDBRANCH   1   2
BRANCH   1  42
ATOM     42  O   UNL A   1      37.864  21.839  26.072  1.00  0.00    -0.377 OA
BRANCH  42  43
ATOM     43  C   UNL A   1      39.284  21.690  26.122  1.00  0.00     0.188 C 
BRANCH  43  44
ATOM     44  C   UNL A   1      39.907  23.039  26.464  1.00  0.00     0.188 C 
BRANCH  44  45
ATOM     45  O   UNL A   1      41.323  23.131  26.308  1.00  0.00    -0.376 OA
BRANCH  45  46
ATOM     46  C   UNL A   1      42.031  24.005  27.187  1.00  0.00     0.202 C 
BRANCH  46  47
ATOM     47  C   UNL A   1      42.594  25.277  26.547  1.00  0.00     0.261 C 
BRANCH  47  48
ATOM     48  O   UNL A   1      41.506  26.122  26.121  1.00  0.00    -0.460 OA
BRANCH  48  49
ATOM     49  C   UNL A   1      41.831  27.395  25.798  1.00  0.00     0.338 C 
ATOM     50  O   UNL A   1      42.341  27.806  24.777  1.00  0.00    -0.246 OA
BRANCH  49  51
ATOM     51  C   UNL A   1      41.232  28.263  26.820  1.00  0.00     0.060 A 
ATOM     52  C   UNL A   1      39.865  28.546  26.839  1.00  0.00     0.016 A 
ATOM     53  C   UNL A   1      42.086  28.801  27.779  1.00  0.00     0.016 A 
ATOM     54  C   UNL A   1      39.348  29.336  27.872  1.00  0.00     0.010 A 
ATOM     55  C   UNL A   1      41.580  29.644  28.757  1.00  0.00     0.010 A 
ATOM     56  C   UNL A   1      40.200  29.868  28.856  1.00  0.00    -0.014 A 
BRANCH  56  57
ATOM     57  C   UNL A   1      39.621  30.406  30.110  1.00  0.00     0.031 A 
ATOM     58  C   UNL A   1      39.994  29.647  31.352  1.00  0.00     0.074 A 
ATOM     59  C   UNL A   1      39.276  31.698  30.272  1.00  0.00     0.049 A 
ATOM     60  N   UNL A   1      41.066  29.879  32.057  1.00  0.00    -0.248 NA
ATOM     61  C   UNL A   1      39.339  28.375  31.665  1.00  0.00     0.031 C 
ATOM     62  C   UNL A   1      40.151  32.813  29.899  1.00  0.00     0.029 A 
ATOM     63  N   UNL A   1      38.330  32.257  31.102  1.00  0.00    -0.354 N 
ATOM     64  C   UNL A   1      41.276  28.760  32.847  1.00  0.00     0.074 A 
ATOM     65  C   UNL A   1      40.173  27.863  32.579  1.00  0.00     0.031 C 
ATOM     66  C   UNL A   1      39.801  33.889  30.634  1.00  0.00     0.029 A 
ATOM     67  C   UNL A   1      38.603  33.583  31.414  1.00  0.00     0.049 A 
ATOM     68  H   UNL A   1      37.542  31.768  31.438  1.00  0.00     0.167 HD
ATOM     69  C   UNL A   1      42.351  28.590  33.662  1.00  0.00     0.037 A 
ATOM     70  C   UNL A   1      38.227  34.191  32.572  1.00  0.00     0.037 A 
ATOM     71  C   UNL A   1      43.274  29.677  33.748  1.00  0.00     0.049 A 
ATOM     72  C   UNL A   1      39.295  33.707  33.513  1.00  0.00     0.074 A 
ATOM     73  C   UNL A   1      44.496  30.031  33.218  1.00  0.00     0.029 A 
ATOM     74  N   UNL A   1      42.949  30.720  34.582  1.00  0.00    -0.354 N 
ATOM     75  N   UNL A   1      40.499  34.194  33.647  1.00  0.00    -0.248 NA
ATOM     76  C   UNL A   1      39.108  32.379  34.103  1.00  0.00     0.031 C 
ATOM     77  C   UNL A   1      44.596  31.449  33.398  1.00  0.00     0.029 A 
ATOM     78  C   UNL A   1      43.401  31.866  33.980  1.00  0.00     0.049 A 
ATOM     79  H   UNL A   1      42.482  30.657  35.446  1.00  0.00     0.167 HD
ATOM     80  C   UNL A   1      41.282  33.125  34.088  1.00  0.00     0.074 A 
ATOM     81  C   UNL A   1      40.357  32.057  34.400  1.00  0.00     0.031 C 
ATOM     82  C   UNL A   1      42.643  33.095  33.983  1.00  0.00     0.037 A 
BRANCH  69  83
ATOM     83  C   UNL A   1      42.499  27.443  34.576  1.00  0.00     0.057 A 
ATOM     84  C   UNL A   1      43.157  26.300  34.109  1.00  0.00     0.134 A 
ATOM     85  C   UNL A   1      41.869  27.378  35.819  1.00  0.00     0.134 A 
ATOM     86  F   UNL A   1      43.767  26.316  32.913  1.00  0.00    -0.206 F 
ATOM     87  C   UNL A   1      43.161  25.113  34.836  1.00  0.00     0.040 A 
ATOM     88  C   UNL A   1      41.870  26.196  36.562  1.00  0.00     0.040 A 
ATOM     89  F   UNL A   1      41.216  28.442  36.311  1.00  0.00    -0.206 F 
ATOM     90  C   UNL A   1      42.506  25.056  36.064  1.00  0.00     0.006 A 
ENDBRANCH  69  83
BRANCH  70  91
ATOM     91  C   UNL A   1      36.764  34.161  32.889  1.00  0.00     0.057 A 
ATOM     92  C   UNL A   1      35.850  34.205  31.818  1.00  0.00     0.134 A 
ATOM     93  C   UNL A   1      36.194  34.105  34.168  1.00  0.00     0.134 A 
ATOM     94  F   UNL A   1      36.286  34.374  30.560  1.00  0.00    -0.206 F 
ATOM     95  C   UNL A   1      34.468  34.081  31.999  1.00  0.00     0.040 A 
ATOM     96  C   UNL A   1      34.815  33.954  34.364  1.00  0.00     0.040 A 
ATOM     97  F   UNL A   1      36.944  34.188  35.273  1.00  0.00    -0.206 F 
ATOM     98  C   UNL A   1      33.949  33.923  33.276  1.00  0.00     0.006 A 
ENDBRANCH  70  91
BRANCH  82  99
ATOM     99  C   UNL A   1      43.283  34.379  33.589  1.00  0.00     0.057 A 
ATOM    100  C   UNL A   1      43.487  34.675  32.237  1.00  0.00     0.134 A 
ATOM    101  C   UNL A   1      43.687  35.337  34.529  1.00  0.00     0.134 A 
ATOM    102  F   UNL A   1      43.114  33.804  31.285  1.00  0.00    -0.206 F 
ATOM    103  C   UNL A   1      44.059  35.882  31.832  1.00  0.00     0.040 A 
ATOM    104  C   UNL A   1      44.235  36.558  34.136  1.00  0.00     0.040 A 
ATOM    105  F   UNL A   1      43.550  35.115  35.847  1.00  0.00    -0.206 F 
ATOM    106  C   UNL A   1      44.424  36.832  32.784  1.00  0.00     0.006 A 
ENDBRANCH  82  99
ENDBRANCH  56  57
ENDBRANCH  49  51
ENDBRANCH  48  49
ENDBRANCH  47  48
ENDBRANCH  46  47
ENDBRANCH  45  46
ENDBRANCH  44  45
ENDBRANCH  43  44
ENDBRANCH  42  43
ENDBRANCH   1  42
TORSDOF 25
ENDMDL
MODEL 2
REMARK VINA RESULT:     -10.5      1.816      5.133
REMARK SMILES Cc1oc2cc3c(cc2c1C)[C@H](C)[C@@H](CC(=O)N[C@H](CC1=c2ccccc2=NC1)C(=O)OCCOCCOCCOCCOC(=O)c1ccc(-c2c4nc(c(-c5c(F)cccc5F)c5ccc([nH]5)c(-c5c(F)cccc5F)c5nc(c(-c6c(F)cccc6F)c6ccc2[nH]6)C=C5)C=C4)cc1)C(=O)O3
REMARK SMILES IDX 37 1 36 2 35 3 34 4 33 5 32 6 30 7 31 8 19 9 18 10 16 11
REMARK SMILES IDX 17 12 15 14 14 15 1 16 2 17 3 18 10 19 4 20 9 21 11 22 5 23
REMARK SMILES IDX 8 24 6 25 7 26 103 27 12 28 101 29 13 30 102 31 20 32 21 33
REMARK SMILES IDX 22 34 29 35 23 36 27 37 28 38 24 39 26 40 25 41 38 42 39 43
REMARK SMILES IDX 40 44 41 45 42 46 43 47 44 48 45 49 46 50 47 51 48 52 100 53
REMARK SMILES IDX 49 54 99 55 50 56 51 57 52 58 93 59 53 60 98 61 92 62 94 63
REMARK SMILES IDX 54 64 97 65 91 66 90 67 55 69 81 70 64 71 80 72 65 73 68 74
REMARK SMILES IDX 79 75 95 76 66 77 67 78 78 80 96 81 69 82 56 83 57 84 62 85
REMARK SMILES IDX 58 86 59 87 61 88 63 89 60 90 82 91 83 92 88 93 84 94 85 95
REMARK SMILES IDX 87 96 89 97 86 98 70 99 71 100 76 101 72 102 73 103 75 104
REMARK SMILES IDX 77 105 74 106
REMARK H PARENT 18 13 94 68 68 79
REMARK Flexibility Score: inf
ROOT
ATOM      1  C   UNL A   1      37.323  20.806  24.593  1.00  0.00     0.188 C 
ENDROOT
BRANCH   1   2
ATOM      2  C   UNL A   1      36.776  19.401  24.777  1.00  0.00     0.188 C 
BRANCH   2   3
ATOM      3  O   UNL A   1      35.361  19.210  24.813  1.00  0.00    -0.376 OA
BRANCH   3   4
ATOM      4  C   UNL A   1      34.497  20.335  24.731  1.00  0.00     0.202 C 
BRANCH   4   5
ATOM      5  C   UNL A   1      33.101  20.097  24.120  1.00  0.00     0.261 C 
BRANCH   5   6
ATOM      6  O   UNL A   1      32.060  21.111  24.279  1.00  0.00    -0.462 OA
BRANCH   6   7
ATOM      7  C   UNL A   1      31.912  21.914  23.197  1.00  0.00     0.329 C 
ATOM      8  O   UNL A   1      32.270  21.543  22.072  1.00  0.00    -0.250 OA
BRANCH   7   9
ATOM      9  C   UNL A   1      31.359  23.382  23.374  1.00  0.00     0.196 C 
BRANCH   9  10
ATOM     10  N   UNL A   1      32.493  24.166  22.828  1.00  0.00    -0.342 N 
ATOM     11  C   UNL A   1      32.384  25.282  22.043  1.00  0.00     0.221 C 
ATOM     12  O   UNL A   1      33.310  25.571  21.286  1.00  0.00    -0.275 OA
ATOM     13  H   UNL A   1      33.401  23.858  23.050  1.00  0.00     0.164 HD
BRANCH  11  14
ATOM     14  C   UNL A   1      31.167  26.181  22.183  1.00  0.00     0.116 C 
BRANCH  14  15
ATOM     15  C   UNL A   1      31.459  27.616  22.658  1.00  0.00     0.116 C 
ATOM     16  C   UNL A   1      34.478  31.996  29.311  1.00  0.00     0.088 C 
ATOM     17  C   UNL A   1      34.140  31.194  28.119  1.00  0.00     0.105 A 
ATOM     18  O   UNL A   1      32.878  31.356  27.636  1.00  0.00    -0.461 OA
ATOM     19  C   UNL A   1      34.850  30.300  27.337  1.00  0.00    -0.002 A 
ATOM     20  C   UNL A   1      32.768  30.568  26.536  1.00  0.00     0.138 A 
ATOM     21  C   UNL A   1      33.944  29.862  26.325  1.00  0.00     0.024 A 
ATOM     22  C   UNL A   1      36.265  29.887  27.480  1.00  0.00     0.049 C 
ATOM     23  C   UNL A   1      31.643  30.479  25.731  1.00  0.00     0.095 A 
ATOM     24  C   UNL A   1      34.009  28.946  25.255  1.00  0.00     0.020 A 
ATOM     25  C   UNL A   1      31.744  29.577  24.671  1.00  0.00     0.138 A 
ATOM     26  C   UNL A   1      32.893  28.795  24.419  1.00  0.00    -0.001 A 
ATOM     27  O   UNL A   1      30.608  29.440  23.886  1.00  0.00    -0.426 OA
ATOM     28  C   UNL A   1      32.845  27.700  23.352  1.00  0.00     0.035 C 
ATOM     29  C   UNL A   1      30.527  28.083  23.753  1.00  0.00     0.315 C 
ATOM     30  C   UNL A   1      33.980  27.837  22.338  1.00  0.00     0.014 C 
ATOM     31  O   UNL A   1      29.960  27.373  24.572  1.00  0.00    -0.251 OA
ENDBRANCH  14  15
ENDBRANCH  11  14
ENDBRANCH   9  10
BRANCH   9  32
ATOM     32  C   UNL A   1      30.793  24.093  24.629  1.00  0.00     0.070 C 
BRANCH  32  33
ATOM     33  C   UNL A   1      31.646  24.086  25.918  1.00  0.00    -0.037 C 
ATOM     34  C   UNL A   1      32.708  23.271  26.156  1.00  0.00     0.001 A 
ATOM     35  C   UNL A   1      32.052  25.481  26.255  1.00  0.00     0.174 C 
ATOM     36  C   UNL A   1      33.076  22.703  27.471  1.00  0.00     0.010 A 
ATOM     37  C   UNL A   1      33.786  24.263  25.836  1.00  0.00     0.065 A 
ATOM     38  N   UNL A   1      33.461  25.513  25.854  1.00  0.00    -0.280 NA
ATOM     39  C   UNL A   1      34.383  22.580  27.801  1.00  0.00     0.001 A 
ATOM     40  C   UNL A   1      35.163  23.744  25.812  1.00  0.00     0.028 A 
ATOM     41  C   UNL A   1      35.430  22.933  26.847  1.00  0.00     0.002 A 
ENDBRANCH  32  33
ENDBRANCH   9  32
ENDBRANCH   7   9
ENDBRANCH   6   7
ENDBRANCH   5   6
ENDBRANCH   4   5
ENDBRANCH   3   4
ENDBRANCH   2   3
ENDBRANCH   1   2
BRANCH   1  42
ATOM     42  O   UNL A   1      38.299  21.151  25.564  1.00  0.00    -0.377 OA
BRANCH  42  43
ATOM     43  C   UNL A   1      39.261  20.108  25.735  1.00  0.00     0.188 C 
BRANCH  43  44
ATOM     44  C   UNL A   1      40.490  20.684  26.431  1.00  0.00     0.188 C 
BRANCH  44  45
ATOM     45  O   UNL A   1      40.251  21.783  27.312  1.00  0.00    -0.376 OA
BRANCH  45  46
ATOM     46  C   UNL A   1      41.384  22.404  27.919  1.00  0.00     0.202 C 
BRANCH  46  47
ATOM     47  C   UNL A   1      41.342  23.932  27.996  1.00  0.00     0.261 C 
BRANCH  47  48
ATOM     48  O   UNL A   1      40.056  24.352  28.495  1.00  0.00    -0.460 OA
BRANCH  48  49
ATOM     49  C   UNL A   1      39.345  25.177  27.692  1.00  0.00     0.338 C 
ATOM     50  O   UNL A   1      38.523  24.883  26.849  1.00  0.00    -0.246 OA
BRANCH  49  51
ATOM     51  C   UNL A   1      39.560  26.545  28.183  1.00  0.00     0.060 A 
ATOM     52  C   UNL A   1      39.621  26.838  29.547  1.00  0.00     0.016 A 
ATOM     53  C   UNL A   1      39.702  27.549  27.229  1.00  0.00     0.016 A 
ATOM     54  C   UNL A   1      39.883  28.152  29.949  1.00  0.00     0.010 A 
ATOM     55  C   UNL A   1      39.888  28.862  27.634  1.00  0.00     0.010 A 
ATOM     56  C   UNL A   1      40.047  29.170  28.992  1.00  0.00    -0.014 A 
BRANCH  56  57
ATOM     57  C   UNL A   1      40.649  30.462  29.397  1.00  0.00     0.031 A 
ATOM     58  C   UNL A   1      39.711  31.401  30.102  1.00  0.00     0.074 A 
ATOM     59  C   UNL A   1      41.963  30.623  29.644  1.00  0.00     0.049 A 
ATOM     60  N   UNL A   1      39.502  31.395  31.389  1.00  0.00    -0.248 NA
ATOM     61  C   UNL A   1      38.722  32.167  29.341  1.00  0.00     0.031 C 
ATOM     62  C   UNL A   1      42.735  29.708  30.492  1.00  0.00     0.029 A 
ATOM     63  N   UNL A   1      42.745  31.751  29.543  1.00  0.00    -0.354 N 
ATOM     64  C   UNL A   1      38.319  32.085  31.606  1.00  0.00     0.074 A 
ATOM     65  C   UNL A   1      37.882  32.555  30.309  1.00  0.00     0.031 C 
ATOM     66  C   UNL A   1      43.803  30.378  30.973  1.00  0.00     0.029 A 
ATOM     67  C   UNL A   1      43.867  31.705  30.363  1.00  0.00     0.049 A 
ATOM     68  H   UNL A   1      42.533  32.511  28.952  1.00  0.00     0.167 HD
ATOM     69  C   UNL A   1      37.725  32.221  32.821  1.00  0.00     0.037 A 
ATOM     70  C   UNL A   1      44.472  32.801  30.896  1.00  0.00     0.037 A 
ATOM     71  C   UNL A   1      38.416  31.669  33.943  1.00  0.00     0.049 A 
ATOM     72  C   UNL A   1      43.575  33.084  32.070  1.00  0.00     0.074 A 
ATOM     73  C   UNL A   1      38.369  30.534  34.722  1.00  0.00     0.029 A 
ATOM     74  N   UNL A   1      39.437  32.413  34.486  1.00  0.00    -0.354 N 
ATOM     75  N   UNL A   1      43.606  32.498  33.237  1.00  0.00    -0.248 NA
ATOM     76  C   UNL A   1      42.350  33.842  31.801  1.00  0.00     0.031 C 
ATOM     77  C   UNL A   1      39.646  30.457  35.367  1.00  0.00     0.029 A 
ATOM     78  C   UNL A   1      40.402  31.527  34.892  1.00  0.00     0.049 A 
ATOM     79  H   UNL A   1      39.469  33.393  34.568  1.00  0.00     0.167 HD
ATOM     80  C   UNL A   1      42.300  32.585  33.726  1.00  0.00     0.074 A 
ATOM     81  C   UNL A   1      41.595  33.469  32.822  1.00  0.00     0.031 C 
ATOM     82  C   UNL A   1      41.811  31.780  34.714  1.00  0.00     0.037 A 
BRANCH  69  83
ATOM     83  C   UNL A   1      36.528  33.050  33.047  1.00  0.00     0.057 A 
ATOM     84  C   UNL A   1      35.271  32.490  32.791  1.00  0.00     0.134 A 
ATOM     85  C   UNL A   1      36.594  34.413  33.338  1.00  0.00     0.134 A 
ATOM     86  F   UNL A   1      35.164  31.184  32.496  1.00  0.00    -0.206 F 
ATOM     87  C   UNL A   1      34.115  33.265  32.787  1.00  0.00     0.040 A 
ATOM     88  C   UNL A   1      35.441  35.201  33.344  1.00  0.00     0.040 A 
ATOM     89  F   UNL A   1      37.773  35.003  33.583  1.00  0.00    -0.206 F 
ATOM     90  C   UNL A   1      34.200  34.629  33.055  1.00  0.00     0.006 A 
ENDBRANCH  69  83
BRANCH  70  91
ATOM     91  C   UNL A   1      44.922  33.847  29.923  1.00  0.00     0.057 A 
ATOM     92  C   UNL A   1      46.091  33.600  29.176  1.00  0.00     0.134 A 
ATOM     93  C   UNL A   1      44.299  35.077  29.681  1.00  0.00     0.134 A 
ATOM     94  F   UNL A   1      46.829  32.503  29.411  1.00  0.00    -0.206 F 
ATOM     95  C   UNL A   1      46.540  34.463  28.171  1.00  0.00     0.040 A 
ATOM     96  C   UNL A   1      44.721  35.940  28.660  1.00  0.00     0.040 A 
ATOM     97  F   UNL A   1      43.257  35.491  30.413  1.00  0.00    -0.206 F 
ATOM     98  C   UNL A   1      45.835  35.625  27.889  1.00  0.00     0.006 A 
ENDBRANCH  70  91
BRANCH  82  99
ATOM     99  C   UNL A   1      42.824  30.952  35.424  1.00  0.00     0.057 A 
ATOM    100  C   UNL A   1      43.448  31.442  36.577  1.00  0.00     0.134 A 
ATOM    101  C   UNL A   1      43.180  29.667  34.992  1.00  0.00     0.134 A 
ATOM    102  F   UNL A   1      43.145  32.662  37.049  1.00  0.00    -0.206 F 
ATOM    103  C   UNL A   1      44.381  30.681  37.281  1.00  0.00     0.040 A 
ATOM    104  C   UNL A   1      44.091  28.885  35.703  1.00  0.00     0.040 A 
ATOM    105  F   UNL A   1      42.645  29.137  33.879  1.00  0.00    -0.206 F 
ATOM    106  C   UNL A   1      44.696  29.393  36.850  1.00  0.00     0.006 A 
ENDBRANCH  82  99
ENDBRANCH  56  57
ENDBRANCH  49  51
ENDBRANCH  48  49
ENDBRANCH  47  48
ENDBRANCH  46  47
ENDBRANCH  45  46
ENDBRANCH  44  45
ENDBRANCH  43  44
ENDBRANCH  42  43
ENDBRANCH   1  42
TORSDOF 25
ENDMDL
MODEL 3
REMARK VINA RESULT:     -10.4      4.012      9.504
REMARK SMILES Cc1oc2cc3c(cc2c1C)[C@H](C)[C@@H](CC(=O)N[C@H](CC1=c2ccccc2=NC1)C(=O)OCCOCCOCCOCCOC(=O)c1ccc(-c2c4nc(c(-c5c(F)cccc5F)c5ccc([nH]5)c(-c5c(F)cccc5F)c5nc(c(-c6c(F)cccc6F)c6ccc2[nH]6)C=C5)C=C4)cc1)C(=O)O3
REMARK SMILES IDX 37 1 36 2 35 3 34 4 33 5 32 6 30 7 31 8 19 9 18 10 16 11
REMARK SMILES IDX 17 12 15 14 14 15 1 16 2 17 3 18 10 19 4 20 9 21 11 22 5 23
REMARK SMILES IDX 8 24 6 25 7 26 103 27 12 28 101 29 13 30 102 31 20 32 21 33
REMARK SMILES IDX 22 34 29 35 23 36 27 37 28 38 24 39 26 40 25 41 38 42 39 43
REMARK SMILES IDX 40 44 41 45 42 46 43 47 44 48 45 49 46 50 47 51 48 52 100 53
REMARK SMILES IDX 49 54 99 55 50 56 51 57 52 58 93 59 53 60 98 61 92 62 94 63
REMARK SMILES IDX 54 64 97 65 91 66 90 67 55 69 81 70 64 71 80 72 65 73 68 74
REMARK SMILES IDX 79 75 95 76 66 77 67 78 78 80 96 81 69 82 56 83 57 84 62 85
REMARK SMILES IDX 58 86 59 87 61 88 63 89 60 90 82 91 83 92 88 93 84 94 85 95
REMARK SMILES IDX 87 96 89 97 86 98 70 99 71 100 76 101 72 102 73 103 75 104
REMARK SMILES IDX 77 105 74 106
REMARK H PARENT 18 13 94 68 68 79
REMARK Flexibility Score: inf
ROOT
ATOM      1  C   UNL A   1      33.504  25.374  24.054  1.00  0.00     0.188 C 
ENDROOT
BRANCH   1   2
ATOM      2  C   UNL A   1      32.210  26.152  23.890  1.00  0.00     0.188 C 
BRANCH   2   3
ATOM      3  O   UNL A   1      31.457  26.497  25.054  1.00  0.00    -0.376 OA
BRANCH   3   4
ATOM      4  C   UNL A   1      31.446  27.842  25.512  1.00  0.00     0.202 C 
BRANCH   4   5
ATOM      5  C   UNL A   1      32.033  28.104  26.914  1.00  0.00     0.261 C 
BRANCH   5   6
ATOM      6  O   UNL A   1      32.088  29.471  27.430  1.00  0.00    -0.462 OA
BRANCH   6   7
ATOM      7  C   UNL A   1      33.143  30.186  26.968  1.00  0.00     0.329 C 
ATOM      8  O   UNL A   1      33.106  30.734  25.860  1.00  0.00    -0.250 OA
BRANCH   7   9
ATOM      9  C   UNL A   1      34.477  30.254  27.808  1.00  0.00     0.196 C 
BRANCH   9  10
ATOM     10  N   UNL A   1      34.952  31.613  27.451  1.00  0.00    -0.342 N 
ATOM     11  C   UNL A   1      34.601  32.772  28.090  1.00  0.00     0.221 C 
ATOM     12  O   UNL A   1      34.657  33.834  27.470  1.00  0.00    -0.275 OA
ATOM     13  H   UNL A   1      35.573  31.687  26.691  1.00  0.00     0.164 HD
BRANCH  11  14
ATOM     14  C   UNL A   1      34.235  32.734  29.564  1.00  0.00     0.116 C 
BRANCH  14  15
ATOM     15  C   UNL A   1      35.108  33.606  30.483  1.00  0.00     0.116 C 
ATOM     16  C   UNL A   1      40.481  33.116  37.075  1.00  0.00     0.088 C 
ATOM     17  C   UNL A   1      39.697  33.137  35.824  1.00  0.00     0.105 A 
ATOM     18  O   UNL A   1      38.532  33.838  35.868  1.00  0.00    -0.461 OA
ATOM     19  C   UNL A   1      39.899  32.606  34.562  1.00  0.00    -0.002 A 
ATOM     20  C   UNL A   1      37.976  33.767  34.632  1.00  0.00     0.138 A 
ATOM     21  C   UNL A   1      38.759  32.984  33.793  1.00  0.00     0.024 A 
ATOM     22  C   UNL A   1      41.062  31.828  34.075  1.00  0.00     0.049 C 
ATOM     23  C   UNL A   1      36.796  34.386  34.254  1.00  0.00     0.095 A 
ATOM     24  C   UNL A   1      38.319  32.747  32.474  1.00  0.00     0.020 A 
ATOM     25  C   UNL A   1      36.396  34.145  32.939  1.00  0.00     0.138 A 
ATOM     26  C   UNL A   1      37.119  33.329  32.041  1.00  0.00    -0.001 A 
ATOM     27  O   UNL A   1      35.191  34.718  32.561  1.00  0.00    -0.426 OA
ATOM     28  C   UNL A   1      36.510  32.970  30.684  1.00  0.00     0.035 C 
ATOM     29  C   UNL A   1      34.589  33.685  31.901  1.00  0.00     0.315 C 
ATOM     30  C   UNL A   1      37.453  33.299  29.528  1.00  0.00     0.014 C 
ATOM     31  O   UNL A   1      33.923  32.835  32.475  1.00  0.00    -0.251 OA
ENDBRANCH  14  15
ENDBRANCH  11  14
ENDBRANCH   9  10
BRANCH   9  32
ATOM     32  C   UNL A   1      35.681  29.279  27.854  1.00  0.00     0.070 C 
BRANCH  32  33
ATOM     33  C   UNL A   1      36.929  29.698  28.664  1.00  0.00    -0.037 C 
ATOM     34  C   UNL A   1      37.426  29.038  29.744  1.00  0.00     0.001 A 
ATOM     35  C   UNL A   1      38.059  29.974  27.732  1.00  0.00     0.174 C 
ATOM     36  C   UNL A   1      38.063  29.671  30.919  1.00  0.00     0.010 A 
ATOM     37  C   UNL A   1      38.532  28.315  29.033  1.00  0.00     0.065 A 
ATOM     38  N   UNL A   1      38.904  28.787  27.890  1.00  0.00    -0.280 NA
ATOM     39  C   UNL A   1      39.116  29.063  31.513  1.00  0.00     0.001 A 
ATOM     40  C   UNL A   1      39.272  27.319  29.823  1.00  0.00     0.028 A 
ATOM     41  C   UNL A   1      39.583  27.758  31.053  1.00  0.00     0.002 A 
ENDBRANCH  32  33
ENDBRANCH   9  32
ENDBRANCH   7   9
ENDBRANCH   6   7
ENDBRANCH   5   6
ENDBRANCH   4   5
ENDBRANCH   3   4
ENDBRANCH   2   3
ENDBRANCH   1   2
BRANCH   1  42
ATOM     42  O   UNL A   1      33.494  24.133  23.365  1.00  0.00    -0.377 OA
BRANCH  42  43
ATOM     43  C   UNL A   1      33.688  23.035  24.257  1.00  0.00     0.188 C 
BRANCH  43  44
ATOM     44  C   UNL A   1      35.174  22.926  24.586  1.00  0.00     0.188 C 
BRANCH  44  45
ATOM     45  O   UNL A   1      35.674  21.604  24.784  1.00  0.00    -0.376 OA
BRANCH  45  46
ATOM     46  C   UNL A   1      36.754  21.435  25.702  1.00  0.00     0.202 C 
BRANCH  46  47
ATOM     47  C   UNL A   1      38.102  22.004  25.254  1.00  0.00     0.261 C 
BRANCH  47  48
ATOM     48  O   UNL A   1      38.856  22.422  26.410  1.00  0.00    -0.460 OA
BRANCH  48  49
ATOM     49  C   UNL A   1      38.981  23.756  26.591  1.00  0.00     0.338 C 
ATOM     50  O   UNL A   1      38.111  24.602  26.587  1.00  0.00    -0.246 OA
BRANCH  49  51
ATOM     51  C   UNL A   1      40.357  24.001  27.044  1.00  0.00     0.060 A 
ATOM     52  C   UNL A   1      40.882  25.290  27.146  1.00  0.00     0.016 A 
ATOM     53  C   UNL A   1      41.128  22.888  27.371  1.00  0.00     0.016 A 
ATOM     54  C   UNL A   1      42.181  25.459  27.635  1.00  0.00     0.010 A 
ATOM     55  C   UNL A   1      42.440  23.057  27.785  1.00  0.00     0.010 A 
ATOM     56  C   UNL A   1      42.961  24.342  27.986  1.00  0.00    -0.014 A 
BRANCH  56  57
ATOM     57  C   UNL A   1      44.180  24.532  28.806  1.00  0.00     0.031 A 
ATOM     58  C   UNL A   1      45.415  24.886  28.026  1.00  0.00     0.074 A 
ATOM     59  C   UNL A   1      44.154  24.909  30.099  1.00  0.00     0.049 A 
ATOM     60  N   UNL A   1      45.756  26.104  27.711  1.00  0.00    -0.248 NA
ATOM     61  C   UNL A   1      46.143  23.854  27.287  1.00  0.00     0.031 C 
ATOM     62  C   UNL A   1      43.344  26.029  30.588  1.00  0.00     0.029 A 
ATOM     63  N   UNL A   1      45.063  24.668  31.104  1.00  0.00    -0.354 N 
ATOM     64  C   UNL A   1      46.681  26.009  26.683  1.00  0.00     0.074 A 
ATOM     65  C   UNL A   1      46.899  24.595  26.466  1.00  0.00     0.031 C 
ATOM     66  C   UNL A   1      43.904  26.489  31.726  1.00  0.00     0.029 A 
ATOM     67  C   UNL A   1      45.011  25.618  32.117  1.00  0.00     0.049 A 
ATOM     68  H   UNL A   1      45.685  23.904  31.105  1.00  0.00     0.167 HD
ATOM     69  C   UNL A   1      47.209  27.076  26.028  1.00  0.00     0.037 A 
ATOM     70  C   UNL A   1      46.074  25.975  32.888  1.00  0.00     0.037 A 
ATOM     71  C   UNL A   1      46.826  28.373  26.491  1.00  0.00     0.049 A 
ATOM     72  C   UNL A   1      46.789  26.931  31.972  1.00  0.00     0.074 A 
ATOM     73  C   UNL A   1      45.938  29.367  26.143  1.00  0.00     0.029 A 
ATOM     74  N   UNL A   1      47.480  28.870  27.594  1.00  0.00    -0.354 N 
ATOM     75  N   UNL A   1      46.504  28.191  31.780  1.00  0.00    -0.248 NA
ATOM     76  C   UNL A   1      47.670  26.345  30.959  1.00  0.00     0.031 C 
ATOM     77  C   UNL A   1      45.787  30.175  27.316  1.00  0.00     0.029 A 
ATOM     78  C   UNL A   1      46.556  29.582  28.315  1.00  0.00     0.049 A 
ATOM     79  H   UNL A   1      48.428  28.740  27.821  1.00  0.00     0.167 HD
ATOM     80  C   UNL A   1      46.941  28.474  30.484  1.00  0.00     0.074 A 
ATOM     81  C   UNL A   1      47.696  27.315  30.058  1.00  0.00     0.031 C 
ATOM     82  C   UNL A   1      46.499  29.540  29.756  1.00  0.00     0.037 A 
BRANCH  69  83
ATOM     83  C   UNL A   1      48.272  26.958  25.014  1.00  0.00     0.057 A 
ATOM     84  C   UNL A   1      49.568  26.644  25.441  1.00  0.00     0.134 A 
ATOM     85  C   UNL A   1      48.088  27.311  23.677  1.00  0.00     0.134 A 
ATOM     86  F   UNL A   1      49.791  26.309  26.722  1.00  0.00    -0.206 F 
ATOM     87  C   UNL A   1      50.656  26.711  24.576  1.00  0.00     0.040 A 
ATOM     88  C   UNL A   1      49.170  27.376  22.797  1.00  0.00     0.040 A 
ATOM     89  F   UNL A   1      46.869  27.630  23.217  1.00  0.00    -0.206 F 
ATOM     90  C   UNL A   1      50.460  27.089  23.250  1.00  0.00     0.006 A 
ENDBRANCH  69  83
BRANCH  70  91
ATOM     91  C   UNL A   1      46.756  24.866  33.627  1.00  0.00     0.057 A 
ATOM     92  C   UNL A   1      45.963  23.819  34.136  1.00  0.00     0.134 A 
ATOM     93  C   UNL A   1      48.130  24.762  33.884  1.00  0.00     0.134 A 
ATOM     94  F   UNL A   1      44.624  23.876  34.046  1.00  0.00    -0.206 F 
ATOM     95  C   UNL A   1      46.509  22.688  34.752  1.00  0.00     0.040 A 
ATOM     96  C   UNL A   1      48.694  23.624  34.475  1.00  0.00     0.040 A 
ATOM     97  F   UNL A   1      48.978  25.750  33.570  1.00  0.00    -0.206 F 
ATOM     98  C   UNL A   1      47.885  22.574  34.895  1.00  0.00     0.006 A 
ENDBRANCH  70  91
BRANCH  82  99
ATOM     99  C   UNL A   1      45.694  30.540  30.511  1.00  0.00     0.057 A 
ATOM    100  C   UNL A   1      44.306  30.395  30.607  1.00  0.00     0.134 A 
ATOM    101  C   UNL A   1      46.277  31.638  31.158  1.00  0.00     0.134 A 
ATOM    102  F   UNL A   1      43.687  29.359  30.017  1.00  0.00    -0.206 F 
ATOM    103  C   UNL A   1      43.526  31.299  31.328  1.00  0.00     0.040 A 
ATOM    104  C   UNL A   1      45.511  32.534  31.905  1.00  0.00     0.040 A 
ATOM    105  F   UNL A   1      47.599  31.862  31.089  1.00  0.00    -0.206 F 
ATOM    106  C   UNL A   1      44.131  32.366  31.990  1.00  0.00     0.006 A 
ENDBRANCH  82  99
ENDBRANCH  56  57
ENDBRANCH  49  51
ENDBRANCH  48  49
ENDBRANCH  47  48
ENDBRANCH  46  47
ENDBRANCH  45  46
ENDBRANCH  44  45
ENDBRANCH  43  44
ENDBRANCH  42  43
ENDBRANCH   1  42
TORSDOF 25
ENDMDL
