MODEL 1
REMARK VINA RESULT:     -10.4      0.000      0.000
REMARK SMILES Cc1ccc(C)c(S(=O)(=O)N[C@@H](CC2=c3ccccc3=NC2)C(=O)OCCOCCOCCOCCOC(=O)c2ccc(-c3c4nc(c(-c5c(F)cccc5F)c5ccc([nH]5)c(-c5c(F)cccc5F)c5nc(c(-c6c(F)cccc6F)c6ccc3[nH]6)C=C5)C=C4)cc2)c1
REMARK SMILES IDX 30 1 29 2 28 3 27 4 26 5 25 6 23 7 24 8 12 9 11 10 8 12 9 13
REMARK SMILES IDX 10 14 7 15 1 16 2 17 3 18 94 19 4 20 5 21 6 22 13 23 14 24
REMARK SMILES IDX 15 25 22 26 16 27 20 28 21 29 17 30 19 31 18 32 31 33 32 34
REMARK SMILES IDX 33 35 34 36 35 37 36 38 37 39 38 40 39 41 40 42 41 43 93 44
REMARK SMILES IDX 42 45 92 46 43 47 44 48 45 49 86 50 46 51 91 52 85 53 87 54
REMARK SMILES IDX 47 55 90 56 84 57 83 58 48 60 74 61 57 62 73 63 58 64 61 65
REMARK SMILES IDX 72 66 88 67 59 68 60 69 71 71 89 72 62 73 49 74 50 75 55 76
REMARK SMILES IDX 51 77 52 78 54 79 56 80 53 81 75 82 76 83 81 84 77 85 78 86
REMARK SMILES IDX 80 87 82 88 79 89 63 90 64 91 69 92 65 93 66 94 68 95 70 96
REMARK SMILES IDX 67 97
REMARK H PARENT 11 11 87 59 61 70
REMARK Flexibility Score: inf
ROOT
ATOM      1  C   UNL A   1      33.111  22.330  23.975  1.00  0.00     0.188 C 
ENDROOT
BRANCH   1   2
ATOM      2  C   UNL A   1      31.720  22.774  24.376  1.00  0.00     0.188 C 
BRANCH   2   3
ATOM      3  O   UNL A   1      31.092  22.493  25.607  1.00  0.00    -0.376 OA
BRANCH   3   4
ATOM      4  C   UNL A   1      31.212  23.440  26.650  1.00  0.00     0.202 C 
BRANCH   4   5
ATOM      5  C   UNL A   1      31.287  24.926  26.252  1.00  0.00     0.261 C 
BRANCH   5   6
ATOM      6  O   UNL A   1      32.595  25.543  26.372  1.00  0.00    -0.462 OA
BRANCH   6   7
ATOM      7  C   UNL A   1      32.568  26.878  26.461  1.00  0.00     0.324 C 
ATOM      8  O   UNL A   1      31.637  27.559  26.825  1.00  0.00    -0.250 OA
BRANCH   7   9
ATOM      9  C   UNL A   1      33.726  27.634  26.009  1.00  0.00     0.183 C 
BRANCH   9  10
ATOM     10  N   UNL A   1      34.015  27.242  24.477  1.00  0.00    -0.197 NA
ATOM     11  H   UNL A   1      34.987  27.483  24.286  1.00  0.00     0.142 HD
BRANCH  10  12
ATOM     12  S   UNL A   1      32.883  28.095  22.990  1.00  0.00     0.241 S 
ATOM     13  O   UNL A   1      32.918  27.168  21.958  1.00  0.00    -0.207 OA
ATOM     14  O   UNL A   1      33.710  29.304  22.777  1.00  0.00    -0.207 OA
BRANCH  12  15
ATOM     15  C   UNL A   1      30.681  28.678  23.651  1.00  0.00     0.085 A 
ATOM     16  C   UNL A   1      28.755  31.810  22.138  1.00  0.00     0.044 C 
ATOM     17  C   UNL A   1      28.804  30.523  22.957  1.00  0.00    -0.050 A 
ATOM     18  C   UNL A   1      28.021  29.465  22.751  1.00  0.00     0.004 A 
ATOM     19  C   UNL A   1      29.900  30.107  23.705  1.00  0.00     0.025 A 
ATOM     20  C   UNL A   1      28.498  28.161  23.180  1.00  0.00     0.005 A 
ATOM     21  C   UNL A   1      29.812  27.745  23.512  1.00  0.00    -0.031 A 
ATOM     22  C   UNL A   1      30.521  26.557  23.196  1.00  0.00     0.046 C 
ENDBRANCH  12  15
ENDBRANCH  10  12
ENDBRANCH   9  10
BRANCH   9  23
ATOM     23  C   UNL A   1      33.363  29.228  26.318  1.00  0.00     0.065 C 
BRANCH  23  24
ATOM     24  C   UNL A   1      34.171  30.132  27.338  1.00  0.00    -0.037 C 
ATOM     25  C   UNL A   1      35.384  29.948  27.911  1.00  0.00     0.001 A 
ATOM     26  C   UNL A   1      33.723  31.544  27.658  1.00  0.00     0.174 C 
ATOM     27  C   UNL A   1      36.403  28.931  27.897  1.00  0.00     0.010 A 
ATOM     28  C   UNL A   1      35.709  31.272  28.515  1.00  0.00     0.065 A 
ATOM     29  N   UNL A   1      34.778  32.175  28.492  1.00  0.00    -0.280 NA
ATOM     30  C   UNL A   1      37.652  29.217  28.321  1.00  0.00     0.001 A 
ATOM     31  C   UNL A   1      37.102  31.499  28.997  1.00  0.00     0.028 A 
ATOM     32  C   UNL A   1      38.014  30.529  28.827  1.00  0.00     0.002 A 
ENDBRANCH  23  24
ENDBRANCH   9  23
ENDBRANCH   7   9
ENDBRANCH   6   7
ENDBRANCH   5   6
ENDBRANCH   4   5
ENDBRANCH   3   4
ENDBRANCH   2   3
ENDBRANCH   1   2
BRANCH   1  33
ATOM     33  O   UNL A   1      33.393  20.989  24.289  1.00  0.00    -0.377 OA
BRANCH  33  34
ATOM     34  C   UNL A   1      34.133  20.831  25.483  1.00  0.00     0.188 C 
BRANCH  34  35
ATOM     35  C   UNL A   1      35.630  20.648  25.226  1.00  0.00     0.188 C 
BRANCH  35  36
ATOM     36  O   UNL A   1      36.374  21.771  25.685  1.00  0.00    -0.376 OA
BRANCH  36  37
ATOM     37  C   UNL A   1      37.515  22.099  24.920  1.00  0.00     0.202 C 
BRANCH  37  38
ATOM     38  C   UNL A   1      38.720  22.334  25.824  1.00  0.00     0.261 C 
BRANCH  38  39
ATOM     39  O   UNL A   1      39.270  23.675  25.955  1.00  0.00    -0.460 OA
BRANCH  39  40
ATOM     40  C   UNL A   1      40.532  23.869  26.411  1.00  0.00     0.338 C 
ATOM     41  O   UNL A   1      41.540  23.578  25.788  1.00  0.00    -0.246 OA
BRANCH  40  42
ATOM     42  C   UNL A   1      40.518  24.495  27.764  1.00  0.00     0.060 A 
ATOM     43  C   UNL A   1      39.322  24.959  28.222  1.00  0.00     0.016 A 
ATOM     44  C   UNL A   1      41.692  24.917  28.419  1.00  0.00     0.016 A 
ATOM     45  C   UNL A   1      39.389  26.096  29.026  1.00  0.00     0.010 A 
ATOM     46  C   UNL A   1      41.741  26.122  29.189  1.00  0.00     0.010 A 
ATOM     47  C   UNL A   1      40.586  26.869  29.410  1.00  0.00    -0.014 A 
BRANCH  47  48
ATOM     48  C   UNL A   1      40.317  27.956  30.598  1.00  0.00     0.031 A 
ATOM     49  C   UNL A   1      41.669  29.001  29.637  1.00  0.00     0.074 A 
ATOM     50  C   UNL A   1      39.284  28.491  31.830  1.00  0.00     0.049 A 
ATOM     51  N   UNL A   1      42.742  29.667  30.065  1.00  0.00    -0.248 NA
ATOM     52  C   UNL A   1      41.578  29.260  28.137  1.00  0.00     0.031 C 
ATOM     53  C   UNL A   1      37.865  28.321  32.421  1.00  0.00     0.029 A 
ATOM     54  N   UNL A   1      39.356  29.865  32.821  1.00  0.00    -0.354 N 
ATOM     55  C   UNL A   1      43.294  30.449  29.060  1.00  0.00     0.074 A 
ATOM     56  C   UNL A   1      42.676  29.970  27.858  1.00  0.00     0.031 C 
ATOM     57  C   UNL A   1      37.301  29.493  33.036  1.00  0.00     0.029 A 
ATOM     58  C   UNL A   1      38.201  30.736  33.183  1.00  0.00     0.049 A 
ATOM     59  H   UNL A   1      40.236  30.110  33.188  1.00  0.00     0.167 HD
ATOM     60  C   UNL A   1      44.078  31.561  29.262  1.00  0.00     0.037 A 
ATOM     61  C   UNL A   1      38.085  32.288  33.418  1.00  0.00     0.037 A 
ATOM     62  C   UNL A   1      44.415  31.868  30.644  1.00  0.00     0.049 A 
ATOM     63  C   UNL A   1      39.408  33.590  33.590  1.00  0.00     0.074 A 
ATOM     64  C   UNL A   1      45.306  31.323  31.532  1.00  0.00     0.029 A 
ATOM     65  N   UNL A   1      43.800  32.943  31.305  1.00  0.00    -0.354 N 
ATOM     66  N   UNL A   1      40.473  33.613  34.418  1.00  0.00    -0.248 NA
ATOM     67  C   UNL A   1      39.772  34.467  32.391  1.00  0.00     0.031 C 
ATOM     68  C   UNL A   1      45.014  31.920  32.792  1.00  0.00     0.029 A 
ATOM     69  C   UNL A   1      43.934  32.839  32.697  1.00  0.00     0.049 A 
ATOM     70  H   UNL A   1      43.333  33.680  30.848  1.00  0.00     0.167 HD
ATOM     71  C   UNL A   1      41.677  33.956  33.642  1.00  0.00     0.074 A 
ATOM     72  C   UNL A   1      41.120  34.590  32.442  1.00  0.00     0.031 C 
ATOM     73  C   UNL A   1      42.928  33.315  33.803  1.00  0.00     0.037 A 
BRANCH  60  74
ATOM     74  C   UNL A   1      44.442  32.607  28.221  1.00  0.00     0.057 A 
ATOM     75  C   UNL A   1      45.390  32.389  27.209  1.00  0.00     0.134 A 
ATOM     76  C   UNL A   1      43.589  33.714  28.014  1.00  0.00     0.134 A 
ATOM     77  F   UNL A   1      46.282  31.396  27.267  1.00  0.00    -0.206 F 
ATOM     78  C   UNL A   1      45.402  33.124  26.021  1.00  0.00     0.040 A 
ATOM     79  C   UNL A   1      43.559  34.422  26.805  1.00  0.00     0.040 A 
ATOM     80  F   UNL A   1      42.704  34.095  28.948  1.00  0.00    -0.206 F 
ATOM     81  C   UNL A   1      44.445  34.100  25.787  1.00  0.00     0.006 A 
ENDBRANCH  60  74
BRANCH  61  82
ATOM     82  C   UNL A   1      36.735  33.217  33.066  1.00  0.00     0.057 A 
ATOM     83  C   UNL A   1      36.394  33.768  31.781  1.00  0.00     0.134 A 
ATOM     84  C   UNL A   1      35.971  33.888  34.037  1.00  0.00     0.134 A 
ATOM     85  F   UNL A   1      37.298  34.093  30.848  1.00  0.00    -0.206 F 
ATOM     86  C   UNL A   1      35.222  34.440  31.419  1.00  0.00     0.040 A 
ATOM     87  C   UNL A   1      34.857  34.740  33.711  1.00  0.00     0.040 A 
ATOM     88  F   UNL A   1      36.339  33.864  35.325  1.00  0.00    -0.206 F 
ATOM     89  C   UNL A   1      34.423  34.938  32.403  1.00  0.00     0.006 A 
ENDBRANCH  61  82
BRANCH  73  90
ATOM     90  C   UNL A   1      43.215  32.642  35.154  1.00  0.00     0.057 A 
ATOM     91  C   UNL A   1      42.671  31.365  35.422  1.00  0.00     0.134 A 
ATOM     92  C   UNL A   1      43.735  33.312  36.271  1.00  0.00     0.134 A 
ATOM     93  F   UNL A   1      42.129  30.628  34.435  1.00  0.00    -0.206 F 
ATOM     94  C   UNL A   1      42.529  30.864  36.725  1.00  0.00     0.040 A 
ATOM     95  C   UNL A   1      43.673  32.781  37.563  1.00  0.00     0.040 A 
ATOM     96  F   UNL A   1      44.216  34.560  36.211  1.00  0.00    -0.206 F 
ATOM     97  C   UNL A   1      43.025  31.580  37.804  1.00  0.00     0.006 A 
ENDBRANCH  73  90
ENDBRANCH  47  48
ENDBRANCH  40  42
ENDBRANCH  39  40
ENDBRANCH  38  39
ENDBRANCH  37  38
ENDBRANCH  36  37
ENDBRANCH  35  36
ENDBRANCH  34  35
ENDBRANCH  33  34
ENDBRANCH   1  33
TORSDOF 25
ENDMDL
MODEL 2
REMARK VINA RESULT:      -9.7      3.526      7.035
REMARK SMILES Cc1ccc(C)c(S(=O)(=O)N[C@@H](CC2=c3ccccc3=NC2)C(=O)OCCOCCOCCOCCOC(=O)c2ccc(-c3c4nc(c(-c5c(F)cccc5F)c5ccc([nH]5)c(-c5c(F)cccc5F)c5nc(c(-c6c(F)cccc6F)c6ccc3[nH]6)C=C5)C=C4)cc2)c1
REMARK SMILES IDX 30 1 29 2 28 3 27 4 26 5 25 6 23 7 24 8 12 9 11 10 8 12 9 13
REMARK SMILES IDX 10 14 7 15 1 16 2 17 3 18 94 19 4 20 5 21 6 22 13 23 14 24
REMARK SMILES IDX 15 25 22 26 16 27 20 28 21 29 17 30 19 31 18 32 31 33 32 34
REMARK SMILES IDX 33 35 34 36 35 37 36 38 37 39 38 40 39 41 40 42 41 43 93 44
REMARK SMILES IDX 42 45 92 46 43 47 44 48 45 49 86 50 46 51 91 52 85 53 87 54
REMARK SMILES IDX 47 55 90 56 84 57 83 58 48 60 74 61 57 62 73 63 58 64 61 65
REMARK SMILES IDX 72 66 88 67 59 68 60 69 71 71 89 72 62 73 49 74 50 75 55 76
REMARK SMILES IDX 51 77 52 78 54 79 56 80 53 81 75 82 76 83 81 84 77 85 78 86
REMARK SMILES IDX 80 87 82 88 79 89 63 90 64 91 69 92 65 93 66 94 68 95 70 96
REMARK SMILES IDX 67 97
REMARK H PARENT 11 11 87 59 61 70
REMARK Flexibility Score: inf
ROOT
ATOM      1  C   UNL A   1      33.256  22.234  23.642  1.00  0.00     0.188 C 
ENDROOT
BRANCH   1   2
ATOM      2  C   UNL A   1      32.458  23.187  24.506  1.00  0.00     0.188 C 
BRANCH   2   3
ATOM      3  O   UNL A   1      32.689  23.447  25.873  1.00  0.00    -0.376 OA
BRANCH   3   4
ATOM      4  C   UNL A   1      34.011  23.732  26.284  1.00  0.00     0.202 C 
BRANCH   4   5
ATOM      5  C   UNL A   1      34.809  24.751  25.448  1.00  0.00     0.261 C 
BRANCH   5   6
ATOM      6  O   UNL A   1      34.514  26.147  25.710  1.00  0.00    -0.462 OA
BRANCH   6   7
ATOM      7  C   UNL A   1      33.841  26.761  24.730  1.00  0.00     0.324 C 
ATOM      8  O   UNL A   1      33.796  26.431  23.568  1.00  0.00    -0.250 OA
BRANCH   7   9
ATOM      9  C   UNL A   1      33.141  28.000  25.032  1.00  0.00     0.183 C 
BRANCH   9  10
ATOM     10  N   UNL A   1      34.233  29.113  25.421  1.00  0.00    -0.197 NA
ATOM     11  H   UNL A   1      35.149  28.674  25.332  1.00  0.00     0.142 HD
BRANCH  10  12
ATOM     12  S   UNL A   1      34.163  29.984  27.280  1.00  0.00     0.241 S 
ATOM     13  O   UNL A   1      33.992  28.917  28.151  1.00  0.00    -0.207 OA
ATOM     14  O   UNL A   1      32.960  30.818  27.064  1.00  0.00    -0.207 OA
BRANCH  12  15
ATOM     15  C   UNL A   1      36.046  31.328  27.801  1.00  0.00     0.085 A 
ATOM     16  C   UNL A   1      35.995  34.045  30.703  1.00  0.00     0.044 C 
ATOM     17  C   UNL A   1      36.720  33.197  29.661  1.00  0.00    -0.050 A 
ATOM     18  C   UNL A   1      37.742  32.385  29.925  1.00  0.00     0.004 A 
ATOM     19  C   UNL A   1      36.178  32.822  28.437  1.00  0.00     0.025 A 
ATOM     20  C   UNL A   1      37.979  31.263  29.032  1.00  0.00     0.005 A 
ATOM     21  C   UNL A   1      37.116  30.674  28.074  1.00  0.00    -0.031 A 
ATOM     22  C   UNL A   1      36.867  29.314  27.756  1.00  0.00     0.046 C 
ENDBRANCH  12  15
ENDBRANCH  10  12
ENDBRANCH   9  10
BRANCH   9  23
ATOM     23  C   UNL A   1      32.198  28.312  23.696  1.00  0.00     0.065 C 
BRANCH  23  24
ATOM     24  C   UNL A   1      30.618  28.193  23.688  1.00  0.00    -0.037 C 
ATOM     25  C   UNL A   1      29.661  29.149  23.616  1.00  0.00     0.001 A 
ATOM     26  C   UNL A   1      29.935  26.850  23.534  1.00  0.00     0.174 C 
ATOM     27  C   UNL A   1      29.623  30.587  23.554  1.00  0.00     0.010 A 
ATOM     28  C   UNL A   1      28.406  28.391  23.342  1.00  0.00     0.065 A 
ATOM     29  N   UNL A   1      28.478  27.097  23.383  1.00  0.00    -0.280 NA
ATOM     30  C   UNL A   1      28.502  31.218  23.147  1.00  0.00     0.001 A 
ATOM     31  C   UNL A   1      27.197  29.164  22.936  1.00  0.00     0.028 A 
ATOM     32  C   UNL A   1      27.296  30.495  22.786  1.00  0.00     0.002 A 
ENDBRANCH  23  24
ENDBRANCH   9  23
ENDBRANCH   7   9
ENDBRANCH   6   7
ENDBRANCH   5   6
ENDBRANCH   4   5
ENDBRANCH   3   4
ENDBRANCH   2   3
ENDBRANCH   1   2
BRANCH   1  33
ATOM     33  O   UNL A   1      32.943  20.879  23.849  1.00  0.00    -0.377 OA
BRANCH  33  34
ATOM     34  C   UNL A   1      33.497  20.344  25.035  1.00  0.00     0.188 C 
BRANCH  34  35
ATOM     35  C   UNL A   1      34.978  19.993  24.884  1.00  0.00     0.188 C 
BRANCH  35  36
ATOM     36  O   UNL A   1      35.805  20.935  25.559  1.00  0.00    -0.376 OA
BRANCH  36  37
ATOM     37  C   UNL A   1      36.806  21.541  24.769  1.00  0.00     0.202 C 
BRANCH  37  38
ATOM     38  C   UNL A   1      38.188  21.282  25.361  1.00  0.00     0.261 C 
BRANCH  38  39
ATOM     39  O   UNL A   1      38.871  22.346  26.083  1.00  0.00    -0.460 OA
BRANCH  39  40
ATOM     40  C   UNL A   1      40.155  22.196  26.491  1.00  0.00     0.338 C 
ATOM     41  O   UNL A   1      40.897  21.305  26.111  1.00  0.00    -0.246 OA
BRANCH  40  42
ATOM     42  C   UNL A   1      40.536  23.271  27.451  1.00  0.00     0.060 A 
ATOM     43  C   UNL A   1      40.104  24.533  27.175  1.00  0.00     0.016 A 
ATOM     44  C   UNL A   1      41.560  23.110  28.405  1.00  0.00     0.016 A 
ATOM     45  C   UNL A   1      40.969  25.558  27.557  1.00  0.00     0.010 A 
ATOM     46  C   UNL A   1      42.468  24.168  28.731  1.00  0.00     0.010 A 
ATOM     47  C   UNL A   1      42.296  25.440  28.189  1.00  0.00    -0.014 A 
BRANCH  47  48
ATOM     48  C   UNL A   1      42.883  26.852  28.763  1.00  0.00     0.031 A 
ATOM     49  C   UNL A   1      44.532  26.263  27.881  1.00  0.00     0.074 A 
ATOM     50  C   UNL A   1      42.535  28.393  29.378  1.00  0.00     0.049 A 
ATOM     51  N   UNL A   1      45.798  26.237  28.298  1.00  0.00    -0.248 NA
ATOM     52  C   UNL A   1      44.553  25.799  26.429  1.00  0.00     0.031 C 
ATOM     53  C   UNL A   1      41.396  29.418  29.585  1.00  0.00     0.029 A 
ATOM     54  N   UNL A   1      43.556  29.691  29.759  1.00  0.00    -0.354 N 
ATOM     55  C   UNL A   1      46.674  25.946  27.261  1.00  0.00     0.074 A 
ATOM     56  C   UNL A   1      45.828  25.462  26.209  1.00  0.00     0.031 C 
ATOM     57  C   UNL A   1      41.787  30.802  29.539  1.00  0.00     0.029 A 
ATOM     58  C   UNL A   1      43.292  31.125  29.443  1.00  0.00     0.049 A 
ATOM     59  H   UNL A   1      44.395  29.482  30.230  1.00  0.00     0.167 HD
ATOM     60  C   UNL A   1      48.007  26.280  27.234  1.00  0.00     0.037 A 
ATOM     61  C   UNL A   1      44.248  32.308  29.038  1.00  0.00     0.037 A 
ATOM     62  C   UNL A   1      48.539  26.907  28.435  1.00  0.00     0.049 A 
ATOM     63  C   UNL A   1      46.109  32.423  29.057  1.00  0.00     0.074 A 
ATOM     64  C   UNL A   1      48.890  26.418  29.667  1.00  0.00     0.029 A 
ATOM     65  N   UNL A   1      48.830  28.280  28.452  1.00  0.00    -0.354 N 
ATOM     66  N   UNL A   1      46.964  32.168  30.069  1.00  0.00    -0.248 NA
ATOM     67  C   UNL A   1      46.897  32.218  27.762  1.00  0.00     0.031 C 
ATOM     68  C   UNL A   1      49.139  27.559  30.482  1.00  0.00     0.029 A 
ATOM     69  C   UNL A   1      48.937  28.769  29.762  1.00  0.00     0.049 A 
ATOM     70  H   UNL A   1      48.945  28.832  27.645  1.00  0.00     0.167 HD
ATOM     71  C   UNL A   1      48.047  31.300  29.575  1.00  0.00     0.074 A 
ATOM     72  C   UNL A   1      47.986  31.499  28.124  1.00  0.00     0.031 C 
ATOM     73  C   UNL A   1      48.564  30.197  30.294  1.00  0.00     0.037 A 
BRANCH  60  74
ATOM     74  C   UNL A   1      48.916  26.257  26.015  1.00  0.00     0.057 A 
ATOM     75  C   UNL A   1      48.743  27.104  24.910  1.00  0.00     0.134 A 
ATOM     76  C   UNL A   1      50.179  25.627  26.096  1.00  0.00     0.134 A 
ATOM     77  F   UNL A   1      47.599  27.757  24.681  1.00  0.00    -0.206 F 
ATOM     78  C   UNL A   1      49.784  27.413  24.031  1.00  0.00     0.040 A 
ATOM     79  C   UNL A   1      51.242  25.971  25.251  1.00  0.00     0.040 A 
ATOM     80  F   UNL A   1      50.443  24.717  27.046  1.00  0.00    -0.206 F 
ATOM     81  C   UNL A   1      51.055  26.898  24.236  1.00  0.00     0.006 A 
ENDBRANCH  60  74
BRANCH  61  82
ATOM     82  C   UNL A   1      43.837  33.570  28.015  1.00  0.00     0.057 A 
ATOM     83  C   UNL A   1      43.095  34.749  28.376  1.00  0.00     0.134 A 
ATOM     84  C   UNL A   1      43.830  33.470  26.613  1.00  0.00     0.134 A 
ATOM     85  F   UNL A   1      42.189  34.785  29.359  1.00  0.00    -0.206 F 
ATOM     86  C   UNL A   1      42.839  35.876  27.587  1.00  0.00     0.040 A 
ATOM     87  C   UNL A   1      43.406  34.541  25.750  1.00  0.00     0.040 A 
ATOM     88  F   UNL A   1      44.101  32.303  26.014  1.00  0.00    -0.206 F 
ATOM     89  C   UNL A   1      43.001  35.781  26.238  1.00  0.00     0.006 A 
ENDBRANCH  61  82
BRANCH  73  90
ATOM     90  C   UNL A   1      48.406  30.205  31.823  1.00  0.00     0.057 A 
ATOM     91  C   UNL A   1      49.540  30.428  32.636  1.00  0.00     0.134 A 
ATOM     92  C   UNL A   1      47.277  29.717  32.498  1.00  0.00     0.134 A 
ATOM     93  F   UNL A   1      50.689  30.882  32.103  1.00  0.00    -0.206 F 
ATOM     94  C   UNL A   1      49.584  30.056  33.988  1.00  0.00     0.040 A 
ATOM     95  C   UNL A   1      47.287  29.422  33.865  1.00  0.00     0.040 A 
ATOM     96  F   UNL A   1      46.145  29.377  31.870  1.00  0.00    -0.206 F 
ATOM     97  C   UNL A   1      48.453  29.541  34.606  1.00  0.00     0.006 A 
ENDBRANCH  73  90
ENDBRANCH  47  48
ENDBRANCH  40  42
ENDBRANCH  39  40
ENDBRANCH  38  39
ENDBRANCH  37  38
ENDBRANCH  36  37
ENDBRANCH  35  36
ENDBRANCH  34  35
ENDBRANCH  33  34
ENDBRANCH   1  33
TORSDOF 25
ENDMDL
MODEL 3
REMARK VINA RESULT:      -9.7      3.374      5.708
REMARK SMILES Cc1ccc(C)c(S(=O)(=O)N[C@@H](CC2=c3ccccc3=NC2)C(=O)OCCOCCOCCOCCOC(=O)c2ccc(-c3c4nc(c(-c5c(F)cccc5F)c5ccc([nH]5)c(-c5c(F)cccc5F)c5nc(c(-c6c(F)cccc6F)c6ccc3[nH]6)C=C5)C=C4)cc2)c1
REMARK SMILES IDX 30 1 29 2 28 3 27 4 26 5 25 6 23 7 24 8 12 9 11 10 8 12 9 13
REMARK SMILES IDX 10 14 7 15 1 16 2 17 3 18 94 19 4 20 5 21 6 22 13 23 14 24
REMARK SMILES IDX 15 25 22 26 16 27 20 28 21 29 17 30 19 31 18 32 31 33 32 34
REMARK SMILES IDX 33 35 34 36 35 37 36 38 37 39 38 40 39 41 40 42 41 43 93 44
REMARK SMILES IDX 42 45 92 46 43 47 44 48 45 49 86 50 46 51 91 52 85 53 87 54
REMARK SMILES IDX 47 55 90 56 84 57 83 58 48 60 74 61 57 62 73 63 58 64 61 65
REMARK SMILES IDX 72 66 88 67 59 68 60 69 71 71 89 72 62 73 49 74 50 75 55 76
REMARK SMILES IDX 51 77 52 78 54 79 56 80 53 81 75 82 76 83 81 84 77 85 78 86
REMARK SMILES IDX 80 87 82 88 79 89 63 90 64 91 69 92 65 93 66 94 68 95 70 96
REMARK SMILES IDX 67 97
REMARK H PARENT 11 11 87 59 61 70
REMARK Flexibility Score: inf
ROOT
ATOM      1  C   UNL A   1      32.563  22.093  24.055  1.00  0.00     0.188 C 
ENDROOT
BRANCH   1   2
ATOM      2  C   UNL A   1      31.166  22.447  24.517  1.00  0.00     0.188 C 
BRANCH   2   3
ATOM      3  O   UNL A   1      30.655  22.249  25.817  1.00  0.00    -0.376 OA
BRANCH   3   4
ATOM      4  C   UNL A   1      30.914  23.236  26.795  1.00  0.00     0.202 C 
BRANCH   4   5
ATOM      5  C   UNL A   1      31.071  24.690  26.309  1.00  0.00     0.261 C 
BRANCH   5   6
ATOM      6  O   UNL A   1      32.409  25.244  26.404  1.00  0.00    -0.462 OA
BRANCH   6   7
ATOM      7  C   UNL A   1      32.445  26.562  26.629  1.00  0.00     0.324 C 
ATOM      8  O   UNL A   1      31.624  27.214  27.233  1.00  0.00    -0.250 OA
BRANCH   7   9
ATOM      9  C   UNL A   1      33.519  27.344  26.039  1.00  0.00     0.183 C 
BRANCH   9  10
ATOM     10  N   UNL A   1      33.640  26.941  24.487  1.00  0.00    -0.197 NA
ATOM     11  H   UNL A   1      34.633  26.936  24.257  1.00  0.00     0.142 HD
BRANCH  10  12
ATOM     12  S   UNL A   1      32.704  28.098  23.072  1.00  0.00     0.241 S 
ATOM     13  O   UNL A   1      32.785  27.347  21.907  1.00  0.00    -0.207 OA
ATOM     14  O   UNL A   1      33.613  29.264  23.132  1.00  0.00    -0.207 OA
BRANCH  12  15
ATOM     15  C   UNL A   1      30.485  28.722  23.631  1.00  0.00     0.085 A 
ATOM     16  C   UNL A   1      28.569  31.681  21.792  1.00  0.00     0.044 C 
ATOM     17  C   UNL A   1      28.610  30.476  22.730  1.00  0.00    -0.050 A 
ATOM     18  C   UNL A   1      27.838  29.397  22.608  1.00  0.00     0.004 A 
ATOM     19  C   UNL A   1      29.693  30.142  23.534  1.00  0.00     0.025 A 
ATOM     20  C   UNL A   1      28.315  28.143  23.167  1.00  0.00     0.005 A 
ATOM     21  C   UNL A   1      29.625  27.771  23.562  1.00  0.00    -0.031 A 
ATOM     22  C   UNL A   1      30.349  26.566  23.374  1.00  0.00     0.046 C 
ENDBRANCH  12  15
ENDBRANCH  10  12
ENDBRANCH   9  10
BRANCH   9  23
ATOM     23  C   UNL A   1      33.147  28.931  26.372  1.00  0.00     0.065 C 
BRANCH  23  24
ATOM     24  C   UNL A   1      34.120  29.921  27.138  1.00  0.00    -0.037 C 
ATOM     25  C   UNL A   1      33.970  31.225  27.470  1.00  0.00     0.001 A 
ATOM     26  C   UNL A   1      35.364  29.411  27.836  1.00  0.00     0.174 C 
ATOM     27  C   UNL A   1      32.971  32.245  27.277  1.00  0.00     0.010 A 
ATOM     28  C   UNL A   1      35.080  31.488  28.431  1.00  0.00     0.065 A 
ATOM     29  N   UNL A   1      35.950  30.542  28.600  1.00  0.00    -0.280 NA
ATOM     30  C   UNL A   1      32.987  33.360  28.035  1.00  0.00     0.001 A 
ATOM     31  C   UNL A   1      35.048  32.763  29.204  1.00  0.00     0.028 A 
ATOM     32  C   UNL A   1      34.007  33.595  29.043  1.00  0.00     0.002 A 
ENDBRANCH  23  24
ENDBRANCH   9  23
ENDBRANCH   7   9
ENDBRANCH   6   7
ENDBRANCH   5   6
ENDBRANCH   4   5
ENDBRANCH   3   4
ENDBRANCH   2   3
ENDBRANCH   1   2
BRANCH   1  33
ATOM     33  O   UNL A   1      32.883  20.731  24.201  1.00  0.00    -0.377 OA
BRANCH  33  34
ATOM     34  C   UNL A   1      33.655  20.450  25.351  1.00  0.00     0.188 C 
BRANCH  34  35
ATOM     35  C   UNL A   1      35.156  20.420  25.056  1.00  0.00     0.188 C 
BRANCH  35  36
ATOM     36  O   UNL A   1      35.773  21.659  25.389  1.00  0.00    -0.376 OA
BRANCH  36  37
ATOM     37  C   UNL A   1      36.965  21.951  24.690  1.00  0.00     0.202 C 
BRANCH  37  38
ATOM     38  C   UNL A   1      38.182  21.498  25.490  1.00  0.00     0.261 C 
BRANCH  38  39
ATOM     39  O   UNL A   1      39.040  22.492  26.119  1.00  0.00    -0.460 OA
BRANCH  39  40
ATOM     40  C   UNL A   1      40.168  22.124  26.773  1.00  0.00     0.338 C 
ATOM     41  O   UNL A   1      40.742  21.059  26.607  1.00  0.00    -0.246 OA
BRANCH  40  42
ATOM     42  C   UNL A   1      40.615  23.196  27.707  1.00  0.00     0.060 A 
ATOM     43  C   UNL A   1      40.103  24.443  27.513  1.00  0.00     0.016 A 
ATOM     44  C   UNL A   1      41.750  23.062  28.531  1.00  0.00     0.016 A 
ATOM     45  C   UNL A   1      40.963  25.497  27.816  1.00  0.00     0.010 A 
ATOM     46  C   UNL A   1      42.646  24.152  28.773  1.00  0.00     0.010 A 
ATOM     47  C   UNL A   1      42.360  25.425  28.286  1.00  0.00    -0.014 A 
BRANCH  47  48
ATOM     48  C   UNL A   1      42.952  26.850  28.820  1.00  0.00     0.031 A 
ATOM     49  C   UNL A   1      44.582  26.255  27.908  1.00  0.00     0.074 A 
ATOM     50  C   UNL A   1      42.610  28.400  29.416  1.00  0.00     0.049 A 
ATOM     51  N   UNL A   1      45.858  26.243  28.295  1.00  0.00    -0.248 NA
ATOM     52  C   UNL A   1      44.571  25.766  26.464  1.00  0.00     0.031 C 
ATOM     53  C   UNL A   1      41.470  29.422  29.633  1.00  0.00     0.029 A 
ATOM     54  N   UNL A   1      43.631  29.711  29.750  1.00  0.00    -0.354 N 
ATOM     55  C   UNL A   1      46.710  25.939  27.242  1.00  0.00     0.074 A 
ATOM     56  C   UNL A   1      45.842  25.432  26.219  1.00  0.00     0.031 C 
ATOM     57  C   UNL A   1      41.851  30.807  29.553  1.00  0.00     0.029 A 
ATOM     58  C   UNL A   1      43.351  31.137  29.415  1.00  0.00     0.049 A 
ATOM     59  H   UNL A   1      44.483  29.514  30.203  1.00  0.00     0.167 HD
ATOM     60  C   UNL A   1      48.041  26.280  27.176  1.00  0.00     0.037 A 
ATOM     61  C   UNL A   1      44.290  32.318  28.966  1.00  0.00     0.037 A 
ATOM     62  C   UNL A   1      48.598  26.932  28.353  1.00  0.00     0.049 A 
ATOM     63  C   UNL A   1      46.150  32.443  28.937  1.00  0.00     0.074 A 
ATOM     64  C   UNL A   1      48.982  26.467  29.584  1.00  0.00     0.029 A 
ATOM     65  N   UNL A   1      48.881  28.306  28.339  1.00  0.00    -0.354 N 
ATOM     66  N   UNL A   1      47.031  32.212  29.932  1.00  0.00    -0.248 NA
ATOM     67  C   UNL A   1      46.907  32.221  27.627  1.00  0.00     0.031 C 
ATOM     68  C   UNL A   1      49.243  27.624  30.372  1.00  0.00     0.029 A 
ATOM     69  C   UNL A   1      49.017  28.819  29.637  1.00  0.00     0.049 A 
ATOM     70  H   UNL A   1      48.973  28.844  27.519  1.00  0.00     0.167 HD
ATOM     71  C   UNL A   1      48.107  31.341  29.427  1.00  0.00     0.074 A 
ATOM     72  C   UNL A   1      48.009  31.515  27.974  1.00  0.00     0.031 C 
ATOM     73  C   UNL A   1      48.648  30.254  30.153  1.00  0.00     0.037 A 
BRANCH  60  74
ATOM     74  C   UNL A   1      48.919  26.241  25.936  1.00  0.00     0.057 A 
ATOM     75  C   UNL A   1      48.719  27.072  24.823  1.00  0.00     0.134 A 
ATOM     76  C   UNL A   1      50.185  25.614  25.995  1.00  0.00     0.134 A 
ATOM     77  F   UNL A   1      47.569  27.720  24.613  1.00  0.00    -0.206 F 
ATOM     78  C   UNL A   1      49.738  27.369  23.915  1.00  0.00     0.040 A 
ATOM     79  C   UNL A   1      51.227  25.947  25.120  1.00  0.00     0.040 A 
ATOM     80  F   UNL A   1      50.474  24.718  26.951  1.00  0.00    -0.206 F 
ATOM     81  C   UNL A   1      51.013  26.859  24.096  1.00  0.00     0.006 A 
ENDBRANCH  60  74
BRANCH  61  82
ATOM     82  C   UNL A   1      43.847  33.559  27.931  1.00  0.00     0.057 A 
ATOM     83  C   UNL A   1      43.109  34.741  28.289  1.00  0.00     0.134 A 
ATOM     84  C   UNL A   1      43.803  33.434  26.532  1.00  0.00     0.134 A 
ATOM     85  F   UNL A   1      42.228  34.792  29.296  1.00  0.00    -0.206 F 
ATOM     86  C   UNL A   1      42.827  35.853  27.487  1.00  0.00     0.040 A 
ATOM     87  C   UNL A   1      43.351  34.487  25.661  1.00  0.00     0.040 A 
ATOM     88  F   UNL A   1      44.064  32.257  25.947  1.00  0.00    -0.206 F 
ATOM     89  C   UNL A   1      42.954  35.734  26.137  1.00  0.00     0.006 A 
ENDBRANCH  61  82
BRANCH  73  90
ATOM     90  C   UNL A   1      48.527  30.288  31.684  1.00  0.00     0.057 A 
ATOM     91  C   UNL A   1      49.655  30.636  32.461  1.00  0.00     0.134 A 
ATOM     92  C   UNL A   1      47.466  29.717  32.401  1.00  0.00     0.134 A 
ATOM     93  F   UNL A   1      50.744  31.180  31.887  1.00  0.00    -0.206 F 
ATOM     94  C   UNL A   1      49.766  30.306  33.821  1.00  0.00     0.040 A 
ATOM     95  C   UNL A   1      47.536  29.461  33.774  1.00  0.00     0.040 A 
ATOM     96  F   UNL A   1      46.355  29.258  31.812  1.00  0.00    -0.206 F 
ATOM     97  C   UNL A   1      48.704  29.706  34.480  1.00  0.00     0.006 A 
ENDBRANCH  73  90
ENDBRANCH  47  48
ENDBRANCH  40  42
ENDBRANCH  39  40
ENDBRANCH  38  39
ENDBRANCH  37  38
ENDBRANCH  36  37
ENDBRANCH  35  36
ENDBRANCH  34  35
ENDBRANCH  33  34
ENDBRANCH   1  33
TORSDOF 25
ENDMDL
