MODEL 1
REMARK VINA RESULT:     -10.4      0.000      0.000
REMARK SMILES CN(C)C(=O)Nc1cccc(/C=C/C(=O)OCCOCCOCCOCCOC(=O)c2ccc(-c3c4nc(c(-c5c(F)cccc5F)c5ccc([nH]5)c(-c5c(F)cccc5F)c5nc(c(-c6c(F)cccc6F)c6ccc3[nH]6)C=C5)C=C4)cc2)n1
REMARK SMILES IDX 22 1 21 2 20 3 19 4 18 5 17 6 16 7 14 8 15 9 13 10 12 11
REMARK SMILES IDX 11 12 7 13 8 14 85 15 9 16 10 17 6 18 1 19 2 20 3 21 4 22
REMARK SMILES IDX 5 23 23 25 24 26 25 27 26 28 27 29 28 30 29 31 30 32 31 33
REMARK SMILES IDX 32 34 84 35 33 36 83 37 34 38 35 39 36 40 77 41 37 42 82 43
REMARK SMILES IDX 76 44 78 45 38 46 81 47 75 48 74 49 39 51 65 52 48 53 64 54
REMARK SMILES IDX 49 55 52 56 63 57 79 58 50 59 51 60 62 62 80 63 53 64 40 65
REMARK SMILES IDX 41 66 46 67 42 68 43 69 45 70 47 71 44 72 66 73 67 74 72 75
REMARK SMILES IDX 68 76 69 77 71 78 73 79 70 80 54 81 55 82 60 83 56 84 57 85
REMARK SMILES IDX 59 86 61 87 58 88
REMARK H PARENT 6 24 78 50 52 61
REMARK Flexibility Score: inf
ROOT
ATOM      1  O   UNL A   1      38.151  22.569  25.663  1.00  0.00    -0.377 OA
ENDROOT
BRANCH   1   2
ATOM      2  C   UNL A   1      37.207  21.539  25.407  1.00  0.00     0.188 C 
BRANCH   2   3
ATOM      3  C   UNL A   1      36.058  21.876  24.436  1.00  0.00     0.188 C 
BRANCH   3   4
ATOM      4  O   UNL A   1      34.830  21.267  24.797  1.00  0.00    -0.376 OA
BRANCH   4   5
ATOM      5  C   UNL A   1      33.632  22.016  24.760  1.00  0.00     0.202 C 
BRANCH   5   6
ATOM      6  C   UNL A   1      32.692  22.071  25.975  1.00  0.00     0.261 C 
BRANCH   6   7
ATOM      7  O   UNL A   1      31.344  22.475  25.726  1.00  0.00    -0.460 OA
BRANCH   7   8
ATOM      8  C   UNL A   1      30.883  23.548  26.402  1.00  0.00     0.330 C 
ATOM      9  O   UNL A   1      30.140  23.527  27.369  1.00  0.00    -0.247 OA
BRANCH   8  10
ATOM     10  C   UNL A   1      31.535  24.777  25.906  1.00  0.00     0.095 C 
ATOM     11  C   UNL A   1      31.088  26.019  26.169  1.00  0.00     0.036 C 
BRANCH  11  12
ATOM     12  C   UNL A   1      31.718  27.223  25.617  1.00  0.00     0.066 A 
ATOM     13  C   UNL A   1      31.735  28.796  23.928  1.00  0.00     0.134 A 
ATOM     14  C   UNL A   1      32.926  29.345  24.381  1.00  0.00     0.047 A 
ATOM     15  N   UNL A   1      31.095  27.799  24.566  1.00  0.00    -0.231 NA
ATOM     16  C   UNL A   1      33.523  28.789  25.508  1.00  0.00     0.006 A 
ATOM     17  C   UNL A   1      32.920  27.697  26.128  1.00  0.00     0.028 A 
BRANCH  13  18
ATOM     18  N   UNL A   1      31.127  29.200  22.751  1.00  0.00    -0.292 N 
ATOM     19  C   UNL A   1      28.102  31.261  23.076  1.00  0.00     0.148 C 
ATOM     20  N   UNL A   1      29.355  30.625  23.449  1.00  0.00    -0.331 N 
ATOM     21  C   UNL A   1      30.004  31.186  24.629  1.00  0.00     0.148 C 
ATOM     22  C   UNL A   1      29.934  29.795  22.508  1.00  0.00     0.322 C 
ATOM     23  O   UNL A   1      29.451  29.666  21.380  1.00  0.00    -0.248 OA
ATOM     24  H   UNL A   1      31.658  29.024  21.942  1.00  0.00     0.173 HD
ENDBRANCH  13  18
ENDBRANCH  11  12
ENDBRANCH   8  10
ENDBRANCH   7   8
ENDBRANCH   6   7
ENDBRANCH   5   6
ENDBRANCH   4   5
ENDBRANCH   3   4
ENDBRANCH   2   3
ENDBRANCH   1   2
BRANCH   1  25
ATOM     25  C   UNL A   1      39.283  22.299  26.493  1.00  0.00     0.188 C 
BRANCH  25  26
ATOM     26  C   UNL A   1      40.288  21.152  26.217  1.00  0.00     0.188 C 
BRANCH  26  27
ATOM     27  O   UNL A   1      41.578  21.337  26.775  1.00  0.00    -0.376 OA
BRANCH  27  28
ATOM     28  C   UNL A   1      42.683  20.767  26.099  1.00  0.00     0.202 C 
BRANCH  28  29
ATOM     29  C   UNL A   1      43.613  21.747  25.371  1.00  0.00     0.261 C 
BRANCH  29  30
ATOM     30  O   UNL A   1      43.047  23.027  25.052  1.00  0.00    -0.460 OA
BRANCH  30  31
ATOM     31  C   UNL A   1      43.853  24.103  25.162  1.00  0.00     0.338 C 
ATOM     32  O   UNL A   1      44.864  24.340  24.519  1.00  0.00    -0.246 OA
BRANCH  31  33
ATOM     33  C   UNL A   1      43.205  25.054  26.084  1.00  0.00     0.060 A 
ATOM     34  C   UNL A   1      43.707  26.359  26.186  1.00  0.00     0.016 A 
ATOM     35  C   UNL A   1      42.096  24.662  26.836  1.00  0.00     0.016 A 
ATOM     36  C   UNL A   1      43.119  27.264  27.069  1.00  0.00     0.010 A 
ATOM     37  C   UNL A   1      41.519  25.563  27.733  1.00  0.00     0.010 A 
ATOM     38  C   UNL A   1      42.049  26.858  27.878  1.00  0.00    -0.014 A 
BRANCH  38  39
ATOM     39  C   UNL A   1      41.601  27.718  28.999  1.00  0.00     0.031 A 
ATOM     40  C   UNL A   1      42.329  27.623  30.311  1.00  0.00     0.074 A 
ATOM     41  C   UNL A   1      40.570  28.569  28.861  1.00  0.00     0.049 A 
ATOM     42  N   UNL A   1      42.089  28.232  31.443  1.00  0.00    -0.248 NA
ATOM     43  C   UNL A   1      43.483  26.710  30.348  1.00  0.00     0.031 C 
ATOM     44  C   UNL A   1      39.802  28.772  27.635  1.00  0.00     0.029 A 
ATOM     45  N   UNL A   1      39.984  29.410  29.773  1.00  0.00    -0.354 N 
ATOM     46  C   UNL A   1      43.049  27.764  32.332  1.00  0.00     0.074 A 
ATOM     47  C   UNL A   1      43.855  26.800  31.615  1.00  0.00     0.031 C 
ATOM     48  C   UNL A   1      38.830  29.669  27.877  1.00  0.00     0.029 A 
ATOM     49  C   UNL A   1      38.888  30.074  29.282  1.00  0.00     0.049 A 
ATOM     50  H   UNL A   1      40.318  29.525  30.692  1.00  0.00     0.167 HD
ATOM     51  C   UNL A   1      43.244  28.109  33.626  1.00  0.00     0.037 A 
ATOM     52  C   UNL A   1      38.016  30.893  29.901  1.00  0.00     0.037 A 
ATOM     53  C   UNL A   1      42.436  29.066  34.336  1.00  0.00     0.049 A 
ATOM     54  C   UNL A   1      38.214  31.221  31.359  1.00  0.00     0.074 A 
ATOM     55  C   UNL A   1      42.576  29.517  35.637  1.00  0.00     0.029 A 
ATOM     56  N   UNL A   1      41.322  29.705  33.810  1.00  0.00    -0.354 N 
ATOM     57  N   UNL A   1      39.150  30.811  32.181  1.00  0.00    -0.248 NA
ATOM     58  C   UNL A   1      37.236  32.131  31.973  1.00  0.00     0.031 C 
ATOM     59  C   UNL A   1      41.507  30.373  35.920  1.00  0.00     0.029 A 
ATOM     60  C   UNL A   1      40.741  30.515  34.773  1.00  0.00     0.049 A 
ATOM     61  H   UNL A   1      40.994  29.599  32.888  1.00  0.00     0.167 HD
ATOM     62  C   UNL A   1      38.890  31.429  33.398  1.00  0.00     0.074 A 
ATOM     63  C   UNL A   1      37.716  32.253  33.203  1.00  0.00     0.031 C 
ATOM     64  C   UNL A   1      39.567  31.326  34.570  1.00  0.00     0.037 A 
BRANCH  51  65
ATOM     65  C   UNL A   1      44.347  27.407  34.367  1.00  0.00     0.057 A 
ATOM     66  C   UNL A   1      45.640  27.937  34.464  1.00  0.00     0.134 A 
ATOM     67  C   UNL A   1      44.107  26.176  34.992  1.00  0.00     0.134 A 
ATOM     68  F   UNL A   1      45.945  29.105  33.877  1.00  0.00    -0.206 F 
ATOM     69  C   UNL A   1      46.664  27.251  35.122  1.00  0.00     0.040 A 
ATOM     70  C   UNL A   1      45.113  25.497  35.681  1.00  0.00     0.040 A 
ATOM     71  F   UNL A   1      42.891  25.613  34.944  1.00  0.00    -0.206 F 
ATOM     72  C   UNL A   1      46.399  26.029  35.737  1.00  0.00     0.006 A 
ENDBRANCH  51  65
BRANCH  52  73
ATOM     73  C   UNL A   1      36.864  31.445  29.145  1.00  0.00     0.057 A 
ATOM     74  C   UNL A   1      36.861  32.762  28.676  1.00  0.00     0.134 A 
ATOM     75  C   UNL A   1      35.738  30.660  28.865  1.00  0.00     0.134 A 
ATOM     76  F   UNL A   1      37.899  33.573  28.932  1.00  0.00    -0.206 F 
ATOM     77  C   UNL A   1      35.781  33.283  27.961  1.00  0.00     0.040 A 
ATOM     78  C   UNL A   1      34.661  31.157  28.129  1.00  0.00     0.040 A 
ATOM     79  F   UNL A   1      35.677  29.388  29.287  1.00  0.00    -0.206 F 
ATOM     80  C   UNL A   1      34.679  32.476  27.678  1.00  0.00     0.006 A 
ENDBRANCH  52  73
BRANCH  64  81
ATOM     81  C   UNL A   1      39.073  32.148  35.729  1.00  0.00     0.057 A 
ATOM     82  C   UNL A   1      38.238  31.615  36.719  1.00  0.00     0.134 A 
ATOM     83  C   UNL A   1      39.481  33.481  35.880  1.00  0.00     0.134 A 
ATOM     84  F   UNL A   1      37.802  30.348  36.631  1.00  0.00    -0.206 F 
ATOM     85  C   UNL A   1      37.804  32.383  37.801  1.00  0.00     0.040 A 
ATOM     86  C   UNL A   1      39.079  34.250  36.975  1.00  0.00     0.040 A 
ATOM     87  F   UNL A   1      40.290  34.053  34.977  1.00  0.00    -0.206 F 
ATOM     88  C   UNL A   1      38.232  33.703  37.935  1.00  0.00     0.006 A 
ENDBRANCH  64  81
ENDBRANCH  38  39
ENDBRANCH  31  33
ENDBRANCH  30  31
ENDBRANCH  29  30
ENDBRANCH  28  29
ENDBRANCH  27  28
ENDBRANCH  26  27
ENDBRANCH  25  26
ENDBRANCH   1  25
TORSDOF 22
ENDMDL
MODEL 2
REMARK VINA RESULT:      -9.9      4.131      6.769
REMARK SMILES CN(C)C(=O)Nc1cccc(/C=C/C(=O)OCCOCCOCCOCCOC(=O)c2ccc(-c3c4nc(c(-c5c(F)cccc5F)c5ccc([nH]5)c(-c5c(F)cccc5F)c5nc(c(-c6c(F)cccc6F)c6ccc3[nH]6)C=C5)C=C4)cc2)n1
REMARK SMILES IDX 22 1 21 2 20 3 19 4 18 5 17 6 16 7 14 8 15 9 13 10 12 11
REMARK SMILES IDX 11 12 7 13 8 14 85 15 9 16 10 17 6 18 1 19 2 20 3 21 4 22
REMARK SMILES IDX 5 23 23 25 24 26 25 27 26 28 27 29 28 30 29 31 30 32 31 33
REMARK SMILES IDX 32 34 84 35 33 36 83 37 34 38 35 39 36 40 77 41 37 42 82 43
REMARK SMILES IDX 76 44 78 45 38 46 81 47 75 48 74 49 39 51 65 52 48 53 64 54
REMARK SMILES IDX 49 55 52 56 63 57 79 58 50 59 51 60 62 62 80 63 53 64 40 65
REMARK SMILES IDX 41 66 46 67 42 68 43 69 45 70 47 71 44 72 66 73 67 74 72 75
REMARK SMILES IDX 68 76 69 77 71 78 73 79 70 80 54 81 55 82 60 83 56 84 57 85
REMARK SMILES IDX 59 86 61 87 58 88
REMARK H PARENT 6 24 78 50 52 61
REMARK Flexibility Score: inf
ROOT
ATOM      1  O   UNL A   1      33.018  23.574  26.197  1.00  0.00    -0.377 OA
ENDROOT
BRANCH   1   2
ATOM      2  C   UNL A   1      31.652  23.951  26.298  1.00  0.00     0.188 C 
BRANCH   2   3
ATOM      3  C   UNL A   1      30.957  24.394  24.995  1.00  0.00     0.188 C 
BRANCH   3   4
ATOM      4  O   UNL A   1      31.852  24.960  24.054  1.00  0.00    -0.376 OA
BRANCH   4   5
ATOM      5  C   UNL A   1      32.003  26.363  23.977  1.00  0.00     0.202 C 
BRANCH   5   6
ATOM      6  C   UNL A   1      30.861  27.308  24.386  1.00  0.00     0.261 C 
BRANCH   6   7
ATOM      7  O   UNL A   1      31.215  28.432  25.194  1.00  0.00    -0.460 OA
BRANCH   7   8
ATOM      8  C   UNL A   1      31.569  28.190  26.474  1.00  0.00     0.330 C 
ATOM      9  O   UNL A   1      31.175  27.268  27.169  1.00  0.00    -0.247 OA
BRANCH   8  10
ATOM     10  C   UNL A   1      32.643  29.117  26.885  1.00  0.00     0.095 C 
ATOM     11  C   UNL A   1      32.429  30.394  27.250  1.00  0.00     0.036 C 
BRANCH  11  12
ATOM     12  C   UNL A   1      33.518  31.313  27.598  1.00  0.00     0.066 A 
ATOM     13  C   UNL A   1      34.153  33.495  28.003  1.00  0.00     0.134 A 
ATOM     14  C   UNL A   1      35.496  33.151  28.045  1.00  0.00     0.047 A 
ATOM     15  N   UNL A   1      33.166  32.592  27.854  1.00  0.00    -0.231 NA
ATOM     16  C   UNL A   1      35.843  31.818  27.852  1.00  0.00     0.006 A 
ATOM     17  C   UNL A   1      34.839  30.883  27.606  1.00  0.00     0.028 A 
BRANCH  13  18
ATOM     18  N   UNL A   1      33.716  34.808  28.066  1.00  0.00    -0.292 N 
ATOM     19  C   UNL A   1      32.593  36.021  31.347  1.00  0.00     0.148 C 
ATOM     20  N   UNL A   1      33.270  35.183  30.372  1.00  0.00    -0.331 N 
ATOM     21  C   UNL A   1      34.308  34.316  30.919  1.00  0.00     0.148 C 
ATOM     22  C   UNL A   1      33.084  35.504  29.041  1.00  0.00     0.322 C 
ATOM     23  O   UNL A   1      32.440  36.501  28.704  1.00  0.00    -0.248 OA
ATOM     24  H   UNL A   1      33.899  35.332  27.254  1.00  0.00     0.173 HD
ENDBRANCH  13  18
ENDBRANCH  11  12
ENDBRANCH   8  10
ENDBRANCH   7   8
ENDBRANCH   6   7
ENDBRANCH   5   6
ENDBRANCH   4   5
ENDBRANCH   3   4
ENDBRANCH   2   3
ENDBRANCH   1   2
BRANCH   1  25
ATOM     25  C   UNL A   1      33.357  22.214  25.911  1.00  0.00     0.188 C 
BRANCH  25  26
ATOM     26  C   UNL A   1      34.747  21.601  26.213  1.00  0.00     0.188 C 
BRANCH  26  27
ATOM     27  O   UNL A   1      35.564  21.377  25.076  1.00  0.00    -0.376 OA
BRANCH  27  28
ATOM     28  C   UNL A   1      36.238  20.137  24.976  1.00  0.00     0.202 C 
BRANCH  28  29
ATOM     29  C   UNL A   1      37.769  20.202  24.881  1.00  0.00     0.261 C 
BRANCH  29  30
ATOM     30  O   UNL A   1      38.383  21.363  25.460  1.00  0.00    -0.460 OA
BRANCH  30  31
ATOM     31  C   UNL A   1      39.504  21.171  26.185  1.00  0.00     0.338 C 
ATOM     32  O   UNL A   1      40.145  20.137  26.299  1.00  0.00    -0.246 OA
BRANCH  31  33
ATOM     33  C   UNL A   1      39.941  22.486  26.689  1.00  0.00     0.060 A 
ATOM     34  C   UNL A   1      39.357  23.648  26.166  1.00  0.00     0.016 A 
ATOM     35  C   UNL A   1      40.917  22.571  27.684  1.00  0.00     0.016 A 
ATOM     36  C   UNL A   1      39.775  24.901  26.615  1.00  0.00     0.010 A 
ATOM     37  C   UNL A   1      41.347  23.825  28.120  1.00  0.00     0.010 A 
ATOM     38  C   UNL A   1      40.802  24.996  27.564  1.00  0.00    -0.014 A 
BRANCH  38  39
ATOM     39  C   UNL A   1      41.433  26.309  27.841  1.00  0.00     0.031 A 
ATOM     40  C   UNL A   1      42.831  26.552  27.347  1.00  0.00     0.074 A 
ATOM     41  C   UNL A   1      40.780  27.270  28.517  1.00  0.00     0.049 A 
ATOM     42  N   UNL A   1      43.604  27.593  27.512  1.00  0.00    -0.248 NA
ATOM     43  C   UNL A   1      43.440  25.465  26.564  1.00  0.00     0.031 C 
ATOM     44  C   UNL A   1      39.414  27.167  29.024  1.00  0.00     0.029 A 
ATOM     45  N   UNL A   1      41.194  28.520  28.905  1.00  0.00    -0.354 N 
ATOM     46  C   UNL A   1      44.796  27.282  26.870  1.00  0.00     0.074 A 
ATOM     47  C   UNL A   1      44.653  25.943  26.339  1.00  0.00     0.031 C 
ATOM     48  C   UNL A   1      39.108  28.303  29.676  1.00  0.00     0.029 A 
ATOM     49  C   UNL A   1      40.268  29.195  29.660  1.00  0.00     0.049 A 
ATOM     50  H   UNL A   1      42.072  28.896  28.665  1.00  0.00     0.167 HD
ATOM     51  C   UNL A   1      45.906  28.043  26.730  1.00  0.00     0.037 A 
ATOM     52  C   UNL A   1      40.355  30.383  30.288  1.00  0.00     0.037 A 
ATOM     53  C   UNL A   1      46.046  29.373  27.266  1.00  0.00     0.049 A 
ATOM     54  C   UNL A   1      41.621  31.192  30.172  1.00  0.00     0.074 A 
ATOM     55  C   UNL A   1      47.114  30.243  27.144  1.00  0.00     0.029 A 
ATOM     56  N   UNL A   1      45.091  30.016  28.041  1.00  0.00    -0.354 N 
ATOM     57  N   UNL A   1      42.727  30.912  29.525  1.00  0.00    -0.248 NA
ATOM     58  C   UNL A   1      41.649  32.486  30.870  1.00  0.00     0.031 C 
ATOM     59  C   UNL A   1      46.836  31.383  27.905  1.00  0.00     0.029 A 
ATOM     60  C   UNL A   1      45.563  31.256  28.440  1.00  0.00     0.049 A 
ATOM     61  H   UNL A   1      44.209  29.646  28.272  1.00  0.00     0.167 HD
ATOM     62  C   UNL A   1      43.570  32.000  29.716  1.00  0.00     0.074 A 
ATOM     63  C   UNL A   1      42.842  32.952  30.528  1.00  0.00     0.031 C 
ATOM     64  C   UNL A   1      44.832  32.195  29.255  1.00  0.00     0.037 A 
BRANCH  51  65
ATOM     65  C   UNL A   1      47.075  27.430  26.012  1.00  0.00     0.057 A 
ATOM     66  C   UNL A   1      48.060  26.689  26.678  1.00  0.00     0.134 A 
ATOM     67  C   UNL A   1      47.215  27.587  24.626  1.00  0.00     0.134 A 
ATOM     68  F   UNL A   1      47.996  26.511  28.007  1.00  0.00    -0.206 F 
ATOM     69  C   UNL A   1      49.161  26.161  26.000  1.00  0.00     0.040 A 
ATOM     70  C   UNL A   1      48.294  27.035  23.933  1.00  0.00     0.040 A 
ATOM     71  F   UNL A   1      46.307  28.279  23.923  1.00  0.00    -0.206 F 
ATOM     72  C   UNL A   1      49.277  26.330  24.623  1.00  0.00     0.006 A 
ENDBRANCH  51  65
BRANCH  52  73
ATOM     73  C   UNL A   1      39.211  30.870  31.100  1.00  0.00     0.057 A 
ATOM     74  C   UNL A   1      38.330  31.841  30.613  1.00  0.00     0.134 A 
ATOM     75  C   UNL A   1      38.967  30.365  32.384  1.00  0.00     0.134 A 
ATOM     76  F   UNL A   1      38.524  32.382  29.401  1.00  0.00    -0.206 F 
ATOM     77  C   UNL A   1      37.251  32.297  31.373  1.00  0.00     0.040 A 
ATOM     78  C   UNL A   1      37.878  30.792  33.145  1.00  0.00     0.040 A 
ATOM     79  F   UNL A   1      39.775  29.432  32.910  1.00  0.00    -0.206 F 
ATOM     80  C   UNL A   1      37.018  31.766  32.640  1.00  0.00     0.006 A 
ENDBRANCH  52  73
BRANCH  64  81
ATOM     81  C   UNL A   1      45.499  33.499  29.592  1.00  0.00     0.057 A 
ATOM     82  C   UNL A   1      46.150  33.710  30.815  1.00  0.00     0.134 A 
ATOM     83  C   UNL A   1      45.530  34.544  28.658  1.00  0.00     0.134 A 
ATOM     84  F   UNL A   1      46.151  32.756  31.759  1.00  0.00    -0.206 F 
ATOM     85  C   UNL A   1      46.783  34.920  31.106  1.00  0.00     0.040 A 
ATOM     86  C   UNL A   1      46.188  35.747  28.926  1.00  0.00     0.040 A 
ATOM     87  F   UNL A   1      44.938  34.408  27.462  1.00  0.00    -0.206 F 
ATOM     88  C   UNL A   1      46.810  35.940  30.156  1.00  0.00     0.006 A 
ENDBRANCH  64  81
ENDBRANCH  38  39
ENDBRANCH  31  33
ENDBRANCH  30  31
ENDBRANCH  29  30
ENDBRANCH  28  29
ENDBRANCH  27  28
ENDBRANCH  26  27
ENDBRANCH  25  26
ENDBRANCH   1  25
TORSDOF 22
ENDMDL
MODEL 3
REMARK VINA RESULT:      -9.4      2.830      4.889
REMARK SMILES CN(C)C(=O)Nc1cccc(/C=C/C(=O)OCCOCCOCCOCCOC(=O)c2ccc(-c3c4nc(c(-c5c(F)cccc5F)c5ccc([nH]5)c(-c5c(F)cccc5F)c5nc(c(-c6c(F)cccc6F)c6ccc3[nH]6)C=C5)C=C4)cc2)n1
REMARK SMILES IDX 22 1 21 2 20 3 19 4 18 5 17 6 16 7 14 8 15 9 13 10 12 11
REMARK SMILES IDX 11 12 7 13 8 14 85 15 9 16 10 17 6 18 1 19 2 20 3 21 4 22
REMARK SMILES IDX 5 23 23 25 24 26 25 27 26 28 27 29 28 30 29 31 30 32 31 33
REMARK SMILES IDX 32 34 84 35 33 36 83 37 34 38 35 39 36 40 77 41 37 42 82 43
REMARK SMILES IDX 76 44 78 45 38 46 81 47 75 48 74 49 39 51 65 52 48 53 64 54
REMARK SMILES IDX 49 55 52 56 63 57 79 58 50 59 51 60 62 62 80 63 53 64 40 65
REMARK SMILES IDX 41 66 46 67 42 68 43 69 45 70 47 71 44 72 66 73 67 74 72 75
REMARK SMILES IDX 68 76 69 77 71 78 73 79 70 80 54 81 55 82 60 83 56 84 57 85
REMARK SMILES IDX 59 86 61 87 58 88
REMARK H PARENT 6 24 78 50 52 61
REMARK Flexibility Score: inf
ROOT
ATOM      1  O   UNL A   1      37.740  22.950  25.415  1.00  0.00    -0.377 OA
ENDROOT
BRANCH   1   2
ATOM      2  C   UNL A   1      36.876  22.319  24.480  1.00  0.00     0.188 C 
BRANCH   2   3
ATOM      3  C   UNL A   1      36.239  23.222  23.405  1.00  0.00     0.188 C 
BRANCH   3   4
ATOM      4  O   UNL A   1      34.837  23.356  23.554  1.00  0.00    -0.376 OA
BRANCH   4   5
ATOM      5  C   UNL A   1      34.286  24.580  23.997  1.00  0.00     0.202 C 
BRANCH   5   6
ATOM      6  C   UNL A   1      33.747  24.737  25.427  1.00  0.00     0.261 C 
BRANCH   6   7
ATOM      7  O   UNL A   1      33.934  23.628  26.309  1.00  0.00    -0.460 OA
BRANCH   7   8
ATOM      8  C   UNL A   1      32.852  22.878  26.603  1.00  0.00     0.330 C 
ATOM      9  O   UNL A   1      31.913  23.210  27.307  1.00  0.00    -0.247 OA
BRANCH   8  10
ATOM     10  C   UNL A   1      32.874  21.629  25.814  1.00  0.00     0.095 C 
ATOM     11  C   UNL A   1      32.147  21.437  24.698  1.00  0.00     0.036 C 
BRANCH  11  12
ATOM     12  C   UNL A   1      32.140  20.167  23.964  1.00  0.00     0.066 A 
ATOM     13  C   UNL A   1      32.322  17.869  24.072  1.00  0.00     0.134 A 
ATOM     14  C   UNL A   1      32.346  17.753  22.690  1.00  0.00     0.047 A 
ATOM     15  N   UNL A   1      32.152  19.041  24.710  1.00  0.00    -0.231 NA
ATOM     16  C   UNL A   1      32.260  18.914  21.929  1.00  0.00     0.006 A 
ATOM     17  C   UNL A   1      32.174  20.146  22.574  1.00  0.00     0.028 A 
BRANCH  13  18
ATOM     18  N   UNL A   1      32.519  16.787  24.915  1.00  0.00    -0.292 N 
ATOM     19  C   UNL A   1      35.973  15.591  25.292  1.00  0.00     0.148 C 
ATOM     20  N   UNL A   1      34.879  16.495  24.977  1.00  0.00    -0.331 N 
ATOM     21  C   UNL A   1      35.257  17.897  24.841  1.00  0.00     0.148 C 
ATOM     22  C   UNL A   1      33.599  15.999  25.138  1.00  0.00     0.322 C 
ATOM     23  O   UNL A   1      33.397  14.874  25.603  1.00  0.00    -0.248 OA
ATOM     24  H   UNL A   1      31.730  16.546  25.451  1.00  0.00     0.173 HD
ENDBRANCH  13  18
ENDBRANCH  11  12
ENDBRANCH   8  10
ENDBRANCH   7   8
ENDBRANCH   6   7
ENDBRANCH   5   6
ENDBRANCH   4   5
ENDBRANCH   3   4
ENDBRANCH   2   3
ENDBRANCH   1   2
BRANCH   1  25
ATOM     25  C   UNL A   1      38.508  22.151  26.318  1.00  0.00     0.188 C 
BRANCH  25  26
ATOM     26  C   UNL A   1      39.836  21.456  25.923  1.00  0.00     0.188 C 
BRANCH  26  27
ATOM     27  O   UNL A   1      41.011  22.113  26.366  1.00  0.00    -0.376 OA
BRANCH  27  28
ATOM     28  C   UNL A   1      42.246  21.437  26.220  1.00  0.00     0.202 C 
BRANCH  28  29
ATOM     29  C   UNL A   1      43.210  22.002  25.167  1.00  0.00     0.261 C 
BRANCH  29  30
ATOM     30  O   UNL A   1      43.082  23.405  24.892  1.00  0.00    -0.460 OA
BRANCH  30  31
ATOM     31  C   UNL A   1      44.083  24.208  25.308  1.00  0.00     0.338 C 
ATOM     32  O   UNL A   1      45.238  24.220  24.910  1.00  0.00    -0.246 OA
BRANCH  31  33
ATOM     33  C   UNL A   1      43.500  25.214  26.216  1.00  0.00     0.060 A 
ATOM     34  C   UNL A   1      44.330  26.200  26.768  1.00  0.00     0.016 A 
ATOM     35  C   UNL A   1      42.136  25.190  26.512  1.00  0.00     0.016 A 
ATOM     36  C   UNL A   1      43.799  27.146  27.645  1.00  0.00     0.010 A 
ATOM     37  C   UNL A   1      41.609  26.125  27.404  1.00  0.00     0.010 A 
ATOM     38  C   UNL A   1      42.445  27.087  28.001  1.00  0.00    -0.014 A 
BRANCH  38  39
ATOM     39  C   UNL A   1      41.940  27.907  29.128  1.00  0.00     0.031 A 
ATOM     40  C   UNL A   1      42.647  27.821  30.451  1.00  0.00     0.074 A 
ATOM     41  C   UNL A   1      40.875  28.713  28.985  1.00  0.00     0.049 A 
ATOM     42  N   UNL A   1      42.360  28.399  31.589  1.00  0.00    -0.248 NA
ATOM     43  C   UNL A   1      43.839  26.959  30.495  1.00  0.00     0.031 C 
ATOM     44  C   UNL A   1      40.120  28.904  27.748  1.00  0.00     0.029 A 
ATOM     45  N   UNL A   1      40.236  29.512  29.900  1.00  0.00    -0.354 N 
ATOM     46  C   UNL A   1      43.324  27.958  32.487  1.00  0.00     0.074 A 
ATOM     47  C   UNL A   1      44.184  27.042  31.769  1.00  0.00     0.031 C 
ATOM     48  C   UNL A   1      39.105  29.754  27.987  1.00  0.00     0.029 A 
ATOM     49  C   UNL A   1      39.121  30.136  29.399  1.00  0.00     0.049 A 
ATOM     50  H   UNL A   1      40.548  29.626  30.827  1.00  0.00     0.167 HD
ATOM     51  C   UNL A   1      43.481  28.289  33.790  1.00  0.00     0.037 A 
ATOM     52  C   UNL A   1      38.202  30.905  30.016  1.00  0.00     0.037 A 
ATOM     53  C   UNL A   1      42.618  29.197  34.501  1.00  0.00     0.049 A 
ATOM     54  C   UNL A   1      38.359  31.216  31.482  1.00  0.00     0.074 A 
ATOM     55  C   UNL A   1      42.716  29.631  35.811  1.00  0.00     0.029 A 
ATOM     56  N   UNL A   1      41.487  29.796  33.965  1.00  0.00    -0.354 N 
ATOM     57  N   UNL A   1      39.298  30.833  32.314  1.00  0.00    -0.248 NA
ATOM     58  C   UNL A   1      37.331  32.072  32.093  1.00  0.00     0.031 C 
ATOM     59  C   UNL A   1      41.605  30.435  36.088  1.00  0.00     0.029 A 
ATOM     60  C   UNL A   1      40.854  30.562  34.930  1.00  0.00     0.049 A 
ATOM     61  H   UNL A   1      41.180  29.691  33.035  1.00  0.00     0.167 HD
ATOM     62  C   UNL A   1      38.989  31.418  33.537  1.00  0.00     0.074 A 
ATOM     63  C   UNL A   1      37.783  32.193  33.333  1.00  0.00     0.031 C 
ATOM     64  C   UNL A   1      39.649  31.325  34.719  1.00  0.00     0.037 A 
BRANCH  51  65
ATOM     65  C   UNL A   1      44.601  27.623  34.540  1.00  0.00     0.057 A 
ATOM     66  C   UNL A   1      45.883  28.182  34.624  1.00  0.00     0.134 A 
ATOM     67  C   UNL A   1      44.388  26.399  35.187  1.00  0.00     0.134 A 
ATOM     68  F   UNL A   1      46.161  29.345  34.015  1.00  0.00    -0.206 F 
ATOM     69  C   UNL A   1      46.922  27.529  35.291  1.00  0.00     0.040 A 
ATOM     70  C   UNL A   1      45.410  25.753  35.885  1.00  0.00     0.040 A 
ATOM     71  F   UNL A   1      43.184  25.809  35.153  1.00  0.00    -0.206 F 
ATOM     72  C   UNL A   1      46.685  26.312  35.927  1.00  0.00     0.006 A 
ENDBRANCH  51  65
BRANCH  52  73
ATOM     73  C   UNL A   1      37.040  31.419  29.248  1.00  0.00     0.057 A 
ATOM     74  C   UNL A   1      37.033  32.711  28.710  1.00  0.00     0.134 A 
ATOM     75  C   UNL A   1      35.910  30.623  29.024  1.00  0.00     0.134 A 
ATOM     76  F   UNL A   1      38.075  33.531  28.911  1.00  0.00    -0.206 F 
ATOM     77  C   UNL A   1      35.943  33.195  27.984  1.00  0.00     0.040 A 
ATOM     78  C   UNL A   1      34.824  31.083  28.278  1.00  0.00     0.040 A 
ATOM     79  F   UNL A   1      35.853  29.374  29.512  1.00  0.00    -0.206 F 
ATOM     80  C   UNL A   1      34.837  32.377  27.759  1.00  0.00     0.006 A 
ENDBRANCH  52  73
BRANCH  64  81
ATOM     81  C   UNL A   1      39.099  32.104  35.882  1.00  0.00     0.057 A 
ATOM     82  C   UNL A   1      38.228  31.532  36.818  1.00  0.00     0.134 A 
ATOM     83  C   UNL A   1      39.487  33.435  36.094  1.00  0.00     0.134 A 
ATOM     84  F   UNL A   1      37.808  30.265  36.671  1.00  0.00    -0.206 F 
ATOM     85  C   UNL A   1      37.741  32.261  37.905  1.00  0.00     0.040 A 
ATOM     86  C   UNL A   1      39.032  34.164  37.194  1.00  0.00     0.040 A 
ATOM     87  F   UNL A   1      40.328  34.043  35.245  1.00  0.00    -0.206 F 
ATOM     88  C   UNL A   1      38.150  33.579  38.099  1.00  0.00     0.006 A 
ENDBRANCH  64  81
ENDBRANCH  38  39
ENDBRANCH  31  33
ENDBRANCH  30  31
ENDBRANCH  29  30
ENDBRANCH  28  29
ENDBRANCH  27  28
ENDBRANCH  26  27
ENDBRANCH  25  26
ENDBRANCH   1  25
TORSDOF 22
ENDMDL
