MODEL 1
REMARK VINA RESULT:      -9.8      0.000      0.000
REMARK SMILES Cc1n[nH]c(C)c1CC(=O)N1CC[C@H](C(=O)OCCOCCOCCOCCOC(=O)c2ccc(-c3c4nc(c(-c5c(F)cccc5F)c5ccc([nH]5)c(-c5c(F)cccc5F)c5nc(c(-c6c(F)cccc6F)c6ccc3[nH]6)C=C5)C=C4)cc2)[C@H]1C
REMARK SMILES IDX 22 1 21 2 20 3 19 4 18 5 17 6 15 7 16 8 14 9 11 10 12 11
REMARK SMILES IDX 86 12 13 13 87 14 9 15 10 16 8 17 7 18 1 19 2 20 3 21 4 22
REMARK SMILES IDX 5 23 6 25 23 26 24 27 25 28 26 29 27 30 28 31 29 32 30 33
REMARK SMILES IDX 31 34 32 35 33 36 85 37 34 38 84 39 35 40 36 41 37 42 78 43
REMARK SMILES IDX 38 44 83 45 77 46 79 47 39 48 82 49 76 50 75 51 40 53 66 54
REMARK SMILES IDX 49 55 65 56 50 57 53 58 64 59 80 60 51 61 52 62 63 64 81 65
REMARK SMILES IDX 54 66 41 67 42 68 47 69 43 70 44 71 46 72 48 73 45 74 67 75
REMARK SMILES IDX 68 76 73 77 69 78 70 79 72 80 74 81 71 82 55 83 56 84 61 85
REMARK SMILES IDX 57 86 58 87 60 88 62 89 59 90
REMARK H PARENT 4 24 79 52 53 63
REMARK Flexibility Score: inf
ROOT
ATOM      1  C   UNL A   1      40.801  22.546  26.949  1.00  0.00     0.188 C 
ENDROOT
BRANCH   1   2
ATOM      2  C   UNL A   1      39.528  23.408  27.101  1.00  0.00     0.188 C 
BRANCH   2   3
ATOM      3  O   UNL A   1      38.286  23.004  26.537  1.00  0.00    -0.376 OA
BRANCH   3   4
ATOM      4  C   UNL A   1      37.549  23.906  25.733  1.00  0.00     0.202 C 
BRANCH   4   5
ATOM      5  C   UNL A   1      36.011  23.786  25.677  1.00  0.00     0.261 C 
BRANCH   5   6
ATOM      6  O   UNL A   1      35.451  22.732  24.859  1.00  0.00    -0.463 OA
BRANCH   6   7
ATOM      7  C   UNL A   1      35.050  23.101  23.621  1.00  0.00     0.311 C 
ATOM      8  O   UNL A   1      35.827  23.325  22.696  1.00  0.00    -0.252 OA
BRANCH   7   9
ATOM      9  C   UNL A   1      33.544  23.241  23.416  1.00  0.00     0.123 C 
ATOM     10  N   UNL A   1      31.954  24.167  24.993  1.00  0.00    -0.339 N 
ATOM     11  C   UNL A   1      32.076  22.753  25.300  1.00  0.00     0.121 C 
ATOM     12  C   UNL A   1      32.723  24.509  23.775  1.00  0.00     0.096 C 
ATOM     13  C   UNL A   1      32.789  22.109  24.125  1.00  0.00     0.039 C 
ATOM     14  C   UNL A   1      31.776  24.777  22.606  1.00  0.00     0.032 C 
BRANCH  10  15
ATOM     15  C   UNL A   1      31.370  24.985  25.950  1.00  0.00     0.227 C 
ATOM     16  O   UNL A   1      31.406  24.632  27.141  1.00  0.00    -0.275 OA
BRANCH  15  17
ATOM     17  C   UNL A   1      30.479  26.175  25.610  1.00  0.00     0.139 C 
BRANCH  17  18
ATOM     18  C   UNL A   1      31.078  27.489  25.255  1.00  0.00     0.005 A 
ATOM     19  C   UNL A   1      32.063  28.275  27.548  1.00  0.00     0.069 C 
ATOM     20  C   UNL A   1      31.796  28.387  26.093  1.00  0.00     0.063 A 
ATOM     21  N   UNL A   1      32.174  29.487  25.432  1.00  0.00    -0.181 NA
ATOM     22  N   UNL A   1      31.620  29.351  24.223  1.00  0.00    -0.282 N 
ATOM     23  C   UNL A   1      30.867  28.219  24.093  1.00  0.00     0.036 A 
ATOM     24  H   UNL A   1      31.743  30.004  23.496  1.00  0.00     0.190 HD
ATOM     25  C   UNL A   1      30.009  27.986  22.904  1.00  0.00     0.066 C 
ENDBRANCH  17  18
ENDBRANCH  15  17
ENDBRANCH  10  15
ENDBRANCH   7   9
ENDBRANCH   6   7
ENDBRANCH   5   6
ENDBRANCH   4   5
ENDBRANCH   3   4
ENDBRANCH   2   3
ENDBRANCH   1   2
BRANCH   1  26
ATOM     26  O   UNL A   1      40.567  21.152  26.886  1.00  0.00    -0.377 OA
BRANCH  26  27
ATOM     27  C   UNL A   1      41.705  20.353  26.621  1.00  0.00     0.188 C 
BRANCH  27  28
ATOM     28  C   UNL A   1      43.004  21.101  26.277  1.00  0.00     0.188 C 
BRANCH  28  29
ATOM     29  O   UNL A   1      43.677  20.554  25.160  1.00  0.00    -0.376 OA
BRANCH  29  30
ATOM     30  C   UNL A   1      44.515  21.316  24.314  1.00  0.00     0.202 C 
BRANCH  30  31
ATOM     31  C   UNL A   1      45.211  22.617  24.753  1.00  0.00     0.261 C 
BRANCH  31  32
ATOM     32  O   UNL A   1      44.422  23.803  24.850  1.00  0.00    -0.460 OA
BRANCH  32  33
ATOM     33  C   UNL A   1      45.061  24.950  25.153  1.00  0.00     0.338 C 
ATOM     34  O   UNL A   1      46.089  25.376  24.651  1.00  0.00    -0.246 OA
BRANCH  33  35
ATOM     35  C   UNL A   1      44.192  25.722  26.067  1.00  0.00     0.060 A 
ATOM     36  C   UNL A   1      44.319  27.117  26.087  1.00  0.00     0.016 A 
ATOM     37  C   UNL A   1      43.245  25.086  26.874  1.00  0.00     0.016 A 
ATOM     38  C   UNL A   1      43.520  27.880  26.936  1.00  0.00     0.010 A 
ATOM     39  C   UNL A   1      42.465  25.850  27.749  1.00  0.00     0.010 A 
ATOM     40  C   UNL A   1      42.627  27.245  27.808  1.00  0.00    -0.014 A 
BRANCH  40  41
ATOM     41  C   UNL A   1      42.052  28.020  28.933  1.00  0.00     0.031 A 
ATOM     42  C   UNL A   1      42.778  27.990  30.250  1.00  0.00     0.074 A 
ATOM     43  C   UNL A   1      40.952  28.776  28.780  1.00  0.00     0.049 A 
ATOM     44  N   UNL A   1      42.460  28.543  31.391  1.00  0.00    -0.248 NA
ATOM     45  C   UNL A   1      44.039  27.229  30.281  1.00  0.00     0.031 C 
ATOM     46  C   UNL A   1      40.193  28.930  27.541  1.00  0.00     0.029 A 
ATOM     47  N   UNL A   1      40.277  29.554  29.689  1.00  0.00    -0.354 N 
ATOM     48  C   UNL A   1      43.479  28.201  32.271  1.00  0.00     0.074 A 
ATOM     49  C   UNL A   1      44.403  27.358  31.547  1.00  0.00     0.031 C 
ATOM     50  C   UNL A   1      39.141  29.734  27.773  1.00  0.00     0.029 A 
ATOM     51  C   UNL A   1      39.134  30.124  29.183  1.00  0.00     0.049 A 
ATOM     52  H   UNL A   1      40.583  29.691  30.615  1.00  0.00     0.167 HD
ATOM     53  C   UNL A   1      43.637  28.567  33.565  1.00  0.00     0.037 A 
ATOM     54  C   UNL A   1      38.179  30.847  29.800  1.00  0.00     0.037 A 
ATOM     55  C   UNL A   1      42.707  29.394  34.285  1.00  0.00     0.049 A 
ATOM     56  C   UNL A   1      38.327  31.161  31.268  1.00  0.00     0.074 A 
ATOM     57  C   UNL A   1      42.765  29.810  35.603  1.00  0.00     0.029 A 
ATOM     58  N   UNL A   1      41.546  29.927  33.746  1.00  0.00    -0.354 N 
ATOM     59  N   UNL A   1      39.297  30.840  32.092  1.00  0.00    -0.248 NA
ATOM     60  C   UNL A   1      37.251  31.945  31.891  1.00  0.00     0.031 C 
ATOM     61  C   UNL A   1      41.612  30.551  35.876  1.00  0.00     0.029 A 
ATOM     62  C   UNL A   1      40.869  30.652  34.712  1.00  0.00     0.049 A 
ATOM     63  H   UNL A   1      41.247  29.807  32.815  1.00  0.00     0.167 HD
ATOM     64  C   UNL A   1      38.962  31.407  33.317  1.00  0.00     0.074 A 
ATOM     65  C   UNL A   1      37.709  32.107  33.124  1.00  0.00     0.031 C 
ATOM     66  C   UNL A   1      39.629  31.354  34.497  1.00  0.00     0.037 A 
BRANCH  53  67
ATOM     67  C   UNL A   1      44.851  28.055  34.283  1.00  0.00     0.057 A 
ATOM     68  C   UNL A   1      46.095  28.691  34.179  1.00  0.00     0.134 A 
ATOM     69  C   UNL A   1      44.768  26.929  35.111  1.00  0.00     0.134 A 
ATOM     70  F   UNL A   1      46.246  29.764  33.388  1.00  0.00    -0.206 F 
ATOM     71  C   UNL A   1      47.218  28.214  34.857  1.00  0.00     0.040 A 
ATOM     72  C   UNL A   1      45.878  26.460  35.817  1.00  0.00     0.040 A 
ATOM     73  F   UNL A   1      43.608  26.272  35.256  1.00  0.00    -0.206 F 
ATOM     74  C   UNL A   1      47.108  27.100  35.686  1.00  0.00     0.006 A 
ENDBRANCH  53  67
BRANCH  54  75
ATOM     75  C   UNL A   1      36.974  31.293  29.051  1.00  0.00     0.057 A 
ATOM     76  C   UNL A   1      36.874  32.586  28.525  1.00  0.00     0.134 A 
ATOM     77  C   UNL A   1      35.869  30.447  28.890  1.00  0.00     0.134 A 
ATOM     78  F   UNL A   1      37.886  33.454  28.668  1.00  0.00    -0.206 F 
ATOM     79  C   UNL A   1      35.712  33.032  27.892  1.00  0.00     0.040 A 
ATOM     80  C   UNL A   1      34.713  30.869  28.232  1.00  0.00     0.040 A 
ATOM     81  F   UNL A   1      35.895  29.197  29.374  1.00  0.00    -0.206 F 
ATOM     82  C   UNL A   1      34.627  32.170  27.742  1.00  0.00     0.006 A 
ENDBRANCH  54  75
BRANCH  66  83
ATOM     83  C   UNL A   1      39.048  32.113  35.657  1.00  0.00     0.057 A 
ATOM     84  C   UNL A   1      38.239  31.497  36.619  1.00  0.00     0.134 A 
ATOM     85  C   UNL A   1      39.343  33.472  35.835  1.00  0.00     0.134 A 
ATOM     86  F   UNL A   1      37.910  30.201  36.504  1.00  0.00    -0.206 F 
ATOM     87  C   UNL A   1      37.722  32.211  37.702  1.00  0.00     0.040 A 
ATOM     88  C   UNL A   1      38.858  34.187  36.930  1.00  0.00     0.040 A 
ATOM     89  F   UNL A   1      40.123  34.121  34.958  1.00  0.00    -0.206 F 
ATOM     90  C   UNL A   1      38.039  33.558  37.864  1.00  0.00     0.006 A 
ENDBRANCH  66  83
ENDBRANCH  40  41
ENDBRANCH  33  35
ENDBRANCH  32  33
ENDBRANCH  31  32
ENDBRANCH  30  31
ENDBRANCH  29  30
ENDBRANCH  28  29
ENDBRANCH  27  28
ENDBRANCH  26  27
ENDBRANCH   1  26
TORSDOF 23
ENDMDL
MODEL 2
REMARK VINA RESULT:      -9.8      0.558      6.040
REMARK SMILES Cc1n[nH]c(C)c1CC(=O)N1CC[C@H](C(=O)OCCOCCOCCOCCOC(=O)c2ccc(-c3c4nc(c(-c5c(F)cccc5F)c5ccc([nH]5)c(-c5c(F)cccc5F)c5nc(c(-c6c(F)cccc6F)c6ccc3[nH]6)C=C5)C=C4)cc2)[C@H]1C
REMARK SMILES IDX 22 1 21 2 20 3 19 4 18 5 17 6 15 7 16 8 14 9 11 10 12 11
REMARK SMILES IDX 86 12 13 13 87 14 9 15 10 16 8 17 7 18 1 19 2 20 3 21 4 22
REMARK SMILES IDX 5 23 6 25 23 26 24 27 25 28 26 29 27 30 28 31 29 32 30 33
REMARK SMILES IDX 31 34 32 35 33 36 85 37 34 38 84 39 35 40 36 41 37 42 78 43
REMARK SMILES IDX 38 44 83 45 77 46 79 47 39 48 82 49 76 50 75 51 40 53 66 54
REMARK SMILES IDX 49 55 65 56 50 57 53 58 64 59 80 60 51 61 52 62 63 64 81 65
REMARK SMILES IDX 54 66 41 67 42 68 47 69 43 70 44 71 46 72 48 73 45 74 67 75
REMARK SMILES IDX 68 76 73 77 69 78 70 79 72 80 74 81 71 82 55 83 56 84 61 85
REMARK SMILES IDX 57 86 58 87 60 88 62 89 59 90
REMARK H PARENT 4 24 79 52 53 63
REMARK Flexibility Score: inf
ROOT
ATOM      1  C   UNL A   1      40.839  22.668  26.981  1.00  0.00     0.188 C 
ENDROOT
BRANCH   1   2
ATOM      2  C   UNL A   1      39.498  23.411  27.169  1.00  0.00     0.188 C 
BRANCH   2   3
ATOM      3  O   UNL A   1      38.311  22.979  26.514  1.00  0.00    -0.376 OA
BRANCH   3   4
ATOM      4  C   UNL A   1      37.619  23.862  25.651  1.00  0.00     0.202 C 
BRANCH   4   5
ATOM      5  C   UNL A   1      36.077  23.826  25.611  1.00  0.00     0.261 C 
BRANCH   5   6
ATOM      6  O   UNL A   1      35.451  22.769  24.847  1.00  0.00    -0.463 OA
BRANCH   6   7
ATOM      7  C   UNL A   1      35.009  23.117  23.617  1.00  0.00     0.311 C 
ATOM      8  O   UNL A   1      35.756  23.345  22.668  1.00  0.00    -0.252 OA
BRANCH   7   9
ATOM      9  C   UNL A   1      33.496  23.229  23.452  1.00  0.00     0.123 C 
ATOM     10  N   UNL A   1      31.939  24.192  25.039  1.00  0.00    -0.339 N 
ATOM     11  C   UNL A   1      32.091  22.793  25.396  1.00  0.00     0.121 C 
ATOM     12  C   UNL A   1      32.667  24.497  23.787  1.00  0.00     0.096 C 
ATOM     13  C   UNL A   1      32.779  22.114  24.226  1.00  0.00     0.039 C 
ATOM     14  C   UNL A   1      31.682  24.706  22.637  1.00  0.00     0.032 C 
BRANCH  10  15
ATOM     15  C   UNL A   1      31.372  25.038  25.981  1.00  0.00     0.227 C 
ATOM     16  O   UNL A   1      31.381  24.696  27.176  1.00  0.00    -0.275 OA
BRANCH  15  17
ATOM     17  C   UNL A   1      30.525  26.253  25.619  1.00  0.00     0.139 C 
BRANCH  17  18
ATOM     18  C   UNL A   1      31.171  27.542  25.253  1.00  0.00     0.005 A 
ATOM     19  C   UNL A   1      32.109  28.355  27.555  1.00  0.00     0.069 C 
ATOM     20  C   UNL A   1      31.889  28.439  26.091  1.00  0.00     0.063 A 
ATOM     21  N   UNL A   1      32.318  29.512  25.416  1.00  0.00    -0.181 NA
ATOM     22  N   UNL A   1      31.797  29.362  24.195  1.00  0.00    -0.282 N 
ATOM     23  C   UNL A   1      31.016  28.249  24.068  1.00  0.00     0.036 A 
ATOM     24  H   UNL A   1      31.960  29.994  23.457  1.00  0.00     0.190 HD
ATOM     25  C   UNL A   1      30.187  28.011  22.859  1.00  0.00     0.066 C 
ENDBRANCH  17  18
ENDBRANCH  15  17
ENDBRANCH  10  15
ENDBRANCH   7   9
ENDBRANCH   6   7
ENDBRANCH   5   6
ENDBRANCH   4   5
ENDBRANCH   3   4
ENDBRANCH   2   3
ENDBRANCH   1   2
BRANCH   1  26
ATOM     26  O   UNL A   1      40.720  21.269  26.803  1.00  0.00    -0.377 OA
BRANCH  26  27
ATOM     27  C   UNL A   1      41.909  20.597  26.431  1.00  0.00     0.188 C 
BRANCH  27  28
ATOM     28  C   UNL A   1      43.128  21.482  26.117  1.00  0.00     0.188 C 
BRANCH  28  29
ATOM     29  O   UNL A   1      43.747  21.154  24.889  1.00  0.00    -0.376 OA
BRANCH  29  30
ATOM     30  C   UNL A   1      44.447  22.096  24.102  1.00  0.00     0.202 C 
BRANCH  30  31
ATOM     31  C   UNL A   1      45.106  23.364  24.676  1.00  0.00     0.261 C 
BRANCH  31  32
ATOM     32  O   UNL A   1      44.274  24.494  24.940  1.00  0.00    -0.460 OA
BRANCH  32  33
ATOM     33  C   UNL A   1      44.885  25.655  25.246  1.00  0.00     0.338 C 
ATOM     34  O   UNL A   1      45.833  26.164  24.670  1.00  0.00    -0.246 OA
BRANCH  33  35
ATOM     35  C   UNL A   1      44.080  26.326  26.289  1.00  0.00     0.060 A 
ATOM     36  C   UNL A   1      44.232  27.708  26.462  1.00  0.00     0.016 A 
ATOM     37  C   UNL A   1      43.167  25.612  27.070  1.00  0.00     0.016 A 
ATOM     38  C   UNL A   1      43.493  28.377  27.435  1.00  0.00     0.010 A 
ATOM     39  C   UNL A   1      42.449  26.279  28.068  1.00  0.00     0.010 A 
ATOM     40  C   UNL A   1      42.638  27.657  28.277  1.00  0.00    -0.014 A 
BRANCH  40  41
ATOM     41  C   UNL A   1      42.138  28.304  29.513  1.00  0.00     0.031 A 
ATOM     42  C   UNL A   1      40.847  29.073  29.430  1.00  0.00     0.074 A 
ATOM     43  C   UNL A   1      42.775  28.169  30.688  1.00  0.00     0.049 A 
ATOM     44  N   UNL A   1      40.225  29.760  30.352  1.00  0.00    -0.248 NA
ATOM     45  C   UNL A   1      40.164  29.060  28.125  1.00  0.00     0.031 C 
ATOM     46  C   UNL A   1      44.001  27.406  30.905  1.00  0.00     0.029 A 
ATOM     47  N   UNL A   1      42.473  28.685  31.925  1.00  0.00    -0.354 N 
ATOM     48  C   UNL A   1      39.081  30.258  29.741  1.00  0.00     0.074 A 
ATOM     49  C   UNL A   1      39.114  29.831  28.361  1.00  0.00     0.031 C 
ATOM     50  C   UNL A   1      44.363  27.522  32.196  1.00  0.00     0.029 A 
ATOM     51  C   UNL A   1      43.411  28.394  32.885  1.00  0.00     0.049 A 
ATOM     52  H   UNL A   1      41.661  29.212  32.107  1.00  0.00     0.167 HD
ATOM     53  C   UNL A   1      38.085  30.995  30.285  1.00  0.00     0.037 A 
ATOM     54  C   UNL A   1      43.505  28.814  34.162  1.00  0.00     0.037 A 
ATOM     55  C   UNL A   1      38.063  31.430  31.656  1.00  0.00     0.049 A 
ATOM     56  C   UNL A   1      42.432  29.717  34.720  1.00  0.00     0.074 A 
ATOM     57  C   UNL A   1      37.110  32.195  32.303  1.00  0.00     0.029 A 
ATOM     58  N   UNL A   1      39.048  31.141  32.589  1.00  0.00    -0.354 N 
ATOM     59  N   UNL A   1      41.350  30.178  34.138  1.00  0.00    -0.248 NA
ATOM     60  C   UNL A   1      42.590  30.152  36.115  1.00  0.00     0.031 C 
ATOM     61  C   UNL A   1      37.542  32.412  33.614  1.00  0.00     0.029 A 
ATOM     62  C   UNL A   1      38.733  31.729  33.802  1.00  0.00     0.049 A 
ATOM     63  H   UNL A   1      39.851  30.599  32.415  1.00  0.00     0.167 HD
ATOM     64  C   UNL A   1      40.687  30.929  35.103  1.00  0.00     0.074 A 
ATOM     65  C   UNL A   1      41.479  30.847  36.312  1.00  0.00     0.031 C 
ATOM     66  C   UNL A   1      39.527  31.625  35.000  1.00  0.00     0.037 A 
BRANCH  53  67
ATOM     67  C   UNL A   1      36.950  31.393  29.387  1.00  0.00     0.057 A 
ATOM     68  C   UNL A   1      36.879  32.664  28.803  1.00  0.00     0.134 A 
ATOM     69  C   UNL A   1      35.930  30.483  29.080  1.00  0.00     0.134 A 
ATOM     70  F   UNL A   1      37.814  33.589  29.071  1.00  0.00    -0.206 F 
ATOM     71  C   UNL A   1      35.825  33.023  27.962  1.00  0.00     0.040 A 
ATOM     72  C   UNL A   1      34.887  30.822  28.217  1.00  0.00     0.040 A 
ATOM     73  F   UNL A   1      35.937  29.248  29.605  1.00  0.00    -0.206 F 
ATOM     74  C   UNL A   1      34.830  32.097  27.660  1.00  0.00     0.006 A 
ENDBRANCH  53  67
BRANCH  54  75
ATOM     75  C   UNL A   1      44.673  28.427  34.996  1.00  0.00     0.057 A 
ATOM     76  C   UNL A   1      44.645  27.295  35.819  1.00  0.00     0.134 A 
ATOM     77  C   UNL A   1      45.832  29.214  35.028  1.00  0.00     0.134 A 
ATOM     78  F   UNL A   1      43.555  26.513  35.854  1.00  0.00    -0.206 F 
ATOM     79  C   UNL A   1      45.710  26.975  36.662  1.00  0.00     0.040 A 
ATOM     80  C   UNL A   1      46.916  28.889  35.844  1.00  0.00     0.040 A 
ATOM     81  F   UNL A   1      45.925  30.316  34.269  1.00  0.00    -0.206 F 
ATOM     82  C   UNL A   1      46.852  27.772  36.673  1.00  0.00     0.006 A 
ENDBRANCH  54  75
BRANCH  66  83
ATOM     83  C   UNL A   1      39.017  32.309  36.236  1.00  0.00     0.057 A 
ATOM     84  C   UNL A   1      39.373  33.624  36.560  1.00  0.00     0.134 A 
ATOM     85  C   UNL A   1      38.119  31.655  37.090  1.00  0.00     0.134 A 
ATOM     86  F   UNL A   1      40.236  34.305  35.791  1.00  0.00    -0.206 F 
ATOM     87  C   UNL A   1      38.875  34.254  37.703  1.00  0.00     0.040 A 
ATOM     88  C   UNL A   1      37.590  32.285  38.217  1.00  0.00     0.040 A 
ATOM     89  F   UNL A   1      37.725  30.399  36.833  1.00  0.00    -0.206 F 
ATOM     90  C   UNL A   1      37.974  33.587  38.530  1.00  0.00     0.006 A 
ENDBRANCH  66  83
ENDBRANCH  40  41
ENDBRANCH  33  35
ENDBRANCH  32  33
ENDBRANCH  31  32
ENDBRANCH  30  31
ENDBRANCH  29  30
ENDBRANCH  28  29
ENDBRANCH  27  28
ENDBRANCH  26  27
ENDBRANCH   1  26
TORSDOF 23
ENDMDL
MODEL 3
REMARK VINA RESULT:      -9.5      4.569     10.168
REMARK SMILES Cc1n[nH]c(C)c1CC(=O)N1CC[C@H](C(=O)OCCOCCOCCOCCOC(=O)c2ccc(-c3c4nc(c(-c5c(F)cccc5F)c5ccc([nH]5)c(-c5c(F)cccc5F)c5nc(c(-c6c(F)cccc6F)c6ccc3[nH]6)C=C5)C=C4)cc2)[C@H]1C
REMARK SMILES IDX 22 1 21 2 20 3 19 4 18 5 17 6 15 7 16 8 14 9 11 10 12 11
REMARK SMILES IDX 86 12 13 13 87 14 9 15 10 16 8 17 7 18 1 19 2 20 3 21 4 22
REMARK SMILES IDX 5 23 6 25 23 26 24 27 25 28 26 29 27 30 28 31 29 32 30 33
REMARK SMILES IDX 31 34 32 35 33 36 85 37 34 38 84 39 35 40 36 41 37 42 78 43
REMARK SMILES IDX 38 44 83 45 77 46 79 47 39 48 82 49 76 50 75 51 40 53 66 54
REMARK SMILES IDX 49 55 65 56 50 57 53 58 64 59 80 60 51 61 52 62 63 64 81 65
REMARK SMILES IDX 54 66 41 67 42 68 47 69 43 70 44 71 46 72 48 73 45 74 67 75
REMARK SMILES IDX 68 76 73 77 69 78 70 79 72 80 74 81 71 82 55 83 56 84 61 85
REMARK SMILES IDX 57 86 58 87 60 88 62 89 59 90
REMARK H PARENT 4 24 79 52 53 63
REMARK Flexibility Score: inf
ROOT
ATOM      1  C   UNL A   1      32.368  30.537  26.841  1.00  0.00     0.188 C 
ENDROOT
BRANCH   1   2
ATOM      2  C   UNL A   1      31.596  30.040  25.598  1.00  0.00     0.188 C 
BRANCH   2   3
ATOM      3  O   UNL A   1      32.255  29.363  24.536  1.00  0.00    -0.376 OA
BRANCH   3   4
ATOM      4  C   UNL A   1      31.607  29.210  23.286  1.00  0.00     0.202 C 
BRANCH   4   5
ATOM      5  C   UNL A   1      30.344  28.328  23.192  1.00  0.00     0.261 C 
BRANCH   5   6
ATOM      6  O   UNL A   1      30.299  27.133  24.005  1.00  0.00    -0.463 OA
BRANCH   6   7
ATOM      7  C   UNL A   1      31.226  26.191  23.716  1.00  0.00     0.311 C 
ATOM      8  O   UNL A   1      31.318  25.645  22.620  1.00  0.00    -0.252 OA
BRANCH   7   9
ATOM      9  C   UNL A   1      32.179  25.816  24.848  1.00  0.00     0.123 C 
ATOM     10  N   UNL A   1      32.564  23.592  25.731  1.00  0.00    -0.339 N 
ATOM     11  C   UNL A   1      31.442  24.147  26.466  1.00  0.00     0.121 C 
ATOM     12  C   UNL A   1      33.145  24.601  24.817  1.00  0.00     0.096 C 
ATOM     13  C   UNL A   1      31.414  25.634  26.167  1.00  0.00     0.039 C 
ATOM     14  C   UNL A   1      34.493  25.086  25.349  1.00  0.00     0.032 C 
BRANCH  10  15
ATOM     15  C   UNL A   1      32.768  22.221  25.808  1.00  0.00     0.227 C 
ATOM     16  O   UNL A   1      32.965  21.707  26.922  1.00  0.00    -0.275 OA
BRANCH  15  17
ATOM     17  C   UNL A   1      33.003  21.336  24.589  1.00  0.00     0.139 C 
BRANCH  17  18
ATOM     18  C   UNL A   1      34.015  20.246  24.631  1.00  0.00     0.005 A 
ATOM     19  C   UNL A   1      32.518  18.106  24.495  1.00  0.00     0.069 C 
ATOM     20  C   UNL A   1      33.804  18.841  24.556  1.00  0.00     0.063 A 
ATOM     21  N   UNL A   1      34.954  18.162  24.643  1.00  0.00    -0.181 NA
ATOM     22  N   UNL A   1      35.875  19.102  24.875  1.00  0.00    -0.282 N 
ATOM     23  C   UNL A   1      35.355  20.361  24.979  1.00  0.00     0.036 A 
ATOM     24  H   UNL A   1      36.836  18.907  24.963  1.00  0.00     0.190 HD
ATOM     25  C   UNL A   1      36.178  21.510  25.433  1.00  0.00     0.066 C 
ENDBRANCH  17  18
ENDBRANCH  15  17
ENDBRANCH  10  15
ENDBRANCH   7   9
ENDBRANCH   6   7
ENDBRANCH   5   6
ENDBRANCH   4   5
ENDBRANCH   3   4
ENDBRANCH   2   3
ENDBRANCH   1   2
BRANCH   1  26
ATOM     26  O   UNL A   1      33.777  30.521  26.706  1.00  0.00    -0.377 OA
BRANCH  26  27
ATOM     27  C   UNL A   1      34.505  30.930  27.849  1.00  0.00     0.188 C 
BRANCH  27  28
ATOM     28  C   UNL A   1      34.638  32.447  28.072  1.00  0.00     0.188 C 
BRANCH  28  29
ATOM     29  O   UNL A   1      34.057  32.880  29.286  1.00  0.00    -0.376 OA
BRANCH  29  30
ATOM     30  C   UNL A   1      34.389  34.105  29.906  1.00  0.00     0.202 C 
BRANCH  30  31
ATOM     31  C   UNL A   1      34.998  34.208  31.316  1.00  0.00     0.261 C 
BRANCH  31  32
ATOM     32  O   UNL A   1      36.303  33.668  31.527  1.00  0.00    -0.460 OA
BRANCH  32  33
ATOM     33  C   UNL A   1      36.384  32.448  32.094  1.00  0.00     0.338 C 
ATOM     34  O   UNL A   1      35.610  31.956  32.899  1.00  0.00    -0.246 OA
BRANCH  33  35
ATOM     35  C   UNL A   1      37.475  31.711  31.422  1.00  0.00     0.060 A 
ATOM     36  C   UNL A   1      38.479  31.139  32.215  1.00  0.00     0.016 A 
ATOM     37  C   UNL A   1      37.498  31.559  30.033  1.00  0.00     0.016 A 
ATOM     38  C   UNL A   1      39.526  30.438  31.620  1.00  0.00     0.010 A 
ATOM     39  C   UNL A   1      38.566  30.882  29.435  1.00  0.00     0.010 A 
ATOM     40  C   UNL A   1      39.601  30.351  30.225  1.00  0.00    -0.014 A 
BRANCH  40  41
ATOM     41  C   UNL A   1      40.875  29.922  29.601  1.00  0.00     0.031 A 
ATOM     42  C   UNL A   1      40.972  28.504  29.106  1.00  0.00     0.074 A 
ATOM     43  C   UNL A   1      41.898  30.775  29.426  1.00  0.00     0.049 A 
ATOM     44  N   UNL A   1      41.984  27.876  28.567  1.00  0.00    -0.248 NA
ATOM     45  C   UNL A   1      39.755  27.684  29.236  1.00  0.00     0.031 C 
ATOM     46  C   UNL A   1      41.904  32.183  29.813  1.00  0.00     0.029 A 
ATOM     47  N   UNL A   1      43.141  30.569  28.877  1.00  0.00    -0.354 N 
ATOM     48  C   UNL A   1      41.527  26.594  28.293  1.00  0.00     0.074 A 
ATOM     49  C   UNL A   1      40.162  26.517  28.762  1.00  0.00     0.031 C 
ATOM     50  C   UNL A   1      43.104  32.712  29.512  1.00  0.00     0.029 A 
ATOM     51  C   UNL A   1      43.958  31.671  28.942  1.00  0.00     0.049 A 
ATOM     52  H   UNL A   1      43.418  29.714  28.476  1.00  0.00     0.167 HD
ATOM     53  C   UNL A   1      42.182  25.573  27.692  1.00  0.00     0.037 A 
ATOM     54  C   UNL A   1      45.258  31.807  28.609  1.00  0.00     0.037 A 
ATOM     55  C   UNL A   1      43.545  25.648  27.239  1.00  0.00     0.049 A 
ATOM     56  C   UNL A   1      45.997  30.626  28.030  1.00  0.00     0.074 A 
ATOM     57  C   UNL A   1      44.308  24.667  26.633  1.00  0.00     0.029 A 
ATOM     58  N   UNL A   1      44.350  26.772  27.350  1.00  0.00    -0.354 N 
ATOM     59  N   UNL A   1      45.556  29.418  27.768  1.00  0.00    -0.248 NA
ATOM     60  C   UNL A   1      47.414  30.829  27.695  1.00  0.00     0.031 C 
ATOM     61  C   UNL A   1      45.591  25.180  26.424  1.00  0.00     0.029 A 
ATOM     62  C   UNL A   1      45.608  26.501  26.841  1.00  0.00     0.049 A 
ATOM     63  H   UNL A   1      44.069  27.635  27.735  1.00  0.00     0.167 HD
ATOM     64  C   UNL A   1      46.629  28.731  27.210  1.00  0.00     0.074 A 
ATOM     65  C   UNL A   1      47.737  29.662  27.157  1.00  0.00     0.031 C 
ATOM     66  C   UNL A   1      46.695  27.446  26.782  1.00  0.00     0.037 A 
BRANCH  53  67
ATOM     67  C   UNL A   1      41.435  24.284  27.511  1.00  0.00     0.057 A 
ATOM     68  C   UNL A   1      40.441  24.137  26.535  1.00  0.00     0.134 A 
ATOM     69  C   UNL A   1      41.732  23.169  28.304  1.00  0.00     0.134 A 
ATOM     70  F   UNL A   1      40.094  25.172  25.754  1.00  0.00    -0.206 F 
ATOM     71  C   UNL A   1      39.755  22.932  26.368  1.00  0.00     0.040 A 
ATOM     72  C   UNL A   1      41.074  21.951  28.126  1.00  0.00     0.040 A 
ATOM     73  F   UNL A   1      42.673  23.242  29.258  1.00  0.00    -0.206 F 
ATOM     74  C   UNL A   1      40.079  21.832  27.159  1.00  0.00     0.006 A 
ENDBRANCH  53  67
BRANCH  54  75
ATOM     75  C   UNL A   1      45.963  33.093  28.850  1.00  0.00     0.057 A 
ATOM     76  C   UNL A   1      46.589  33.370  30.071  1.00  0.00     0.134 A 
ATOM     77  C   UNL A   1      45.982  34.101  27.877  1.00  0.00     0.134 A 
ATOM     78  F   UNL A   1      46.585  32.458  31.054  1.00  0.00    -0.206 F 
ATOM     79  C   UNL A   1      47.182  34.608  30.327  1.00  0.00     0.040 A 
ATOM     80  C   UNL A   1      46.597  35.332  28.108  1.00  0.00     0.040 A 
ATOM     81  F   UNL A   1      45.396  33.905  26.686  1.00  0.00    -0.206 F 
ATOM     82  C   UNL A   1      47.190  35.593  29.341  1.00  0.00     0.006 A 
ENDBRANCH  54  75
BRANCH  66  83
ATOM     83  C   UNL A   1      47.987  26.984  26.170  1.00  0.00     0.057 A 
ATOM     84  C   UNL A   1      48.249  27.107  24.800  1.00  0.00     0.134 A 
ATOM     85  C   UNL A   1      49.002  26.449  26.976  1.00  0.00     0.134 A 
ATOM     86  F   UNL A   1      47.317  27.602  23.971  1.00  0.00    -0.206 F 
ATOM     87  C   UNL A   1      49.462  26.690  24.249  1.00  0.00     0.040 A 
ATOM     88  C   UNL A   1      50.231  26.059  26.441  1.00  0.00     0.040 A 
ATOM     89  F   UNL A   1      48.824  26.315  28.298  1.00  0.00    -0.206 F 
ATOM     90  C   UNL A   1      50.460  26.173  25.072  1.00  0.00     0.006 A 
ENDBRANCH  66  83
ENDBRANCH  40  41
ENDBRANCH  33  35
ENDBRANCH  32  33
ENDBRANCH  31  32
ENDBRANCH  30  31
ENDBRANCH  29  30
ENDBRANCH  28  29
ENDBRANCH  27  28
ENDBRANCH  26  27
ENDBRANCH   1  26
TORSDOF 23
ENDMDL
