MODEL 1
REMARK VINA RESULT:     -10.6      0.000      0.000
REMARK SMILES O=C(OCCOCCOCCOCCOC(=O)c1ccc(-c2c3nc(c(-c4c(F)cccc4F)c4ccc([nH]4)c(-c4c(F)cccc4F)c4nc(c(-c5c(F)cccc5F)c5ccc2[nH]5)C=C4)C=C3)cc1)C1=Cc2cc(Cl)cc(-c3ccc(CO)cc3)c2O[C@@H]1C(F)(F)F
REMARK SMILES IDX 8 1 7 2 6 3 5 4 4 5 3 6 2 7 1 8 72 9 73 10 90 11 74 12 89 13
REMARK SMILES IDX 75 14 88 15 76 16 79 17 77 18 78 19 91 20 92 21 93 22 94 23
REMARK SMILES IDX 80 24 81 25 87 26 82 27 86 28 83 29 84 30 85 31 9 33 10 34
REMARK SMILES IDX 11 35 12 36 13 37 14 38 15 39 16 40 17 41 18 42 19 43 71 44
REMARK SMILES IDX 20 45 70 46 21 47 22 48 23 49 64 50 24 51 69 52 63 53 65 54
REMARK SMILES IDX 25 55 68 56 62 57 61 58 26 60 52 61 35 62 51 63 36 64 39 65
REMARK SMILES IDX 50 66 66 67 37 68 38 69 49 71 67 72 40 73 27 74 28 75 33 76
REMARK SMILES IDX 29 77 30 78 32 79 34 80 31 81 53 82 54 83 59 84 55 85 56 86
REMARK SMILES IDX 58 87 60 88 57 89 41 90 42 91 47 92 43 93 44 94 46 95 48 96
REMARK SMILES IDX 45 97
REMARK H PARENT 85 32 65 59 39 70
REMARK Flexibility Score: inf
ROOT
ATOM      1  C   UNL A   1      36.223  21.285  25.269  1.00  0.00     0.188 C 
ENDROOT
BRANCH   1   2
ATOM      2  C   UNL A   1      34.911  22.046  25.410  1.00  0.00     0.188 C 
BRANCH   2   3
ATOM      3  O   UNL A   1      33.810  21.360  24.853  1.00  0.00    -0.376 OA
BRANCH   3   4
ATOM      4  C   UNL A   1      33.299  21.794  23.606  1.00  0.00     0.202 C 
BRANCH   4   5
ATOM      5  C   UNL A   1      33.881  23.080  23.008  1.00  0.00     0.261 C 
BRANCH   5   6
ATOM      6  O   UNL A   1      32.872  24.015  22.589  1.00  0.00    -0.460 OA
BRANCH   6   7
ATOM      7  C   UNL A   1      32.978  25.263  23.116  1.00  0.00     0.338 C 
ATOM      8  O   UNL A   1      33.333  26.234  22.465  1.00  0.00    -0.246 OA
BRANCH   7   9
ATOM      9  C   UNL A   1      32.699  25.298  24.588  1.00  0.00     0.087 C 
ATOM     10  C   UNL A   1      33.577  26.006  25.325  1.00  0.00     0.027 C 
ATOM     11  C   UNL A   1      31.245  25.428  24.944  1.00  0.00     0.316 C 
ATOM     12  C   UNL A   1      33.090  27.338  25.744  1.00  0.00     0.019 A 
ATOM     13  O   UNL A   1      30.844  26.829  25.064  1.00  0.00    -0.475 OA
ATOM     14  C   UNL A   1      33.928  28.232  26.410  1.00  0.00     0.032 A 
ATOM     15  C   UNL A   1      31.830  27.768  25.300  1.00  0.00     0.135 A 
ATOM     16  C   UNL A   1      33.541  29.564  26.533  1.00  0.00     0.042 A 
ATOM     17  C   UNL A   1      31.584  29.157  25.149  1.00  0.00     0.026 A 
ATOM     18  Cl  UNL A   1      34.512  30.659  27.434  1.00  0.00    -0.084 Cl
ATOM     19  C   UNL A   1      32.423  30.038  25.850  1.00  0.00     0.033 A 
BRANCH  11  20
ATOM     20  C   UNL A   1      30.839  24.439  26.046  1.00  0.00     0.430 C 
ATOM     21  F   UNL A   1      29.656  24.768  26.612  1.00  0.00    -0.167 F 
ATOM     22  F   UNL A   1      30.663  23.197  25.506  1.00  0.00    -0.167 F 
ATOM     23  F   UNL A   1      31.757  24.313  27.025  1.00  0.00    -0.167 F 
ENDBRANCH  11  20
BRANCH  17  24
ATOM     24  C   UNL A   1      30.714  29.751  24.097  1.00  0.00    -0.015 A 
ATOM     25  C   UNL A   1      30.725  29.219  22.781  1.00  0.00     0.009 A 
ATOM     26  C   UNL A   1      29.858  30.821  24.327  1.00  0.00     0.009 A 
ATOM     27  C   UNL A   1      29.872  29.695  21.764  1.00  0.00     0.007 A 
ATOM     28  C   UNL A   1      28.987  31.272  23.314  1.00  0.00     0.007 A 
ATOM     29  C   UNL A   1      28.971  30.726  22.026  1.00  0.00    -0.023 A 
BRANCH  29  30
ATOM     30  C   UNL A   1      28.004  31.238  20.983  1.00  0.00     0.191 C 
BRANCH  30  31
ATOM     31  O   UNL A   1      27.875  32.646  21.023  1.00  0.00    -0.392 OA
ATOM     32  H   UNL A   1      27.988  33.007  20.129  1.00  0.00     0.211 HD
ENDBRANCH  30  31
ENDBRANCH  29  30
ENDBRANCH  17  24
ENDBRANCH   7   9
ENDBRANCH   6   7
ENDBRANCH   5   6
ENDBRANCH   4   5
ENDBRANCH   3   4
ENDBRANCH   2   3
ENDBRANCH   1   2
BRANCH   1  33
ATOM     33  O   UNL A   1      37.341  22.154  25.084  1.00  0.00    -0.377 OA
BRANCH  33  34
ATOM     34  C   UNL A   1      38.537  21.730  25.730  1.00  0.00     0.188 C 
BRANCH  34  35
ATOM     35  C   UNL A   1      39.228  22.809  26.574  1.00  0.00     0.188 C 
BRANCH  35  36
ATOM     36  O   UNL A   1      40.434  22.513  27.238  1.00  0.00    -0.376 OA
BRANCH  36  37
ATOM     37  C   UNL A   1      41.638  22.274  26.538  1.00  0.00     0.202 C 
BRANCH  37  38
ATOM     38  C   UNL A   1      42.352  23.356  25.714  1.00  0.00     0.261 C 
BRANCH  38  39
ATOM     39  O   UNL A   1      41.846  24.704  25.773  1.00  0.00    -0.460 OA
BRANCH  39  40
ATOM     40  C   UNL A   1      42.690  25.754  25.857  1.00  0.00     0.338 C 
ATOM     41  O   UNL A   1      43.514  26.094  25.027  1.00  0.00    -0.246 OA
BRANCH  40  42
ATOM     42  C   UNL A   1      42.310  26.539  27.079  1.00  0.00     0.060 A 
ATOM     43  C   UNL A   1      42.841  27.824  27.277  1.00  0.00     0.016 A 
ATOM     44  C   UNL A   1      41.359  26.061  27.987  1.00  0.00     0.016 A 
ATOM     45  C   UNL A   1      42.421  28.630  28.363  1.00  0.00     0.010 A 
ATOM     46  C   UNL A   1      40.942  26.865  29.062  1.00  0.00     0.010 A 
ATOM     47  C   UNL A   1      41.465  28.163  29.273  1.00  0.00    -0.014 A 
BRANCH  47  48
ATOM     48  C   UNL A   1      41.088  28.864  30.549  1.00  0.00     0.031 A 
ATOM     49  C   UNL A   1      40.017  29.918  30.458  1.00  0.00     0.074 A 
ATOM     50  C   UNL A   1      41.715  28.723  31.740  1.00  0.00     0.049 A 
ATOM     51  N   UNL A   1      39.689  30.847  31.317  1.00  0.00    -0.248 NA
ATOM     52  C   UNL A   1      39.210  29.913  29.227  1.00  0.00     0.031 C 
ATOM     53  C   UNL A   1      42.679  27.697  32.103  1.00  0.00     0.029 A 
ATOM     54  N   UNL A   1      41.698  29.547  32.853  1.00  0.00    -0.354 N 
ATOM     55  C   UNL A   1      38.613  31.511  30.750  1.00  0.00     0.074 A 
ATOM     56  C   UNL A   1      38.415  30.951  29.429  1.00  0.00     0.031 C 
ATOM     57  C   UNL A   1      43.296  28.046  33.250  1.00  0.00     0.029 A 
ATOM     58  C   UNL A   1      42.737  29.304  33.731  1.00  0.00     0.049 A 
ATOM     59  H   UNL A   1      41.013  30.238  33.004  1.00  0.00     0.167 HD
ATOM     60  C   UNL A   1      37.814  32.454  31.296  1.00  0.00     0.037 A 
ATOM     61  C   UNL A   1      43.208  30.025  34.773  1.00  0.00     0.037 A 
ATOM     62  C   UNL A   1      37.968  33.006  32.613  1.00  0.00     0.049 A 
ATOM     63  C   UNL A   1      42.448  31.234  35.262  1.00  0.00     0.074 A 
ATOM     64  C   UNL A   1      37.124  33.876  33.282  1.00  0.00     0.029 A 
ATOM     65  N   UNL A   1      39.042  32.766  33.450  1.00  0.00    -0.354 N 
ATOM     66  N   UNL A   1      41.350  31.763  34.785  1.00  0.00    -0.248 NA
ATOM     67  C   UNL A   1      42.955  31.908  36.471  1.00  0.00     0.031 C 
ATOM     68  C   UNL A   1      37.722  34.219  34.497  1.00  0.00     0.029 A 
ATOM     69  C   UNL A   1      38.912  33.519  34.605  1.00  0.00     0.049 A 
ATOM     70  H   UNL A   1      39.787  32.154  33.253  1.00  0.00     0.167 HD
ATOM     71  C   UNL A   1      40.986  32.759  35.686  1.00  0.00     0.074 A 
ATOM     72  C   UNL A   1      41.998  32.792  36.716  1.00  0.00     0.031 C 
ATOM     73  C   UNL A   1      39.885  33.546  35.666  1.00  0.00     0.037 A 
BRANCH  60  74
ATOM     74  C   UNL A   1      36.660  32.925  30.471  1.00  0.00     0.057 A 
ATOM     75  C   UNL A   1      35.356  32.480  30.723  1.00  0.00     0.134 A 
ATOM     76  C   UNL A   1      36.848  33.861  29.449  1.00  0.00     0.134 A 
ATOM     77  F   UNL A   1      35.119  31.572  31.681  1.00  0.00    -0.206 F 
ATOM     78  C   UNL A   1      34.276  32.936  29.969  1.00  0.00     0.040 A 
ATOM     79  C   UNL A   1      35.772  34.345  28.707  1.00  0.00     0.040 A 
ATOM     80  F   UNL A   1      38.075  34.324  29.166  1.00  0.00    -0.206 F 
ATOM     81  C   UNL A   1      34.484  33.878  28.963  1.00  0.00     0.006 A 
ENDBRANCH  60  74
BRANCH  61  82
ATOM     82  C   UNL A   1      44.487  29.676  35.456  1.00  0.00     0.057 A 
ATOM     83  C   UNL A   1      45.716  30.181  35.015  1.00  0.00     0.134 A 
ATOM     84  C   UNL A   1      44.520  28.683  36.443  1.00  0.00     0.134 A 
ATOM     85  F   UNL A   1      45.756  31.087  34.028  1.00  0.00    -0.206 F 
ATOM     86  C   UNL A   1      46.930  29.685  35.503  1.00  0.00     0.040 A 
ATOM     87  C   UNL A   1      45.725  28.199  36.961  1.00  0.00     0.040 A 
ATOM     88  F   UNL A   1      43.386  28.111  36.867  1.00  0.00    -0.206 F 
ATOM     89  C   UNL A   1      46.936  28.690  36.478  1.00  0.00     0.006 A 
ENDBRANCH  61  82
BRANCH  73  90
ATOM     90  C   UNL A   1      39.637  34.461  36.830  1.00  0.00     0.057 A 
ATOM     91  C   UNL A   1      39.050  34.018  38.020  1.00  0.00     0.134 A 
ATOM     92  C   UNL A   1      40.066  35.796  36.780  1.00  0.00     0.134 A 
ATOM     93  F   UNL A   1      38.602  32.759  38.130  1.00  0.00    -0.206 F 
ATOM     94  C   UNL A   1      38.892  34.870  39.117  1.00  0.00     0.040 A 
ATOM     95  C   UNL A   1      39.940  36.648  37.879  1.00  0.00     0.040 A 
ATOM     96  F   UNL A   1      40.640  36.287  35.671  1.00  0.00    -0.206 F 
ATOM     97  C   UNL A   1      39.350  36.185  39.052  1.00  0.00     0.006 A 
ENDBRANCH  73  90
ENDBRANCH  47  48
ENDBRANCH  40  42
ENDBRANCH  39  40
ENDBRANCH  38  39
ENDBRANCH  37  38
ENDBRANCH  36  37
ENDBRANCH  35  36
ENDBRANCH  34  35
ENDBRANCH  33  34
ENDBRANCH   1  33
TORSDOF 24
ENDMDL
MODEL 2
REMARK VINA RESULT:     -10.5      1.043      5.893
REMARK SMILES O=C(OCCOCCOCCOCCOC(=O)c1ccc(-c2c3nc(c(-c4c(F)cccc4F)c4ccc([nH]4)c(-c4c(F)cccc4F)c4nc(c(-c5c(F)cccc5F)c5ccc2[nH]5)C=C4)C=C3)cc1)C1=Cc2cc(Cl)cc(-c3ccc(CO)cc3)c2O[C@@H]1C(F)(F)F
REMARK SMILES IDX 8 1 7 2 6 3 5 4 4 5 3 6 2 7 1 8 72 9 73 10 90 11 74 12 89 13
REMARK SMILES IDX 75 14 88 15 76 16 79 17 77 18 78 19 91 20 92 21 93 22 94 23
REMARK SMILES IDX 80 24 81 25 87 26 82 27 86 28 83 29 84 30 85 31 9 33 10 34
REMARK SMILES IDX 11 35 12 36 13 37 14 38 15 39 16 40 17 41 18 42 19 43 71 44
REMARK SMILES IDX 20 45 70 46 21 47 22 48 23 49 64 50 24 51 69 52 63 53 65 54
REMARK SMILES IDX 25 55 68 56 62 57 61 58 26 60 52 61 35 62 51 63 36 64 39 65
REMARK SMILES IDX 50 66 66 67 37 68 38 69 49 71 67 72 40 73 27 74 28 75 33 76
REMARK SMILES IDX 29 77 30 78 32 79 34 80 31 81 53 82 54 83 59 84 55 85 56 86
REMARK SMILES IDX 58 87 60 88 57 89 41 90 42 91 47 92 43 93 44 94 46 95 48 96
REMARK SMILES IDX 45 97
REMARK H PARENT 85 32 65 59 39 70
REMARK Flexibility Score: inf
ROOT
ATOM      1  C   UNL A   1      33.447  18.688  24.174  1.00  0.00     0.188 C 
ENDROOT
BRANCH   1   2
ATOM      2  C   UNL A   1      32.431  19.821  24.118  1.00  0.00     0.188 C 
BRANCH   2   3
ATOM      3  O   UNL A   1      32.069  20.176  22.801  1.00  0.00    -0.376 OA
BRANCH   3   4
ATOM      4  C   UNL A   1      32.242  21.519  22.385  1.00  0.00     0.202 C 
BRANCH   4   5
ATOM      5  C   UNL A   1      31.616  22.617  23.254  1.00  0.00     0.261 C 
BRANCH   5   6
ATOM      6  O   UNL A   1      31.800  23.937  22.714  1.00  0.00    -0.460 OA
BRANCH   6   7
ATOM      7  C   UNL A   1      32.761  24.686  23.317  1.00  0.00     0.338 C 
ATOM      8  O   UNL A   1      33.718  25.151  22.718  1.00  0.00    -0.246 OA
BRANCH   7   9
ATOM      9  C   UNL A   1      32.563  24.802  24.798  1.00  0.00     0.087 C 
ATOM     10  C   UNL A   1      33.486  25.539  25.447  1.00  0.00     0.027 C 
ATOM     11  C   UNL A   1      31.132  24.968  25.225  1.00  0.00     0.316 C 
ATOM     12  C   UNL A   1      33.033  26.896  25.820  1.00  0.00     0.019 A 
ATOM     13  O   UNL A   1      30.749  26.377  25.291  1.00  0.00    -0.475 OA
ATOM     14  C   UNL A   1      33.914  27.814  26.390  1.00  0.00     0.032 A 
ATOM     15  C   UNL A   1      31.755  27.316  25.422  1.00  0.00     0.135 A 
ATOM     16  C   UNL A   1      33.546  29.156  26.463  1.00  0.00     0.042 A 
ATOM     17  C   UNL A   1      31.512  28.698  25.211  1.00  0.00     0.026 A 
ATOM     18  Cl  UNL A   1      34.574  30.286  27.250  1.00  0.00    -0.084 Cl
ATOM     19  C   UNL A   1      32.396  29.606  25.817  1.00  0.00     0.033 A 
BRANCH  11  20
ATOM     20  C   UNL A   1      30.778  24.043  26.398  1.00  0.00     0.430 C 
ATOM     21  F   UNL A   1      31.745  24.028  27.342  1.00  0.00    -0.167 F 
ATOM     22  F   UNL A   1      29.654  24.502  27.022  1.00  0.00    -0.167 F 
ATOM     23  F   UNL A   1      30.527  22.771  26.027  1.00  0.00    -0.167 F 
ENDBRANCH  11  20
BRANCH  17  24
ATOM     24  C   UNL A   1      30.592  29.245  24.177  1.00  0.00    -0.015 A 
ATOM     25  C   UNL A   1      29.913  30.471  24.404  1.00  0.00     0.009 A 
ATOM     26  C   UNL A   1      30.351  28.619  22.960  1.00  0.00     0.009 A 
ATOM     27  C   UNL A   1      29.085  31.071  23.434  1.00  0.00     0.007 A 
ATOM     28  C   UNL A   1      29.546  29.239  21.983  1.00  0.00     0.007 A 
ATOM     29  C   UNL A   1      28.904  30.465  22.192  1.00  0.00    -0.023 A 
BRANCH  29  30
ATOM     30  C   UNL A   1      28.065  31.091  21.101  1.00  0.00     0.191 C 
BRANCH  30  31
ATOM     31  O   UNL A   1      28.786  32.058  20.363  1.00  0.00    -0.392 OA
ATOM     32  H   UNL A   1      29.431  31.613  19.791  1.00  0.00     0.211 HD
ENDBRANCH  30  31
ENDBRANCH  29  30
ENDBRANCH  17  24
ENDBRANCH   7   9
ENDBRANCH   6   7
ENDBRANCH   5   6
ENDBRANCH   4   5
ENDBRANCH   3   4
ENDBRANCH   2   3
ENDBRANCH   1   2
BRANCH   1  33
ATOM     33  O   UNL A   1      34.736  19.131  24.599  1.00  0.00    -0.377 OA
BRANCH  33  34
ATOM     34  C   UNL A   1      34.787  20.487  25.028  1.00  0.00     0.188 C 
BRANCH  34  35
ATOM     35  C   UNL A   1      36.201  21.077  25.127  1.00  0.00     0.188 C 
BRANCH  35  36
ATOM     36  O   UNL A   1      36.382  22.384  25.619  1.00  0.00    -0.376 OA
BRANCH  36  37
ATOM     37  C   UNL A   1      37.661  22.974  25.730  1.00  0.00     0.202 C 
BRANCH  37  38
ATOM     38  C   UNL A   1      38.903  22.191  26.179  1.00  0.00     0.261 C 
BRANCH  38  39
ATOM     39  O   UNL A   1      39.722  22.751  27.224  1.00  0.00    -0.460 OA
BRANCH  39  40
ATOM     40  C   UNL A   1      40.868  23.401  26.928  1.00  0.00     0.338 C 
ATOM     41  O   UNL A   1      41.676  23.098  26.069  1.00  0.00    -0.246 OA
BRANCH  40  42
ATOM     42  C   UNL A   1      40.882  24.672  27.727  1.00  0.00     0.060 A 
ATOM     43  C   UNL A   1      42.028  25.483  27.728  1.00  0.00     0.016 A 
ATOM     44  C   UNL A   1      39.741  25.125  28.399  1.00  0.00     0.016 A 
ATOM     45  C   UNL A   1      42.036  26.739  28.385  1.00  0.00     0.010 A 
ATOM     46  C   UNL A   1      39.751  26.372  29.046  1.00  0.00     0.010 A 
ATOM     47  C   UNL A   1      40.897  27.203  29.055  1.00  0.00    -0.014 A 
BRANCH  47  48
ATOM     48  C   UNL A   1      40.861  28.428  29.926  1.00  0.00     0.031 A 
ATOM     49  C   UNL A   1      41.616  28.361  31.227  1.00  0.00     0.074 A 
ATOM     50  C   UNL A   1      40.107  29.529  29.706  1.00  0.00     0.049 A 
ATOM     51  N   UNL A   1      41.542  29.142  32.273  1.00  0.00    -0.248 NA
ATOM     52  C   UNL A   1      42.587  27.263  31.355  1.00  0.00     0.031 C 
ATOM     53  C   UNL A   1      39.401  29.874  28.483  1.00  0.00     0.029 A 
ATOM     54  N   UNL A   1      39.723  30.530  30.584  1.00  0.00    -0.354 N 
ATOM     55  C   UNL A   1      42.482  28.655  33.165  1.00  0.00     0.074 A 
ATOM     56  C   UNL A   1      43.035  27.448  32.586  1.00  0.00     0.031 C 
ATOM     57  C   UNL A   1      38.535  30.876  28.731  1.00  0.00     0.029 A 
ATOM     58  C   UNL A   1      38.656  31.279  30.127  1.00  0.00     0.049 A 
ATOM     59  H   UNL A   1      40.167  30.691  31.447  1.00  0.00     0.167 HD
ATOM     60  C   UNL A   1      42.903  29.192  34.332  1.00  0.00     0.037 A 
ATOM     61  C   UNL A   1      37.846  32.155  30.764  1.00  0.00     0.037 A 
ATOM     62  C   UNL A   1      42.395  30.401  34.916  1.00  0.00     0.049 A 
ATOM     63  C   UNL A   1      38.170  32.598  32.170  1.00  0.00     0.074 A 
ATOM     64  C   UNL A   1      42.858  31.073  36.035  1.00  0.00     0.029 A 
ATOM     65  N   UNL A   1      41.300  31.105  34.451  1.00  0.00    -0.354 N 
ATOM     66  N   UNL A   1      39.152  32.218  32.947  1.00  0.00    -0.248 NA
ATOM     67  C   UNL A   1      37.312  33.639  32.765  1.00  0.00     0.031 C 
ATOM     68  C   UNL A   1      42.000  32.145  36.287  1.00  0.00     0.029 A 
ATOM     69  C   UNL A   1      41.036  32.171  35.294  1.00  0.00     0.049 A 
ATOM     70  H   UNL A   1      40.786  30.881  33.642  1.00  0.00     0.167 HD
ATOM     71  C   UNL A   1      39.087  33.038  34.070  1.00  0.00     0.074 A 
ATOM     72  C   UNL A   1      37.947  33.908  33.896  1.00  0.00     0.031 C 
ATOM     73  C   UNL A   1      39.930  33.077  35.128  1.00  0.00     0.037 A 
BRANCH  60  74
ATOM     74  C   UNL A   1      44.012  28.483  35.043  1.00  0.00     0.057 A 
ATOM     75  C   UNL A   1      45.353  28.709  34.707  1.00  0.00     0.134 A 
ATOM     76  C   UNL A   1      43.738  27.606  36.096  1.00  0.00     0.134 A 
ATOM     77  F   UNL A   1      45.673  29.529  33.695  1.00  0.00    -0.206 F 
ATOM     78  C   UNL A   1      46.387  28.067  35.384  1.00  0.00     0.040 A 
ATOM     79  C   UNL A   1      44.765  26.978  36.799  1.00  0.00     0.040 A 
ATOM     80  F   UNL A   1      42.472  27.354  36.463  1.00  0.00    -0.206 F 
ATOM     81  C   UNL A   1      46.093  27.204  36.439  1.00  0.00     0.006 A 
ENDBRANCH  60  74
BRANCH  61  82
ATOM     82  C   UNL A   1      36.611  32.691  30.125  1.00  0.00     0.057 A 
ATOM     83  C   UNL A   1      36.647  33.800  29.271  1.00  0.00     0.134 A 
ATOM     84  C   UNL A   1      35.348  32.220  30.507  1.00  0.00     0.134 A 
ATOM     85  F   UNL A   1      37.823  34.338  28.919  1.00  0.00    -0.206 F 
ATOM     86  C   UNL A   1      35.477  34.442  28.851  1.00  0.00     0.040 A 
ATOM     87  C   UNL A   1      34.170  32.834  30.072  1.00  0.00     0.040 A 
ATOM     88  F   UNL A   1      35.238  31.203  31.371  1.00  0.00    -0.206 F 
ATOM     89  C   UNL A   1      34.234  33.960  29.254  1.00  0.00     0.006 A 
ENDBRANCH  61  82
BRANCH  73  90
ATOM     90  C   UNL A   1      39.733  34.149  36.161  1.00  0.00     0.057 A 
ATOM     91  C   UNL A   1      39.029  33.924  37.350  1.00  0.00     0.134 A 
ATOM     92  C   UNL A   1      40.325  35.409  35.991  1.00  0.00     0.134 A 
ATOM     93  F   UNL A   1      38.424  32.748  37.570  1.00  0.00    -0.206 F 
ATOM     94  C   UNL A   1      38.917  34.914  38.329  1.00  0.00     0.040 A 
ATOM     95  C   UNL A   1      40.244  36.396  36.975  1.00  0.00     0.040 A 
ATOM     96  F   UNL A   1      41.017  35.693  34.877  1.00  0.00    -0.206 F 
ATOM     97  C   UNL A   1      39.536  36.150  38.148  1.00  0.00     0.006 A 
ENDBRANCH  73  90
ENDBRANCH  47  48
ENDBRANCH  40  42
ENDBRANCH  39  40
ENDBRANCH  38  39
ENDBRANCH  37  38
ENDBRANCH  36  37
ENDBRANCH  35  36
ENDBRANCH  34  35
ENDBRANCH  33  34
ENDBRANCH   1  33
TORSDOF 24
ENDMDL
MODEL 3
REMARK VINA RESULT:     -10.4      4.509      6.789
REMARK SMILES O=C(OCCOCCOCCOCCOC(=O)c1ccc(-c2c3nc(c(-c4c(F)cccc4F)c4ccc([nH]4)c(-c4c(F)cccc4F)c4nc(c(-c5c(F)cccc5F)c5ccc2[nH]5)C=C4)C=C3)cc1)C1=Cc2cc(Cl)cc(-c3ccc(CO)cc3)c2O[C@@H]1C(F)(F)F
REMARK SMILES IDX 8 1 7 2 6 3 5 4 4 5 3 6 2 7 1 8 72 9 73 10 90 11 74 12 89 13
REMARK SMILES IDX 75 14 88 15 76 16 79 17 77 18 78 19 91 20 92 21 93 22 94 23
REMARK SMILES IDX 80 24 81 25 87 26 82 27 86 28 83 29 84 30 85 31 9 33 10 34
REMARK SMILES IDX 11 35 12 36 13 37 14 38 15 39 16 40 17 41 18 42 19 43 71 44
REMARK SMILES IDX 20 45 70 46 21 47 22 48 23 49 64 50 24 51 69 52 63 53 65 54
REMARK SMILES IDX 25 55 68 56 62 57 61 58 26 60 52 61 35 62 51 63 36 64 39 65
REMARK SMILES IDX 50 66 66 67 37 68 38 69 49 71 67 72 40 73 27 74 28 75 33 76
REMARK SMILES IDX 29 77 30 78 32 79 34 80 31 81 53 82 54 83 59 84 55 85 56 86
REMARK SMILES IDX 58 87 60 88 57 89 41 90 42 91 47 92 43 93 44 94 46 95 48 96
REMARK SMILES IDX 45 97
REMARK H PARENT 85 32 65 59 39 70
REMARK Flexibility Score: inf
ROOT
ATOM      1  C   UNL A   1      32.978  19.023  24.134  1.00  0.00     0.188 C 
ENDROOT
BRANCH   1   2
ATOM      2  C   UNL A   1      32.291  20.381  24.077  1.00  0.00     0.188 C 
BRANCH   2   3
ATOM      3  O   UNL A   1      32.193  20.900  22.768  1.00  0.00    -0.376 OA
BRANCH   3   4
ATOM      4  C   UNL A   1      32.519  22.260  22.548  1.00  0.00     0.202 C 
BRANCH   4   5
ATOM      5  C   UNL A   1      31.468  23.311  22.923  1.00  0.00     0.261 C 
BRANCH   5   6
ATOM      6  O   UNL A   1      31.870  24.653  22.596  1.00  0.00    -0.460 OA
BRANCH   6   7
ATOM      7  C   UNL A   1      32.897  25.151  23.333  1.00  0.00     0.338 C 
ATOM      8  O   UNL A   1      33.984  25.436  22.856  1.00  0.00    -0.246 OA
BRANCH   7   9
ATOM      9  C   UNL A   1      32.578  25.227  24.796  1.00  0.00     0.087 C 
ATOM     10  C   UNL A   1      33.440  25.952  25.537  1.00  0.00     0.027 C 
ATOM     11  C   UNL A   1      31.116  25.373  25.109  1.00  0.00     0.316 C 
ATOM     12  C   UNL A   1      32.948  27.297  25.906  1.00  0.00     0.019 A 
ATOM     13  O   UNL A   1      30.719  26.779  25.180  1.00  0.00    -0.475 OA
ATOM     14  C   UNL A   1      33.772  28.205  26.569  1.00  0.00     0.032 A 
ATOM     15  C   UNL A   1      31.703  27.720  25.417  1.00  0.00     0.135 A 
ATOM     16  C   UNL A   1      33.389  29.541  26.646  1.00  0.00     0.042 A 
ATOM     17  C   UNL A   1      31.468  29.105  25.221  1.00  0.00     0.026 A 
ATOM     18  Cl  UNL A   1      34.341  30.656  27.543  1.00  0.00    -0.084 Cl
ATOM     19  C   UNL A   1      32.292  30.002  25.921  1.00  0.00     0.033 A 
BRANCH  11  20
ATOM     20  C   UNL A   1      30.675  24.416  26.226  1.00  0.00     0.430 C 
ATOM     21  F   UNL A   1      31.539  24.418  27.266  1.00  0.00    -0.167 F 
ATOM     22  F   UNL A   1      29.477  24.826  26.735  1.00  0.00    -0.167 F 
ATOM     23  F   UNL A   1      30.510  23.144  25.813  1.00  0.00    -0.167 F 
ENDBRANCH  11  20
BRANCH  17  24
ATOM     24  C   UNL A   1      30.630  29.673  24.130  1.00  0.00    -0.015 A 
ATOM     25  C   UNL A   1      30.607  29.053  22.854  1.00  0.00     0.009 A 
ATOM     26  C   UNL A   1      29.835  30.803  24.286  1.00  0.00     0.009 A 
ATOM     27  C   UNL A   1      29.779  29.506  21.805  1.00  0.00     0.007 A 
ATOM     28  C   UNL A   1      28.988  31.232  23.244  1.00  0.00     0.007 A 
ATOM     29  C   UNL A   1      28.938  30.601  21.995  1.00  0.00    -0.023 A 
BRANCH  29  30
ATOM     30  C   UNL A   1      27.998  31.094  20.919  1.00  0.00     0.191 C 
BRANCH  30  31
ATOM     31  O   UNL A   1      28.194  32.465  20.629  1.00  0.00    -0.392 OA
ATOM     32  H   UNL A   1      28.902  32.817  21.191  1.00  0.00     0.211 HD
ENDBRANCH  30  31
ENDBRANCH  29  30
ENDBRANCH  17  24
ENDBRANCH   7   9
ENDBRANCH   6   7
ENDBRANCH   5   6
ENDBRANCH   4   5
ENDBRANCH   3   4
ENDBRANCH   2   3
ENDBRANCH   1   2
BRANCH   1  33
ATOM     33  O   UNL A   1      34.329  19.112  24.589  1.00  0.00    -0.377 OA
BRANCH  33  34
ATOM     34  C   UNL A   1      34.671  20.355  25.193  1.00  0.00     0.188 C 
BRANCH  34  35
ATOM     35  C   UNL A   1      36.130  20.786  24.993  1.00  0.00     0.188 C 
BRANCH  35  36
ATOM     36  O   UNL A   1      36.677  21.804  25.799  1.00  0.00    -0.376 OA
BRANCH  36  37
ATOM     37  C   UNL A   1      38.070  21.945  25.987  1.00  0.00     0.202 C 
BRANCH  37  38
ATOM     38  C   UNL A   1      39.100  21.024  25.317  1.00  0.00     0.261 C 
BRANCH  38  39
ATOM     39  O   UNL A   1      39.663  19.951  26.096  1.00  0.00    -0.460 OA
BRANCH  39  40
ATOM     40  C   UNL A   1      40.996  19.745  26.123  1.00  0.00     0.338 C 
ATOM     41  O   UNL A   1      41.590  18.761  25.718  1.00  0.00    -0.246 OA
BRANCH  40  42
ATOM     42  C   UNL A   1      41.640  21.023  26.578  1.00  0.00     0.060 A 
ATOM     43  C   UNL A   1      41.803  21.273  27.950  1.00  0.00     0.016 A 
ATOM     44  C   UNL A   1      42.173  21.937  25.663  1.00  0.00     0.016 A 
ATOM     45  C   UNL A   1      42.500  22.418  28.408  1.00  0.00     0.010 A 
ATOM     46  C   UNL A   1      42.867  23.071  26.120  1.00  0.00     0.010 A 
ATOM     47  C   UNL A   1      43.042  23.336  27.500  1.00  0.00    -0.014 A 
BRANCH  47  48
ATOM     48  C   UNL A   1      43.637  24.663  27.881  1.00  0.00     0.031 A 
ATOM     49  C   UNL A   1      42.675  25.787  28.157  1.00  0.00     0.074 A 
ATOM     50  C   UNL A   1      44.955  24.967  27.872  1.00  0.00     0.049 A 
ATOM     51  N   UNL A   1      42.899  27.073  28.240  1.00  0.00    -0.248 NA
ATOM     52  C   UNL A   1      41.271  25.399  28.370  1.00  0.00     0.031 C 
ATOM     53  C   UNL A   1      46.066  24.036  27.759  1.00  0.00     0.029 A 
ATOM     54  N   UNL A   1      45.579  26.205  27.851  1.00  0.00    -0.354 N 
ATOM     55  C   UNL A   1      41.675  27.641  28.554  1.00  0.00     0.074 A 
ATOM     56  C   UNL A   1      40.694  26.577  28.537  1.00  0.00     0.031 C 
ATOM     57  C   UNL A   1      47.198  24.717  27.492  1.00  0.00     0.029 A 
ATOM     58  C   UNL A   1      46.903  26.145  27.459  1.00  0.00     0.049 A 
ATOM     59  H   UNL A   1      45.123  27.044  28.091  1.00  0.00     0.167 HD
ATOM     60  C   UNL A   1      41.395  28.920  28.893  1.00  0.00     0.037 A 
ATOM     61  C   UNL A   1      47.764  27.116  27.082  1.00  0.00     0.037 A 
ATOM     62  C   UNL A   1      42.352  29.989  28.946  1.00  0.00     0.049 A 
ATOM     63  C   UNL A   1      47.380  28.568  27.234  1.00  0.00     0.074 A 
ATOM     64  C   UNL A   1      42.166  31.284  29.400  1.00  0.00     0.029 A 
ATOM     65  N   UNL A   1      43.661  29.901  28.512  1.00  0.00    -0.354 N 
ATOM     66  N   UNL A   1      46.255  29.081  27.666  1.00  0.00    -0.248 NA
ATOM     67  C   UNL A   1      48.406  29.576  26.910  1.00  0.00     0.031 C 
ATOM     68  C   UNL A   1      43.344  32.000  29.175  1.00  0.00     0.029 A 
ATOM     69  C   UNL A   1      44.278  31.135  28.631  1.00  0.00     0.049 A 
ATOM     70  H   UNL A   1      44.090  29.084  28.168  1.00  0.00     0.167 HD
ATOM     71  C   UNL A   1      46.474  30.452  27.757  1.00  0.00     0.074 A 
ATOM     72  C   UNL A   1      47.821  30.700  27.299  1.00  0.00     0.031 C 
ATOM     73  C   UNL A   1      45.630  31.405  28.218  1.00  0.00     0.037 A 
BRANCH  60  74
ATOM     74  C   UNL A   1      39.983  29.225  29.277  1.00  0.00     0.057 A 
ATOM     75  C   UNL A   1      39.593  29.293  30.621  1.00  0.00     0.134 A 
ATOM     76  C   UNL A   1      39.020  29.495  28.300  1.00  0.00     0.134 A 
ATOM     77  F   UNL A   1      40.472  29.028  31.599  1.00  0.00    -0.206 F 
ATOM     78  C   UNL A   1      38.282  29.599  30.980  1.00  0.00     0.040 A 
ATOM     79  C   UNL A   1      37.713  29.830  28.648  1.00  0.00     0.040 A 
ATOM     80  F   UNL A   1      39.338  29.448  26.997  1.00  0.00    -0.206 F 
ATOM     81  C   UNL A   1      37.341  29.877  29.990  1.00  0.00     0.006 A 
ENDBRANCH  60  74
BRANCH  61  82
ATOM     82  C   UNL A   1      49.094  26.800  26.488  1.00  0.00     0.057 A 
ATOM     83  C   UNL A   1      50.223  26.583  27.286  1.00  0.00     0.134 A 
ATOM     84  C   UNL A   1      49.298  26.896  25.105  1.00  0.00     0.134 A 
ATOM     85  F   UNL A   1      50.104  26.545  28.621  1.00  0.00    -0.206 F 
ATOM     86  C   UNL A   1      51.508  26.511  26.738  1.00  0.00     0.040 A 
ATOM     87  C   UNL A   1      50.573  26.796  24.540  1.00  0.00     0.040 A 
ATOM     88  F   UNL A   1      48.273  27.165  24.286  1.00  0.00    -0.206 F 
ATOM     89  C   UNL A   1      51.685  26.620  25.360  1.00  0.00     0.006 A 
ENDBRANCH  61  82
BRANCH  73  90
ATOM     90  C   UNL A   1      46.143  32.811  28.350  1.00  0.00     0.057 A 
ATOM     91  C   UNL A   1      45.832  33.812  27.422  1.00  0.00     0.134 A 
ATOM     92  C   UNL A   1      46.901  33.182  29.469  1.00  0.00     0.134 A 
ATOM     93  F   UNL A   1      45.125  33.523  26.320  1.00  0.00    -0.206 F 
ATOM     94  C   UNL A   1      46.261  35.130  27.601  1.00  0.00     0.040 A 
ATOM     95  C   UNL A   1      47.311  34.501  29.673  1.00  0.00     0.040 A 
ATOM     96  F   UNL A   1      47.233  32.274  30.400  1.00  0.00    -0.206 F 
ATOM     97  C   UNL A   1      46.992  35.479  28.735  1.00  0.00     0.006 A 
ENDBRANCH  73  90
ENDBRANCH  47  48
ENDBRANCH  40  42
ENDBRANCH  39  40
ENDBRANCH  38  39
ENDBRANCH  37  38
ENDBRANCH  36  37
ENDBRANCH  35  36
ENDBRANCH  34  35
ENDBRANCH  33  34
ENDBRANCH   1  33
TORSDOF 24
ENDMDL
