MODEL 1
REMARK VINA RESULT:     -10.6      0.000      0.000
REMARK SMILES Cc1ccccc1S(=O)(=O)Nc1ccc(N2CCOCC2)cc1C(=O)OCCOCCOCCOCCOC(=O)c1ccc(-c2c3nc(c(-c4c(F)cccc4F)c4ccc([nH]4)c(-c4c(F)cccc4F)c4nc(c(-c5c(F)cccc5F)c5ccc2[nH]5)C=C4)C=C3)cc1
REMARK SMILES IDX 31 1 30 2 29 3 28 4 27 5 26 6 24 7 25 8 23 9 12 10 13 11
REMARK SMILES IDX 14 12 22 13 15 14 11 15 8 17 9 18 10 19 7 20 1 21 2 22 3 23
REMARK SMILES IDX 4 24 6 25 5 26 16 27 17 28 21 29 18 30 20 31 19 32 32 33
REMARK SMILES IDX 33 34 34 35 35 36 36 37 37 38 38 39 39 40 40 41 41 42 42 43
REMARK SMILES IDX 94 44 43 45 93 46 44 47 45 48 46 49 87 50 47 51 92 52 86 53
REMARK SMILES IDX 88 54 48 55 91 56 85 57 84 58 49 60 75 61 58 62 74 63 59 64
REMARK SMILES IDX 62 65 73 66 89 67 60 68 61 69 72 71 90 72 63 73 50 74 51 75
REMARK SMILES IDX 56 76 52 77 53 78 55 79 57 80 54 81 76 82 77 83 82 84 78 85
REMARK SMILES IDX 79 86 81 87 83 88 80 89 64 90 65 91 70 92 66 93 67 94 69 95
REMARK SMILES IDX 71 96 68 97
REMARK H PARENT 11 16 88 59 62 70
REMARK Flexibility Score: inf
ROOT
ATOM      1  C   UNL A   1      30.281  26.793  23.413  1.00  0.00     0.188 C 
ENDROOT
BRANCH   1   2
ATOM      2  C   UNL A   1      31.490  25.984  23.888  1.00  0.00     0.188 C 
BRANCH   2   3
ATOM      3  O   UNL A   1      31.222  24.671  24.362  1.00  0.00    -0.376 OA
BRANCH   3   4
ATOM      4  C   UNL A   1      30.692  24.635  25.699  1.00  0.00     0.202 C 
BRANCH   4   5
ATOM      5  C   UNL A   1      31.589  24.127  26.828  1.00  0.00     0.261 C 
BRANCH   5   6
ATOM      6  O   UNL A   1      31.675  22.708  26.903  1.00  0.00    -0.460 OA
BRANCH   6   7
ATOM      7  C   UNL A   1      32.916  22.233  26.779  1.00  0.00     0.340 C 
ATOM      8  O   UNL A   1      33.828  22.328  27.587  1.00  0.00    -0.246 OA
BRANCH   7   9
ATOM      9  C   UNL A   1      32.903  21.206  25.736  1.00  0.00     0.086 A 
ATOM     10  C   UNL A   1      32.993  21.699  24.425  1.00  0.00     0.064 A 
ATOM     11  C   UNL A   1      32.601  20.865  23.404  1.00  0.00     0.030 A 
ATOM     12  C   UNL A   1      32.512  19.484  23.669  1.00  0.00     0.028 A 
ATOM     13  C   UNL A   1      32.922  19.825  25.996  1.00  0.00     0.043 A 
ATOM     14  C   UNL A   1      32.885  18.930  24.918  1.00  0.00     0.038 A 
BRANCH  10  15
ATOM     15  N   UNL A   1      33.620  22.966  24.234  1.00  0.00    -0.279 N 
ATOM     16  H   UNL A   1      33.004  23.731  24.306  1.00  0.00     0.180 HD
BRANCH  15  17
ATOM     17  S   UNL A   1      35.203  23.400  23.908  1.00  0.00     0.262 S 
ATOM     18  O   UNL A   1      35.140  24.829  24.183  1.00  0.00    -0.201 OA
ATOM     19  O   UNL A   1      35.518  22.954  22.568  1.00  0.00    -0.201 OA
BRANCH  17  20
ATOM     20  C   UNL A   1      36.585  22.832  24.948  1.00  0.00     0.090 A 
ATOM     21  C   UNL A   1      36.408  20.297  24.718  1.00  0.00     0.046 C 
ATOM     22  C   UNL A   1      37.110  21.537  25.085  1.00  0.00    -0.031 A 
ATOM     23  C   UNL A   1      38.337  21.305  25.752  1.00  0.00     0.005 A 
ATOM     24  C   UNL A   1      39.016  22.331  26.375  1.00  0.00     0.000 A 
ATOM     25  C   UNL A   1      37.288  23.859  25.613  1.00  0.00     0.022 A 
ATOM     26  C   UNL A   1      38.484  23.608  26.309  1.00  0.00     0.001 A 
ENDBRANCH  17  20
ENDBRANCH  15  17
ENDBRANCH  10  15
BRANCH  14  27
ATOM     27  N   UNL A   1      33.383  17.631  25.011  1.00  0.00    -0.367 N 
ATOM     28  C   UNL A   1      32.504  16.445  25.091  1.00  0.00     0.145 C 
ATOM     29  C   UNL A   1      34.784  17.340  24.623  1.00  0.00     0.145 C 
ATOM     30  C   UNL A   1      33.213  15.242  25.751  1.00  0.00     0.181 C 
ATOM     31  C   UNL A   1      35.344  16.107  25.346  1.00  0.00     0.181 C 
ATOM     32  O   UNL A   1      34.494  14.972  25.162  1.00  0.00    -0.378 OA
ENDBRANCH  14  27
ENDBRANCH   7   9
ENDBRANCH   6   7
ENDBRANCH   5   6
ENDBRANCH   4   5
ENDBRANCH   3   4
ENDBRANCH   2   3
ENDBRANCH   1   2
BRANCH   1  33
ATOM     33  O   UNL A   1      30.200  28.188  23.661  1.00  0.00    -0.377 OA
BRANCH  33  34
ATOM     34  C   UNL A   1      31.130  28.622  24.642  1.00  0.00     0.188 C 
BRANCH  34  35
ATOM     35  C   UNL A   1      32.458  29.188  24.136  1.00  0.00     0.188 C 
BRANCH  35  36
ATOM     36  O   UNL A   1      33.191  29.642  25.274  1.00  0.00    -0.376 OA
BRANCH  36  37
ATOM     37  C   UNL A   1      32.491  29.797  26.504  1.00  0.00     0.202 C 
BRANCH  37  38
ATOM     38  C   UNL A   1      33.037  30.855  27.473  1.00  0.00     0.261 C 
BRANCH  38  39
ATOM     39  O   UNL A   1      34.264  31.388  26.940  1.00  0.00    -0.460 OA
BRANCH  39  40
ATOM     40  C   UNL A   1      35.179  31.796  27.867  1.00  0.00     0.338 C 
ATOM     41  O   UNL A   1      35.404  32.940  28.172  1.00  0.00    -0.246 OA
BRANCH  40  42
ATOM     42  C   UNL A   1      36.052  30.638  28.245  1.00  0.00     0.060 A 
ATOM     43  C   UNL A   1      35.905  30.038  29.507  1.00  0.00     0.016 A 
ATOM     44  C   UNL A   1      37.194  30.374  27.494  1.00  0.00     0.016 A 
ATOM     45  C   UNL A   1      36.953  29.281  30.068  1.00  0.00     0.010 A 
ATOM     46  C   UNL A   1      38.254  29.713  28.090  1.00  0.00     0.010 A 
ATOM     47  C   UNL A   1      38.168  29.167  29.388  1.00  0.00    -0.014 A 
BRANCH  47  48
ATOM     48  C   UNL A   1      39.461  28.724  29.975  1.00  0.00     0.031 A 
ATOM     49  C   UNL A   1      40.160  27.504  29.392  1.00  0.00     0.074 A 
ATOM     50  C   UNL A   1      40.158  29.612  30.735  1.00  0.00     0.049 A 
ATOM     51  N   UNL A   1      41.341  27.059  29.696  1.00  0.00    -0.248 NA
ATOM     52  C   UNL A   1      39.517  26.634  28.403  1.00  0.00     0.031 C 
ATOM     53  C   UNL A   1      41.600  29.736  30.722  1.00  0.00     0.029 A 
ATOM     54  N   UNL A   1      39.791  30.699  31.526  1.00  0.00    -0.354 N 
ATOM     55  C   UNL A   1      41.726  26.096  28.765  1.00  0.00     0.074 A 
ATOM     56  C   UNL A   1      40.504  25.797  28.064  1.00  0.00     0.031 C 
ATOM     57  C   UNL A   1      42.023  30.812  31.389  1.00  0.00     0.029 A 
ATOM     58  C   UNL A   1      40.931  31.193  32.212  1.00  0.00     0.049 A 
ATOM     59  H   UNL A   1      38.881  31.068  31.598  1.00  0.00     0.167 HD
ATOM     60  C   UNL A   1      43.051  25.746  28.605  1.00  0.00     0.037 A 
ATOM     61  C   UNL A   1      41.037  31.065  33.566  1.00  0.00     0.037 A 
ATOM     62  C   UNL A   1      43.930  26.312  29.678  1.00  0.00     0.049 A 
ATOM     63  C   UNL A   1      41.924  29.877  34.000  1.00  0.00     0.074 A 
ATOM     64  C   UNL A   1      45.206  26.860  29.750  1.00  0.00     0.029 A 
ATOM     65  N   UNL A   1      43.405  26.516  30.955  1.00  0.00    -0.354 N 
ATOM     66  N   UNL A   1      42.750  29.212  33.211  1.00  0.00    -0.248 NA
ATOM     67  C   UNL A   1      41.922  29.306  35.344  1.00  0.00     0.031 C 
ATOM     68  C   UNL A   1      45.412  27.394  31.064  1.00  0.00     0.029 A 
ATOM     69  C   UNL A   1      44.283  27.134  31.818  1.00  0.00     0.049 A 
ATOM     70  H   UNL A   1      42.495  26.245  31.214  1.00  0.00     0.167 HD
ATOM     71  C   UNL A   1      43.238  28.094  33.840  1.00  0.00     0.074 A 
ATOM     72  C   UNL A   1      42.718  28.230  35.193  1.00  0.00     0.031 C 
ATOM     73  C   UNL A   1      43.978  27.100  33.243  1.00  0.00     0.037 A 
BRANCH  60  74
ATOM     74  C   UNL A   1      43.639  25.028  27.352  1.00  0.00     0.057 A 
ATOM     75  C   UNL A   1      43.432  23.643  27.136  1.00  0.00     0.134 A 
ATOM     76  C   UNL A   1      44.515  25.590  26.393  1.00  0.00     0.134 A 
ATOM     77  F   UNL A   1      42.560  22.942  27.871  1.00  0.00    -0.206 F 
ATOM     78  C   UNL A   1      44.094  22.889  26.144  1.00  0.00     0.040 A 
ATOM     79  C   UNL A   1      45.117  24.863  25.343  1.00  0.00     0.040 A 
ATOM     80  F   UNL A   1      44.893  26.870  26.425  1.00  0.00    -0.206 F 
ATOM     81  C   UNL A   1      44.937  23.497  25.234  1.00  0.00     0.006 A 
ENDBRANCH  60  74
BRANCH  61  82
ATOM     82  C   UNL A   1      39.879  31.808  34.171  1.00  0.00     0.057 A 
ATOM     83  C   UNL A   1      38.923  30.935  34.753  1.00  0.00     0.134 A 
ATOM     84  C   UNL A   1      40.136  32.995  34.877  1.00  0.00     0.134 A 
ATOM     85  F   UNL A   1      38.588  29.797  34.121  1.00  0.00    -0.206 F 
ATOM     86  C   UNL A   1      38.519  31.068  36.089  1.00  0.00     0.040 A 
ATOM     87  C   UNL A   1      39.721  33.142  36.215  1.00  0.00     0.040 A 
ATOM     88  F   UNL A   1      40.996  33.896  34.384  1.00  0.00    -0.206 F 
ATOM     89  C   UNL A   1      38.972  32.144  36.842  1.00  0.00     0.006 A 
ENDBRANCH  61  82
BRANCH  73  90
ATOM     90  C   UNL A   1      44.456  25.859  33.967  1.00  0.00     0.057 A 
ATOM     91  C   UNL A   1      45.806  25.531  34.092  1.00  0.00     0.134 A 
ATOM     92  C   UNL A   1      43.549  24.888  34.460  1.00  0.00     0.134 A 
ATOM     93  F   UNL A   1      46.755  26.297  33.536  1.00  0.00    -0.206 F 
ATOM     94  C   UNL A   1      46.230  24.382  34.772  1.00  0.00     0.040 A 
ATOM     95  C   UNL A   1      43.959  23.712  35.086  1.00  0.00     0.040 A 
ATOM     96  F   UNL A   1      42.220  25.036  34.373  1.00  0.00    -0.206 F 
ATOM     97  C   UNL A   1      45.308  23.472  35.277  1.00  0.00     0.006 A 
ENDBRANCH  73  90
ENDBRANCH  47  48
ENDBRANCH  40  42
ENDBRANCH  39  40
ENDBRANCH  38  39
ENDBRANCH  37  38
ENDBRANCH  36  37
ENDBRANCH  35  36
ENDBRANCH  34  35
ENDBRANCH  33  34
ENDBRANCH   1  33
TORSDOF 24
ENDMDL
MODEL 2
REMARK VINA RESULT:     -10.5      1.741      3.536
REMARK SMILES Cc1ccccc1S(=O)(=O)Nc1ccc(N2CCOCC2)cc1C(=O)OCCOCCOCCOCCOC(=O)c1ccc(-c2c3nc(c(-c4c(F)cccc4F)c4ccc([nH]4)c(-c4c(F)cccc4F)c4nc(c(-c5c(F)cccc5F)c5ccc2[nH]5)C=C4)C=C3)cc1
REMARK SMILES IDX 31 1 30 2 29 3 28 4 27 5 26 6 24 7 25 8 23 9 12 10 13 11
REMARK SMILES IDX 14 12 22 13 15 14 11 15 8 17 9 18 10 19 7 20 1 21 2 22 3 23
REMARK SMILES IDX 4 24 6 25 5 26 16 27 17 28 21 29 18 30 20 31 19 32 32 33
REMARK SMILES IDX 33 34 34 35 35 36 36 37 37 38 38 39 39 40 40 41 41 42 42 43
REMARK SMILES IDX 94 44 43 45 93 46 44 47 45 48 46 49 87 50 47 51 92 52 86 53
REMARK SMILES IDX 88 54 48 55 91 56 85 57 84 58 49 60 75 61 58 62 74 63 59 64
REMARK SMILES IDX 62 65 73 66 89 67 60 68 61 69 72 71 90 72 63 73 50 74 51 75
REMARK SMILES IDX 56 76 52 77 53 78 55 79 57 80 54 81 76 82 77 83 82 84 78 85
REMARK SMILES IDX 79 86 81 87 83 88 80 89 64 90 65 91 70 92 66 93 67 94 69 95
REMARK SMILES IDX 71 96 68 97
REMARK H PARENT 11 16 88 59 62 70
REMARK Flexibility Score: inf
ROOT
ATOM      1  C   UNL A   1      30.355  25.965  25.974  1.00  0.00     0.188 C 
ENDROOT
BRANCH   1   2
ATOM      2  C   UNL A   1      30.295  26.234  24.468  1.00  0.00     0.188 C 
BRANCH   2   3
ATOM      3  O   UNL A   1      31.542  26.416  23.810  1.00  0.00    -0.376 OA
BRANCH   3   4
ATOM      4  C   UNL A   1      31.501  26.124  22.403  1.00  0.00     0.202 C 
BRANCH   4   5
ATOM      5  C   UNL A   1      32.789  25.678  21.710  1.00  0.00     0.261 C 
BRANCH   5   6
ATOM      6  O   UNL A   1      33.840  25.339  22.609  1.00  0.00    -0.460 OA
BRANCH   6   7
ATOM      7  C   UNL A   1      34.120  24.035  22.648  1.00  0.00     0.340 C 
ATOM      8  O   UNL A   1      34.168  23.260  21.703  1.00  0.00    -0.246 OA
BRANCH   7   9
ATOM      9  C   UNL A   1      34.792  23.756  23.918  1.00  0.00     0.086 A 
ATOM     10  C   UNL A   1      33.990  23.928  25.056  1.00  0.00     0.064 A 
ATOM     11  C   UNL A   1      34.627  24.069  26.267  1.00  0.00     0.030 A 
ATOM     12  C   UNL A   1      35.971  23.654  26.366  1.00  0.00     0.028 A 
ATOM     13  C   UNL A   1      36.095  23.240  24.018  1.00  0.00     0.043 A 
ATOM     14  C   UNL A   1      36.648  23.031  25.289  1.00  0.00     0.038 A 
BRANCH  10  15
ATOM     15  N   UNL A   1      32.578  23.796  24.901  1.00  0.00    -0.279 N 
ATOM     16  H   UNL A   1      32.088  24.647  24.974  1.00  0.00     0.180 HD
BRANCH  15  17
ATOM     17  S   UNL A   1      31.597  22.470  24.618  1.00  0.00     0.262 S 
ATOM     18  O   UNL A   1      30.997  22.861  23.349  1.00  0.00    -0.201 OA
ATOM     19  O   UNL A   1      30.747  22.294  25.775  1.00  0.00    -0.201 OA
BRANCH  17  20
ATOM     20  C   UNL A   1      32.290  20.824  24.266  1.00  0.00     0.090 A 
ATOM     21  C   UNL A   1      33.636  20.358  26.383  1.00  0.00     0.046 C 
ATOM     22  C   UNL A   1      32.982  19.957  25.127  1.00  0.00    -0.031 A 
ATOM     23  C   UNL A   1      33.246  18.614  24.766  1.00  0.00     0.005 A 
ATOM     24  C   UNL A   1      32.916  18.133  23.516  1.00  0.00     0.000 A 
ATOM     25  C   UNL A   1      31.984  20.312  22.987  1.00  0.00     0.022 A 
ATOM     26  C   UNL A   1      32.290  18.989  22.625  1.00  0.00     0.001 A 
ENDBRANCH  17  20
ENDBRANCH  15  17
ENDBRANCH  10  15
BRANCH  14  27
ATOM     27  N   UNL A   1      37.667  22.107  25.516  1.00  0.00    -0.367 N 
ATOM     28  C   UNL A   1      38.878  22.432  26.298  1.00  0.00     0.145 C 
ATOM     29  C   UNL A   1      37.408  20.657  25.347  1.00  0.00     0.145 C 
ATOM     30  C   UNL A   1      40.066  21.513  25.937  1.00  0.00     0.181 C 
ATOM     31  C   UNL A   1      38.686  19.874  25.009  1.00  0.00     0.181 C 
ATOM     32  O   UNL A   1      39.711  20.123  25.973  1.00  0.00    -0.378 OA
ENDBRANCH  14  27
ENDBRANCH   7   9
ENDBRANCH   6   7
ENDBRANCH   5   6
ENDBRANCH   4   5
ENDBRANCH   3   4
ENDBRANCH   2   3
ENDBRANCH   1   2
BRANCH   1  33
ATOM     33  O   UNL A   1      31.480  26.371  26.738  1.00  0.00    -0.377 OA
BRANCH  33  34
ATOM     34  C   UNL A   1      31.447  27.751  27.067  1.00  0.00     0.188 C 
BRANCH  34  35
ATOM     35  C   UNL A   1      32.164  28.709  26.114  1.00  0.00     0.188 C 
BRANCH  35  36
ATOM     36  O   UNL A   1      31.693  30.027  26.397  1.00  0.00    -0.376 OA
BRANCH  36  37
ATOM     37  C   UNL A   1      32.646  31.012  26.784  1.00  0.00     0.202 C 
BRANCH  37  38
ATOM     38  C   UNL A   1      34.026  30.495  27.214  1.00  0.00     0.261 C 
BRANCH  38  39
ATOM     39  O   UNL A   1      34.443  31.208  28.394  1.00  0.00    -0.460 OA
BRANCH  39  40
ATOM     40  C   UNL A   1      35.750  31.602  28.410  1.00  0.00     0.338 C 
ATOM     41  O   UNL A   1      36.159  32.689  28.089  1.00  0.00    -0.246 OA
BRANCH  40  42
ATOM     42  C   UNL A   1      36.627  30.404  28.619  1.00  0.00     0.060 A 
ATOM     43  C   UNL A   1      36.570  29.704  29.837  1.00  0.00     0.016 A 
ATOM     44  C   UNL A   1      37.697  30.185  27.757  1.00  0.00     0.016 A 
ATOM     45  C   UNL A   1      37.644  28.887  30.245  1.00  0.00     0.010 A 
ATOM     46  C   UNL A   1      38.788  29.462  28.207  1.00  0.00     0.010 A 
ATOM     47  C   UNL A   1      38.796  28.812  29.459  1.00  0.00    -0.014 A 
BRANCH  47  48
ATOM     48  C   UNL A   1      40.124  28.303  29.898  1.00  0.00     0.031 A 
ATOM     49  C   UNL A   1      40.639  26.990  29.326  1.00  0.00     0.074 A 
ATOM     50  C   UNL A   1      40.985  29.179  30.482  1.00  0.00     0.049 A 
ATOM     51  N   UNL A   1      41.815  26.469  29.502  1.00  0.00    -0.248 NA
ATOM     52  C   UNL A   1      39.800  26.110  28.508  1.00  0.00     0.031 C 
ATOM     53  C   UNL A   1      42.416  29.179  30.262  1.00  0.00     0.029 A 
ATOM     54  N   UNL A   1      40.817  30.347  31.224  1.00  0.00    -0.354 N 
ATOM     55  C   UNL A   1      41.991  25.413  28.608  1.00  0.00     0.074 A 
ATOM     56  C   UNL A   1      40.662  25.171  28.108  1.00  0.00     0.031 C 
ATOM     57  C   UNL A   1      43.009  30.259  30.775  1.00  0.00     0.029 A 
ATOM     58  C   UNL A   1      42.077  30.789  31.705  1.00  0.00     0.049 A 
ATOM     59  H   UNL A   1      39.956  30.796  31.389  1.00  0.00     0.167 HD
ATOM     60  C   UNL A   1      43.250  24.942  28.299  1.00  0.00     0.037 A 
ATOM     61  C   UNL A   1      42.365  30.748  33.039  1.00  0.00     0.037 A 
ATOM     62  C   UNL A   1      44.312  25.504  29.192  1.00  0.00     0.049 A 
ATOM     63  C   UNL A   1      43.214  29.521  33.442  1.00  0.00     0.074 A 
ATOM     64  C   UNL A   1      45.623  25.945  29.045  1.00  0.00     0.029 A 
ATOM     65  N   UNL A   1      43.991  25.841  30.507  1.00  0.00    -0.354 N 
ATOM     66  N   UNL A   1      43.867  28.734  32.605  1.00  0.00    -0.248 NA
ATOM     67  C   UNL A   1      43.361  29.048  34.816  1.00  0.00     0.031 C 
ATOM     68  C   UNL A   1      46.053  26.550  30.270  1.00  0.00     0.029 A 
ATOM     69  C   UNL A   1      45.027  26.441  31.190  1.00  0.00     0.049 A 
ATOM     70  H   UNL A   1      43.110  25.667  30.910  1.00  0.00     0.167 HD
ATOM     71  C   UNL A   1      44.355  27.626  33.251  1.00  0.00     0.074 A 
ATOM     72  C   UNL A   1      44.045  27.901  34.646  1.00  0.00     0.031 C 
ATOM     73  C   UNL A   1      44.926  26.533  32.641  1.00  0.00     0.037 A 
BRANCH  60  74
ATOM     74  C   UNL A   1      43.598  24.089  27.039  1.00  0.00     0.057 A 
ATOM     75  C   UNL A   1      43.960  24.705  25.816  1.00  0.00     0.134 A 
ATOM     76  C   UNL A   1      43.478  22.685  26.913  1.00  0.00     0.134 A 
ATOM     77  F   UNL A   1      44.223  26.015  25.741  1.00  0.00    -0.206 F 
ATOM     78  C   UNL A   1      44.092  24.015  24.591  1.00  0.00     0.040 A 
ATOM     79  C   UNL A   1      43.690  21.973  25.712  1.00  0.00     0.040 A 
ATOM     80  F   UNL A   1      43.100  21.900  27.925  1.00  0.00    -0.206 F 
ATOM     81  C   UNL A   1      43.964  22.640  24.533  1.00  0.00     0.006 A 
ENDBRANCH  60  74
BRANCH  61  82
ATOM     82  C   UNL A   1      41.364  31.627  33.734  1.00  0.00     0.057 A 
ATOM     83  C   UNL A   1      40.488  30.889  34.572  1.00  0.00     0.134 A 
ATOM     84  C   UNL A   1      41.790  32.868  34.234  1.00  0.00     0.134 A 
ATOM     85  F   UNL A   1      39.999  29.709  34.151  1.00  0.00    -0.206 F 
ATOM     86  C   UNL A   1      40.329  31.199  35.930  1.00  0.00     0.040 A 
ATOM     87  C   UNL A   1      41.622  33.193  35.593  1.00  0.00     0.040 A 
ATOM     88  F   UNL A   1      42.588  33.650  33.495  1.00  0.00    -0.206 F 
ATOM     89  C   UNL A   1      40.953  32.323  36.456  1.00  0.00     0.006 A 
ENDBRANCH  61  82
BRANCH  73  90
ATOM     90  C   UNL A   1      45.408  25.310  33.391  1.00  0.00     0.057 A 
ATOM     91  C   UNL A   1      44.540  24.429  34.038  1.00  0.00     0.134 A 
ATOM     92  C   UNL A   1      46.788  25.050  33.584  1.00  0.00     0.134 A 
ATOM     93  F   UNL A   1      43.219  24.652  34.052  1.00  0.00    -0.206 F 
ATOM     94  C   UNL A   1      45.005  23.298  34.721  1.00  0.00     0.040 A 
ATOM     95  C   UNL A   1      47.264  23.960  34.312  1.00  0.00     0.040 A 
ATOM     96  F   UNL A   1      47.746  25.831  33.065  1.00  0.00    -0.206 F 
ATOM     97  C   UNL A   1      46.368  23.056  34.854  1.00  0.00     0.006 A 
ENDBRANCH  73  90
ENDBRANCH  47  48
ENDBRANCH  40  42
ENDBRANCH  39  40
ENDBRANCH  38  39
ENDBRANCH  37  38
ENDBRANCH  36  37
ENDBRANCH  35  36
ENDBRANCH  34  35
ENDBRANCH  33  34
ENDBRANCH   1  33
TORSDOF 24
ENDMDL
MODEL 3
REMARK VINA RESULT:     -10.2      3.018      6.375
REMARK SMILES Cc1ccccc1S(=O)(=O)Nc1ccc(N2CCOCC2)cc1C(=O)OCCOCCOCCOCCOC(=O)c1ccc(-c2c3nc(c(-c4c(F)cccc4F)c4ccc([nH]4)c(-c4c(F)cccc4F)c4nc(c(-c5c(F)cccc5F)c5ccc2[nH]5)C=C4)C=C3)cc1
REMARK SMILES IDX 31 1 30 2 29 3 28 4 27 5 26 6 24 7 25 8 23 9 12 10 13 11
REMARK SMILES IDX 14 12 22 13 15 14 11 15 8 17 9 18 10 19 7 20 1 21 2 22 3 23
REMARK SMILES IDX 4 24 6 25 5 26 16 27 17 28 21 29 18 30 20 31 19 32 32 33
REMARK SMILES IDX 33 34 34 35 35 36 36 37 37 38 38 39 39 40 40 41 41 42 42 43
REMARK SMILES IDX 94 44 43 45 93 46 44 47 45 48 46 49 87 50 47 51 92 52 86 53
REMARK SMILES IDX 88 54 48 55 91 56 85 57 84 58 49 60 75 61 58 62 74 63 59 64
REMARK SMILES IDX 62 65 73 66 89 67 60 68 61 69 72 71 90 72 63 73 50 74 51 75
REMARK SMILES IDX 56 76 52 77 53 78 55 79 57 80 54 81 76 82 77 83 82 84 78 85
REMARK SMILES IDX 79 86 81 87 83 88 80 89 64 90 65 91 70 92 66 93 67 94 69 95
REMARK SMILES IDX 71 96 68 97
REMARK H PARENT 11 16 88 59 62 70
REMARK Flexibility Score: inf
ROOT
ATOM      1  C   UNL A   1      35.565  32.479  28.005  1.00  0.00     0.188 C 
ENDROOT
BRANCH   1   2
ATOM      2  C   UNL A   1      34.557  31.429  28.476  1.00  0.00     0.188 C 
BRANCH   2   3
ATOM      3  O   UNL A   1      34.161  30.460  27.514  1.00  0.00    -0.376 OA
BRANCH   3   4
ATOM      4  C   UNL A   1      32.827  30.654  27.013  1.00  0.00     0.202 C 
BRANCH   4   5
ATOM      5  C   UNL A   1      31.903  29.441  26.903  1.00  0.00     0.261 C 
BRANCH   5   6
ATOM      6  O   UNL A   1      32.591  28.202  26.769  1.00  0.00    -0.460 OA
BRANCH   6   7
ATOM      7  C   UNL A   1      32.986  27.933  25.523  1.00  0.00     0.340 C 
ATOM      8  O   UNL A   1      34.036  27.412  25.176  1.00  0.00    -0.246 OA
BRANCH   7   9
ATOM      9  C   UNL A   1      31.801  27.947  24.663  1.00  0.00     0.086 A 
ATOM     10  C   UNL A   1      31.052  26.762  24.675  1.00  0.00     0.064 A 
ATOM     11  C   UNL A   1      30.179  26.550  23.634  1.00  0.00     0.030 A 
ATOM     12  C   UNL A   1      29.796  27.656  22.850  1.00  0.00     0.028 A 
ATOM     13  C   UNL A   1      31.355  29.082  23.963  1.00  0.00     0.043 A 
ATOM     14  C   UNL A   1      30.217  28.975  23.150  1.00  0.00     0.038 A 
BRANCH  10  15
ATOM     15  N   UNL A   1      31.139  25.934  25.834  1.00  0.00    -0.279 N 
ATOM     16  H   UNL A   1      30.863  26.382  26.666  1.00  0.00     0.180 HD
BRANCH  15  17
ATOM     17  S   UNL A   1      31.622  24.345  26.047  1.00  0.00     0.262 S 
ATOM     18  O   UNL A   1      30.646  23.665  25.206  1.00  0.00    -0.201 OA
ATOM     19  O   UNL A   1      31.637  24.074  27.468  1.00  0.00    -0.201 OA
BRANCH  17  20
ATOM     20  C   UNL A   1      33.217  23.737  25.416  1.00  0.00     0.090 A 
ATOM     21  C   UNL A   1      34.060  22.341  27.380  1.00  0.00     0.046 C 
ATOM     22  C   UNL A   1      34.075  22.775  25.974  1.00  0.00    -0.031 A 
ATOM     23  C   UNL A   1      35.161  22.241  25.238  1.00  0.00     0.005 A 
ATOM     24  C   UNL A   1      35.472  22.714  23.981  1.00  0.00     0.000 A 
ATOM     25  C   UNL A   1      33.572  24.217  24.138  1.00  0.00     0.022 A 
ATOM     26  C   UNL A   1      34.679  23.709  23.436  1.00  0.00     0.001 A 
ENDBRANCH  17  20
ENDBRANCH  15  17
ENDBRANCH  10  15
BRANCH  14  27
ATOM     27  N   UNL A   1      29.426  30.076  22.829  1.00  0.00    -0.367 N 
ATOM     28  C   UNL A   1      28.945  31.035  23.846  1.00  0.00     0.145 C 
ATOM     29  C   UNL A   1      29.370  30.572  21.433  1.00  0.00     0.145 C 
ATOM     30  C   UNL A   1      27.675  31.782  23.383  1.00  0.00     0.181 C 
ATOM     31  C   UNL A   1      28.057  31.308  21.129  1.00  0.00     0.181 C 
ATOM     32  O   UNL A   1      27.823  32.354  22.075  1.00  0.00    -0.378 OA
ENDBRANCH  14  27
ENDBRANCH   7   9
ENDBRANCH   6   7
ENDBRANCH   5   6
ENDBRANCH   4   5
ENDBRANCH   3   4
ENDBRANCH   2   3
ENDBRANCH   1   2
BRANCH   1  33
ATOM     33  O   UNL A   1      35.130  33.756  27.564  1.00  0.00    -0.377 OA
BRANCH  33  34
ATOM     34  C   UNL A   1      33.883  34.131  28.129  1.00  0.00     0.188 C 
BRANCH  34  35
ATOM     35  C   UNL A   1      33.829  35.473  28.861  1.00  0.00     0.188 C 
BRANCH  35  36
ATOM     36  O   UNL A   1      32.719  35.427  29.758  1.00  0.00    -0.376 OA
BRANCH  36  37
ATOM     37  C   UNL A   1      32.725  36.307  30.877  1.00  0.00     0.202 C 
BRANCH  37  38
ATOM     38  C   UNL A   1      32.562  35.658  32.259  1.00  0.00     0.261 C 
BRANCH  38  39
ATOM     39  O   UNL A   1      33.863  35.295  32.760  1.00  0.00    -0.460 OA
BRANCH  39  40
ATOM     40  C   UNL A   1      34.149  33.961  32.742  1.00  0.00     0.338 C 
ATOM     41  O   UNL A   1      33.363  33.072  32.957  1.00  0.00    -0.246 OA
BRANCH  40  42
ATOM     42  C   UNL A   1      35.635  33.773  32.690  1.00  0.00     0.060 A 
ATOM     43  C   UNL A   1      36.260  33.506  31.460  1.00  0.00     0.016 A 
ATOM     44  C   UNL A   1      36.334  33.548  33.872  1.00  0.00     0.016 A 
ATOM     45  C   UNL A   1      37.531  32.896  31.418  1.00  0.00     0.010 A 
ATOM     46  C   UNL A   1      37.535  32.862  33.825  1.00  0.00     0.010 A 
ATOM     47  C   UNL A   1      38.153  32.507  32.607  1.00  0.00    -0.014 A 
BRANCH  47  48
ATOM     48  C   UNL A   1      39.291  31.557  32.729  1.00  0.00     0.031 A 
ATOM     49  C   UNL A   1      39.285  30.284  31.893  1.00  0.00     0.074 A 
ATOM     50  C   UNL A   1      40.453  32.013  33.270  1.00  0.00     0.049 A 
ATOM     51  N   UNL A   1      40.245  29.417  31.783  1.00  0.00    -0.248 NA
ATOM     52  C   UNL A   1      38.115  29.862  31.119  1.00  0.00     0.031 C 
ATOM     53  C   UNL A   1      41.770  31.635  32.804  1.00  0.00     0.029 A 
ATOM     54  N   UNL A   1      40.759  33.015  34.189  1.00  0.00    -0.354 N 
ATOM     55  C   UNL A   1      39.963  28.547  30.731  1.00  0.00     0.074 A 
ATOM     56  C   UNL A   1      38.576  28.806  30.443  1.00  0.00     0.031 C 
ATOM     57  C   UNL A   1      42.736  32.375  33.353  1.00  0.00     0.029 A 
ATOM     58  C   UNL A   1      42.144  32.968  34.498  1.00  0.00     0.049 A 
ATOM     59  H   UNL A   1      40.115  33.658  34.565  1.00  0.00     0.167 HD
ATOM     60  C   UNL A   1      40.957  27.794  30.141  1.00  0.00     0.037 A 
ATOM     61  C   UNL A   1      42.565  32.591  35.741  1.00  0.00     0.037 A 
ATOM     62  C   UNL A   1      42.245  27.839  30.903  1.00  0.00     0.049 A 
ATOM     63  C   UNL A   1      43.021  31.116  35.810  1.00  0.00     0.074 A 
ATOM     64  C   UNL A   1      43.599  27.895  30.592  1.00  0.00     0.029 A 
ATOM     65  N   UNL A   1      42.213  27.999  32.289  1.00  0.00    -0.354 N 
ATOM     66  N   UNL A   1      43.280  30.346  34.767  1.00  0.00    -0.248 NA
ATOM     67  C   UNL A   1      43.177  30.369  37.054  1.00  0.00     0.031 C 
ATOM     68  C   UNL A   1      44.348  28.103  31.796  1.00  0.00     0.029 A 
ATOM     69  C   UNL A   1      43.462  28.127  32.857  1.00  0.00     0.049 A 
ATOM     70  H   UNL A   1      41.379  28.018  32.812  1.00  0.00     0.167 HD
ATOM     71  C   UNL A   1      43.463  29.042  35.152  1.00  0.00     0.074 A 
ATOM     72  C   UNL A   1      43.431  29.125  36.604  1.00  0.00     0.031 C 
ATOM     73  C   UNL A   1      43.575  27.966  34.301  1.00  0.00     0.037 A 
BRANCH  60  74
ATOM     74  C   UNL A   1      40.857  27.133  28.731  1.00  0.00     0.057 A 
ATOM     75  C   UNL A   1      41.567  27.658  27.624  1.00  0.00     0.134 A 
ATOM     76  C   UNL A   1      39.995  26.074  28.357  1.00  0.00     0.134 A 
ATOM     77  F   UNL A   1      42.508  28.598  27.777  1.00  0.00    -0.206 F 
ATOM     78  C   UNL A   1      41.373  27.242  26.289  1.00  0.00     0.040 A 
ATOM     79  C   UNL A   1      39.855  25.592  27.037  1.00  0.00     0.040 A 
ATOM     80  F   UNL A   1      39.192  25.457  29.226  1.00  0.00    -0.206 F 
ATOM     81  C   UNL A   1      40.518  26.198  25.988  1.00  0.00     0.006 A 
ENDBRANCH  60  74
BRANCH  61  82
ATOM     82  C   UNL A   1      41.991  33.577  36.719  1.00  0.00     0.057 A 
ATOM     83  C   UNL A   1      41.032  32.984  37.581  1.00  0.00     0.134 A 
ATOM     84  C   UNL A   1      42.851  34.515  37.312  1.00  0.00     0.134 A 
ATOM     85  F   UNL A   1      40.143  32.106  37.086  1.00  0.00    -0.206 F 
ATOM     86  C   UNL A   1      41.146  33.061  38.976  1.00  0.00     0.040 A 
ATOM     87  C   UNL A   1      42.961  34.609  38.712  1.00  0.00     0.040 A 
ATOM     88  F   UNL A   1      43.764  35.154  36.566  1.00  0.00    -0.206 F 
ATOM     89  C   UNL A   1      42.157  33.827  39.544  1.00  0.00     0.006 A 
ENDBRANCH  61  82
BRANCH  73  90
ATOM     90  C   UNL A   1      43.730  26.536  34.773  1.00  0.00     0.057 A 
ATOM     91  C   UNL A   1      42.640  25.709  35.048  1.00  0.00     0.134 A 
ATOM     92  C   UNL A   1      44.999  25.985  35.079  1.00  0.00     0.134 A 
ATOM     93  F   UNL A   1      41.385  26.166  34.938  1.00  0.00    -0.206 F 
ATOM     94  C   UNL A   1      42.802  24.386  35.476  1.00  0.00     0.040 A 
ATOM     95  C   UNL A   1      45.171  24.689  35.562  1.00  0.00     0.040 A 
ATOM     96  F   UNL A   1      46.139  26.671  34.913  1.00  0.00    -0.206 F 
ATOM     97  C   UNL A   1      44.070  23.869  35.728  1.00  0.00     0.006 A 
ENDBRANCH  73  90
ENDBRANCH  47  48
ENDBRANCH  40  42
ENDBRANCH  39  40
ENDBRANCH  38  39
ENDBRANCH  37  38
ENDBRANCH  36  37
ENDBRANCH  35  36
ENDBRANCH  34  35
ENDBRANCH  33  34
ENDBRANCH   1  33
TORSDOF 24
ENDMDL
