MODEL 1
REMARK VINA RESULT:     -10.7      0.000      0.000
REMARK SMILES Cc1cc(C[N@H+]2CC[C@@H](C(=O)OCCOCCOCCOCCOC(=O)c3ccc(-c4c5nc(c(-c6c(F)cccc6F)c6ccc([nH]6)c(-c6c(F)cccc6F)c6nc(c(-c7c(F)cccc7F)c7ccc4[nH]7)C=C6)C=C5)cc3)[C@@H]2C)ccc1Br
REMARK SMILES IDX 18 1 17 2 16 3 15 4 14 5 13 6 12 7 10 8 11 9 9 10 6 11 7 12
REMARK SMILES IDX 81 13 8 15 82 16 5 17 4 18 1 19 2 20 3 21 85 22 84 23 86 24
REMARK SMILES IDX 83 25 19 26 20 27 21 28 22 29 23 30 24 31 25 32 26 33 27 34
REMARK SMILES IDX 28 35 80 36 29 37 79 38 30 39 31 40 32 41 73 42 33 43 78 44
REMARK SMILES IDX 72 45 74 46 34 47 77 48 71 49 70 50 35 52 61 53 44 54 60 55
REMARK SMILES IDX 45 56 48 57 59 58 75 59 46 60 47 61 58 63 76 64 49 65 36 66
REMARK SMILES IDX 37 67 42 68 38 69 39 70 41 71 43 72 40 73 62 74 63 75 68 76
REMARK SMILES IDX 64 77 65 78 67 79 69 80 66 81 50 82 51 83 56 84 52 85 53 86
REMARK SMILES IDX 55 87 57 88 54 89
REMARK H PARENT 6 14 74 51 48 62
REMARK Flexibility Score: inf
ROOT
ATOM      1  O   UNL A   1      34.024  33.649  28.914  1.00  0.00    -0.377 OA
ENDROOT
BRANCH   1   2
ATOM      2  C   UNL A   1      35.179  33.088  28.304  1.00  0.00     0.188 C 
BRANCH   2   3
ATOM      3  C   UNL A   1      35.171  31.668  27.717  1.00  0.00     0.188 C 
BRANCH   3   4
ATOM      4  O   UNL A   1      33.949  30.988  27.862  1.00  0.00    -0.376 OA
BRANCH   4   5
ATOM      5  C   UNL A   1      33.440  30.206  26.803  1.00  0.00     0.202 C 
BRANCH   5   6
ATOM      6  C   UNL A   1      32.010  29.635  26.747  1.00  0.00     0.261 C 
BRANCH   6   7
ATOM      7  O   UNL A   1      31.803  28.234  26.990  1.00  0.00    -0.463 OA
BRANCH   7   8
ATOM      8  C   UNL A   1      31.367  27.516  25.925  1.00  0.00     0.315 C 
ATOM      9  O   UNL A   1      30.960  26.358  26.009  1.00  0.00    -0.252 OA
BRANCH   8  10
ATOM     10  C   UNL A   1      31.488  28.198  24.573  1.00  0.00     0.162 C 
ATOM     11  N   UNL A   1      31.745  27.597  22.245  1.00  0.00    -0.328 N 
ATOM     12  C   UNL A   1      30.462  28.265  22.416  1.00  0.00     0.263 C 
ATOM     13  C   UNL A   1      32.484  27.692  23.518  1.00  0.00     0.195 C 
ATOM     14  H   UNL A   1      32.272  28.091  21.523  1.00  0.00     0.348 HD
ATOM     15  C   UNL A   1      30.131  28.138  23.887  1.00  0.00     0.083 C 
ATOM     16  C   UNL A   1      33.615  28.707  23.276  1.00  0.00     0.076 C 
BRANCH  11  17
ATOM     17  C   UNL A   1      31.703  26.268  21.624  1.00  0.00     0.299 C 
BRANCH  17  18
ATOM     18  C   UNL A   1      31.980  25.072  22.510  1.00  0.00     0.007 A 
ATOM     19  C   UNL A   1      34.943  22.921  23.568  1.00  0.00     0.045 C 
ATOM     20  C   UNL A   1      33.532  23.422  23.447  1.00  0.00    -0.036 A 
ATOM     21  C   UNL A   1      33.276  24.553  22.648  1.00  0.00     0.014 A 
ATOM     22  C   UNL A   1      32.452  22.788  24.079  1.00  0.00     0.020 A 
ATOM     23  C   UNL A   1      31.167  23.318  23.982  1.00  0.00     0.016 A 
ATOM     24  Br  UNL A   1      32.659  21.182  25.071  1.00  0.00    -0.051 Br
ATOM     25  C   UNL A   1      30.938  24.462  23.221  1.00  0.00     0.011 A 
ENDBRANCH  17  18
ENDBRANCH  11  17
ENDBRANCH   8  10
ENDBRANCH   7   8
ENDBRANCH   6   7
ENDBRANCH   5   6
ENDBRANCH   4   5
ENDBRANCH   3   4
ENDBRANCH   2   3
ENDBRANCH   1   2
BRANCH   1  26
ATOM     26  C   UNL A   1      33.966  35.047  29.174  1.00  0.00     0.188 C 
BRANCH  26  27
ATOM     27  C   UNL A   1      32.917  35.609  30.153  1.00  0.00     0.188 C 
BRANCH  27  28
ATOM     28  O   UNL A   1      32.854  34.935  31.399  1.00  0.00    -0.376 OA
BRANCH  28  29
ATOM     29  C   UNL A   1      34.038  34.917  32.183  1.00  0.00     0.202 C 
BRANCH  29  30
ATOM     30  C   UNL A   1      34.282  33.682  33.068  1.00  0.00     0.261 C 
BRANCH  30  31
ATOM     31  O   UNL A   1      35.118  32.658  32.504  1.00  0.00    -0.460 OA
BRANCH  31  32
ATOM     32  C   UNL A   1      36.193  32.288  33.220  1.00  0.00     0.338 C 
ATOM     33  O   UNL A   1      36.419  32.528  34.402  1.00  0.00    -0.246 OA
BRANCH  32  34
ATOM     34  C   UNL A   1      37.015  31.387  32.398  1.00  0.00     0.060 A 
ATOM     35  C   UNL A   1      38.042  30.663  33.016  1.00  0.00     0.016 A 
ATOM     36  C   UNL A   1      36.819  31.312  31.016  1.00  0.00     0.016 A 
ATOM     37  C   UNL A   1      38.929  29.923  32.242  1.00  0.00     0.010 A 
ATOM     38  C   UNL A   1      37.721  30.581  30.238  1.00  0.00     0.010 A 
ATOM     39  C   UNL A   1      38.814  29.937  30.846  1.00  0.00    -0.014 A 
BRANCH  39  40
ATOM     40  C   UNL A   1      39.982  29.509  30.041  1.00  0.00     0.031 A 
ATOM     41  C   UNL A   1      41.095  30.498  29.824  1.00  0.00     0.074 A 
ATOM     42  C   UNL A   1      40.095  28.252  29.583  1.00  0.00     0.049 A 
ATOM     43  N   UNL A   1      42.241  30.345  29.211  1.00  0.00    -0.248 NA
ATOM     44  C   UNL A   1      40.885  31.847  30.374  1.00  0.00     0.031 C 
ATOM     45  C   UNL A   1      39.100  27.196  29.755  1.00  0.00     0.029 A 
ATOM     46  N   UNL A   1      41.109  27.654  28.880  1.00  0.00    -0.354 N 
ATOM     47  C   UNL A   1      42.881  31.575  29.296  1.00  0.00     0.074 A 
ATOM     48  C   UNL A   1      41.981  32.476  29.982  1.00  0.00     0.031 C 
ATOM     49  C   UNL A   1      39.551  26.077  29.162  1.00  0.00     0.029 A 
ATOM     50  C   UNL A   1      40.853  26.346  28.555  1.00  0.00     0.049 A 
ATOM     51  H   UNL A   1      41.941  28.119  28.633  1.00  0.00     0.167 HD
ATOM     52  C   UNL A   1      44.112  31.924  28.853  1.00  0.00     0.037 A 
ATOM     53  C   UNL A   1      41.585  25.472  27.836  1.00  0.00     0.037 A 
ATOM     54  C   UNL A   1      45.004  31.027  28.169  1.00  0.00     0.049 A 
ATOM     55  C   UNL A   1      42.936  25.888  27.316  1.00  0.00     0.074 A 
ATOM     56  C   UNL A   1      46.285  31.269  27.705  1.00  0.00     0.029 A 
ATOM     57  N   UNL A   1      44.701  29.714  27.838  1.00  0.00    -0.354 N 
ATOM     58  N   UNL A   1      43.552  27.040  27.438  1.00  0.00    -0.248 NA
ATOM     59  C   UNL A   1      43.700  24.875  26.577  1.00  0.00     0.031 C 
ATOM     60  C   UNL A   1      46.730  30.124  27.037  1.00  0.00     0.029 A 
ATOM     61  C   UNL A   1      45.756  29.144  27.145  1.00  0.00     0.049 A 
ATOM     62  H   UNL A   1      43.858  29.256  28.061  1.00  0.00     0.167 HD
ATOM     63  C   UNL A   1      44.783  26.885  26.812  1.00  0.00     0.074 A 
ATOM     64  C   UNL A   1      44.831  25.520  26.326  1.00  0.00     0.031 C 
ATOM     65  C   UNL A   1      45.787  27.786  26.660  1.00  0.00     0.037 A 
BRANCH  52  66
ATOM     66  C   UNL A   1      44.533  33.354  29.057  1.00  0.00     0.057 A 
ATOM     67  C   UNL A   1      45.211  33.779  30.208  1.00  0.00     0.134 A 
ATOM     68  C   UNL A   1      44.233  34.324  28.092  1.00  0.00     0.134 A 
ATOM     69  F   UNL A   1      45.513  32.905  31.181  1.00  0.00    -0.206 F 
ATOM     70  C   UNL A   1      45.536  35.122  30.411  1.00  0.00     0.040 A 
ATOM     71  C   UNL A   1      44.582  35.663  28.268  1.00  0.00     0.040 A 
ATOM     72  F   UNL A   1      43.589  33.987  26.964  1.00  0.00    -0.206 F 
ATOM     73  C   UNL A   1      45.224  36.068  29.437  1.00  0.00     0.006 A 
ENDBRANCH  52  66
BRANCH  53  74
ATOM     74  C   UNL A   1      41.042  24.117  27.566  1.00  0.00     0.057 A 
ATOM     75  C   UNL A   1      40.039  23.904  26.614  1.00  0.00     0.134 A 
ATOM     76  C   UNL A   1      41.532  22.997  28.250  1.00  0.00     0.134 A 
ATOM     77  F   UNL A   1      39.513  24.940  25.944  1.00  0.00    -0.206 F 
ATOM     78  C   UNL A   1      39.539  22.627  26.353  1.00  0.00     0.040 A 
ATOM     79  C   UNL A   1      41.060  21.712  27.980  1.00  0.00     0.040 A 
ATOM     80  F   UNL A   1      42.494  23.135  29.173  1.00  0.00    -0.206 F 
ATOM     81  C   UNL A   1      40.057  21.525  27.032  1.00  0.00     0.006 A 
ENDBRANCH  53  74
BRANCH  65  82
ATOM     82  C   UNL A   1      47.036  27.315  25.968  1.00  0.00     0.057 A 
ATOM     83  C   UNL A   1      48.052  26.630  26.647  1.00  0.00     0.134 A 
ATOM     84  C   UNL A   1      47.209  27.527  24.593  1.00  0.00     0.134 A 
ATOM     85  F   UNL A   1      47.956  26.400  27.965  1.00  0.00    -0.206 F 
ATOM     86  C   UNL A   1      49.210  26.205  25.991  1.00  0.00     0.040 A 
ATOM     87  C   UNL A   1      48.347  27.079  23.921  1.00  0.00     0.040 A 
ATOM     88  F   UNL A   1      46.270  28.164  23.878  1.00  0.00    -0.206 F 
ATOM     89  C   UNL A   1      49.356  26.424  24.623  1.00  0.00     0.006 A 
ENDBRANCH  65  82
ENDBRANCH  39  40
ENDBRANCH  32  34
ENDBRANCH  31  32
ENDBRANCH  30  31
ENDBRANCH  29  30
ENDBRANCH  28  29
ENDBRANCH  27  28
ENDBRANCH  26  27
ENDBRANCH   1  26
TORSDOF 22
ENDMDL
MODEL 2
REMARK VINA RESULT:     -10.6      1.716      2.947
REMARK SMILES Cc1cc(C[N@H+]2CC[C@@H](C(=O)OCCOCCOCCOCCOC(=O)c3ccc(-c4c5nc(c(-c6c(F)cccc6F)c6ccc([nH]6)c(-c6c(F)cccc6F)c6nc(c(-c7c(F)cccc7F)c7ccc4[nH]7)C=C6)C=C5)cc3)[C@@H]2C)ccc1Br
REMARK SMILES IDX 18 1 17 2 16 3 15 4 14 5 13 6 12 7 10 8 11 9 9 10 6 11 7 12
REMARK SMILES IDX 81 13 8 15 82 16 5 17 4 18 1 19 2 20 3 21 85 22 84 23 86 24
REMARK SMILES IDX 83 25 19 26 20 27 21 28 22 29 23 30 24 31 25 32 26 33 27 34
REMARK SMILES IDX 28 35 80 36 29 37 79 38 30 39 31 40 32 41 73 42 33 43 78 44
REMARK SMILES IDX 72 45 74 46 34 47 77 48 71 49 70 50 35 52 61 53 44 54 60 55
REMARK SMILES IDX 45 56 48 57 59 58 75 59 46 60 47 61 58 63 76 64 49 65 36 66
REMARK SMILES IDX 37 67 42 68 38 69 39 70 41 71 43 72 40 73 62 74 63 75 68 76
REMARK SMILES IDX 64 77 65 78 67 79 69 80 66 81 50 82 51 83 56 84 52 85 53 86
REMARK SMILES IDX 55 87 57 88 54 89
REMARK H PARENT 6 14 74 51 48 62
REMARK Flexibility Score: inf
ROOT
ATOM      1  O   UNL A   1      33.694  35.934  29.943  1.00  0.00    -0.377 OA
ENDROOT
BRANCH   1   2
ATOM      2  C   UNL A   1      33.952  34.610  29.493  1.00  0.00     0.188 C 
BRANCH   2   3
ATOM      3  C   UNL A   1      33.996  34.261  27.997  1.00  0.00     0.188 C 
BRANCH   3   4
ATOM      4  O   UNL A   1      34.764  33.124  27.690  1.00  0.00    -0.376 OA
BRANCH   4   5
ATOM      5  C   UNL A   1      34.304  31.838  28.045  1.00  0.00     0.202 C 
BRANCH   5   6
ATOM      6  C   UNL A   1      33.251  31.038  27.254  1.00  0.00     0.261 C 
BRANCH   6   7
ATOM      7  O   UNL A   1      33.550  29.694  26.848  1.00  0.00    -0.463 OA
BRANCH   7   8
ATOM      8  C   UNL A   1      32.664  29.132  25.988  1.00  0.00     0.315 C 
ATOM      9  O   UNL A   1      31.695  29.733  25.525  1.00  0.00    -0.252 OA
BRANCH   8  10
ATOM     10  C   UNL A   1      32.881  27.661  25.682  1.00  0.00     0.162 C 
ATOM     11  N   UNL A   1      32.115  25.995  24.105  1.00  0.00    -0.328 N 
ATOM     12  C   UNL A   1      33.544  26.199  23.911  1.00  0.00     0.263 C 
ATOM     13  C   UNL A   1      31.703  26.749  25.303  1.00  0.00     0.195 C 
ATOM     14  H   UNL A   1      31.951  25.001  24.272  1.00  0.00     0.348 HD
ATOM     15  C   UNL A   1      33.845  27.556  24.508  1.00  0.00     0.083 C 
ATOM     16  C   UNL A   1      31.431  25.696  26.393  1.00  0.00     0.076 C 
BRANCH  11  17
ATOM     17  C   UNL A   1      31.271  26.167  22.917  1.00  0.00     0.299 C 
BRANCH  17  18
ATOM     18  C   UNL A   1      30.474  27.449  22.804  1.00  0.00     0.007 A 
ATOM     19  C   UNL A   1      26.925  28.677  23.458  1.00  0.00     0.045 C 
ATOM     20  C   UNL A   1      28.367  28.681  23.037  1.00  0.00    -0.036 A 
ATOM     21  C   UNL A   1      29.120  27.498  23.169  1.00  0.00     0.014 A 
ATOM     22  C   UNL A   1      28.987  29.813  22.487  1.00  0.00     0.020 A 
ATOM     23  C   UNL A   1      30.341  29.787  22.158  1.00  0.00     0.016 A 
ATOM     24  Br  UNL A   1      28.036  31.420  22.139  1.00  0.00    -0.051 Br
ATOM     25  C   UNL A   1      31.081  28.620  22.335  1.00  0.00     0.011 A 
ENDBRANCH  17  18
ENDBRANCH  11  17
ENDBRANCH   8  10
ENDBRANCH   7   8
ENDBRANCH   6   7
ENDBRANCH   5   6
ENDBRANCH   4   5
ENDBRANCH   3   4
ENDBRANCH   2   3
ENDBRANCH   1   2
BRANCH   1  26
ATOM     26  C   UNL A   1      32.912  36.147  31.112  1.00  0.00     0.188 C 
BRANCH  26  27
ATOM     27  C   UNL A   1      33.348  37.196  32.153  1.00  0.00     0.188 C 
BRANCH  27  28
ATOM     28  O   UNL A   1      34.483  36.828  32.920  1.00  0.00    -0.376 OA
BRANCH  28  29
ATOM     29  C   UNL A   1      34.639  35.449  33.220  1.00  0.00     0.202 C 
BRANCH  29  30
ATOM     30  C   UNL A   1      35.940  34.768  32.762  1.00  0.00     0.261 C 
BRANCH  30  31
ATOM     31  O   UNL A   1      35.873  33.345  32.573  1.00  0.00    -0.460 OA
BRANCH  31  32
ATOM     32  C   UNL A   1      36.680  32.591  33.339  1.00  0.00     0.338 C 
ATOM     33  O   UNL A   1      36.708  32.539  34.565  1.00  0.00    -0.246 OA
BRANCH  32  34
ATOM     34  C   UNL A   1      37.447  31.690  32.466  1.00  0.00     0.060 A 
ATOM     35  C   UNL A   1      38.418  30.862  33.042  1.00  0.00     0.016 A 
ATOM     36  C   UNL A   1      37.258  31.714  31.081  1.00  0.00     0.016 A 
ATOM     37  C   UNL A   1      39.260  30.112  32.226  1.00  0.00     0.010 A 
ATOM     38  C   UNL A   1      38.115  30.973  30.263  1.00  0.00     0.010 A 
ATOM     39  C   UNL A   1      39.157  30.221  30.833  1.00  0.00    -0.014 A 
BRANCH  39  40
ATOM     40  C   UNL A   1      40.301  29.766  30.008  1.00  0.00     0.031 A 
ATOM     41  C   UNL A   1      41.422  30.736  29.752  1.00  0.00     0.074 A 
ATOM     42  C   UNL A   1      40.386  28.501  29.565  1.00  0.00     0.049 A 
ATOM     43  N   UNL A   1      42.551  30.558  29.116  1.00  0.00    -0.248 NA
ATOM     44  C   UNL A   1      41.243  32.095  30.289  1.00  0.00     0.031 C 
ATOM     45  C   UNL A   1      39.380  27.463  29.773  1.00  0.00     0.029 A 
ATOM     46  N   UNL A   1      41.375  27.880  28.848  1.00  0.00    -0.354 N 
ATOM     47  C   UNL A   1      43.210  31.781  29.169  1.00  0.00     0.074 A 
ATOM     48  C   UNL A   1      42.338  32.703  29.864  1.00  0.00     0.031 C 
ATOM     49  C   UNL A   1      39.802  26.329  29.186  1.00  0.00     0.029 A 
ATOM     50  C   UNL A   1      41.094  26.572  28.546  1.00  0.00     0.049 A 
ATOM     51  H   UNL A   1      42.208  28.329  28.575  1.00  0.00     0.167 HD
ATOM     52  C   UNL A   1      44.436  32.107  28.695  1.00  0.00     0.037 A 
ATOM     53  C   UNL A   1      41.797  25.678  27.823  1.00  0.00     0.037 A 
ATOM     54  C   UNL A   1      45.300  31.188  28.002  1.00  0.00     0.049 A 
ATOM     55  C   UNL A   1      43.141  26.067  27.267  1.00  0.00     0.074 A 
ATOM     56  C   UNL A   1      46.573  31.406  27.506  1.00  0.00     0.029 A 
ATOM     57  N   UNL A   1      44.970  29.875  27.696  1.00  0.00    -0.354 N 
ATOM     58  N   UNL A   1      43.776  27.212  27.359  1.00  0.00    -0.248 NA
ATOM     59  C   UNL A   1      43.874  25.034  26.524  1.00  0.00     0.031 C 
ATOM     60  C   UNL A   1      46.986  30.245  26.844  1.00  0.00     0.029 A 
ATOM     61  C   UNL A   1      46.001  29.280  26.988  1.00  0.00     0.049 A 
ATOM     62  H   UNL A   1      44.126  29.432  27.944  1.00  0.00     0.167 HD
ATOM     63  C   UNL A   1      44.990  27.031  26.707  1.00  0.00     0.074 A 
ATOM     64  C   UNL A   1      45.008  25.660  26.239  1.00  0.00     0.031 C 
ATOM     65  C   UNL A   1      46.002  27.916  26.521  1.00  0.00     0.037 A 
BRANCH  52  66
ATOM     66  C   UNL A   1      44.881  33.532  28.869  1.00  0.00     0.057 A 
ATOM     67  C   UNL A   1      45.606  33.959  29.991  1.00  0.00     0.134 A 
ATOM     68  C   UNL A   1      44.556  34.498  27.907  1.00  0.00     0.134 A 
ATOM     69  F   UNL A   1      45.935  33.091  30.959  1.00  0.00    -0.206 F 
ATOM     70  C   UNL A   1      45.955  35.300  30.169  1.00  0.00     0.040 A 
ATOM     71  C   UNL A   1      44.928  35.834  28.058  1.00  0.00     0.040 A 
ATOM     72  F   UNL A   1      43.866  34.159  26.808  1.00  0.00    -0.206 F 
ATOM     73  C   UNL A   1      45.618  36.241  29.198  1.00  0.00     0.006 A 
ENDBRANCH  52  66
BRANCH  53  74
ATOM     74  C   UNL A   1      41.229  24.327  27.584  1.00  0.00     0.057 A 
ATOM     75  C   UNL A   1      41.689  23.203  28.278  1.00  0.00     0.134 A 
ATOM     76  C   UNL A   1      40.193  24.136  26.660  1.00  0.00     0.134 A 
ATOM     77  F   UNL A   1      42.694  23.318  29.158  1.00  0.00    -0.206 F 
ATOM     78  C   UNL A   1      41.144  21.937  28.060  1.00  0.00     0.040 A 
ATOM     79  C   UNL A   1      39.621  22.881  26.452  1.00  0.00     0.040 A 
ATOM     80  F   UNL A   1      39.706  25.174  25.964  1.00  0.00    -0.206 F 
ATOM     81  C   UNL A   1      40.101  21.775  27.150  1.00  0.00     0.006 A 
ENDBRANCH  53  74
BRANCH  65  82
ATOM     82  C   UNL A   1      47.229  27.419  25.807  1.00  0.00     0.057 A 
ATOM     83  C   UNL A   1      47.390  27.550  24.421  1.00  0.00     0.134 A 
ATOM     84  C   UNL A   1      48.277  26.826  26.524  1.00  0.00     0.134 A 
ATOM     85  F   UNL A   1      46.424  28.100  23.672  1.00  0.00    -0.206 F 
ATOM     86  C   UNL A   1      48.533  27.077  23.772  1.00  0.00     0.040 A 
ATOM     87  C   UNL A   1      49.438  26.380  25.890  1.00  0.00     0.040 A 
ATOM     88  F   UNL A   1      48.196  26.682  27.856  1.00  0.00    -0.206 F 
ATOM     89  C   UNL A   1      49.563  26.495  24.508  1.00  0.00     0.006 A 
ENDBRANCH  65  82
ENDBRANCH  39  40
ENDBRANCH  32  34
ENDBRANCH  31  32
ENDBRANCH  30  31
ENDBRANCH  29  30
ENDBRANCH  28  29
ENDBRANCH  27  28
ENDBRANCH  26  27
ENDBRANCH   1  26
TORSDOF 22
ENDMDL
MODEL 3
REMARK VINA RESULT:     -10.2      3.757      6.932
REMARK SMILES Cc1cc(C[N@H+]2CC[C@@H](C(=O)OCCOCCOCCOCCOC(=O)c3ccc(-c4c5nc(c(-c6c(F)cccc6F)c6ccc([nH]6)c(-c6c(F)cccc6F)c6nc(c(-c7c(F)cccc7F)c7ccc4[nH]7)C=C6)C=C5)cc3)[C@@H]2C)ccc1Br
REMARK SMILES IDX 18 1 17 2 16 3 15 4 14 5 13 6 12 7 10 8 11 9 9 10 6 11 7 12
REMARK SMILES IDX 81 13 8 15 82 16 5 17 4 18 1 19 2 20 3 21 85 22 84 23 86 24
REMARK SMILES IDX 83 25 19 26 20 27 21 28 22 29 23 30 24 31 25 32 26 33 27 34
REMARK SMILES IDX 28 35 80 36 29 37 79 38 30 39 31 40 32 41 73 42 33 43 78 44
REMARK SMILES IDX 72 45 74 46 34 47 77 48 71 49 70 50 35 52 61 53 44 54 60 55
REMARK SMILES IDX 45 56 48 57 59 58 75 59 46 60 47 61 58 63 76 64 49 65 36 66
REMARK SMILES IDX 37 67 42 68 38 69 39 70 41 71 43 72 40 73 62 74 63 75 68 76
REMARK SMILES IDX 64 77 65 78 67 79 69 80 66 81 50 82 51 83 56 84 52 85 53 86
REMARK SMILES IDX 55 87 57 88 54 89
REMARK H PARENT 6 14 74 51 48 62
REMARK Flexibility Score: inf
ROOT
ATOM      1  O   UNL A   1      33.571  27.008  23.016  1.00  0.00    -0.377 OA
ENDROOT
BRANCH   1   2
ATOM      2  C   UNL A   1      32.654  26.235  22.252  1.00  0.00     0.188 C 
BRANCH   2   3
ATOM      3  C   UNL A   1      32.293  24.794  22.644  1.00  0.00     0.188 C 
BRANCH   3   4
ATOM      4  O   UNL A   1      30.952  24.616  23.025  1.00  0.00    -0.376 OA
BRANCH   4   5
ATOM      5  C   UNL A   1      30.290  25.608  23.780  1.00  0.00     0.202 C 
BRANCH   5   6
ATOM      6  C   UNL A   1      30.268  25.666  25.319  1.00  0.00     0.261 C 
BRANCH   6   7
ATOM      7  O   UNL A   1      31.248  24.924  26.063  1.00  0.00    -0.463 OA
BRANCH   7   8
ATOM      8  C   UNL A   1      30.810  23.760  26.605  1.00  0.00     0.315 C 
ATOM      9  O   UNL A   1      29.769  23.662  27.253  1.00  0.00    -0.252 OA
BRANCH   8  10
ATOM     10  C   UNL A   1      31.736  22.567  26.442  1.00  0.00     0.162 C 
ATOM     11  N   UNL A   1      33.959  22.082  25.622  1.00  0.00    -0.328 N 
ATOM     12  C   UNL A   1      33.914  21.795  27.049  1.00  0.00     0.263 C 
ATOM     13  C   UNL A   1      32.589  22.394  25.175  1.00  0.00     0.195 C 
ATOM     14  H   UNL A   1      34.280  21.245  25.134  1.00  0.00     0.348 HD
ATOM     15  C   UNL A   1      32.739  22.582  27.586  1.00  0.00     0.083 C 
ATOM     16  C   UNL A   1      32.129  21.182  24.346  1.00  0.00     0.076 C 
BRANCH  11  17
ATOM     17  C   UNL A   1      35.005  23.014  25.184  1.00  0.00     0.299 C 
BRANCH  17  18
ATOM     18  C   UNL A   1      36.444  22.623  25.441  1.00  0.00     0.007 A 
ATOM     19  C   UNL A   1      38.706  19.587  25.001  1.00  0.00     0.045 C 
ATOM     20  C   UNL A   1      38.250  20.966  25.383  1.00  0.00    -0.036 A 
ATOM     21  C   UNL A   1      36.920  21.343  25.117  1.00  0.00     0.014 A 
ATOM     22  C   UNL A   1      39.093  21.887  26.023  1.00  0.00     0.020 A 
ATOM     23  C   UNL A   1      38.644  23.174  26.313  1.00  0.00     0.016 A 
ATOM     24  Br  UNL A   1      40.864  21.443  26.550  1.00  0.00    -0.051 Br
ATOM     25  C   UNL A   1      37.337  23.544  26.004  1.00  0.00     0.011 A 
ENDBRANCH  17  18
ENDBRANCH  11  17
ENDBRANCH   8  10
ENDBRANCH   7   8
ENDBRANCH   6   7
ENDBRANCH   5   6
ENDBRANCH   4   5
ENDBRANCH   3   4
ENDBRANCH   2   3
ENDBRANCH   1   2
BRANCH   1  26
ATOM     26  C   UNL A   1      33.286  28.373  23.299  1.00  0.00     0.188 C 
BRANCH  26  27
ATOM     27  C   UNL A   1      31.872  28.935  23.056  1.00  0.00     0.188 C 
BRANCH  27  28
ATOM     28  O   UNL A   1      31.282  29.552  24.188  1.00  0.00    -0.376 OA
BRANCH  28  29
ATOM     29  C   UNL A   1      32.056  29.594  25.377  1.00  0.00     0.202 C 
BRANCH  29  30
ATOM     30  C   UNL A   1      31.886  30.821  26.290  1.00  0.00     0.261 C 
BRANCH  30  31
ATOM     31  O   UNL A   1      32.716  30.853  27.463  1.00  0.00    -0.460 OA
BRANCH  31  32
ATOM     32  C   UNL A   1      33.498  31.934  27.625  1.00  0.00     0.338 C 
ATOM     33  O   UNL A   1      33.143  33.106  27.692  1.00  0.00    -0.246 OA
BRANCH  32  34
ATOM     34  C   UNL A   1      34.875  31.482  27.876  1.00  0.00     0.060 A 
ATOM     35  C   UNL A   1      35.123  30.108  27.977  1.00  0.00     0.016 A 
ATOM     36  C   UNL A   1      35.900  32.410  28.079  1.00  0.00     0.016 A 
ATOM     37  C   UNL A   1      36.382  29.659  28.363  1.00  0.00     0.010 A 
ATOM     38  C   UNL A   1      37.160  31.959  28.481  1.00  0.00     0.010 A 
ATOM     39  C   UNL A   1      37.383  30.585  28.684  1.00  0.00    -0.014 A 
BRANCH  39  40
ATOM     40  C   UNL A   1      38.543  30.116  29.479  1.00  0.00     0.031 A 
ATOM     41  C   UNL A   1      38.659  30.578  30.907  1.00  0.00     0.074 A 
ATOM     42  C   UNL A   1      39.428  29.239  28.977  1.00  0.00     0.049 A 
ATOM     43  N   UNL A   1      39.543  30.261  31.817  1.00  0.00    -0.248 NA
ATOM     44  C   UNL A   1      37.635  31.529  31.369  1.00  0.00     0.031 C 
ATOM     45  C   UNL A   1      39.405  28.697  27.621  1.00  0.00     0.029 A 
ATOM     46  N   UNL A   1      40.518  28.650  29.563  1.00  0.00    -0.354 N 
ATOM     47  C   UNL A   1      39.186  30.979  32.953  1.00  0.00     0.074 A 
ATOM     48  C   UNL A   1      38.031  31.777  32.606  1.00  0.00     0.031 C 
ATOM     49  C   UNL A   1      40.444  27.857  27.475  1.00  0.00     0.029 A 
ATOM     50  C   UNL A   1      41.212  27.821  28.718  1.00  0.00     0.049 A 
ATOM     51  H   UNL A   1      40.779  28.807  30.499  1.00  0.00     0.167 HD
ATOM     52  C   UNL A   1      39.760  30.966  34.180  1.00  0.00     0.037 A 
ATOM     53  C   UNL A   1      42.346  27.124  28.926  1.00  0.00     0.037 A 
ATOM     54  C   UNL A   1      40.910  30.172  34.521  1.00  0.00     0.049 A 
ATOM     55  C   UNL A   1      42.995  27.152  30.285  1.00  0.00     0.074 A 
ATOM     56  C   UNL A   1      41.553  30.063  35.742  1.00  0.00     0.029 A 
ATOM     57  N   UNL A   1      41.599  29.361  33.632  1.00  0.00    -0.354 N 
ATOM     58  N   UNL A   1      42.627  27.798  31.366  1.00  0.00    -0.248 NA
ATOM     59  C   UNL A   1      44.205  26.338  30.457  1.00  0.00     0.031 C 
ATOM     60  C   UNL A   1      42.668  29.235  35.574  1.00  0.00     0.029 A 
ATOM     61  C   UNL A   1      42.681  28.773  34.267  1.00  0.00     0.049 A 
ATOM     62  H   UNL A   1      41.356  29.224  32.687  1.00  0.00     0.167 HD
ATOM     63  C   UNL A   1      43.544  27.452  32.351  1.00  0.00     0.074 A 
ATOM     64  C   UNL A   1      44.476  26.525  31.741  1.00  0.00     0.031 C 
ATOM     65  C   UNL A   1      43.606  27.857  33.645  1.00  0.00     0.037 A 
BRANCH  52  66
ATOM     66  C   UNL A   1      39.173  31.881  35.219  1.00  0.00     0.057 A 
ATOM     67  C   UNL A   1      39.478  33.249  35.272  1.00  0.00     0.134 A 
ATOM     68  C   UNL A   1      38.304  31.378  36.195  1.00  0.00     0.134 A 
ATOM     69  F   UNL A   1      40.317  33.794  34.378  1.00  0.00    -0.206 F 
ATOM     70  C   UNL A   1      38.976  34.071  36.284  1.00  0.00     0.040 A 
ATOM     71  C   UNL A   1      37.770  32.196  37.191  1.00  0.00     0.040 A 
ATOM     72  F   UNL A   1      37.966  30.079  36.203  1.00  0.00    -0.206 F 
ATOM     73  C   UNL A   1      38.116  33.545  37.244  1.00  0.00     0.006 A 
ENDBRANCH  52  66
BRANCH  53  74
ATOM     74  C   UNL A   1      42.937  26.346  27.809  1.00  0.00     0.057 A 
ATOM     75  C   UNL A   1      42.654  24.988  27.629  1.00  0.00     0.134 A 
ATOM     76  C   UNL A   1      43.791  26.956  26.880  1.00  0.00     0.134 A 
ATOM     77  F   UNL A   1      41.863  24.342  28.497  1.00  0.00    -0.206 F 
ATOM     78  C   UNL A   1      43.201  24.262  26.570  1.00  0.00     0.040 A 
ATOM     79  C   UNL A   1      44.324  26.249  25.802  1.00  0.00     0.040 A 
ATOM     80  F   UNL A   1      44.100  28.256  26.996  1.00  0.00    -0.206 F 
ATOM     81  C   UNL A   1      44.033  24.896  25.647  1.00  0.00     0.006 A 
ENDBRANCH  53  74
BRANCH  65  82
ATOM     82  C   UNL A   1      44.698  27.275  34.498  1.00  0.00     0.057 A 
ATOM     83  C   UNL A   1      44.517  26.105  35.247  1.00  0.00     0.134 A 
ATOM     84  C   UNL A   1      45.962  27.881  34.546  1.00  0.00     0.134 A 
ATOM     85  F   UNL A   1      43.331  25.478  35.254  1.00  0.00    -0.206 F 
ATOM     86  C   UNL A   1      45.540  25.580  36.041  1.00  0.00     0.040 A 
ATOM     87  C   UNL A   1      47.001  27.347  35.309  1.00  0.00     0.040 A 
ATOM     88  F   UNL A   1      46.210  28.995  33.842  1.00  0.00    -0.206 F 
ATOM     89  C   UNL A   1      46.788  26.198  36.068  1.00  0.00     0.006 A 
ENDBRANCH  65  82
ENDBRANCH  39  40
ENDBRANCH  32  34
ENDBRANCH  31  32
ENDBRANCH  30  31
ENDBRANCH  29  30
ENDBRANCH  28  29
ENDBRANCH  27  28
ENDBRANCH  26  27
ENDBRANCH   1  26
TORSDOF 22
ENDMDL
