MODEL 1
REMARK VINA RESULT:      -9.0      0.000      0.000
REMARK SMILES C[C@H](C(=O)OCCOCCOCCOCCOC(=O)c1ccc(-c2c3nc(c(-c4c(F)cccc4F)c4ccc([nH]4)c(-c4c(F)cccc4F)c4nc(c(-c5c(F)cccc5F)c5ccc2[nH]5)C=C4)C=C3)cc1)[C@@H](C)[N@@H+](C)CCC[NH+](C)C
REMARK SMILES IDX 9 1 8 2 7 3 6 4 5 5 3 6 4 7 2 8 1 9 74 10 75 11 76 12 77 13
REMARK SMILES IDX 78 15 79 16 80 17 81 18 82 19 83 20 10 22 11 23 12 24 13 25
REMARK SMILES IDX 14 26 15 27 16 28 17 29 18 30 19 31 20 32 21 33 73 34 22 35
REMARK SMILES IDX 72 36 23 37 24 38 25 39 66 40 26 41 71 42 65 43 67 44 27 45
REMARK SMILES IDX 70 46 64 47 63 48 28 50 54 51 37 52 53 53 38 54 41 55 52 56
REMARK SMILES IDX 68 57 39 58 40 59 51 61 69 62 42 63 29 64 30 65 35 66 31 67
REMARK SMILES IDX 32 68 34 69 36 70 33 71 55 72 56 73 61 74 57 75 58 76 60 77
REMARK SMILES IDX 62 78 59 79 43 80 44 81 49 82 45 83 46 84 48 85 50 86 47 87
REMARK H PARENT 76 14 81 21 67 49 41 60
REMARK Flexibility Score: inf
ROOT
ATOM      1  C   UNL A   1      33.448  30.208  27.432  1.00  0.00     0.188 C 
ENDROOT
BRANCH   1   2
ATOM      2  O   UNL A   1      32.317  30.392  26.609  1.00  0.00    -0.376 OA
BRANCH   2   3
ATOM      3  C   UNL A   1      32.314  29.940  25.266  1.00  0.00     0.202 C 
BRANCH   3   4
ATOM      4  C   UNL A   1      31.225  29.064  24.618  1.00  0.00     0.261 C 
BRANCH   4   5
ATOM      5  O   UNL A   1      31.404  27.642  24.678  1.00  0.00    -0.463 OA
BRANCH   5   6
ATOM      6  C   UNL A   1      31.419  26.976  23.506  1.00  0.00     0.314 C 
ATOM      7  O   UNL A   1      30.648  27.230  22.582  1.00  0.00    -0.252 OA
BRANCH   6   8
ATOM      8  C   UNL A   1      32.513  25.916  23.346  1.00  0.00     0.154 C 
ATOM      9  C   UNL A   1      33.369  26.285  22.105  1.00  0.00     0.026 C 
BRANCH   8  10
ATOM     10  C   UNL A   1      33.397  25.343  24.518  1.00  0.00     0.194 C 
ATOM     11  C   UNL A   1      33.818  26.188  25.726  1.00  0.00     0.076 C 
BRANCH  10  12
ATOM     12  N   UNL A   1      32.979  23.974  24.908  1.00  0.00    -0.334 N 
ATOM     13  C   UNL A   1      31.543  23.732  24.777  1.00  0.00     0.332 C 
ATOM     14  H   UNL A   1      33.199  24.014  25.903  1.00  0.00     0.348 HD
BRANCH  12  15
ATOM     15  C   UNL A   1      33.810  22.822  24.520  1.00  0.00     0.268 C 
BRANCH  15  16
ATOM     16  C   UNL A   1      33.329  21.353  24.582  1.00  0.00     0.123 C 
BRANCH  16  17
ATOM     17  C   UNL A   1      34.305  20.165  24.721  1.00  0.00     0.267 C 
BRANCH  17  18
ATOM     18  N   UNL A   1      33.863  18.766  24.858  1.00  0.00    -0.340 N 
ATOM     19  C   UNL A   1      32.593  18.580  24.142  1.00  0.00     0.332 C 
ATOM     20  C   UNL A   1      34.817  17.750  24.461  1.00  0.00     0.332 C 
ATOM     21  H   UNL A   1      33.754  18.623  25.862  1.00  0.00     0.347 HD
ENDBRANCH  17  18
ENDBRANCH  16  17
ENDBRANCH  15  16
ENDBRANCH  12  15
ENDBRANCH  10  12
ENDBRANCH   8  10
ENDBRANCH   6   8
ENDBRANCH   5   6
ENDBRANCH   4   5
ENDBRANCH   3   4
ENDBRANCH   2   3
ENDBRANCH   1   2
BRANCH   1  22
ATOM     22  C   UNL A   1      34.426  31.385  27.533  1.00  0.00     0.188 C 
BRANCH  22  23
ATOM     23  O   UNL A   1      34.269  32.294  28.601  1.00  0.00    -0.377 OA
BRANCH  23  24
ATOM     24  C   UNL A   1      34.353  33.689  28.380  1.00  0.00     0.188 C 
BRANCH  24  25
ATOM     25  C   UNL A   1      33.230  34.629  28.847  1.00  0.00     0.188 C 
BRANCH  25  26
ATOM     26  O   UNL A   1      33.109  34.783  30.249  1.00  0.00    -0.376 OA
BRANCH  26  27
ATOM     27  C   UNL A   1      34.272  34.659  31.055  1.00  0.00     0.202 C 
BRANCH  27  28
ATOM     28  C   UNL A   1      34.228  33.710  32.265  1.00  0.00     0.261 C 
BRANCH  28  29
ATOM     29  O   UNL A   1      34.917  32.458  32.123  1.00  0.00    -0.460 OA
BRANCH  29  30
ATOM     30  C   UNL A   1      36.000  32.247  32.902  1.00  0.00     0.338 C 
ATOM     31  O   UNL A   1      36.135  32.513  34.076  1.00  0.00    -0.246 OA
BRANCH  30  32
ATOM     32  C   UNL A   1      36.967  31.464  32.107  1.00  0.00     0.060 A 
ATOM     33  C   UNL A   1      37.806  30.554  32.764  1.00  0.00     0.016 A 
ATOM     34  C   UNL A   1      37.049  31.643  30.726  1.00  0.00     0.016 A 
ATOM     35  C   UNL A   1      38.764  29.846  32.041  1.00  0.00     0.010 A 
ATOM     36  C   UNL A   1      38.026  30.952  30.007  1.00  0.00     0.010 A 
ATOM     37  C   UNL A   1      38.912  30.082  30.668  1.00  0.00    -0.014 A 
BRANCH  37  38
ATOM     38  C   UNL A   1      40.125  29.595  29.972  1.00  0.00     0.031 A 
ATOM     39  C   UNL A   1      41.265  30.556  29.783  1.00  0.00     0.074 A 
ATOM     40  C   UNL A   1      40.224  28.326  29.540  1.00  0.00     0.049 A 
ATOM     41  N   UNL A   1      42.404  30.386  29.163  1.00  0.00    -0.248 NA
ATOM     42  C   UNL A   1      41.095  31.894  30.376  1.00  0.00     0.031 C 
ATOM     43  C   UNL A   1      39.210  27.290  29.712  1.00  0.00     0.029 A 
ATOM     44  N   UNL A   1      41.236  27.700  28.857  1.00  0.00    -0.354 N 
ATOM     45  C   UNL A   1      43.078  31.595  29.279  1.00  0.00     0.074 A 
ATOM     46  C   UNL A   1      42.212  32.499  30.004  1.00  0.00     0.031 C 
ATOM     47  C   UNL A   1      39.646  26.155  29.138  1.00  0.00     0.029 A 
ATOM     48  C   UNL A   1      40.952  26.398  28.526  1.00  0.00     0.049 A 
ATOM     49  H   UNL A   1      42.085  28.142  28.626  1.00  0.00     0.167 HD
ATOM     50  C   UNL A   1      44.311  31.922  28.826  1.00  0.00     0.037 A 
ATOM     51  C   UNL A   1      41.658  25.516  27.792  1.00  0.00     0.037 A 
ATOM     52  C   UNL A   1      45.167  31.020  28.103  1.00  0.00     0.049 A 
ATOM     53  C   UNL A   1      42.992  25.931  27.224  1.00  0.00     0.074 A 
ATOM     54  C   UNL A   1      46.442  31.245  27.617  1.00  0.00     0.029 A 
ATOM     55  N   UNL A   1      44.827  29.721  27.753  1.00  0.00    -0.354 N 
ATOM     56  N   UNL A   1      43.634  27.068  27.358  1.00  0.00    -0.248 NA
ATOM     57  C   UNL A   1      43.700  24.939  26.402  1.00  0.00     0.031 C 
ATOM     58  C   UNL A   1      46.849  30.105  26.917  1.00  0.00     0.029 A 
ATOM     59  C   UNL A   1      45.856  29.145  27.027  1.00  0.00     0.049 A 
ATOM     60  H   UNL A   1      43.981  29.276  27.986  1.00  0.00     0.167 HD
ATOM     61  C   UNL A   1      44.833  26.913  26.670  1.00  0.00     0.074 A 
ATOM     62  C   UNL A   1      44.833  25.570  26.130  1.00  0.00     0.031 C 
ATOM     63  C   UNL A   1      45.845  27.801  26.505  1.00  0.00     0.037 A 
BRANCH  50  64
ATOM     64  C   UNL A   1      44.788  33.325  29.065  1.00  0.00     0.057 A 
ATOM     65  C   UNL A   1      44.550  34.361  28.154  1.00  0.00     0.134 A 
ATOM     66  C   UNL A   1      45.478  33.647  30.241  1.00  0.00     0.134 A 
ATOM     67  F   UNL A   1      43.911  34.118  26.999  1.00  0.00    -0.206 F 
ATOM     68  C   UNL A   1      45.003  35.660  28.390  1.00  0.00     0.040 A 
ATOM     69  C   UNL A   1      45.908  34.948  30.504  1.00  0.00     0.040 A 
ATOM     70  F   UNL A   1      45.739  32.703  31.159  1.00  0.00    -0.206 F 
ATOM     71  C   UNL A   1      45.676  35.958  29.573  1.00  0.00     0.006 A 
ENDBRANCH  50  64
BRANCH  51  72
ATOM     72  C   UNL A   1      41.119  24.156  27.533  1.00  0.00     0.057 A 
ATOM     73  C   UNL A   1      40.093  23.946  26.605  1.00  0.00     0.134 A 
ATOM     74  C   UNL A   1      41.595  23.038  28.229  1.00  0.00     0.134 A 
ATOM     75  F   UNL A   1      39.577  24.980  25.923  1.00  0.00    -0.206 F 
ATOM     76  C   UNL A   1      39.543  22.680  26.395  1.00  0.00     0.040 A 
ATOM     77  C   UNL A   1      41.075  21.761  28.007  1.00  0.00     0.040 A 
ATOM     78  F   UNL A   1      42.577  23.169  29.133  1.00  0.00    -0.206 F 
ATOM     79  C   UNL A   1      40.038  21.582  27.094  1.00  0.00     0.006 A 
ENDBRANCH  51  72
BRANCH  63  80
ATOM     80  C   UNL A   1      47.059  27.336  25.750  1.00  0.00     0.057 A 
ATOM     81  C   UNL A   1      47.252  27.631  24.394  1.00  0.00     0.134 A 
ATOM     82  C   UNL A   1      48.071  26.622  26.405  1.00  0.00     0.134 A 
ATOM     83  F   UNL A   1      46.318  28.302  23.703  1.00  0.00    -0.206 F 
ATOM     84  C   UNL A   1      48.395  27.209  23.711  1.00  0.00     0.040 A 
ATOM     85  C   UNL A   1      49.232  26.223  25.742  1.00  0.00     0.040 A 
ATOM     86  F   UNL A   1      47.957  26.317  27.706  1.00  0.00    -0.206 F 
ATOM     87  C   UNL A   1      49.393  26.510  24.388  1.00  0.00     0.006 A 
ENDBRANCH  63  80
ENDBRANCH  37  38
ENDBRANCH  30  32
ENDBRANCH  29  30
ENDBRANCH  28  29
ENDBRANCH  27  28
ENDBRANCH  26  27
ENDBRANCH  25  26
ENDBRANCH  24  25
ENDBRANCH  23  24
ENDBRANCH  22  23
ENDBRANCH   1  22
TORSDOF 26
ENDMDL
MODEL 2
REMARK VINA RESULT:      -8.8      5.285     10.187
REMARK SMILES C[C@H](C(=O)OCCOCCOCCOCCOC(=O)c1ccc(-c2c3nc(c(-c4c(F)cccc4F)c4ccc([nH]4)c(-c4c(F)cccc4F)c4nc(c(-c5c(F)cccc5F)c5ccc2[nH]5)C=C4)C=C3)cc1)[C@@H](C)[N@@H+](C)CCC[NH+](C)C
REMARK SMILES IDX 9 1 8 2 7 3 6 4 5 5 3 6 4 7 2 8 1 9 74 10 75 11 76 12 77 13
REMARK SMILES IDX 78 15 79 16 80 17 81 18 82 19 83 20 10 22 11 23 12 24 13 25
REMARK SMILES IDX 14 26 15 27 16 28 17 29 18 30 19 31 20 32 21 33 73 34 22 35
REMARK SMILES IDX 72 36 23 37 24 38 25 39 66 40 26 41 71 42 65 43 67 44 27 45
REMARK SMILES IDX 70 46 64 47 63 48 28 50 54 51 37 52 53 53 38 54 41 55 52 56
REMARK SMILES IDX 68 57 39 58 40 59 51 61 69 62 42 63 29 64 30 65 35 66 31 67
REMARK SMILES IDX 32 68 34 69 36 70 33 71 55 72 56 73 61 74 57 75 58 76 60 77
REMARK SMILES IDX 62 78 59 79 43 80 44 81 49 82 45 83 46 84 48 85 50 86 47 87
REMARK H PARENT 76 14 81 21 67 49 41 60
REMARK Flexibility Score: inf
ROOT
ATOM      1  C   UNL A   1      39.650  21.626  26.291  1.00  0.00     0.188 C 
ENDROOT
BRANCH   1   2
ATOM      2  O   UNL A   1      39.527  23.024  26.147  1.00  0.00    -0.376 OA
BRANCH   2   3
ATOM      3  C   UNL A   1      38.335  23.692  26.524  1.00  0.00     0.202 C 
BRANCH   3   4
ATOM      4  C   UNL A   1      36.915  23.322  26.057  1.00  0.00     0.261 C 
BRANCH   4   5
ATOM      5  O   UNL A   1      36.792  22.645  24.799  1.00  0.00    -0.463 OA
BRANCH   5   6
ATOM      6  C   UNL A   1      35.646  21.973  24.572  1.00  0.00     0.314 C 
ATOM      7  O   UNL A   1      35.574  20.745  24.597  1.00  0.00    -0.252 OA
BRANCH   6   8
ATOM      8  C   UNL A   1      34.393  22.827  24.355  1.00  0.00     0.154 C 
ATOM      9  C   UNL A   1      34.777  24.036  23.462  1.00  0.00     0.026 C 
BRANCH   8  10
ATOM     10  C   UNL A   1      32.964  22.265  23.997  1.00  0.00     0.194 C 
ATOM     11  C   UNL A   1      32.643  21.627  22.640  1.00  0.00     0.076 C 
BRANCH  10  12
ATOM     12  N   UNL A   1      32.367  21.513  25.127  1.00  0.00    -0.334 N 
ATOM     13  C   UNL A   1      31.315  22.241  25.835  1.00  0.00     0.332 C 
ATOM     14  H   UNL A   1      33.181  21.467  25.741  1.00  0.00     0.348 HD
BRANCH  12  15
ATOM     15  C   UNL A   1      32.092  20.074  24.978  1.00  0.00     0.268 C 
BRANCH  15  16
ATOM     16  C   UNL A   1      32.941  18.962  25.638  1.00  0.00     0.123 C 
BRANCH  16  17
ATOM     17  C   UNL A   1      33.361  17.681  24.887  1.00  0.00     0.267 C 
BRANCH  17  18
ATOM     18  N   UNL A   1      33.781  16.443  25.567  1.00  0.00    -0.340 N 
ATOM     19  C   UNL A   1      32.760  15.404  25.370  1.00  0.00     0.332 C 
ATOM     20  C   UNL A   1      35.092  15.932  25.219  1.00  0.00     0.332 C 
ATOM     21  H   UNL A   1      33.870  16.701  26.551  1.00  0.00     0.347 HD
ENDBRANCH  17  18
ENDBRANCH  16  17
ENDBRANCH  15  16
ENDBRANCH  12  15
ENDBRANCH  10  12
ENDBRANCH   8  10
ENDBRANCH   6   8
ENDBRANCH   5   6
ENDBRANCH   4   5
ENDBRANCH   3   4
ENDBRANCH   2   3
ENDBRANCH   1   2
BRANCH   1  22
ATOM     22  C   UNL A   1      41.075  21.059  26.327  1.00  0.00     0.188 C 
BRANCH  22  23
ATOM     23  O   UNL A   1      41.319  19.827  25.682  1.00  0.00    -0.377 OA
BRANCH  23  24
ATOM     24  C   UNL A   1      42.375  18.987  26.107  1.00  0.00     0.188 C 
BRANCH  24  25
ATOM     25  C   UNL A   1      43.821  19.251  25.657  1.00  0.00     0.188 C 
BRANCH  25  26
ATOM     26  O   UNL A   1      43.960  19.976  24.449  1.00  0.00    -0.376 OA
BRANCH  26  27
ATOM     27  C   UNL A   1      44.619  21.234  24.477  1.00  0.00     0.202 C 
BRANCH  27  28
ATOM     28  C   UNL A   1      43.763  22.507  24.589  1.00  0.00     0.261 C 
BRANCH  28  29
ATOM     29  O   UNL A   1      44.448  23.707  24.983  1.00  0.00    -0.460 OA
BRANCH  29  30
ATOM     30  C   UNL A   1      44.967  23.752  26.229  1.00  0.00     0.338 C 
ATOM     31  O   UNL A   1      45.981  23.225  26.632  1.00  0.00    -0.246 OA
BRANCH  30  32
ATOM     32  C   UNL A   1      44.160  24.713  27.006  1.00  0.00     0.060 A 
ATOM     33  C   UNL A   1      44.498  26.073  26.964  1.00  0.00     0.016 A 
ATOM     34  C   UNL A   1      43.089  24.268  27.781  1.00  0.00     0.016 A 
ATOM     35  C   UNL A   1      43.785  26.990  27.734  1.00  0.00     0.010 A 
ATOM     36  C   UNL A   1      42.392  25.183  28.572  1.00  0.00     0.010 A 
ATOM     37  C   UNL A   1      42.763  26.540  28.580  1.00  0.00    -0.014 A 
BRANCH  37  38
ATOM     38  C   UNL A   1      42.239  27.442  29.631  1.00  0.00     0.031 A 
ATOM     39  C   UNL A   1      42.923  27.442  30.969  1.00  0.00     0.074 A 
ATOM     40  C   UNL A   1      41.198  28.260  29.398  1.00  0.00     0.049 A 
ATOM     41  N   UNL A   1      42.621  28.097  32.059  1.00  0.00    -0.248 NA
ATOM     42  C   UNL A   1      44.113  26.581  31.092  1.00  0.00     0.031 C 
ATOM     43  C   UNL A   1      40.488  28.389  28.128  1.00  0.00     0.029 A 
ATOM     44  N   UNL A   1      40.554  29.134  30.237  1.00  0.00    -0.354 N 
ATOM     45  C   UNL A   1      43.572  27.719  33.000  1.00  0.00     0.074 A 
ATOM     46  C   UNL A   1      44.443  26.757  32.362  1.00  0.00     0.031 C 
ATOM     47  C   UNL A   1      39.495  29.283  28.274  1.00  0.00     0.029 A 
ATOM     48  C   UNL A   1      39.479  29.761  29.657  1.00  0.00     0.049 A 
ATOM     49  H   UNL A   1      40.836  29.297  31.166  1.00  0.00     0.167 HD
ATOM     50  C   UNL A   1      43.709  28.140  34.279  1.00  0.00     0.037 A 
ATOM     51  C   UNL A   1      38.572  30.601  30.193  1.00  0.00     0.037 A 
ATOM     52  C   UNL A   1      42.837  29.095  34.908  1.00  0.00     0.049 A 
ATOM     53  C   UNL A   1      38.695  30.989  31.644  1.00  0.00     0.074 A 
ATOM     54  C   UNL A   1      42.900  29.603  36.193  1.00  0.00     0.029 A 
ATOM     55  N   UNL A   1      41.734  29.678  34.300  1.00  0.00    -0.354 N 
ATOM     56  N   UNL A   1      39.610  30.647  32.521  1.00  0.00    -0.248 NA
ATOM     57  C   UNL A   1      37.658  31.882  32.182  1.00  0.00     0.031 C 
ATOM     58  C   UNL A   1      41.799  30.444  36.384  1.00  0.00     0.029 A 
ATOM     59  C   UNL A   1      41.089  30.514  35.195  1.00  0.00     0.049 A 
ATOM     60  H   UNL A   1      41.453  29.519  33.370  1.00  0.00     0.167 HD
ATOM     61  C   UNL A   1      39.279  31.310  33.698  1.00  0.00     0.074 A 
ATOM     62  C   UNL A   1      38.086  32.082  33.420  1.00  0.00     0.031 C 
ATOM     63  C   UNL A   1      39.908  31.285  34.899  1.00  0.00     0.037 A 
BRANCH  50  64
ATOM     64  C   UNL A   1      44.818  27.538  35.091  1.00  0.00     0.057 A 
ATOM     65  C   UNL A   1      46.126  28.038  35.056  1.00  0.00     0.134 A 
ATOM     66  C   UNL A   1      44.566  26.452  35.939  1.00  0.00     0.134 A 
ATOM     67  F   UNL A   1      46.440  29.066  34.252  1.00  0.00    -0.206 F 
ATOM     68  C   UNL A   1      47.147  27.466  35.816  1.00  0.00     0.040 A 
ATOM     69  C   UNL A   1      45.572  25.891  36.728  1.00  0.00     0.040 A 
ATOM     70  F   UNL A   1      43.336  25.923  36.023  1.00  0.00    -0.206 F 
ATOM     71  C   UNL A   1      46.869  26.394  36.662  1.00  0.00     0.006 A 
ENDBRANCH  50  64
BRANCH  51  72
ATOM     72  C   UNL A   1      37.457  31.128  29.364  1.00  0.00     0.057 A 
ATOM     73  C   UNL A   1      36.362  30.324  29.025  1.00  0.00     0.134 A 
ATOM     74  C   UNL A   1      37.474  32.436  28.864  1.00  0.00     0.134 A 
ATOM     75  F   UNL A   1      36.299  29.055  29.453  1.00  0.00    -0.206 F 
ATOM     76  C   UNL A   1      35.336  30.793  28.202  1.00  0.00     0.040 A 
ATOM     77  C   UNL A   1      36.440  32.927  28.064  1.00  0.00     0.040 A 
ATOM     78  F   UNL A   1      38.493  33.258  29.149  1.00  0.00    -0.206 F 
ATOM     79  C   UNL A   1      35.371  32.101  27.723  1.00  0.00     0.006 A 
ENDBRANCH  51  72
BRANCH  63  80
ATOM     80  C   UNL A   1      39.350  32.153  35.992  1.00  0.00     0.057 A 
ATOM     81  C   UNL A   1      39.756  33.482  36.169  1.00  0.00     0.134 A 
ATOM     82  C   UNL A   1      38.356  31.663  36.850  1.00  0.00     0.134 A 
ATOM     83  F   UNL A   1      40.711  34.012  35.390  1.00  0.00    -0.206 F 
ATOM     84  C   UNL A   1      39.214  34.283  37.177  1.00  0.00     0.040 A 
ATOM     85  C   UNL A   1      37.784  32.463  37.840  1.00  0.00     0.040 A 
ATOM     86  F   UNL A   1      37.911  30.404  36.728  1.00  0.00    -0.206 F 
ATOM     87  C   UNL A   1      38.219  33.776  38.010  1.00  0.00     0.006 A 
ENDBRANCH  63  80
ENDBRANCH  37  38
ENDBRANCH  30  32
ENDBRANCH  29  30
ENDBRANCH  28  29
ENDBRANCH  27  28
ENDBRANCH  26  27
ENDBRANCH  25  26
ENDBRANCH  24  25
ENDBRANCH  23  24
ENDBRANCH  22  23
ENDBRANCH   1  22
TORSDOF 26
ENDMDL
MODEL 3
REMARK VINA RESULT:      -8.5      5.236     10.178
REMARK SMILES C[C@H](C(=O)OCCOCCOCCOCCOC(=O)c1ccc(-c2c3nc(c(-c4c(F)cccc4F)c4ccc([nH]4)c(-c4c(F)cccc4F)c4nc(c(-c5c(F)cccc5F)c5ccc2[nH]5)C=C4)C=C3)cc1)[C@@H](C)[N@@H+](C)CCC[NH+](C)C
REMARK SMILES IDX 9 1 8 2 7 3 6 4 5 5 3 6 4 7 2 8 1 9 74 10 75 11 76 12 77 13
REMARK SMILES IDX 78 15 79 16 80 17 81 18 82 19 83 20 10 22 11 23 12 24 13 25
REMARK SMILES IDX 14 26 15 27 16 28 17 29 18 30 19 31 20 32 21 33 73 34 22 35
REMARK SMILES IDX 72 36 23 37 24 38 25 39 66 40 26 41 71 42 65 43 67 44 27 45
REMARK SMILES IDX 70 46 64 47 63 48 28 50 54 51 37 52 53 53 38 54 41 55 52 56
REMARK SMILES IDX 68 57 39 58 40 59 51 61 69 62 42 63 29 64 30 65 35 66 31 67
REMARK SMILES IDX 32 68 34 69 36 70 33 71 55 72 56 73 61 74 57 75 58 76 60 77
REMARK SMILES IDX 62 78 59 79 43 80 44 81 49 82 45 83 46 84 48 85 50 86 47 87
REMARK H PARENT 76 14 81 21 67 49 41 60
REMARK Flexibility Score: inf
ROOT
ATOM      1  C   UNL A   1      39.964  22.065  26.883  1.00  0.00     0.188 C 
ENDROOT
BRANCH   1   2
ATOM      2  O   UNL A   1      39.715  23.388  27.307  1.00  0.00    -0.376 OA
BRANCH   2   3
ATOM      3  C   UNL A   1      38.428  23.966  27.168  1.00  0.00     0.202 C 
BRANCH   3   4
ATOM      4  C   UNL A   1      37.568  23.942  25.891  1.00  0.00     0.261 C 
BRANCH   4   5
ATOM      5  O   UNL A   1      36.641  22.857  25.744  1.00  0.00    -0.463 OA
BRANCH   5   6
ATOM      6  C   UNL A   1      35.397  23.166  25.326  1.00  0.00     0.314 C 
ATOM      7  O   UNL A   1      34.414  23.124  26.064  1.00  0.00    -0.252 OA
BRANCH   6   8
ATOM      8  C   UNL A   1      35.272  23.656  23.880  1.00  0.00     0.154 C 
ATOM      9  C   UNL A   1      36.438  23.049  23.058  1.00  0.00     0.026 C 
BRANCH   8  10
ATOM     10  C   UNL A   1      33.931  23.699  23.052  1.00  0.00     0.194 C 
ATOM     11  C   UNL A   1      32.961  22.513  22.988  1.00  0.00     0.076 C 
BRANCH  10  12
ATOM     12  N   UNL A   1      33.227  24.995  23.207  1.00  0.00    -0.334 N 
ATOM     13  C   UNL A   1      33.377  25.893  22.064  1.00  0.00     0.332 C 
ATOM     14  H   UNL A   1      33.767  25.382  23.981  1.00  0.00     0.348 HD
BRANCH  12  15
ATOM     15  C   UNL A   1      31.883  25.024  23.809  1.00  0.00     0.268 C 
BRANCH  15  16
ATOM     16  C   UNL A   1      31.610  25.389  25.287  1.00  0.00     0.123 C 
BRANCH  16  17
ATOM     17  C   UNL A   1      31.272  24.328  26.356  1.00  0.00     0.267 C 
BRANCH  17  18
ATOM     18  N   UNL A   1      30.339  23.211  26.125  1.00  0.00    -0.340 N 
ATOM     19  C   UNL A   1      31.100  21.990  25.824  1.00  0.00     0.332 C 
ATOM     20  C   UNL A   1      29.371  22.956  27.173  1.00  0.00     0.332 C 
ATOM     21  H   UNL A   1      29.770  23.505  25.330  1.00  0.00     0.347 HD
ENDBRANCH  17  18
ENDBRANCH  16  17
ENDBRANCH  15  16
ENDBRANCH  12  15
ENDBRANCH  10  12
ENDBRANCH   8  10
ENDBRANCH   6   8
ENDBRANCH   5   6
ENDBRANCH   4   5
ENDBRANCH   3   4
ENDBRANCH   2   3
ENDBRANCH   1   2
BRANCH   1  22
ATOM     22  C   UNL A   1      41.425  21.695  26.604  1.00  0.00     0.188 C 
BRANCH  22  23
ATOM     23  O   UNL A   1      41.689  20.727  25.610  1.00  0.00    -0.377 OA
BRANCH  23  24
ATOM     24  C   UNL A   1      42.620  19.687  25.844  1.00  0.00     0.188 C 
BRANCH  24  25
ATOM     25  C   UNL A   1      44.061  19.789  25.320  1.00  0.00     0.188 C 
BRANCH  25  26
ATOM     26  O   UNL A   1      44.222  20.518  24.116  1.00  0.00    -0.376 OA
BRANCH  26  27
ATOM     27  C   UNL A   1      44.949  21.737  24.146  1.00  0.00     0.202 C 
BRANCH  27  28
ATOM     28  C   UNL A   1      44.186  23.039  24.448  1.00  0.00     0.261 C 
BRANCH  28  29
ATOM     29  O   UNL A   1      44.959  24.130  24.970  1.00  0.00    -0.460 OA
BRANCH  29  30
ATOM     30  C   UNL A   1      45.352  24.059  26.261  1.00  0.00     0.338 C 
ATOM     31  O   UNL A   1      46.306  23.467  26.716  1.00  0.00    -0.246 OA
BRANCH  30  32
ATOM     32  C   UNL A   1      44.497  24.983  27.031  1.00  0.00     0.060 A 
ATOM     33  C   UNL A   1      44.772  26.357  26.988  1.00  0.00     0.016 A 
ATOM     34  C   UNL A   1      43.443  24.491  27.799  1.00  0.00     0.016 A 
ATOM     35  C   UNL A   1      44.014  27.242  27.751  1.00  0.00     0.010 A 
ATOM     36  C   UNL A   1      42.700  25.375  28.584  1.00  0.00     0.010 A 
ATOM     37  C   UNL A   1      43.008  26.747  28.592  1.00  0.00    -0.014 A 
BRANCH  37  38
ATOM     38  C   UNL A   1      42.437  27.626  29.637  1.00  0.00     0.031 A 
ATOM     39  C   UNL A   1      43.125  27.677  30.972  1.00  0.00     0.074 A 
ATOM     40  C   UNL A   1      41.348  28.379  29.403  1.00  0.00     0.049 A 
ATOM     41  N   UNL A   1      42.790  28.323  32.059  1.00  0.00    -0.248 NA
ATOM     42  C   UNL A   1      44.364  26.889  31.097  1.00  0.00     0.031 C 
ATOM     43  C   UNL A   1      40.627  28.455  28.136  1.00  0.00     0.029 A 
ATOM     44  N   UNL A   1      40.657  29.221  30.238  1.00  0.00    -0.354 N 
ATOM     45  C   UNL A   1      43.765  28.009  32.998  1.00  0.00     0.074 A 
ATOM     46  C   UNL A   1      44.689  27.095  32.364  1.00  0.00     0.031 C 
ATOM     47  C   UNL A   1      39.584  29.291  28.279  1.00  0.00     0.029 A 
ATOM     48  C   UNL A   1      39.545  29.779  29.657  1.00  0.00     0.049 A 
ATOM     49  H   UNL A   1      40.934  29.408  31.164  1.00  0.00     0.167 HD
ATOM     50  C   UNL A   1      43.883  28.448  34.273  1.00  0.00     0.037 A 
ATOM     51  C   UNL A   1      38.594  30.570  30.191  1.00  0.00     0.037 A 
ATOM     52  C   UNL A   1      42.960  29.357  34.898  1.00  0.00     0.049 A 
ATOM     53  C   UNL A   1      38.699  30.977  31.638  1.00  0.00     0.074 A 
ATOM     54  C   UNL A   1      42.998  29.879  36.179  1.00  0.00     0.029 A 
ATOM     55  N   UNL A   1      41.822  29.868  34.290  1.00  0.00    -0.354 N 
ATOM     56  N   UNL A   1      39.637  30.696  32.514  1.00  0.00    -0.248 NA
ATOM     57  C   UNL A   1      37.614  31.812  32.174  1.00  0.00     0.031 C 
ATOM     58  C   UNL A   1      41.851  30.655  36.367  1.00  0.00     0.029 A 
ATOM     59  C   UNL A   1      41.133  30.673  35.182  1.00  0.00     0.049 A 
ATOM     60  H   UNL A   1      41.546  29.686  33.364  1.00  0.00     0.167 HD
ATOM     61  C   UNL A   1      39.272  31.349  33.687  1.00  0.00     0.074 A 
ATOM     62  C   UNL A   1      38.036  32.047  33.408  1.00  0.00     0.031 C 
ATOM     63  C   UNL A   1      39.907  31.371  34.885  1.00  0.00     0.037 A 
BRANCH  50  64
ATOM     64  C   UNL A   1      45.029  27.920  35.084  1.00  0.00     0.057 A 
ATOM     65  C   UNL A   1      44.928  26.749  35.847  1.00  0.00     0.134 A 
ATOM     66  C   UNL A   1      46.263  28.583  35.084  1.00  0.00     0.134 A 
ATOM     67  F   UNL A   1      43.769  26.074  35.907  1.00  0.00    -0.206 F 
ATOM     68  C   UNL A   1      46.003  26.272  36.599  1.00  0.00     0.040 A 
ATOM     69  C   UNL A   1      47.354  28.099  35.806  1.00  0.00     0.040 A 
ATOM     70  F   UNL A   1      46.430  29.710  34.374  1.00  0.00    -0.206 F 
ATOM     71  C   UNL A   1      47.224  26.943  36.572  1.00  0.00     0.006 A 
ENDBRANCH  50  64
BRANCH  51  72
ATOM     72  C   UNL A   1      37.445  31.022  29.363  1.00  0.00     0.057 A 
ATOM     73  C   UNL A   1      36.361  30.178  29.102  1.00  0.00     0.134 A 
ATOM     74  C   UNL A   1      37.420  32.299  28.787  1.00  0.00     0.134 A 
ATOM     75  F   UNL A   1      36.338  28.934  29.604  1.00  0.00    -0.206 F 
ATOM     76  C   UNL A   1      35.304  30.575  28.280  1.00  0.00     0.040 A 
ATOM     77  C   UNL A   1      36.355  32.720  27.988  1.00  0.00     0.040 A 
ATOM     78  F   UNL A   1      38.427  33.158  28.997  1.00  0.00    -0.206 F 
ATOM     79  C   UNL A   1      35.297  31.853  27.725  1.00  0.00     0.006 A 
ENDBRANCH  51  72
BRANCH  63  80
ATOM     80  C   UNL A   1      39.304  32.215  35.973  1.00  0.00     0.057 A 
ATOM     81  C   UNL A   1      39.665  33.554  36.164  1.00  0.00     0.134 A 
ATOM     82  C   UNL A   1      38.312  31.687  36.812  1.00  0.00     0.134 A 
ATOM     83  F   UNL A   1      40.614  34.119  35.403  1.00  0.00    -0.206 F 
ATOM     84  C   UNL A   1      39.081  34.331  37.167  1.00  0.00     0.040 A 
ATOM     85  C   UNL A   1      37.698  32.463  37.796  1.00  0.00     0.040 A 
ATOM     86  F   UNL A   1      37.910  30.416  36.676  1.00  0.00    -0.206 F 
ATOM     87  C   UNL A   1      38.089  33.788  37.981  1.00  0.00     0.006 A 
ENDBRANCH  63  80
ENDBRANCH  37  38
ENDBRANCH  30  32
ENDBRANCH  29  30
ENDBRANCH  28  29
ENDBRANCH  27  28
ENDBRANCH  26  27
ENDBRANCH  25  26
ENDBRANCH  24  25
ENDBRANCH  23  24
ENDBRANCH  22  23
ENDBRANCH   1  22
TORSDOF 26
ENDMDL
