MODEL 1
REMARK VINA RESULT:     -10.0      0.000      0.000
REMARK SMILES COc1ccc(F)c(NC(=O)N2CCCC[C@@H]2C(=O)OCCOCCOCCOCCOC(=O)c2ccc(-c3c4nc(c(-c5c(F)cccc5F)c5ccc([nH]5)c(-c5c(F)cccc5F)c5nc(c(-c6c(F)cccc6F)c6ccc3[nH]6)C=C5)C=C4)cc2)c1
REMARK SMILES IDX 25 1 24 2 23 3 22 4 21 5 20 6 18 7 19 8 17 9 12 10 13 11
REMARK SMILES IDX 14 12 16 13 15 14 10 15 9 16 11 18 8 19 3 20 4 21 89 22 5 23
REMARK SMILES IDX 6 24 7 25 2 26 1 27 26 28 27 29 28 30 29 31 30 32 31 33
REMARK SMILES IDX 32 34 33 35 34 36 35 37 36 38 88 39 37 40 87 41 38 42 39 43
REMARK SMILES IDX 40 44 81 45 41 46 86 47 80 48 82 49 42 50 85 51 79 52 78 53
REMARK SMILES IDX 43 55 69 56 52 57 68 58 53 59 56 60 67 61 83 62 54 63 55 64
REMARK SMILES IDX 66 66 84 67 57 68 44 69 45 70 50 71 46 72 47 73 49 74 51 75
REMARK SMILES IDX 48 76 70 77 71 78 76 79 72 80 73 81 75 82 77 83 74 84 58 85
REMARK SMILES IDX 59 86 64 87 60 88 61 89 63 90 65 91 62 92
REMARK H PARENT 9 17 82 54 56 65
REMARK Flexibility Score: inf
ROOT
ATOM      1  C   UNL A   1      40.225  19.790  26.024  1.00  0.00     0.188 C 
ENDROOT
BRANCH   1   2
ATOM      2  C   UNL A   1      40.552  21.205  26.531  1.00  0.00     0.188 C 
BRANCH   2   3
ATOM      3  O   UNL A   1      39.584  22.187  26.201  1.00  0.00    -0.376 OA
BRANCH   3   4
ATOM      4  C   UNL A   1      38.315  21.779  25.719  1.00  0.00     0.202 C 
BRANCH   4   5
ATOM      5  C   UNL A   1      37.222  22.860  25.474  1.00  0.00     0.261 C 
BRANCH   5   6
ATOM      6  O   UNL A   1      35.847  22.421  25.423  1.00  0.00    -0.462 OA
BRANCH   6   7
ATOM      7  C   UNL A   1      34.993  23.462  25.497  1.00  0.00     0.329 C 
ATOM      8  O   UNL A   1      35.447  24.585  25.650  1.00  0.00    -0.250 OA
BRANCH   7   9
ATOM      9  C   UNL A   1      33.489  23.173  25.276  1.00  0.00     0.196 C 
ATOM     10  N   UNL A   1      32.971  23.512  23.916  1.00  0.00    -0.311 N 
ATOM     11  C   UNL A   1      31.536  23.433  23.675  1.00  0.00     0.122 C 
ATOM     12  C   UNL A   1      30.676  23.969  24.811  1.00  0.00     0.022 C 
ATOM     13  C   UNL A   1      32.577  23.743  26.383  1.00  0.00     0.037 C 
ATOM     14  C   UNL A   1      31.114  23.372  26.138  1.00  0.00     0.005 C 
BRANCH  10  15
ATOM     15  C   UNL A   1      33.739  24.037  22.907  1.00  0.00     0.322 C 
ATOM     16  N   UNL A   1      33.643  25.354  22.568  1.00  0.00    -0.305 N 
ATOM     17  H   UNL A   1      34.162  25.594  21.767  1.00  0.00     0.171 HD
ATOM     18  O   UNL A   1      34.524  23.318  22.284  1.00  0.00    -0.248 OA
BRANCH  16  19
ATOM     19  C   UNL A   1      32.945  26.445  23.142  1.00  0.00     0.082 A 
ATOM     20  C   UNL A   1      32.307  27.785  25.062  1.00  0.00     0.121 A 
ATOM     21  C   UNL A   1      31.088  28.096  24.454  1.00  0.00     0.049 A 
ATOM     22  C   UNL A   1      33.249  26.995  24.386  1.00  0.00     0.075 A 
ATOM     23  C   UNL A   1      30.821  27.640  23.162  1.00  0.00     0.045 A 
ATOM     24  C   UNL A   1      31.756  26.841  22.506  1.00  0.00     0.147 A 
ATOM     25  F   UNL A   1      31.423  26.309  21.318  1.00  0.00    -0.205 F 
BRANCH  20  26
ATOM     26  O   UNL A   1      32.682  28.173  26.320  1.00  0.00    -0.497 OA
ATOM     27  C   UNL A   1      31.711  27.998  27.347  1.00  0.00     0.278 C 
ENDBRANCH  20  26
ENDBRANCH  16  19
ENDBRANCH  10  15
ENDBRANCH   7   9
ENDBRANCH   6   7
ENDBRANCH   5   6
ENDBRANCH   4   5
ENDBRANCH   3   4
ENDBRANCH   2   3
ENDBRANCH   1   2
BRANCH   1  28
ATOM     28  O   UNL A   1      41.301  18.930  25.681  1.00  0.00    -0.377 OA
BRANCH  28  29
ATOM     29  C   UNL A   1      42.569  19.115  26.308  1.00  0.00     0.188 C 
BRANCH  29  30
ATOM     30  C   UNL A   1      43.868  19.053  25.473  1.00  0.00     0.188 C 
BRANCH  30  31
ATOM     31  O   UNL A   1      44.095  20.187  24.655  1.00  0.00    -0.376 OA
BRANCH  31  32
ATOM     32  C   UNL A   1      44.043  21.454  25.290  1.00  0.00     0.202 C 
BRANCH  32  33
ATOM     33  C   UNL A   1      43.402  22.616  24.510  1.00  0.00     0.261 C 
BRANCH  33  34
ATOM     34  O   UNL A   1      43.052  23.791  25.266  1.00  0.00    -0.460 OA
BRANCH  34  35
ATOM     35  C   UNL A   1      43.985  24.750  25.431  1.00  0.00     0.338 C 
ATOM     36  O   UNL A   1      44.816  25.118  24.614  1.00  0.00    -0.246 OA
BRANCH  35  37
ATOM     37  C   UNL A   1      43.700  25.458  26.700  1.00  0.00     0.060 A 
ATOM     38  C   UNL A   1      42.740  24.926  27.574  1.00  0.00     0.016 A 
ATOM     39  C   UNL A   1      44.382  26.631  27.031  1.00  0.00     0.016 A 
ATOM     40  C   UNL A   1      42.420  25.596  28.755  1.00  0.00     0.010 A 
ATOM     41  C   UNL A   1      44.036  27.319  28.199  1.00  0.00     0.010 A 
ATOM     42  C   UNL A   1      43.021  26.826  29.039  1.00  0.00    -0.014 A 
BRANCH  42  43
ATOM     43  C   UNL A   1      42.409  27.701  30.067  1.00  0.00     0.031 A 
ATOM     44  C   UNL A   1      43.060  27.762  31.422  1.00  0.00     0.074 A 
ATOM     45  C   UNL A   1      41.341  28.471  29.795  1.00  0.00     0.049 A 
ATOM     46  N   UNL A   1      42.711  28.441  32.483  1.00  0.00    -0.248 NA
ATOM     47  C   UNL A   1      44.272  26.944  31.603  1.00  0.00     0.031 C 
ATOM     48  C   UNL A   1      40.658  28.543  28.506  1.00  0.00     0.029 A 
ATOM     49  N   UNL A   1      40.648  29.343  30.597  1.00  0.00    -0.354 N 
ATOM     50  C   UNL A   1      43.652  28.126  33.456  1.00  0.00     0.074 A 
ATOM     51  C   UNL A   1      44.569  27.173  32.872  1.00  0.00     0.031 C 
ATOM     52  C   UNL A   1      39.634  29.409  28.606  1.00  0.00     0.029 A 
ATOM     53  C   UNL A   1      39.572  29.926  29.973  1.00  0.00     0.049 A 
ATOM     54  H   UNL A   1      40.898  29.533  31.529  1.00  0.00     0.167 HD
ATOM     55  C   UNL A   1      43.749  28.597  34.720  1.00  0.00     0.037 A 
ATOM     56  C   UNL A   1      38.635  30.765  30.458  1.00  0.00     0.037 A 
ATOM     57  C   UNL A   1      42.839  29.552  35.295  1.00  0.00     0.049 A 
ATOM     58  C   UNL A   1      38.721  31.224  31.890  1.00  0.00     0.074 A 
ATOM     59  C   UNL A   1      42.867  30.109  36.561  1.00  0.00     0.029 A 
ATOM     60  N   UNL A   1      41.734  30.081  34.646  1.00  0.00    -0.354 N 
ATOM     61  N   UNL A   1      39.622  30.936  32.799  1.00  0.00    -0.248 NA
ATOM     62  C   UNL A   1      37.663  32.129  32.366  1.00  0.00     0.031 C 
ATOM     63  C   UNL A   1      41.742  30.924  36.701  1.00  0.00     0.029 A 
ATOM     64  C   UNL A   1      41.052  30.934  35.499  1.00  0.00     0.049 A 
ATOM     65  H   UNL A   1      41.473  29.882  33.718  1.00  0.00     0.167 HD
ATOM     66  C   UNL A   1      39.254  31.636  33.942  1.00  0.00     0.074 A 
ATOM     67  C   UNL A   1      38.056  32.377  33.607  1.00  0.00     0.031 C 
ATOM     68  C   UNL A   1      39.857  31.664  35.157  1.00  0.00     0.037 A 
BRANCH  55  69
ATOM     69  C   UNL A   1      44.858  28.068  35.581  1.00  0.00     0.057 A 
ATOM     70  C   UNL A   1      46.093  28.728  35.631  1.00  0.00     0.134 A 
ATOM     71  C   UNL A   1      44.731  26.881  36.314  1.00  0.00     0.134 A 
ATOM     72  F   UNL A   1      46.283  29.869  34.953  1.00  0.00    -0.206 F 
ATOM     73  C   UNL A   1      47.166  28.217  36.362  1.00  0.00     0.040 A 
ATOM     74  C   UNL A   1      45.788  26.376  37.074  1.00  0.00     0.040 A 
ATOM     75  F   UNL A   1      43.570  26.209  36.326  1.00  0.00    -0.206 F 
ATOM     76  C   UNL A   1      47.014  27.038  37.089  1.00  0.00     0.006 A 
ENDBRANCH  55  69
BRANCH  56  77
ATOM     77  C   UNL A   1      37.533  31.220  29.571  1.00  0.00     0.057 A 
ATOM     78  C   UNL A   1      36.432  30.397  29.302  1.00  0.00     0.134 A 
ATOM     79  C   UNL A   1      37.567  32.473  28.950  1.00  0.00     0.134 A 
ATOM     80  F   UNL A   1      36.338  29.185  29.868  1.00  0.00    -0.206 F 
ATOM     81  C   UNL A   1      35.421  30.790  28.423  1.00  0.00     0.040 A 
ATOM     82  C   UNL A   1      36.548  32.890  28.090  1.00  0.00     0.040 A 
ATOM     83  F   UNL A   1      38.581  33.318  29.189  1.00  0.00    -0.206 F 
ATOM     84  C   UNL A   1      35.477  32.042  27.815  1.00  0.00     0.006 A 
ENDBRANCH  56  77
BRANCH  68  85
ATOM     85  C   UNL A   1      39.251  32.535  36.221  1.00  0.00     0.057 A 
ATOM     86  C   UNL A   1      39.688  33.855  36.397  1.00  0.00     0.134 A 
ATOM     87  C   UNL A   1      38.296  32.047  37.122  1.00  0.00     0.134 A 
ATOM     88  F   UNL A   1      40.613  34.382  35.580  1.00  0.00    -0.206 F 
ATOM     89  C   UNL A   1      39.210  34.652  37.439  1.00  0.00     0.040 A 
ATOM     90  C   UNL A   1      37.787  32.846  38.148  1.00  0.00     0.040 A 
ATOM     91  F   UNL A   1      37.829  30.795  37.007  1.00  0.00    -0.206 F 
ATOM     92  C   UNL A   1      38.252  34.148  38.315  1.00  0.00     0.006 A 
ENDBRANCH  68  85
ENDBRANCH  42  43
ENDBRANCH  35  37
ENDBRANCH  34  35
ENDBRANCH  33  34
ENDBRANCH  32  33
ENDBRANCH  31  32
ENDBRANCH  30  31
ENDBRANCH  29  30
ENDBRANCH  28  29
ENDBRANCH   1  28
TORSDOF 23
ENDMDL
MODEL 2
REMARK VINA RESULT:      -9.9      0.768      5.958
REMARK SMILES COc1ccc(F)c(NC(=O)N2CCCC[C@@H]2C(=O)OCCOCCOCCOCCOC(=O)c2ccc(-c3c4nc(c(-c5c(F)cccc5F)c5ccc([nH]5)c(-c5c(F)cccc5F)c5nc(c(-c6c(F)cccc6F)c6ccc3[nH]6)C=C5)C=C4)cc2)c1
REMARK SMILES IDX 25 1 24 2 23 3 22 4 21 5 20 6 18 7 19 8 17 9 12 10 13 11
REMARK SMILES IDX 14 12 16 13 15 14 10 15 9 16 11 18 8 19 3 20 4 21 89 22 5 23
REMARK SMILES IDX 6 24 7 25 2 26 1 27 26 28 27 29 28 30 29 31 30 32 31 33
REMARK SMILES IDX 32 34 33 35 34 36 35 37 36 38 88 39 37 40 87 41 38 42 39 43
REMARK SMILES IDX 40 44 81 45 41 46 86 47 80 48 82 49 42 50 85 51 79 52 78 53
REMARK SMILES IDX 43 55 69 56 52 57 68 58 53 59 56 60 67 61 83 62 54 63 55 64
REMARK SMILES IDX 66 66 84 67 57 68 44 69 45 70 50 71 46 72 47 73 49 74 51 75
REMARK SMILES IDX 48 76 70 77 71 78 76 79 72 80 73 81 75 82 77 83 74 84 58 85
REMARK SMILES IDX 59 86 64 87 60 88 61 89 63 90 65 91 62 92
REMARK H PARENT 9 17 82 54 56 65
REMARK Flexibility Score: inf
ROOT
ATOM      1  C   UNL A   1      40.634  20.224  26.045  1.00  0.00     0.188 C 
ENDROOT
BRANCH   1   2
ATOM      2  C   UNL A   1      40.406  21.345  27.073  1.00  0.00     0.188 C 
BRANCH   2   3
ATOM      3  O   UNL A   1      39.311  22.197  26.783  1.00  0.00    -0.376 OA
BRANCH   3   4
ATOM      4  C   UNL A   1      38.409  21.843  25.748  1.00  0.00     0.202 C 
BRANCH   4   5
ATOM      5  C   UNL A   1      37.266  22.834  25.377  1.00  0.00     0.261 C 
BRANCH   5   6
ATOM      6  O   UNL A   1      35.908  22.348  25.459  1.00  0.00    -0.462 OA
BRANCH   6   7
ATOM      7  C   UNL A   1      35.029  23.360  25.605  1.00  0.00     0.329 C 
ATOM      8  O   UNL A   1      35.457  24.485  25.816  1.00  0.00    -0.250 OA
BRANCH   7   9
ATOM      9  C   UNL A   1      33.530  23.045  25.390  1.00  0.00     0.196 C 
ATOM     10  N   UNL A   1      32.994  23.402  24.042  1.00  0.00    -0.311 N 
ATOM     11  C   UNL A   1      31.558  23.300  23.810  1.00  0.00     0.122 C 
ATOM     12  C   UNL A   1      30.698  23.793  24.964  1.00  0.00     0.022 C 
ATOM     13  C   UNL A   1      32.615  23.572  26.516  1.00  0.00     0.037 C 
ATOM     14  C   UNL A   1      31.159  23.178  26.274  1.00  0.00     0.005 C 
BRANCH  10  15
ATOM     15  C   UNL A   1      33.742  23.965  23.038  1.00  0.00     0.322 C 
ATOM     16  N   UNL A   1      33.661  25.298  22.768  1.00  0.00    -0.305 N 
ATOM     17  H   UNL A   1      34.162  25.569  21.965  1.00  0.00     0.171 HD
ATOM     18  O   UNL A   1      34.496  23.265  22.358  1.00  0.00    -0.248 OA
BRANCH  16  19
ATOM     19  C   UNL A   1      33.000  26.371  23.415  1.00  0.00     0.082 A 
ATOM     20  C   UNL A   1      32.417  27.606  25.422  1.00  0.00     0.121 A 
ATOM     21  C   UNL A   1      31.202  27.989  24.846  1.00  0.00     0.049 A 
ATOM     22  C   UNL A   1      33.330  26.834  24.688  1.00  0.00     0.075 A 
ATOM     23  C   UNL A   1      30.911  27.621  23.531  1.00  0.00     0.045 A 
ATOM     24  C   UNL A   1      31.817  26.839  22.818  1.00  0.00     0.147 A 
ATOM     25  F   UNL A   1      31.459  26.391  21.603  1.00  0.00    -0.205 F 
BRANCH  20  26
ATOM     26  O   UNL A   1      32.814  27.905  26.696  1.00  0.00    -0.497 OA
ATOM     27  C   UNL A   1      31.775  28.189  27.628  1.00  0.00     0.278 C 
ENDBRANCH  20  26
ENDBRANCH  16  19
ENDBRANCH  10  15
ENDBRANCH   7   9
ENDBRANCH   6   7
ENDBRANCH   5   6
ENDBRANCH   4   5
ENDBRANCH   3   4
ENDBRANCH   2   3
ENDBRANCH   1   2
BRANCH   1  28
ATOM     28  O   UNL A   1      41.427  19.110  26.424  1.00  0.00    -0.377 OA
BRANCH  28  29
ATOM     29  C   UNL A   1      42.832  19.282  26.601  1.00  0.00     0.188 C 
BRANCH  29  30
ATOM     30  C   UNL A   1      43.777  19.288  25.378  1.00  0.00     0.188 C 
BRANCH  30  31
ATOM     31  O   UNL A   1      44.059  20.576  24.860  1.00  0.00    -0.376 OA
BRANCH  31  32
ATOM     32  C   UNL A   1      45.379  21.063  25.041  1.00  0.00     0.202 C 
BRANCH  32  33
ATOM     33  C   UNL A   1      45.541  22.503  25.559  1.00  0.00     0.261 C 
BRANCH  33  34
ATOM     34  O   UNL A   1      44.402  23.088  26.219  1.00  0.00    -0.460 OA
BRANCH  34  35
ATOM     35  C   UNL A   1      43.565  23.857  25.493  1.00  0.00     0.338 C 
ATOM     36  O   UNL A   1      43.184  23.655  24.350  1.00  0.00    -0.246 OA
BRANCH  35  37
ATOM     37  C   UNL A   1      42.990  24.885  26.389  1.00  0.00     0.060 A 
ATOM     38  C   UNL A   1      43.777  25.988  26.753  1.00  0.00     0.016 A 
ATOM     39  C   UNL A   1      41.679  24.771  26.859  1.00  0.00     0.016 A 
ATOM     40  C   UNL A   1      43.277  26.949  27.631  1.00  0.00     0.010 A 
ATOM     41  C   UNL A   1      41.190  25.717  27.765  1.00  0.00     0.010 A 
ATOM     42  C   UNL A   1      42.005  26.783  28.189  1.00  0.00    -0.014 A 
BRANCH  42  43
ATOM     43  C   UNL A   1      41.642  27.574  29.388  1.00  0.00     0.031 A 
ATOM     44  C   UNL A   1      40.453  28.492  29.295  1.00  0.00     0.074 A 
ATOM     45  C   UNL A   1      42.304  27.441  30.550  1.00  0.00     0.049 A 
ATOM     46  N   UNL A   1      39.944  29.289  30.198  1.00  0.00    -0.248 NA
ATOM     47  C   UNL A   1      39.741  28.512  28.005  1.00  0.00     0.031 C 
ATOM     48  C   UNL A   1      43.433  26.544  30.782  1.00  0.00     0.029 A 
ATOM     49  N   UNL A   1      42.113  28.067  31.757  1.00  0.00    -0.354 N 
ATOM     50  C   UNL A   1      38.863  29.909  29.584  1.00  0.00     0.074 A 
ATOM     51  C   UNL A   1      38.805  29.421  28.224  1.00  0.00     0.031 C 
ATOM     52  C   UNL A   1      43.843  26.683  32.055  1.00  0.00     0.029 A 
ATOM     53  C   UNL A   1      43.025  27.700  32.716  1.00  0.00     0.049 A 
ATOM     54  H   UNL A   1      41.392  28.716  31.920  1.00  0.00     0.167 HD
ATOM     55  C   UNL A   1      37.990  30.797  30.111  1.00  0.00     0.037 A 
ATOM     56  C   UNL A   1      43.192  28.150  33.976  1.00  0.00     0.037 A 
ATOM     57  C   UNL A   1      38.046  31.274  31.467  1.00  0.00     0.049 A 
ATOM     58  C   UNL A   1      42.252  29.192  34.521  1.00  0.00     0.074 A 
ATOM     59  C   UNL A   1      37.192  32.158  32.101  1.00  0.00     0.029 A 
ATOM     60  N   UNL A   1      39.014  30.916  32.392  1.00  0.00    -0.354 N 
ATOM     61  N   UNL A   1      41.221  29.762  33.941  1.00  0.00    -0.248 NA
ATOM     62  C   UNL A   1      42.491  29.654  35.897  1.00  0.00     0.031 C 
ATOM     63  C   UNL A   1      37.681  32.386  33.389  1.00  0.00     0.029 A 
ATOM     64  C   UNL A   1      38.798  31.589  33.583  1.00  0.00     0.049 A 
ATOM     65  H   UNL A   1      39.746  30.278  32.227  1.00  0.00     0.167 HD
ATOM     66  C   UNL A   1      40.679  30.628  34.884  1.00  0.00     0.074 A 
ATOM     67  C   UNL A   1      41.485  30.498  36.079  1.00  0.00     0.031 C 
ATOM     68  C   UNL A   1      39.610  31.454  34.767  1.00  0.00     0.037 A 
BRANCH  55  69
ATOM     69  C   UNL A   1      36.915  31.338  29.213  1.00  0.00     0.057 A 
ATOM     70  C   UNL A   1      36.996  32.647  28.721  1.00  0.00     0.134 A 
ATOM     71  C   UNL A   1      35.775  30.593  28.884  1.00  0.00     0.134 A 
ATOM     72  F   UNL A   1      38.059  33.415  28.999  1.00  0.00    -0.206 F 
ATOM     73  C   UNL A   1      35.974  33.202  27.949  1.00  0.00     0.040 A 
ATOM     74  C   UNL A   1      34.760  31.128  28.086  1.00  0.00     0.040 A 
ATOM     75  F   UNL A   1      35.642  29.328  29.306  1.00  0.00    -0.206 F 
ATOM     76  C   UNL A   1      34.853  32.441  27.627  1.00  0.00     0.006 A 
ENDBRANCH  55  69
BRANCH  56  77
ATOM     77  C   UNL A   1      44.303  27.611  34.802  1.00  0.00     0.057 A 
ATOM     78  C   UNL A   1      44.144  26.441  35.556  1.00  0.00     0.134 A 
ATOM     79  C   UNL A   1      45.537  28.266  34.883  1.00  0.00     0.134 A 
ATOM     80  F   UNL A   1      42.987  25.765  35.521  1.00  0.00    -0.206 F 
ATOM     81  C   UNL A   1      45.161  25.959  36.383  1.00  0.00     0.040 A 
ATOM     82  C   UNL A   1      46.572  27.779  35.685  1.00  0.00     0.040 A 
ATOM     83  F   UNL A   1      45.760  29.376  34.165  1.00  0.00    -0.206 F 
ATOM     84  C   UNL A   1      46.380  26.628  36.447  1.00  0.00     0.006 A 
ENDBRANCH  56  77
BRANCH  68  85
ATOM     85  C   UNL A   1      39.225  32.276  35.966  1.00  0.00     0.057 A 
ATOM     86  C   UNL A   1      38.295  31.790  36.895  1.00  0.00     0.134 A 
ATOM     87  C   UNL A   1      39.709  33.577  36.158  1.00  0.00     0.134 A 
ATOM     88  F   UNL A   1      37.778  30.559  36.763  1.00  0.00    -0.206 F 
ATOM     89  C   UNL A   1      37.850  32.572  37.962  1.00  0.00     0.040 A 
ATOM     90  C   UNL A   1      39.295  34.356  37.240  1.00  0.00     0.040 A 
ATOM     91  F   UNL A   1      40.605  34.101  35.310  1.00  0.00    -0.206 F 
ATOM     92  C   UNL A   1      38.354  33.858  38.139  1.00  0.00     0.006 A 
ENDBRANCH  68  85
ENDBRANCH  42  43
ENDBRANCH  35  37
ENDBRANCH  34  35
ENDBRANCH  33  34
ENDBRANCH  32  33
ENDBRANCH  31  32
ENDBRANCH  30  31
ENDBRANCH  29  30
ENDBRANCH  28  29
ENDBRANCH   1  28
TORSDOF 23
ENDMDL
MODEL 3
REMARK VINA RESULT:      -9.9      1.543      2.510
REMARK SMILES COc1ccc(F)c(NC(=O)N2CCCC[C@@H]2C(=O)OCCOCCOCCOCCOC(=O)c2ccc(-c3c4nc(c(-c5c(F)cccc5F)c5ccc([nH]5)c(-c5c(F)cccc5F)c5nc(c(-c6c(F)cccc6F)c6ccc3[nH]6)C=C5)C=C4)cc2)c1
REMARK SMILES IDX 25 1 24 2 23 3 22 4 21 5 20 6 18 7 19 8 17 9 12 10 13 11
REMARK SMILES IDX 14 12 16 13 15 14 10 15 9 16 11 18 8 19 3 20 4 21 89 22 5 23
REMARK SMILES IDX 6 24 7 25 2 26 1 27 26 28 27 29 28 30 29 31 30 32 31 33
REMARK SMILES IDX 32 34 33 35 34 36 35 37 36 38 88 39 37 40 87 41 38 42 39 43
REMARK SMILES IDX 40 44 81 45 41 46 86 47 80 48 82 49 42 50 85 51 79 52 78 53
REMARK SMILES IDX 43 55 69 56 52 57 68 58 53 59 56 60 67 61 83 62 54 63 55 64
REMARK SMILES IDX 66 66 84 67 57 68 44 69 45 70 50 71 46 72 47 73 49 74 51 75
REMARK SMILES IDX 48 76 70 77 71 78 76 79 72 80 73 81 75 82 77 83 74 84 58 85
REMARK SMILES IDX 59 86 64 87 60 88 61 89 63 90 65 91 62 92
REMARK H PARENT 9 17 82 54 56 65
REMARK Flexibility Score: inf
ROOT
ATOM      1  C   UNL A   1      39.487  22.124  26.298  1.00  0.00     0.188 C 
ENDROOT
BRANCH   1   2
ATOM      2  C   UNL A   1      38.998  23.556  26.021  1.00  0.00     0.188 C 
BRANCH   2   3
ATOM      3  O   UNL A   1      37.657  23.644  25.570  1.00  0.00    -0.376 OA
BRANCH   3   4
ATOM      4  C   UNL A   1      36.636  22.971  26.286  1.00  0.00     0.202 C 
BRANCH   4   5
ATOM      5  C   UNL A   1      35.162  23.438  26.109  1.00  0.00     0.261 C 
BRANCH   5   6
ATOM      6  O   UNL A   1      34.290  23.355  27.258  1.00  0.00    -0.462 OA
BRANCH   6   7
ATOM      7  C   UNL A   1      33.038  23.003  26.904  1.00  0.00     0.329 C 
ATOM      8  O   UNL A   1      32.273  22.603  27.768  1.00  0.00    -0.250 OA
BRANCH   7   9
ATOM      9  C   UNL A   1      32.617  23.233  25.433  1.00  0.00     0.196 C 
ATOM     10  N   UNL A   1      31.499  24.205  25.238  1.00  0.00    -0.311 N 
ATOM     11  C   UNL A   1      30.925  24.352  23.906  1.00  0.00     0.122 C 
ATOM     12  C   UNL A   1      30.742  23.044  23.151  1.00  0.00     0.022 C 
ATOM     13  C   UNL A   1      32.373  21.929  24.645  1.00  0.00     0.037 C 
ATOM     14  C   UNL A   1      32.020  22.224  23.187  1.00  0.00     0.005 C 
BRANCH  10  15
ATOM     15  C   UNL A   1      30.867  24.869  26.259  1.00  0.00     0.322 C 
ATOM     16  N   UNL A   1      31.024  26.214  26.421  1.00  0.00    -0.305 N 
ATOM     17  H   UNL A   1      30.609  26.563  27.242  1.00  0.00     0.171 HD
ATOM     18  O   UNL A   1      30.150  24.254  27.052  1.00  0.00    -0.248 OA
BRANCH  16  19
ATOM     19  C   UNL A   1      31.666  27.207  25.641  1.00  0.00     0.082 A 
ATOM     20  C   UNL A   1      31.727  28.687  23.718  1.00  0.00     0.121 A 
ATOM     21  C   UNL A   1      33.122  28.611  23.690  1.00  0.00     0.049 A 
ATOM     22  C   UNL A   1      31.006  28.019  24.719  1.00  0.00     0.075 A 
ATOM     23  C   UNL A   1      33.797  27.889  24.675  1.00  0.00     0.045 A 
ATOM     24  C   UNL A   1      33.071  27.214  25.655  1.00  0.00     0.147 A 
ATOM     25  F   UNL A   1      33.735  26.422  26.514  1.00  0.00    -0.205 F 
BRANCH  20  26
ATOM     26  O   UNL A   1      30.955  29.361  22.811  1.00  0.00    -0.497 OA
ATOM     27  C   UNL A   1      29.690  28.782  22.509  1.00  0.00     0.278 C 
ENDBRANCH  20  26
ENDBRANCH  16  19
ENDBRANCH  10  15
ENDBRANCH   7   9
ENDBRANCH   6   7
ENDBRANCH   5   6
ENDBRANCH   4   5
ENDBRANCH   3   4
ENDBRANCH   2   3
ENDBRANCH   1   2
BRANCH   1  28
ATOM     28  O   UNL A   1      39.992  21.820  27.589  1.00  0.00    -0.377 OA
BRANCH  28  29
ATOM     29  C   UNL A   1      41.301  21.266  27.713  1.00  0.00     0.188 C 
BRANCH  29  30
ATOM     30  C   UNL A   1      41.763  20.136  26.766  1.00  0.00     0.188 C 
BRANCH  30  31
ATOM     31  O   UNL A   1      42.330  20.585  25.548  1.00  0.00    -0.376 OA
BRANCH  31  32
ATOM     32  C   UNL A   1      43.741  20.502  25.430  1.00  0.00     0.202 C 
BRANCH  32  33
ATOM     33  C   UNL A   1      44.525  21.821  25.311  1.00  0.00     0.261 C 
BRANCH  33  34
ATOM     34  O   UNL A   1      43.749  23.030  25.198  1.00  0.00    -0.460 OA
BRANCH  34  35
ATOM     35  C   UNL A   1      44.388  24.213  25.288  1.00  0.00     0.338 C 
ATOM     36  O   UNL A   1      45.365  24.573  24.649  1.00  0.00    -0.246 OA
BRANCH  35  37
ATOM     37  C   UNL A   1      43.574  25.113  26.136  1.00  0.00     0.060 A 
ATOM     38  C   UNL A   1      43.922  26.471  26.216  1.00  0.00     0.016 A 
ATOM     39  C   UNL A   1      42.470  24.627  26.839  1.00  0.00     0.016 A 
ATOM     40  C   UNL A   1      43.201  27.332  27.041  1.00  0.00     0.010 A 
ATOM     41  C   UNL A   1      41.768  25.484  27.692  1.00  0.00     0.010 A 
ATOM     42  C   UNL A   1      42.161  26.828  27.830  1.00  0.00    -0.014 A 
BRANCH  42  43
ATOM     43  C   UNL A   1      41.667  27.641  28.967  1.00  0.00     0.031 A 
ATOM     44  C   UNL A   1      42.416  27.563  30.270  1.00  0.00     0.074 A 
ATOM     45  C   UNL A   1      40.622  28.476  28.837  1.00  0.00     0.049 A 
ATOM     46  N   UNL A   1      42.178  28.167  31.404  1.00  0.00    -0.248 NA
ATOM     47  C   UNL A   1      43.596  26.681  30.293  1.00  0.00     0.031 C 
ATOM     48  C   UNL A   1      39.852  28.683  27.613  1.00  0.00     0.029 A 
ATOM     49  N   UNL A   1      40.032  29.309  29.755  1.00  0.00    -0.354 N 
ATOM     50  C   UNL A   1      43.170  27.733  32.275  1.00  0.00     0.074 A 
ATOM     51  C   UNL A   1      43.995  26.792  31.550  1.00  0.00     0.031 C 
ATOM     52  C   UNL A   1      38.882  29.581  27.858  1.00  0.00     0.029 A 
ATOM     53  C   UNL A   1      38.944  29.987  29.262  1.00  0.00     0.049 A 
ATOM     54  H   UNL A   1      40.357  29.411  30.678  1.00  0.00     0.167 HD
ATOM     55  C   UNL A   1      43.380  28.095  33.561  1.00  0.00     0.037 A 
ATOM     56  C   UNL A   1      38.086  30.823  29.881  1.00  0.00     0.037 A 
ATOM     57  C   UNL A   1      42.561  29.037  34.276  1.00  0.00     0.049 A 
ATOM     58  C   UNL A   1      38.296  31.159  31.334  1.00  0.00     0.074 A 
ATOM     59  C   UNL A   1      42.707  29.487  35.576  1.00  0.00     0.029 A 
ATOM     60  N   UNL A   1      41.440  29.665  33.757  1.00  0.00    -0.354 N 
ATOM     61  N   UNL A   1      39.245  30.758  32.147  1.00  0.00    -0.248 NA
ATOM     62  C   UNL A   1      37.321  32.066  31.957  1.00  0.00     0.031 C 
ATOM     63  C   UNL A   1      41.636  30.336  35.865  1.00  0.00     0.029 A 
ATOM     64  C   UNL A   1      40.863  30.473  34.723  1.00  0.00     0.049 A 
ATOM     65  H   UNL A   1      41.104  29.554  32.838  1.00  0.00     0.167 HD
ATOM     66  C   UNL A   1      38.995  31.378  33.365  1.00  0.00     0.074 A 
ATOM     67  C   UNL A   1      37.814  32.195  33.181  1.00  0.00     0.031 C 
ATOM     68  C   UNL A   1      39.684  31.280  34.530  1.00  0.00     0.037 A 
BRANCH  55  69
ATOM     69  C   UNL A   1      44.521  27.449  34.293  1.00  0.00     0.057 A 
ATOM     70  C   UNL A   1      45.782  28.057  34.314  1.00  0.00     0.134 A 
ATOM     71  C   UNL A   1      44.392  26.205  34.925  1.00  0.00     0.134 A 
ATOM     72  F   UNL A   1      45.976  29.247  33.727  1.00  0.00    -0.206 F 
ATOM     73  C   UNL A   1      46.880  27.443  34.920  1.00  0.00     0.040 A 
ATOM     74  C   UNL A   1      45.476  25.595  35.561  1.00  0.00     0.040 A 
ATOM     75  F   UNL A   1      43.207  25.578  34.959  1.00  0.00    -0.206 F 
ATOM     76  C   UNL A   1      46.727  26.209  35.548  1.00  0.00     0.006 A 
ENDBRANCH  55  69
BRANCH  56  77
ATOM     77  C   UNL A   1      36.947  31.396  29.118  1.00  0.00     0.057 A 
ATOM     78  C   UNL A   1      36.967  32.724  28.674  1.00  0.00     0.134 A 
ATOM     79  C   UNL A   1      35.802  30.641  28.839  1.00  0.00     0.134 A 
ATOM     80  F   UNL A   1      38.036  33.500  28.907  1.00  0.00    -0.206 F 
ATOM     81  C   UNL A   1      35.878  33.290  28.009  1.00  0.00     0.040 A 
ATOM     82  C   UNL A   1      34.717  31.187  28.150  1.00  0.00     0.040 A 
ATOM     83  F   UNL A   1      35.734  29.355  29.214  1.00  0.00    -0.206 F 
ATOM     84  C   UNL A   1      34.749  32.520  27.744  1.00  0.00     0.006 A 
ENDBRANCH  56  77
BRANCH  68  85
ATOM     85  C   UNL A   1      39.199  32.086  35.702  1.00  0.00     0.057 A 
ATOM     86  C   UNL A   1      38.295  31.535  36.621  1.00  0.00     0.134 A 
ATOM     87  C   UNL A   1      39.559  33.428  35.878  1.00  0.00     0.134 A 
ATOM     88  F   UNL A   1      37.895  30.260  36.503  1.00  0.00    -0.206 F 
ATOM     89  C   UNL A   1      37.757  32.293  37.662  1.00  0.00     0.040 A 
ATOM     90  C   UNL A   1      39.052  34.186  36.935  1.00  0.00     0.040 A 
ATOM     91  F   UNL A   1      40.424  34.016  35.039  1.00  0.00    -0.206 F 
ATOM     92  C   UNL A   1      38.139  33.622  37.823  1.00  0.00     0.006 A 
ENDBRANCH  68  85
ENDBRANCH  42  43
ENDBRANCH  35  37
ENDBRANCH  34  35
ENDBRANCH  33  34
ENDBRANCH  32  33
ENDBRANCH  31  32
ENDBRANCH  30  31
ENDBRANCH  29  30
ENDBRANCH  28  29
ENDBRANCH   1  28
TORSDOF 23
ENDMDL
