MODEL 1
REMARK VINA RESULT:     -10.4      0.000      0.000
REMARK SMILES CCc1ccc2nc(O)c(C(=O)OCCOCCOCCOCCOC(=O)c3ccc(-c4c5nc(c(-c6c(F)cccc6F)c6ccc([nH]6)c(-c6c(F)cccc6F)c6nc(c(-c7c(F)cccc7F)c7ccc4[nH]7)C=C6)C=C5)cc3)cc2c1
REMARK SMILES IDX 20 1 19 2 18 3 17 4 16 5 15 6 14 7 13 8 11 9 12 10 10 11
REMARK SMILES IDX 3 12 4 13 84 14 5 15 83 16 6 17 82 18 7 19 8 20 2 21 1 22
REMARK SMILES IDX 9 23 21 25 22 26 23 27 24 28 25 29 26 30 27 31 28 32 29 33
REMARK SMILES IDX 81 34 30 35 80 36 31 37 32 38 33 39 74 40 34 41 79 42 73 43
REMARK SMILES IDX 75 44 35 45 78 46 72 47 71 48 36 50 62 51 45 52 61 53 46 54
REMARK SMILES IDX 49 55 60 56 76 57 47 58 48 59 59 61 77 62 50 63 37 64 38 65
REMARK SMILES IDX 43 66 39 67 40 68 42 69 44 70 41 71 63 72 64 73 69 74 65 75
REMARK SMILES IDX 66 76 68 77 70 78 67 79 51 80 52 81 57 82 53 83 54 84 56 85
REMARK SMILES IDX 58 86 55 87
REMARK H PARENT 9 24 75 49 49 60
REMARK Flexibility Score: inf
ROOT
ATOM      1  C   UNL A   1      44.117  18.801  25.036  1.00  0.00     0.188 C 
ENDROOT
BRANCH   1   2
ATOM      2  O   UNL A   1      42.757  19.230  25.016  1.00  0.00    -0.377 OA
BRANCH   2   3
ATOM      3  C   UNL A   1      42.033  18.962  26.209  1.00  0.00     0.188 C 
BRANCH   3   4
ATOM      4  C   UNL A   1      40.960  20.025  26.497  1.00  0.00     0.188 C 
BRANCH   4   5
ATOM      5  O   UNL A   1      41.360  21.370  26.672  1.00  0.00    -0.376 OA
BRANCH   5   6
ATOM      6  C   UNL A   1      40.610  22.486  26.219  1.00  0.00     0.202 C 
BRANCH   6   7
ATOM      7  C   UNL A   1      39.152  22.844  26.579  1.00  0.00     0.261 C 
BRANCH   7   8
ATOM      8  O   UNL A   1      38.231  23.100  25.521  1.00  0.00    -0.459 OA
BRANCH   8   9
ATOM      9  C   UNL A   1      37.425  22.070  25.183  1.00  0.00     0.343 C 
ATOM     10  O   UNL A   1      37.772  20.947  24.864  1.00  0.00    -0.246 OA
BRANCH   9  11
ATOM     11  C   UNL A   1      36.034  22.462  25.467  1.00  0.00     0.122 A 
ATOM     12  C   UNL A   1      32.826  26.046  26.089  1.00  0.00    -0.048 A 
ATOM     13  C   UNL A   1      31.870  25.077  26.403  1.00  0.00     0.006 A 
ATOM     14  C   UNL A   1      34.113  25.613  25.748  1.00  0.00     0.014 A 
ATOM     15  C   UNL A   1      32.192  23.713  26.354  1.00  0.00     0.029 A 
ATOM     16  C   UNL A   1      34.440  24.248  25.746  1.00  0.00     0.002 A 
ATOM     17  C   UNL A   1      33.462  23.271  26.013  1.00  0.00     0.074 A 
ATOM     18  C   UNL A   1      35.745  23.824  25.494  1.00  0.00     0.031 A 
ATOM     19  N   UNL A   1      33.728  21.953  25.942  1.00  0.00    -0.213 NA
ATOM     20  C   UNL A   1      34.986  21.570  25.641  1.00  0.00     0.226 A 
BRANCH  12  21
ATOM     21  C   UNL A   1      32.546  27.530  26.062  1.00  0.00     0.032 C 
ATOM     22  C   UNL A   1      33.101  28.346  27.221  1.00  0.00     0.009 C 
ENDBRANCH  12  21
BRANCH  20  23
ATOM     23  O   UNL A   1      35.118  20.221  25.470  1.00  0.00    -0.493 OA
ATOM     24  H   UNL A   1      35.407  19.685  26.181  1.00  0.00     0.295 HD
ENDBRANCH  20  23
ENDBRANCH   9  11
ENDBRANCH   8   9
ENDBRANCH   7   8
ENDBRANCH   6   7
ENDBRANCH   5   6
ENDBRANCH   4   5
ENDBRANCH   3   4
ENDBRANCH   2   3
ENDBRANCH   1   2
BRANCH   1  25
ATOM     25  C   UNL A   1      45.174  19.768  24.465  1.00  0.00     0.188 C 
BRANCH  25  26
ATOM     26  O   UNL A   1      44.642  20.650  23.476  1.00  0.00    -0.376 OA
BRANCH  26  27
ATOM     27  C   UNL A   1      44.875  22.042  23.661  1.00  0.00     0.202 C 
BRANCH  27  28
ATOM     28  C   UNL A   1      44.089  22.666  24.822  1.00  0.00     0.261 C 
BRANCH  28  29
ATOM     29  O   UNL A   1      43.672  24.024  24.617  1.00  0.00    -0.460 OA
BRANCH  29  30
ATOM     30  C   UNL A   1      44.481  25.005  25.089  1.00  0.00     0.338 C 
ATOM     31  O   UNL A   1      45.566  25.323  24.667  1.00  0.00    -0.246 OA
BRANCH  30  32
ATOM     32  C   UNL A   1      43.703  25.774  26.090  1.00  0.00     0.060 A 
ATOM     33  C   UNL A   1      42.619  25.198  26.757  1.00  0.00     0.016 A 
ATOM     34  C   UNL A   1      44.064  27.104  26.343  1.00  0.00     0.016 A 
ATOM     35  C   UNL A   1      41.931  25.938  27.720  1.00  0.00     0.010 A 
ATOM     36  C   UNL A   1      43.371  27.846  27.303  1.00  0.00     0.010 A 
ATOM     37  C   UNL A   1      42.326  27.253  28.027  1.00  0.00    -0.014 A 
BRANCH  37  38
ATOM     38  C   UNL A   1      41.815  27.890  29.265  1.00  0.00     0.031 A 
ATOM     39  C   UNL A   1      42.475  27.730  30.597  1.00  0.00     0.074 A 
ATOM     40  C   UNL A   1      40.697  28.632  29.149  1.00  0.00     0.049 A 
ATOM     41  N   UNL A   1      42.200  28.339  31.724  1.00  0.00    -0.248 NA
ATOM     42  C   UNL A   1      43.569  26.755  30.686  1.00  0.00     0.031 C 
ATOM     43  C   UNL A   1      39.931  28.808  27.913  1.00  0.00     0.029 A 
ATOM     44  N   UNL A   1      40.021  29.386  30.071  1.00  0.00    -0.354 N 
ATOM     45  C   UNL A   1      43.103  27.844  32.656  1.00  0.00     0.074 A 
ATOM     46  C   UNL A   1      43.898  26.843  31.970  1.00  0.00     0.031 C 
ATOM     47  C   UNL A   1      38.911  29.647  28.144  1.00  0.00     0.029 A 
ATOM     48  C   UNL A   1      38.943  30.053  29.543  1.00  0.00     0.049 A 
ATOM     49  H   UNL A   1      40.281  29.444  31.020  1.00  0.00     0.167 HD
ATOM     50  C   UNL A   1      43.261  28.207  33.953  1.00  0.00     0.037 A 
ATOM     51  C   UNL A   1      38.084  30.912  30.118  1.00  0.00     0.037 A 
ATOM     52  C   UNL A   1      42.439  29.181  34.636  1.00  0.00     0.049 A 
ATOM     53  C   UNL A   1      38.275  31.282  31.559  1.00  0.00     0.074 A 
ATOM     54  C   UNL A   1      42.549  29.648  35.936  1.00  0.00     0.029 A 
ATOM     55  N   UNL A   1      41.340  29.821  34.082  1.00  0.00    -0.354 N 
ATOM     56  N   UNL A   1      39.199  30.890  32.401  1.00  0.00    -0.248 NA
ATOM     57  C   UNL A   1      37.308  32.232  32.122  1.00  0.00     0.031 C 
ATOM     58  C   UNL A   1      41.489  30.531  36.182  1.00  0.00     0.029 A 
ATOM     59  C   UNL A   1      40.748  30.656  35.019  1.00  0.00     0.049 A 
ATOM     60  H   UNL A   1      41.026  29.701  33.156  1.00  0.00     0.167 HD
ATOM     61  C   UNL A   1      38.938  31.560  33.587  1.00  0.00     0.074 A 
ATOM     62  C   UNL A   1      37.789  32.408  33.343  1.00  0.00     0.031 C 
ATOM     63  C   UNL A   1      39.589  31.480  34.775  1.00  0.00     0.037 A 
BRANCH  50  64
ATOM     64  C   UNL A   1      44.370  27.551  34.726  1.00  0.00     0.057 A 
ATOM     65  C   UNL A   1      45.668  28.078  34.720  1.00  0.00     0.134 A 
ATOM     66  C   UNL A   1      44.164  26.360  35.437  1.00  0.00     0.134 A 
ATOM     67  F   UNL A   1      45.941  29.207  34.050  1.00  0.00    -0.206 F 
ATOM     68  C   UNL A   1      46.718  27.448  35.393  1.00  0.00     0.040 A 
ATOM     69  C   UNL A   1      45.200  25.735  36.135  1.00  0.00     0.040 A 
ATOM     70  F   UNL A   1      42.946  25.800  35.486  1.00  0.00    -0.206 F 
ATOM     71  C   UNL A   1      46.483  26.276  36.109  1.00  0.00     0.006 A 
ENDBRANCH  50  64
BRANCH  51  72
ATOM     72  C   UNL A   1      36.995  31.519  29.316  1.00  0.00     0.057 A 
ATOM     73  C   UNL A   1      35.861  30.783  28.952  1.00  0.00     0.134 A 
ATOM     74  C   UNL A   1      37.059  32.856  28.907  1.00  0.00     0.134 A 
ATOM     75  F   UNL A   1      35.748  29.493  29.302  1.00  0.00    -0.206 F 
ATOM     76  C   UNL A   1      34.828  31.356  28.211  1.00  0.00     0.040 A 
ATOM     77  C   UNL A   1      36.021  33.450  28.191  1.00  0.00     0.040 A 
ATOM     78  F   UNL A   1      38.116  33.612  29.237  1.00  0.00    -0.206 F 
ATOM     79  C   UNL A   1      34.901  32.698  27.839  1.00  0.00     0.006 A 
ENDBRANCH  51  72
BRANCH  63  80
ATOM     80  C   UNL A   1      39.065  32.349  35.883  1.00  0.00     0.057 A 
ATOM     81  C   UNL A   1      38.209  31.826  36.859  1.00  0.00     0.134 A 
ATOM     82  C   UNL A   1      39.444  33.694  36.011  1.00  0.00     0.134 A 
ATOM     83  F   UNL A   1      37.799  30.550  36.795  1.00  0.00    -0.206 F 
ATOM     84  C   UNL A   1      37.765  32.601  37.933  1.00  0.00     0.040 A 
ATOM     85  C   UNL A   1      39.033  34.468  37.097  1.00  0.00     0.040 A 
ATOM     86  F   UNL A   1      40.277  34.253  35.120  1.00  0.00    -0.206 F 
ATOM     87  C   UNL A   1      38.190  33.922  38.062  1.00  0.00     0.006 A 
ENDBRANCH  63  80
ENDBRANCH  37  38
ENDBRANCH  30  32
ENDBRANCH  29  30
ENDBRANCH  28  29
ENDBRANCH  27  28
ENDBRANCH  26  27
ENDBRANCH  25  26
ENDBRANCH   1  25
TORSDOF 22
ENDMDL
MODEL 2
REMARK VINA RESULT:     -10.1      1.140      6.232
REMARK SMILES CCc1ccc2nc(O)c(C(=O)OCCOCCOCCOCCOC(=O)c3ccc(-c4c5nc(c(-c6c(F)cccc6F)c6ccc([nH]6)c(-c6c(F)cccc6F)c6nc(c(-c7c(F)cccc7F)c7ccc4[nH]7)C=C6)C=C5)cc3)cc2c1
REMARK SMILES IDX 20 1 19 2 18 3 17 4 16 5 15 6 14 7 13 8 11 9 12 10 10 11
REMARK SMILES IDX 3 12 4 13 84 14 5 15 83 16 6 17 82 18 7 19 8 20 2 21 1 22
REMARK SMILES IDX 9 23 21 25 22 26 23 27 24 28 25 29 26 30 27 31 28 32 29 33
REMARK SMILES IDX 81 34 30 35 80 36 31 37 32 38 33 39 74 40 34 41 79 42 73 43
REMARK SMILES IDX 75 44 35 45 78 46 72 47 71 48 36 50 62 51 45 52 61 53 46 54
REMARK SMILES IDX 49 55 60 56 76 57 47 58 48 59 59 61 77 62 50 63 37 64 38 65
REMARK SMILES IDX 43 66 39 67 40 68 42 69 44 70 41 71 63 72 64 73 69 74 65 75
REMARK SMILES IDX 66 76 68 77 70 78 67 79 51 80 52 81 57 82 53 83 54 84 56 85
REMARK SMILES IDX 58 86 55 87
REMARK H PARENT 9 24 75 49 49 60
REMARK Flexibility Score: inf
ROOT
ATOM      1  C   UNL A   1      43.538  18.944  26.040  1.00  0.00     0.188 C 
ENDROOT
BRANCH   1   2
ATOM      2  O   UNL A   1      42.398  19.696  25.632  1.00  0.00    -0.377 OA
BRANCH   2   3
ATOM      3  C   UNL A   1      41.941  20.645  26.585  1.00  0.00     0.188 C 
BRANCH   3   4
ATOM      4  C   UNL A   1      40.437  20.512  26.874  1.00  0.00     0.188 C 
BRANCH   4   5
ATOM      5  O   UNL A   1      39.512  21.057  25.953  1.00  0.00    -0.376 OA
BRANCH   5   6
ATOM      6  C   UNL A   1      38.924  22.341  26.085  1.00  0.00     0.202 C 
BRANCH   6   7
ATOM      7  C   UNL A   1      37.622  22.848  25.427  1.00  0.00     0.261 C 
BRANCH   7   8
ATOM      8  O   UNL A   1      36.398  22.721  26.147  1.00  0.00    -0.459 OA
BRANCH   8   9
ATOM      9  C   UNL A   1      35.321  22.368  25.414  1.00  0.00     0.343 C 
ATOM     10  O   UNL A   1      34.784  21.275  25.387  1.00  0.00    -0.246 OA
BRANCH   9  11
ATOM     11  C   UNL A   1      34.761  23.584  24.802  1.00  0.00     0.122 A 
ATOM     12  C   UNL A   1      32.587  27.873  25.443  1.00  0.00    -0.048 A 
ATOM     13  C   UNL A   1      32.513  27.993  24.053  1.00  0.00     0.006 A 
ATOM     14  C   UNL A   1      33.203  26.731  25.971  1.00  0.00     0.014 A 
ATOM     15  C   UNL A   1      33.060  27.007  23.220  1.00  0.00     0.029 A 
ATOM     16  C   UNL A   1      33.707  25.727  25.131  1.00  0.00     0.002 A 
ATOM     17  C   UNL A   1      33.676  25.874  23.730  1.00  0.00     0.074 A 
ATOM     18  C   UNL A   1      34.238  24.550  25.659  1.00  0.00     0.031 A 
ATOM     19  N   UNL A   1      34.223  24.965  22.902  1.00  0.00    -0.213 NA
ATOM     20  C   UNL A   1      34.780  23.861  23.443  1.00  0.00     0.226 A 
BRANCH  12  21
ATOM     21  C   UNL A   1      32.074  28.915  26.409  1.00  0.00     0.032 C 
ATOM     22  C   UNL A   1      31.502  28.398  27.722  1.00  0.00     0.009 C 
ENDBRANCH  12  21
BRANCH  20  23
ATOM     23  O   UNL A   1      35.415  23.068  22.529  1.00  0.00    -0.493 OA
ATOM     24  H   UNL A   1      35.717  22.217  22.777  1.00  0.00     0.295 HD
ENDBRANCH  20  23
ENDBRANCH   9  11
ENDBRANCH   8   9
ENDBRANCH   7   8
ENDBRANCH   6   7
ENDBRANCH   5   6
ENDBRANCH   4   5
ENDBRANCH   3   4
ENDBRANCH   2   3
ENDBRANCH   1   2
BRANCH   1  25
ATOM     25  C   UNL A   1      44.852  19.172  25.265  1.00  0.00     0.188 C 
BRANCH  25  26
ATOM     26  O   UNL A   1      44.908  20.452  24.633  1.00  0.00    -0.376 OA
BRANCH  26  27
ATOM     27  C   UNL A   1      45.836  21.392  25.162  1.00  0.00     0.202 C 
BRANCH  27  28
ATOM     28  C   UNL A   1      45.255  22.316  26.241  1.00  0.00     0.261 C 
BRANCH  28  29
ATOM     29  O   UNL A   1      44.855  23.615  25.783  1.00  0.00    -0.460 OA
BRANCH  29  30
ATOM     30  C   UNL A   1      43.579  23.760  25.348  1.00  0.00     0.338 C 
ATOM     31  O   UNL A   1      43.008  23.091  24.520  1.00  0.00    -0.246 OA
BRANCH  30  32
ATOM     32  C   UNL A   1      42.924  24.758  26.227  1.00  0.00     0.060 A 
ATOM     33  C   UNL A   1      41.951  24.374  27.154  1.00  0.00     0.016 A 
ATOM     34  C   UNL A   1      43.284  26.106  26.099  1.00  0.00     0.016 A 
ATOM     35  C   UNL A   1      41.380  25.333  27.991  1.00  0.00     0.010 A 
ATOM     36  C   UNL A   1      42.709  27.067  26.935  1.00  0.00     0.010 A 
ATOM     37  C   UNL A   1      41.783  26.679  27.914  1.00  0.00    -0.014 A 
BRANCH  37  38
ATOM     38  C   UNL A   1      41.427  27.604  29.017  1.00  0.00     0.031 A 
ATOM     39  C   UNL A   1      40.266  28.545  28.950  1.00  0.00     0.074 A 
ATOM     40  C   UNL A   1      42.210  27.574  30.112  1.00  0.00     0.049 A 
ATOM     41  N   UNL A   1      39.776  29.307  29.896  1.00  0.00    -0.248 NA
ATOM     42  C   UNL A   1      39.578  28.663  27.660  1.00  0.00     0.031 C 
ATOM     43  C   UNL A   1      43.406  26.742  30.265  1.00  0.00     0.029 A 
ATOM     44  N   UNL A   1      42.115  28.244  31.303  1.00  0.00    -0.354 N 
ATOM     45  C   UNL A   1      38.701  29.978  29.328  1.00  0.00     0.074 A 
ATOM     46  C   UNL A   1      38.649  29.571  27.937  1.00  0.00     0.031 C 
ATOM     47  C   UNL A   1      43.913  26.923  31.493  1.00  0.00     0.029 A 
ATOM     48  C   UNL A   1      43.089  27.891  32.205  1.00  0.00     0.049 A 
ATOM     49  H   UNL A   1      41.417  28.912  31.494  1.00  0.00     0.167 HD
ATOM     50  C   UNL A   1      37.835  30.838  29.920  1.00  0.00     0.037 A 
ATOM     51  C   UNL A   1      43.287  28.292  33.473  1.00  0.00     0.037 A 
ATOM     52  C   UNL A   1      37.919  31.264  31.299  1.00  0.00     0.049 A 
ATOM     53  C   UNL A   1      42.320  29.255  34.095  1.00  0.00     0.074 A 
ATOM     54  C   UNL A   1      37.062  32.096  32.002  1.00  0.00     0.029 A 
ATOM     55  N   UNL A   1      38.931  30.910  32.180  1.00  0.00    -0.354 N 
ATOM     56  N   UNL A   1      41.245  29.800  33.580  1.00  0.00    -0.248 NA
ATOM     57  C   UNL A   1      42.590  29.644  35.484  1.00  0.00     0.031 C 
ATOM     58  C   UNL A   1      37.583  32.284  33.289  1.00  0.00     0.029 A 
ATOM     59  C   UNL A   1      38.736  31.526  33.408  1.00  0.00     0.049 A 
ATOM     60  H   UNL A   1      39.679  30.306  31.965  1.00  0.00     0.167 HD
ATOM     61  C   UNL A   1      40.698  30.579  34.589  1.00  0.00     0.074 A 
ATOM     62  C   UNL A   1      41.543  30.408  35.754  1.00  0.00     0.031 C 
ATOM     63  C   UNL A   1      39.596  31.369  34.555  1.00  0.00     0.037 A 
BRANCH  50  64
ATOM     64  C   UNL A   1      36.712  31.376  29.080  1.00  0.00     0.057 A 
ATOM     65  C   UNL A   1      36.706  32.709  28.647  1.00  0.00     0.134 A 
ATOM     66  C   UNL A   1      35.604  30.586  28.741  1.00  0.00     0.134 A 
ATOM     67  F   UNL A   1      37.726  33.526  28.945  1.00  0.00    -0.206 F 
ATOM     68  C   UNL A   1      35.643  33.234  27.908  1.00  0.00     0.040 A 
ATOM     69  C   UNL A   1      34.547  31.093  27.981  1.00  0.00     0.040 A 
ATOM     70  F   UNL A   1      35.545  29.301  29.122  1.00  0.00    -0.206 F 
ATOM     71  C   UNL A   1      34.563  32.423  27.567  1.00  0.00     0.006 A 
ENDBRANCH  50  64
BRANCH  51  72
ATOM     72  C   UNL A   1      44.421  27.744  34.253  1.00  0.00     0.057 A 
ATOM     73  C   UNL A   1      44.289  26.571  35.006  1.00  0.00     0.134 A 
ATOM     74  C   UNL A   1      45.670  28.375  34.251  1.00  0.00     0.134 A 
ATOM     75  F   UNL A   1      43.114  25.928  35.059  1.00  0.00    -0.206 F 
ATOM     76  C   UNL A   1      45.360  26.045  35.728  1.00  0.00     0.040 A 
ATOM     77  C   UNL A   1      46.757  27.845  34.945  1.00  0.00     0.040 A 
ATOM     78  F   UNL A   1      45.858  29.496  33.538  1.00  0.00    -0.206 F 
ATOM     79  C   UNL A   1      46.602  26.677  35.689  1.00  0.00     0.006 A 
ENDBRANCH  51  72
BRANCH  63  80
ATOM     80  C   UNL A   1      39.251  32.088  35.829  1.00  0.00     0.057 A 
ATOM     81  C   UNL A   1      39.764  33.364  36.092  1.00  0.00     0.134 A 
ATOM     82  C   UNL A   1      38.374  31.539  36.776  1.00  0.00     0.134 A 
ATOM     83  F   UNL A   1      40.614  33.948  35.234  1.00  0.00    -0.206 F 
ATOM     84  C   UNL A   1      39.403  34.075  37.238  1.00  0.00     0.040 A 
ATOM     85  C   UNL A   1      37.980  32.253  37.909  1.00  0.00     0.040 A 
ATOM     86  F   UNL A   1      37.831  30.328  36.577  1.00  0.00    -0.206 F 
ATOM     87  C   UNL A   1      38.496  33.526  38.143  1.00  0.00     0.006 A 
ENDBRANCH  63  80
ENDBRANCH  37  38
ENDBRANCH  30  32
ENDBRANCH  29  30
ENDBRANCH  28  29
ENDBRANCH  27  28
ENDBRANCH  26  27
ENDBRANCH  25  26
ENDBRANCH   1  25
TORSDOF 22
ENDMDL
MODEL 3
REMARK VINA RESULT:      -9.8      1.576      6.701
REMARK SMILES CCc1ccc2nc(O)c(C(=O)OCCOCCOCCOCCOC(=O)c3ccc(-c4c5nc(c(-c6c(F)cccc6F)c6ccc([nH]6)c(-c6c(F)cccc6F)c6nc(c(-c7c(F)cccc7F)c7ccc4[nH]7)C=C6)C=C5)cc3)cc2c1
REMARK SMILES IDX 20 1 19 2 18 3 17 4 16 5 15 6 14 7 13 8 11 9 12 10 10 11
REMARK SMILES IDX 3 12 4 13 84 14 5 15 83 16 6 17 82 18 7 19 8 20 2 21 1 22
REMARK SMILES IDX 9 23 21 25 22 26 23 27 24 28 25 29 26 30 27 31 28 32 29 33
REMARK SMILES IDX 81 34 30 35 80 36 31 37 32 38 33 39 74 40 34 41 79 42 73 43
REMARK SMILES IDX 75 44 35 45 78 46 72 47 71 48 36 50 62 51 45 52 61 53 46 54
REMARK SMILES IDX 49 55 60 56 76 57 47 58 48 59 59 61 77 62 50 63 37 64 38 65
REMARK SMILES IDX 43 66 39 67 40 68 42 69 44 70 41 71 63 72 64 73 69 74 65 75
REMARK SMILES IDX 66 76 68 77 70 78 67 79 51 80 52 81 57 82 53 83 54 84 56 85
REMARK SMILES IDX 58 86 55 87
REMARK H PARENT 9 24 75 49 49 60
REMARK Flexibility Score: inf
ROOT
ATOM      1  C   UNL A   1      43.420  18.827  25.385  1.00  0.00     0.188 C 
ENDROOT
BRANCH   1   2
ATOM      2  O   UNL A   1      42.337  19.751  25.321  1.00  0.00    -0.377 OA
BRANCH   2   3
ATOM      3  C   UNL A   1      41.901  20.243  26.581  1.00  0.00     0.188 C 
BRANCH   3   4
ATOM      4  C   UNL A   1      40.374  20.402  26.655  1.00  0.00     0.188 C 
BRANCH   4   5
ATOM      5  O   UNL A   1      39.762  21.464  25.950  1.00  0.00    -0.376 OA
BRANCH   5   6
ATOM      6  C   UNL A   1      39.367  22.689  26.546  1.00  0.00     0.202 C 
BRANCH   6   7
ATOM      7  C   UNL A   1      38.203  23.607  26.118  1.00  0.00     0.261 C 
BRANCH   7   8
ATOM      8  O   UNL A   1      36.923  23.025  25.883  1.00  0.00    -0.459 OA
BRANCH   8   9
ATOM      9  C   UNL A   1      36.493  23.052  24.604  1.00  0.00     0.343 C 
ATOM     10  O   UNL A   1      37.038  23.600  23.662  1.00  0.00    -0.246 OA
BRANCH   9  11
ATOM     11  C   UNL A   1      35.354  22.127  24.481  1.00  0.00     0.122 A 
ATOM     12  C   UNL A   1      33.733  17.561  24.715  1.00  0.00    -0.048 A 
ATOM     13  C   UNL A   1      32.487  18.028  24.290  1.00  0.00     0.006 A 
ATOM     14  C   UNL A   1      34.759  18.497  24.893  1.00  0.00     0.014 A 
ATOM     15  C   UNL A   1      32.273  19.397  24.071  1.00  0.00     0.029 A 
ATOM     16  C   UNL A   1      34.550  19.859  24.627  1.00  0.00     0.002 A 
ATOM     17  C   UNL A   1      33.280  20.334  24.247  1.00  0.00     0.074 A 
ATOM     18  C   UNL A   1      35.597  20.776  24.719  1.00  0.00     0.031 A 
ATOM     19  N   UNL A   1      33.031  21.644  24.063  1.00  0.00    -0.213 NA
ATOM     20  C   UNL A   1      34.050  22.516  24.212  1.00  0.00     0.226 A 
BRANCH  12  21
ATOM     21  C   UNL A   1      34.030  16.113  25.028  1.00  0.00     0.032 C 
ATOM     22  C   UNL A   1      35.472  15.777  25.376  1.00  0.00     0.009 C 
ENDBRANCH  12  21
BRANCH  20  23
ATOM     23  O   UNL A   1      33.664  23.824  24.128  1.00  0.00    -0.493 OA
ATOM     24  H   UNL A   1      34.275  24.475  23.843  1.00  0.00     0.295 HD
ENDBRANCH  20  23
ENDBRANCH   9  11
ENDBRANCH   8   9
ENDBRANCH   7   8
ENDBRANCH   6   7
ENDBRANCH   5   6
ENDBRANCH   4   5
ENDBRANCH   3   4
ENDBRANCH   2   3
ENDBRANCH   1   2
BRANCH   1  25
ATOM     25  C   UNL A   1      44.757  19.255  24.747  1.00  0.00     0.188 C 
BRANCH  25  26
ATOM     26  O   UNL A   1      44.795  20.645  24.420  1.00  0.00    -0.376 OA
BRANCH  26  27
ATOM     27  C   UNL A   1      45.695  21.458  25.165  1.00  0.00     0.202 C 
BRANCH  27  28
ATOM     28  C   UNL A   1      45.062  22.151  26.379  1.00  0.00     0.261 C 
BRANCH  28  29
ATOM     29  O   UNL A   1      44.761  23.543  26.199  1.00  0.00    -0.460 OA
BRANCH  29  30
ATOM     30  C   UNL A   1      43.573  23.857  25.626  1.00  0.00     0.338 C 
ATOM     31  O   UNL A   1      43.052  23.317  24.680  1.00  0.00    -0.246 OA
BRANCH  30  32
ATOM     32  C   UNL A   1      42.910  24.853  26.503  1.00  0.00     0.060 A 
ATOM     33  C   UNL A   1      41.946  24.462  27.435  1.00  0.00     0.016 A 
ATOM     34  C   UNL A   1      43.256  26.204  26.366  1.00  0.00     0.016 A 
ATOM     35  C   UNL A   1      41.367  25.420  28.270  1.00  0.00     0.010 A 
ATOM     36  C   UNL A   1      42.673  27.162  27.199  1.00  0.00     0.010 A 
ATOM     37  C   UNL A   1      41.755  26.770  28.184  1.00  0.00    -0.014 A 
BRANCH  37  38
ATOM     38  C   UNL A   1      41.392  27.696  29.284  1.00  0.00     0.031 A 
ATOM     39  C   UNL A   1      40.239  28.645  29.205  1.00  0.00     0.074 A 
ATOM     40  C   UNL A   1      42.163  27.661  30.387  1.00  0.00     0.049 A 
ATOM     41  N   UNL A   1      39.743  29.410  30.146  1.00  0.00    -0.248 NA
ATOM     42  C   UNL A   1      39.565  28.767  27.907  1.00  0.00     0.031 C 
ATOM     43  C   UNL A   1      43.353  26.822  30.552  1.00  0.00     0.029 A 
ATOM     44  N   UNL A   1      42.060  28.331  31.577  1.00  0.00    -0.354 N 
ATOM     45  C   UNL A   1      38.679  30.087  29.566  1.00  0.00     0.074 A 
ATOM     46  C   UNL A   1      38.639  29.681  28.174  1.00  0.00     0.031 C 
ATOM     47  C   UNL A   1      43.847  26.999  31.786  1.00  0.00     0.029 A 
ATOM     48  C   UNL A   1      43.022  27.972  32.489  1.00  0.00     0.049 A 
ATOM     49  H   UNL A   1      41.364  29.004  31.761  1.00  0.00     0.167 HD
ATOM     50  C   UNL A   1      37.811  30.952  30.149  1.00  0.00     0.037 A 
ATOM     51  C   UNL A   1      43.209  28.371  33.759  1.00  0.00     0.037 A 
ATOM     52  C   UNL A   1      37.883  31.377  31.529  1.00  0.00     0.049 A 
ATOM     53  C   UNL A   1      42.241  29.340  34.371  1.00  0.00     0.074 A 
ATOM     54  C   UNL A   1      37.024  32.215  32.223  1.00  0.00     0.029 A 
ATOM     55  N   UNL A   1      38.883  31.016  32.421  1.00  0.00    -0.354 N 
ATOM     56  N   UNL A   1      41.176  29.892  33.846  1.00  0.00    -0.248 NA
ATOM     57  C   UNL A   1      42.498  29.726  35.764  1.00  0.00     0.031 C 
ATOM     58  C   UNL A   1      37.532  32.399  33.516  1.00  0.00     0.029 A 
ATOM     59  C   UNL A   1      38.679  31.634  33.647  1.00  0.00     0.049 A 
ATOM     60  H   UNL A   1      39.630  30.408  32.214  1.00  0.00     0.167 HD
ATOM     61  C   UNL A   1      40.622  30.674  34.849  1.00  0.00     0.074 A 
ATOM     62  C   UNL A   1      41.453  30.497  36.023  1.00  0.00     0.031 C 
ATOM     63  C   UNL A   1      39.525  31.471  34.803  1.00  0.00     0.037 A 
BRANCH  50  64
ATOM     64  C   UNL A   1      36.701  31.498  29.297  1.00  0.00     0.057 A 
ATOM     65  C   UNL A   1      35.620  30.694  28.913  1.00  0.00     0.134 A 
ATOM     66  C   UNL A   1      36.728  32.813  28.810  1.00  0.00     0.134 A 
ATOM     67  F   UNL A   1      35.535  29.422  29.330  1.00  0.00    -0.206 F 
ATOM     68  C   UNL A   1      34.608  31.175  28.079  1.00  0.00     0.040 A 
ATOM     69  C   UNL A   1      35.708  33.314  27.997  1.00  0.00     0.040 A 
ATOM     70  F   UNL A   1      37.732  33.638  29.140  1.00  0.00    -0.206 F 
ATOM     71  C   UNL A   1      34.647  32.492  27.625  1.00  0.00     0.006 A 
ENDBRANCH  50  64
BRANCH  51  72
ATOM     72  C   UNL A   1      44.331  27.815  34.552  1.00  0.00     0.057 A 
ATOM     73  C   UNL A   1      44.163  26.684  35.360  1.00  0.00     0.134 A 
ATOM     74  C   UNL A   1      45.603  28.397  34.506  1.00  0.00     0.134 A 
ATOM     75  F   UNL A   1      42.965  26.091  35.456  1.00  0.00    -0.206 F 
ATOM     76  C   UNL A   1      45.223  26.151  36.093  1.00  0.00     0.040 A 
ATOM     77  C   UNL A   1      46.678  27.857  35.213  1.00  0.00     0.040 A 
ATOM     78  F   UNL A   1      45.825  29.475  33.740  1.00  0.00    -0.206 F 
ATOM     79  C   UNL A   1      46.488  26.731  36.011  1.00  0.00     0.006 A 
ENDBRANCH  51  72
BRANCH  63  80
ATOM     80  C   UNL A   1      39.171  32.192  36.073  1.00  0.00     0.057 A 
ATOM     81  C   UNL A   1      39.657  33.481  36.324  1.00  0.00     0.134 A 
ATOM     82  C   UNL A   1      38.311  31.630  37.029  1.00  0.00     0.134 A 
ATOM     83  F   UNL A   1      40.490  34.077  35.458  1.00  0.00    -0.206 F 
ATOM     84  C   UNL A   1      39.286  34.192  37.467  1.00  0.00     0.040 A 
ATOM     85  C   UNL A   1      37.908  32.344  38.159  1.00  0.00     0.040 A 
ATOM     86  F   UNL A   1      37.795  30.406  36.842  1.00  0.00    -0.206 F 
ATOM     87  C   UNL A   1      38.397  33.629  38.381  1.00  0.00     0.006 A 
ENDBRANCH  63  80
ENDBRANCH  37  38
ENDBRANCH  30  32
ENDBRANCH  29  30
ENDBRANCH  28  29
ENDBRANCH  27  28
ENDBRANCH  26  27
ENDBRANCH  25  26
ENDBRANCH   1  25
TORSDOF 22
ENDMDL
