MODEL 1
REMARK VINA RESULT:      -9.7      0.000      0.000
REMARK SMILES C[C@H]([NH2+][C@H](C)c1ccccn1)[C@@H](C)C(=O)OCCOCCOCCOCCOC(=O)c1ccc(-c2c3nc(c(-c4c(F)cccc4F)c4ccc([nH]4)c(-c4c(F)cccc4F)c4nc(c(-c5c(F)cccc5F)c5ccc2[nH]5)C=C4)C=C3)cc1
REMARK SMILES IDX 21 1 20 2 19 3 18 4 17 5 16 6 14 7 15 8 12 9 13 10 2 11 1 12
REMARK SMILES IDX 3 13 4 16 5 17 6 18 7 19 11 20 8 21 10 22 9 23 22 24 23 25
REMARK SMILES IDX 24 26 25 27 26 28 27 29 28 30 29 31 30 32 31 33 32 34 84 35
REMARK SMILES IDX 33 36 83 37 34 38 35 39 36 40 77 41 37 42 82 43 76 44 78 45
REMARK SMILES IDX 38 46 81 47 75 48 74 49 39 51 65 52 48 53 64 54 49 55 52 56
REMARK SMILES IDX 63 57 79 58 50 59 51 60 62 62 80 63 53 64 40 65 41 66 46 67
REMARK SMILES IDX 42 68 43 69 45 70 47 71 44 72 66 73 67 74 72 75 68 76 69 77
REMARK SMILES IDX 71 78 73 79 70 80 54 81 55 82 60 83 56 84 57 85 59 86 61 87
REMARK SMILES IDX 58 88
REMARK H PARENT 3 14 3 15 78 50 52 61
REMARK Flexibility Score: inf
ROOT
ATOM      1  C   UNL A   1      34.341  22.810  24.234  1.00  0.00     0.188 C 
ENDROOT
BRANCH   1   2
ATOM      2  C   UNL A   1      33.394  24.013  24.258  1.00  0.00     0.188 C 
BRANCH   2   3
ATOM      3  O   UNL A   1      32.008  23.850  23.964  1.00  0.00    -0.376 OA
BRANCH   3   4
ATOM      4  C   UNL A   1      31.086  23.649  25.021  1.00  0.00     0.202 C 
BRANCH   4   5
ATOM      5  C   UNL A   1      30.693  24.895  25.860  1.00  0.00     0.261 C 
BRANCH   5   6
ATOM      6  O   UNL A   1      31.651  25.443  26.809  1.00  0.00    -0.463 OA
BRANCH   6   7
ATOM      7  C   UNL A   1      31.765  26.792  26.770  1.00  0.00     0.314 C 
ATOM      8  O   UNL A   1      31.038  27.538  27.429  1.00  0.00    -0.252 OA
BRANCH   7   9
ATOM      9  C   UNL A   1      32.756  27.397  25.768  1.00  0.00     0.154 C 
ATOM     10  C   UNL A   1      33.665  28.277  26.647  1.00  0.00     0.026 C 
BRANCH   9  11
ATOM     11  C   UNL A   1      32.534  28.144  24.407  1.00  0.00     0.193 C 
ATOM     12  C   UNL A   1      33.583  28.957  23.650  1.00  0.00     0.076 C 
BRANCH  11  13
ATOM     13  N   UNL A   1      31.283  28.944  24.402  1.00  0.00    -0.336 N 
ATOM     14  H   UNL A   1      31.560  29.897  24.167  1.00  0.00     0.347 HD
ATOM     15  H   UNL A   1      30.904  28.740  25.327  1.00  0.00     0.347 HD
BRANCH  13  16
ATOM     16  C   UNL A   1      30.124  28.624  23.527  1.00  0.00     0.229 C 
ATOM     17  C   UNL A   1      30.372  27.522  22.483  1.00  0.00     0.082 C 
BRANCH  16  18
ATOM     18  C   UNL A   1      29.425  29.881  22.973  1.00  0.00     0.097 A 
ATOM     19  C   UNL A   1      29.207  31.024  23.746  1.00  0.00     0.030 A 
ATOM     20  N   UNL A   1      29.068  29.853  21.661  1.00  0.00    -0.255 NA
ATOM     21  C   UNL A   1      28.563  32.124  23.178  1.00  0.00     0.004 A 
ATOM     22  C   UNL A   1      28.430  30.921  21.142  1.00  0.00     0.111 A 
ATOM     23  C   UNL A   1      28.155  32.070  21.855  1.00  0.00     0.020 A 
ENDBRANCH  16  18
ENDBRANCH  13  16
ENDBRANCH  11  13
ENDBRANCH   9  11
ENDBRANCH   7   9
ENDBRANCH   6   7
ENDBRANCH   5   6
ENDBRANCH   4   5
ENDBRANCH   3   4
ENDBRANCH   2   3
ENDBRANCH   1   2
BRANCH   1  24
ATOM     24  O   UNL A   1      35.724  23.102  24.287  1.00  0.00    -0.377 OA
BRANCH  24  25
ATOM     25  C   UNL A   1      36.422  22.683  25.441  1.00  0.00     0.188 C 
BRANCH  25  26
ATOM     26  C   UNL A   1      37.664  21.818  25.191  1.00  0.00     0.188 C 
BRANCH  26  27
ATOM     27  O   UNL A   1      37.351  20.439  25.036  1.00  0.00    -0.376 OA
BRANCH  27  28
ATOM     28  C   UNL A   1      38.406  19.493  25.011  1.00  0.00     0.202 C 
BRANCH  28  29
ATOM     29  C   UNL A   1      39.552  19.647  26.026  1.00  0.00     0.261 C 
BRANCH  29  30
ATOM     30  O   UNL A   1      40.861  19.232  25.608  1.00  0.00    -0.460 OA
BRANCH  30  31
ATOM     31  C   UNL A   1      41.890  19.393  26.467  1.00  0.00     0.338 C 
ATOM     32  O   UNL A   1      42.695  18.545  26.813  1.00  0.00    -0.246 OA
BRANCH  31  33
ATOM     33  C   UNL A   1      42.005  20.841  26.752  1.00  0.00     0.060 A 
ATOM     34  C   UNL A   1      41.873  21.750  25.693  1.00  0.00     0.016 A 
ATOM     35  C   UNL A   1      42.181  21.307  28.058  1.00  0.00     0.016 A 
ATOM     36  C   UNL A   1      41.913  23.123  25.936  1.00  0.00     0.010 A 
ATOM     37  C   UNL A   1      42.261  22.683  28.295  1.00  0.00     0.010 A 
ATOM     38  C   UNL A   1      42.144  23.597  27.233  1.00  0.00    -0.014 A 
BRANCH  38  39
ATOM     39  C   UNL A   1      42.439  25.034  27.450  1.00  0.00     0.031 A 
ATOM     40  C   UNL A   1      43.778  25.560  27.013  1.00  0.00     0.074 A 
ATOM     41  C   UNL A   1      41.537  25.860  28.008  1.00  0.00     0.049 A 
ATOM     42  N   UNL A   1      44.289  26.755  27.150  1.00  0.00    -0.248 NA
ATOM     43  C   UNL A   1      44.658  24.601  26.327  1.00  0.00     0.031 C 
ATOM     44  C   UNL A   1      40.187  25.483  28.422  1.00  0.00     0.029 A 
ATOM     45  N   UNL A   1      41.631  27.192  28.331  1.00  0.00    -0.354 N 
ATOM     46  C   UNL A   1      45.550  26.692  26.571  1.00  0.00     0.074 A 
ATOM     47  C   UNL A   1      45.737  25.336  26.105  1.00  0.00     0.031 C 
ATOM     48  C   UNL A   1      39.584  26.556  28.965  1.00  0.00     0.029 A 
ATOM     49  C   UNL A   1      40.517  27.682  28.970  1.00  0.00     0.049 A 
ATOM     50  H   UNL A   1      42.420  27.742  28.124  1.00  0.00     0.167 HD
ATOM     51  C   UNL A   1      46.467  27.678  26.436  1.00  0.00     0.037 A 
ATOM     52  C   UNL A   1      40.295  28.891  29.523  1.00  0.00     0.037 A 
ATOM     53  C   UNL A   1      46.282  29.022  26.917  1.00  0.00     0.049 A 
ATOM     54  C   UNL A   1      41.374  29.942  29.457  1.00  0.00     0.074 A 
ATOM     55  C   UNL A   1      47.143  30.100  26.817  1.00  0.00     0.029 A 
ATOM     56  N   UNL A   1      45.163  29.466  27.606  1.00  0.00    -0.354 N 
ATOM     57  N   UNL A   1      42.551  29.886  28.880  1.00  0.00    -0.248 NA
ATOM     58  C   UNL A   1      41.097  31.222  30.125  1.00  0.00     0.031 C 
ATOM     59  C   UNL A   1      46.573  31.178  27.501  1.00  0.00     0.029 A 
ATOM     60  C   UNL A   1      45.330  30.790  27.976  1.00  0.00     0.049 A 
ATOM     61  H   UNL A   1      44.368  28.920  27.804  1.00  0.00     0.167 HD
ATOM     62  C   UNL A   1      43.144  31.126  29.098  1.00  0.00     0.074 A 
ATOM     63  C   UNL A   1      42.188  31.920  29.840  1.00  0.00     0.031 C 
ATOM     64  C   UNL A   1      44.370  31.565  28.721  1.00  0.00     0.037 A 
BRANCH  51  65
ATOM     65  C   UNL A   1      47.770  27.325  25.779  1.00  0.00     0.057 A 
ATOM     66  C   UNL A   1      47.963  27.453  24.397  1.00  0.00     0.134 A 
ATOM     67  C   UNL A   1      48.852  26.873  26.543  1.00  0.00     0.134 A 
ATOM     68  F   UNL A   1      46.961  27.864  23.604  1.00  0.00    -0.206 F 
ATOM     69  C   UNL A   1      49.178  27.118  23.797  1.00  0.00     0.040 A 
ATOM     70  C   UNL A   1      50.081  26.564  25.959  1.00  0.00     0.040 A 
ATOM     71  F   UNL A   1      48.735  26.729  27.872  1.00  0.00    -0.206 F 
ATOM     72  C   UNL A   1      50.244  26.679  24.580  1.00  0.00     0.006 A 
ENDBRANCH  51  65
BRANCH  52  73
ATOM     73  C   UNL A   1      39.012  29.170  30.223  1.00  0.00     0.057 A 
ATOM     74  C   UNL A   1      37.929  29.749  29.553  1.00  0.00     0.134 A 
ATOM     75  C   UNL A   1      38.851  28.893  31.586  1.00  0.00     0.134 A 
ATOM     76  F   UNL A   1      38.029  30.064  28.253  1.00  0.00    -0.206 F 
ATOM     77  C   UNL A   1      36.739  30.056  30.215  1.00  0.00     0.040 A 
ATOM     78  C   UNL A   1      37.658  29.169  32.255  1.00  0.00     0.040 A 
ATOM     79  F   UNL A   1      39.854  28.344  32.289  1.00  0.00    -0.206 F 
ATOM     80  C   UNL A   1      36.599  29.760  31.570  1.00  0.00     0.006 A 
ENDBRANCH  52  73
BRANCH  64  81
ATOM     81  C   UNL A   1      44.744  32.972  29.090  1.00  0.00     0.057 A 
ATOM     82  C   UNL A   1      45.476  33.261  30.249  1.00  0.00     0.134 A 
ATOM     83  C   UNL A   1      44.414  34.045  28.252  1.00  0.00     0.134 A 
ATOM     84  F   UNL A   1      45.814  32.281  31.101  1.00  0.00    -0.206 F 
ATOM     85  C   UNL A   1      45.847  34.567  30.572  1.00  0.00     0.040 A 
ATOM     86  C   UNL A   1      44.807  35.352  28.549  1.00  0.00     0.040 A 
ATOM     87  F   UNL A   1      43.725  33.840  27.120  1.00  0.00    -0.206 F 
ATOM     88  C   UNL A   1      45.520  35.616  29.715  1.00  0.00     0.006 A 
ENDBRANCH  64  81
ENDBRANCH  38  39
ENDBRANCH  31  33
ENDBRANCH  30  31
ENDBRANCH  29  30
ENDBRANCH  28  29
ENDBRANCH  27  28
ENDBRANCH  26  27
ENDBRANCH  25  26
ENDBRANCH  24  25
ENDBRANCH   1  24
TORSDOF 24
ENDMDL
MODEL 2
REMARK VINA RESULT:      -9.5      1.489      6.317
REMARK SMILES C[C@H]([NH2+][C@H](C)c1ccccn1)[C@@H](C)C(=O)OCCOCCOCCOCCOC(=O)c1ccc(-c2c3nc(c(-c4c(F)cccc4F)c4ccc([nH]4)c(-c4c(F)cccc4F)c4nc(c(-c5c(F)cccc5F)c5ccc2[nH]5)C=C4)C=C3)cc1
REMARK SMILES IDX 21 1 20 2 19 3 18 4 17 5 16 6 14 7 15 8 12 9 13 10 2 11 1 12
REMARK SMILES IDX 3 13 4 16 5 17 6 18 7 19 11 20 8 21 10 22 9 23 22 24 23 25
REMARK SMILES IDX 24 26 25 27 26 28 27 29 28 30 29 31 30 32 31 33 32 34 84 35
REMARK SMILES IDX 33 36 83 37 34 38 35 39 36 40 77 41 37 42 82 43 76 44 78 45
REMARK SMILES IDX 38 46 81 47 75 48 74 49 39 51 65 52 48 53 64 54 49 55 52 56
REMARK SMILES IDX 63 57 79 58 50 59 51 60 62 62 80 63 53 64 40 65 41 66 46 67
REMARK SMILES IDX 42 68 43 69 45 70 47 71 44 72 66 73 67 74 72 75 68 76 69 77
REMARK SMILES IDX 71 78 73 79 70 80 54 81 55 82 60 83 56 84 57 85 59 86 61 87
REMARK SMILES IDX 58 88
REMARK H PARENT 3 14 3 15 78 50 52 61
REMARK Flexibility Score: inf
ROOT
ATOM      1  C   UNL A   1      35.045  21.653  26.445  1.00  0.00     0.188 C 
ENDROOT
BRANCH   1   2
ATOM      2  C   UNL A   1      33.654  21.204  26.903  1.00  0.00     0.188 C 
BRANCH   2   3
ATOM      3  O   UNL A   1      32.663  20.833  25.949  1.00  0.00    -0.376 OA
BRANCH   3   4
ATOM      4  C   UNL A   1      31.849  21.832  25.359  1.00  0.00     0.202 C 
BRANCH   4   5
ATOM      5  C   UNL A   1      31.321  22.953  26.293  1.00  0.00     0.261 C 
BRANCH   5   6
ATOM      6  O   UNL A   1      32.040  24.216  26.364  1.00  0.00    -0.463 OA
BRANCH   6   7
ATOM      7  C   UNL A   1      32.097  24.892  25.192  1.00  0.00     0.314 C 
ATOM      8  O   UNL A   1      33.151  25.338  24.735  1.00  0.00    -0.252 OA
BRANCH   7   9
ATOM      9  C   UNL A   1      30.774  25.213  24.486  1.00  0.00     0.154 C 
ATOM     10  C   UNL A   1      31.076  24.918  23.004  1.00  0.00     0.026 C 
BRANCH   9  11
ATOM     11  C   UNL A   1      29.842  26.472  24.544  1.00  0.00     0.193 C 
ATOM     12  C   UNL A   1      28.526  26.650  23.787  1.00  0.00     0.076 C 
BRANCH  11  13
ATOM     13  N   UNL A   1      30.600  27.741  24.394  1.00  0.00    -0.336 N 
ATOM     14  H   UNL A   1      31.531  27.558  24.769  1.00  0.00     0.347 HD
ATOM     15  H   UNL A   1      29.985  28.405  24.864  1.00  0.00     0.347 HD
BRANCH  13  16
ATOM     16  C   UNL A   1      30.809  28.404  23.080  1.00  0.00     0.229 C 
ATOM     17  C   UNL A   1      32.271  28.735  22.733  1.00  0.00     0.082 C 
BRANCH  16  18
ATOM     18  C   UNL A   1      29.817  29.557  22.825  1.00  0.00     0.097 A 
ATOM     19  C   UNL A   1      29.489  30.498  23.804  1.00  0.00     0.030 A 
ATOM     20  N   UNL A   1      29.305  29.654  21.569  1.00  0.00    -0.255 NA
ATOM     21  C   UNL A   1      28.580  31.513  23.502  1.00  0.00     0.004 A 
ATOM     22  C   UNL A   1      28.414  30.631  21.309  1.00  0.00     0.111 A 
ATOM     23  C   UNL A   1      28.020  31.576  22.236  1.00  0.00     0.020 A 
ENDBRANCH  16  18
ENDBRANCH  13  16
ENDBRANCH  11  13
ENDBRANCH   9  11
ENDBRANCH   7   9
ENDBRANCH   6   7
ENDBRANCH   5   6
ENDBRANCH   4   5
ENDBRANCH   3   4
ENDBRANCH   2   3
ENDBRANCH   1   2
BRANCH   1  24
ATOM     24  O   UNL A   1      35.251  23.050  26.349  1.00  0.00    -0.377 OA
BRANCH  24  25
ATOM     25  C   UNL A   1      36.348  23.483  25.574  1.00  0.00     0.188 C 
BRANCH  25  26
ATOM     26  C   UNL A   1      37.036  22.403  24.730  1.00  0.00     0.188 C 
BRANCH  26  27
ATOM     27  O   UNL A   1      38.245  21.934  25.316  1.00  0.00    -0.376 OA
BRANCH  27  28
ATOM     28  C   UNL A   1      38.563  20.556  25.225  1.00  0.00     0.202 C 
BRANCH  28  29
ATOM     29  C   UNL A   1      39.666  19.998  26.142  1.00  0.00     0.261 C 
BRANCH  29  30
ATOM     30  O   UNL A   1      40.569  19.037  25.574  1.00  0.00    -0.460 OA
BRANCH  30  31
ATOM     31  C   UNL A   1      41.842  19.011  26.021  1.00  0.00     0.338 C 
ATOM     32  O   UNL A   1      42.625  18.079  25.949  1.00  0.00    -0.246 OA
BRANCH  31  33
ATOM     33  C   UNL A   1      42.198  20.391  26.423  1.00  0.00     0.060 A 
ATOM     34  C   UNL A   1      42.483  21.333  25.423  1.00  0.00     0.016 A 
ATOM     35  C   UNL A   1      42.194  20.774  27.766  1.00  0.00     0.016 A 
ATOM     36  C   UNL A   1      42.760  22.657  25.764  1.00  0.00     0.010 A 
ATOM     37  C   UNL A   1      42.512  22.093  28.109  1.00  0.00     0.010 A 
ATOM     38  C   UNL A   1      42.812  23.036  27.111  1.00  0.00    -0.014 A 
BRANCH  38  39
ATOM     39  C   UNL A   1      43.352  24.367  27.480  1.00  0.00     0.031 A 
ATOM     40  C   UNL A   1      42.383  25.432  27.913  1.00  0.00     0.074 A 
ATOM     41  C   UNL A   1      44.671  24.625  27.447  1.00  0.00     0.049 A 
ATOM     42  N   UNL A   1      42.604  26.682  28.224  1.00  0.00    -0.248 NA
ATOM     43  C   UNL A   1      40.972  25.025  28.009  1.00  0.00     0.031 C 
ATOM     44  C   UNL A   1      45.712  23.661  27.097  1.00  0.00     0.029 A 
ATOM     45  N   UNL A   1      45.357  25.787  27.703  1.00  0.00    -0.354 N 
ATOM     46  C   UNL A   1      41.362  27.213  28.548  1.00  0.00     0.074 A 
ATOM     47  C   UNL A   1      40.389  26.157  28.372  1.00  0.00     0.031 C 
ATOM     48  C   UNL A   1      46.907  24.278  27.141  1.00  0.00     0.029 A 
ATOM     49  C   UNL A   1      46.709  25.686  27.484  1.00  0.00     0.049 A 
ATOM     50  H   UNL A   1      44.921  26.613  28.014  1.00  0.00     0.167 HD
ATOM     51  C   UNL A   1      41.061  28.467  28.960  1.00  0.00     0.037 A 
ATOM     52  C   UNL A   1      47.669  26.632  27.525  1.00  0.00     0.037 A 
ATOM     53  C   UNL A   1      42.031  29.518  29.117  1.00  0.00     0.049 A 
ATOM     54  C   UNL A   1      47.294  28.048  27.881  1.00  0.00     0.074 A 
ATOM     55  C   UNL A   1      41.831  30.818  29.544  1.00  0.00     0.029 A 
ATOM     56  N   UNL A   1      43.382  29.392  28.835  1.00  0.00    -0.354 N 
ATOM     57  N   UNL A   1      46.123  28.535  28.218  1.00  0.00    -0.248 NA
ATOM     58  C   UNL A   1      48.371  29.048  27.856  1.00  0.00     0.031 C 
ATOM     59  C   UNL A   1      43.051  31.497  29.459  1.00  0.00     0.029 A 
ATOM     60  C   UNL A   1      44.023  30.604  29.037  1.00  0.00     0.049 A 
ATOM     61  H   UNL A   1      43.823  28.564  28.535  1.00  0.00     0.167 HD
ATOM     62  C   UNL A   1      46.327  29.889  28.463  1.00  0.00     0.074 A 
ATOM     63  C   UNL A   1      47.738  30.141  28.258  1.00  0.00     0.031 C 
ATOM     64  C   UNL A   1      45.428  30.838  28.822  1.00  0.00     0.037 A 
BRANCH  51  65
ATOM     65  C   UNL A   1      39.617  28.778  29.228  1.00  0.00     0.057 A 
ATOM     66  C   UNL A   1      39.047  28.628  30.500  1.00  0.00     0.134 A 
ATOM     67  C   UNL A   1      38.791  29.255  28.203  1.00  0.00     0.134 A 
ATOM     68  F   UNL A   1      39.779  28.158  31.522  1.00  0.00    -0.206 F 
ATOM     69  C   UNL A   1      37.702  28.917  30.735  1.00  0.00     0.040 A 
ATOM     70  C   UNL A   1      37.452  29.576  28.433  1.00  0.00     0.040 A 
ATOM     71  F   UNL A   1      39.272  29.423  26.962  1.00  0.00    -0.206 F 
ATOM     72  C   UNL A   1      36.903  29.400  29.701  1.00  0.00     0.006 A 
ENDBRANCH  51  65
BRANCH  52  73
ATOM     73  C   UNL A   1      49.075  26.287  27.186  1.00  0.00     0.057 A 
ATOM     74  C   UNL A   1      49.967  25.828  28.161  1.00  0.00     0.134 A 
ATOM     75  C   UNL A   1      49.569  26.439  25.884  1.00  0.00     0.134 A 
ATOM     76  F   UNL A   1      49.565  25.688  29.432  1.00  0.00    -0.206 F 
ATOM     77  C   UNL A   1      51.301  25.547  27.859  1.00  0.00     0.040 A 
ATOM     78  C   UNL A   1      50.893  26.136  25.561  1.00  0.00     0.040 A 
ATOM     79  F   UNL A   1      48.767  26.882  24.903  1.00  0.00    -0.206 F 
ATOM     80  C   UNL A   1      51.766  25.696  26.553  1.00  0.00     0.006 A 
ENDBRANCH  52  73
BRANCH  64  81
ATOM     81  C   UNL A   1      45.943  32.235  29.031  1.00  0.00     0.057 A 
ATOM     82  C   UNL A   1      46.392  32.676  30.282  1.00  0.00     0.134 A 
ATOM     83  C   UNL A   1      46.039  33.131  27.958  1.00  0.00     0.134 A 
ATOM     84  F   UNL A   1      46.317  31.872  31.354  1.00  0.00    -0.206 F 
ATOM     85  C   UNL A   1      46.899  33.964  30.463  1.00  0.00     0.040 A 
ATOM     86  C   UNL A   1      46.572  34.411  28.121  1.00  0.00     0.040 A 
ATOM     87  F   UNL A   1      45.638  32.771  26.730  1.00  0.00    -0.206 F 
ATOM     88  C   UNL A   1      46.997  34.833  29.378  1.00  0.00     0.006 A 
ENDBRANCH  64  81
ENDBRANCH  38  39
ENDBRANCH  31  33
ENDBRANCH  30  31
ENDBRANCH  29  30
ENDBRANCH  28  29
ENDBRANCH  27  28
ENDBRANCH  26  27
ENDBRANCH  25  26
ENDBRANCH  24  25
ENDBRANCH   1  24
TORSDOF 24
ENDMDL
MODEL 3
REMARK VINA RESULT:      -9.4      4.603      8.415
REMARK SMILES C[C@H]([NH2+][C@H](C)c1ccccn1)[C@@H](C)C(=O)OCCOCCOCCOCCOC(=O)c1ccc(-c2c3nc(c(-c4c(F)cccc4F)c4ccc([nH]4)c(-c4c(F)cccc4F)c4nc(c(-c5c(F)cccc5F)c5ccc2[nH]5)C=C4)C=C3)cc1
REMARK SMILES IDX 21 1 20 2 19 3 18 4 17 5 16 6 14 7 15 8 12 9 13 10 2 11 1 12
REMARK SMILES IDX 3 13 4 16 5 17 6 18 7 19 11 20 8 21 10 22 9 23 22 24 23 25
REMARK SMILES IDX 24 26 25 27 26 28 27 29 28 30 29 31 30 32 31 33 32 34 84 35
REMARK SMILES IDX 33 36 83 37 34 38 35 39 36 40 77 41 37 42 82 43 76 44 78 45
REMARK SMILES IDX 38 46 81 47 75 48 74 49 39 51 65 52 48 53 64 54 49 55 52 56
REMARK SMILES IDX 63 57 79 58 50 59 51 60 62 62 80 63 53 64 40 65 41 66 46 67
REMARK SMILES IDX 42 68 43 69 45 70 47 71 44 72 66 73 67 74 72 75 68 76 69 77
REMARK SMILES IDX 71 78 73 79 70 80 54 81 55 82 60 83 56 84 57 85 59 86 61 87
REMARK SMILES IDX 58 88
REMARK H PARENT 3 14 3 15 78 50 52 61
REMARK Flexibility Score: inf
ROOT
ATOM      1  C   UNL A   1      35.897  21.778  25.873  1.00  0.00     0.188 C 
ENDROOT
BRANCH   1   2
ATOM      2  C   UNL A   1      34.624  21.811  25.023  1.00  0.00     0.188 C 
BRANCH   2   3
ATOM      3  O   UNL A   1      33.980  20.599  24.636  1.00  0.00    -0.376 OA
BRANCH   3   4
ATOM      4  C   UNL A   1      32.611  20.617  24.274  1.00  0.00     0.202 C 
BRANCH   4   5
ATOM      5  C   UNL A   1      31.993  21.997  23.920  1.00  0.00     0.261 C 
BRANCH   5   6
ATOM      6  O   UNL A   1      32.150  22.521  22.572  1.00  0.00    -0.463 OA
BRANCH   6   7
ATOM      7  C   UNL A   1      32.986  23.582  22.479  1.00  0.00     0.314 C 
ATOM      8  O   UNL A   1      34.076  23.519  21.907  1.00  0.00    -0.252 OA
BRANCH   7   9
ATOM      9  C   UNL A   1      32.602  24.864  23.229  1.00  0.00     0.154 C 
ATOM     10  C   UNL A   1      32.516  25.922  22.113  1.00  0.00     0.026 C 
BRANCH   9  11
ATOM     11  C   UNL A   1      33.218  25.552  24.496  1.00  0.00     0.193 C 
ATOM     12  C   UNL A   1      32.890  25.212  25.949  1.00  0.00     0.076 C 
BRANCH  11  13
ATOM     13  N   UNL A   1      33.215  27.033  24.389  1.00  0.00    -0.336 N 
ATOM     14  H   UNL A   1      32.969  27.244  23.422  1.00  0.00     0.347 HD
ATOM     15  H   UNL A   1      34.144  27.267  24.740  1.00  0.00     0.347 HD
BRANCH  13  16
ATOM     16  C   UNL A   1      32.350  27.901  25.232  1.00  0.00     0.229 C 
ATOM     17  C   UNL A   1      31.152  28.540  24.508  1.00  0.00     0.082 C 
BRANCH  16  18
ATOM     18  C   UNL A   1      33.155  28.875  26.115  1.00  0.00     0.097 A 
ATOM     19  C   UNL A   1      32.647  30.107  26.532  1.00  0.00     0.030 A 
ATOM     20  N   UNL A   1      34.383  28.457  26.522  1.00  0.00    -0.255 NA
ATOM     21  C   UNL A   1      33.434  30.940  27.327  1.00  0.00     0.004 A 
ATOM     22  C   UNL A   1      35.132  29.288  27.274  1.00  0.00     0.111 A 
ATOM     23  C   UNL A   1      34.706  30.531  27.696  1.00  0.00     0.020 A 
ENDBRANCH  16  18
ENDBRANCH  13  16
ENDBRANCH  11  13
ENDBRANCH   9  11
ENDBRANCH   7   9
ENDBRANCH   6   7
ENDBRANCH   5   6
ENDBRANCH   4   5
ENDBRANCH   3   4
ENDBRANCH   2   3
ENDBRANCH   1   2
BRANCH   1  24
ATOM     24  O   UNL A   1      36.639  22.982  25.934  1.00  0.00    -0.377 OA
BRANCH  24  25
ATOM     25  C   UNL A   1      38.045  22.870  25.867  1.00  0.00     0.188 C 
BRANCH  25  26
ATOM     26  C   UNL A   1      38.594  21.447  25.707  1.00  0.00     0.188 C 
BRANCH  26  27
ATOM     27  O   UNL A   1      39.939  21.324  26.154  1.00  0.00    -0.376 OA
BRANCH  27  28
ATOM     28  C   UNL A   1      40.558  22.433  26.784  1.00  0.00     0.202 C 
BRANCH  28  29
ATOM     29  C   UNL A   1      41.867  22.977  26.186  1.00  0.00     0.261 C 
BRANCH  29  30
ATOM     30  O   UNL A   1      42.390  24.192  26.744  1.00  0.00    -0.460 OA
BRANCH  30  31
ATOM     31  C   UNL A   1      42.018  25.365  26.190  1.00  0.00     0.338 C 
ATOM     32  O   UNL A   1      41.857  25.597  25.003  1.00  0.00    -0.246 OA
BRANCH  31  33
ATOM     33  C   UNL A   1      41.628  26.271  27.293  1.00  0.00     0.060 A 
ATOM     34  C   UNL A   1      42.306  27.490  27.437  1.00  0.00     0.016 A 
ATOM     35  C   UNL A   1      40.564  25.956  28.143  1.00  0.00     0.016 A 
ATOM     36  C   UNL A   1      41.922  28.395  28.427  1.00  0.00     0.010 A 
ATOM     37  C   UNL A   1      40.206  26.847  29.160  1.00  0.00     0.010 A 
ATOM     38  C   UNL A   1      40.893  28.063  29.317  1.00  0.00    -0.014 A 
BRANCH  38  39
ATOM     39  C   UNL A   1      40.657  28.904  30.515  1.00  0.00     0.031 A 
ATOM     40  C   UNL A   1      39.575  29.945  30.452  1.00  0.00     0.074 A 
ATOM     41  C   UNL A   1      41.375  28.742  31.641  1.00  0.00     0.049 A 
ATOM     42  N   UNL A   1      39.223  30.837  31.340  1.00  0.00    -0.248 NA
ATOM     43  C   UNL A   1      38.782  29.981  29.212  1.00  0.00     0.031 C 
ATOM     44  C   UNL A   1      42.413  27.733  31.844  1.00  0.00     0.029 A 
ATOM     45  N   UNL A   1      41.343  29.438  32.824  1.00  0.00    -0.354 N 
ATOM     46  C   UNL A   1      38.172  31.541  30.769  1.00  0.00     0.074 A 
ATOM     47  C   UNL A   1      37.960  30.992  29.447  1.00  0.00     0.031 C 
ATOM     48  C   UNL A   1      42.934  27.889  33.074  1.00  0.00     0.029 A 
ATOM     49  C   UNL A   1      42.294  29.030  33.728  1.00  0.00     0.049 A 
ATOM     50  H   UNL A   1      40.700  30.160  33.007  1.00  0.00     0.167 HD
ATOM     51  C   UNL A   1      37.445  32.553  31.299  1.00  0.00     0.037 A 
ATOM     52  C   UNL A   1      42.627  29.542  34.929  1.00  0.00     0.037 A 
ATOM     53  C   UNL A   1      37.672  33.107  32.608  1.00  0.00     0.049 A 
ATOM     54  C   UNL A   1      41.876  30.739  35.455  1.00  0.00     0.074 A 
ATOM     55  C   UNL A   1      36.982  34.122  33.245  1.00  0.00     0.029 A 
ATOM     56  N   UNL A   1      38.678  32.702  33.472  1.00  0.00    -0.354 N 
ATOM     57  N   UNL A   1      40.862  31.379  34.923  1.00  0.00    -0.248 NA
ATOM     58  C   UNL A   1      42.319  31.288  36.745  1.00  0.00     0.031 C 
ATOM     59  C   UNL A   1      37.611  34.375  34.468  1.00  0.00     0.029 A 
ATOM     60  C   UNL A   1      38.655  33.477  34.620  1.00  0.00     0.049 A 
ATOM     61  H   UNL A   1      39.315  31.972  33.296  1.00  0.00     0.167 HD
ATOM     62  C   UNL A   1      40.535  32.391  35.820  1.00  0.00     0.074 A 
ATOM     63  C   UNL A   1      41.443  32.265  36.940  1.00  0.00     0.031 C 
ATOM     64  C   UNL A   1      39.572  33.341  35.724  1.00  0.00     0.037 A 
BRANCH  51  65
ATOM     65  C   UNL A   1      36.366  33.152  30.444  1.00  0.00     0.057 A 
ATOM     66  C   UNL A   1      36.656  34.009  29.374  1.00  0.00     0.134 A 
ATOM     67  C   UNL A   1      35.020  32.848  30.682  1.00  0.00     0.134 A 
ATOM     68  F   UNL A   1      37.924  34.356  29.104  1.00  0.00    -0.206 F 
ATOM     69  C   UNL A   1      35.643  34.563  28.589  1.00  0.00     0.040 A 
ATOM     70  C   UNL A   1      34.001  33.370  29.885  1.00  0.00     0.040 A 
ATOM     71  F   UNL A   1      34.673  32.032  31.690  1.00  0.00    -0.206 F 
ATOM     72  C   UNL A   1      34.311  34.237  28.839  1.00  0.00     0.006 A 
ENDBRANCH  51  65
BRANCH  52  73
ATOM     73  C   UNL A   1      43.749  28.954  35.709  1.00  0.00     0.057 A 
ATOM     74  C   UNL A   1      43.538  27.904  36.609  1.00  0.00     0.134 A 
ATOM     75  C   UNL A   1      45.054  29.451  35.596  1.00  0.00     0.134 A 
ATOM     76  F   UNL A   1      42.307  27.402  36.785  1.00  0.00    -0.206 F 
ATOM     77  C   UNL A   1      44.578  27.379  37.378  1.00  0.00     0.040 A 
ATOM     78  C   UNL A   1      46.109  28.918  36.337  1.00  0.00     0.040 A 
ATOM     79  F   UNL A   1      45.323  30.462  34.755  1.00  0.00    -0.206 F 
ATOM     80  C   UNL A   1      45.871  27.883  37.238  1.00  0.00     0.006 A 
ENDBRANCH  52  73
BRANCH  64  81
ATOM     81  C   UNL A   1      39.440  34.311  36.864  1.00  0.00     0.057 A 
ATOM     82  C   UNL A   1      38.792  33.963  38.056  1.00  0.00     0.134 A 
ATOM     83  C   UNL A   1      40.013  35.587  36.790  1.00  0.00     0.134 A 
ATOM     84  F   UNL A   1      38.211  32.761  38.189  1.00  0.00    -0.206 F 
ATOM     85  C   UNL A   1      38.700  34.857  39.125  1.00  0.00     0.040 A 
ATOM     86  C   UNL A   1      39.954  36.478  37.863  1.00  0.00     0.040 A 
ATOM     87  F   UNL A   1      40.660  35.981  35.683  1.00  0.00    -0.206 F 
ATOM     88  C   UNL A   1      39.290  36.116  39.032  1.00  0.00     0.006 A 
ENDBRANCH  64  81
ENDBRANCH  38  39
ENDBRANCH  31  33
ENDBRANCH  30  31
ENDBRANCH  29  30
ENDBRANCH  28  29
ENDBRANCH  27  28
ENDBRANCH  26  27
ENDBRANCH  25  26
ENDBRANCH  24  25
ENDBRANCH   1  24
TORSDOF 24
ENDMDL
