MODEL 1
REMARK VINA RESULT:     -10.4      0.000      0.000
REMARK SMILES C[N@H+]1CC[C@H]2CN(C(=O)c3csc(-c4ccncc4)n3)C[C@@]2(C(=O)OCCOCCOCCOCCOC(=O)c2ccc(-c3c4nc(c(-c5c(F)cccc5F)c5ccc([nH]5)c(-c5c(F)cccc5F)c5nc(c(-c6c(F)cccc6F)c6ccc3[nH]6)C=C5)C=C4)cc2)C1
REMARK SMILES IDX 30 1 29 2 28 3 27 4 26 5 25 6 23 7 24 8 22 9 1 10 2 11 3 12
REMARK SMILES IDX 94 13 4 15 5 16 21 17 6 18 7 19 8 20 9 21 10 22 11 23 20 24
REMARK SMILES IDX 12 25 13 26 14 27 15 28 19 29 16 30 18 31 17 32 31 33 32 34
REMARK SMILES IDX 33 35 34 36 35 37 36 38 37 39 38 40 39 41 40 42 41 43 93 44
REMARK SMILES IDX 42 45 92 46 43 47 44 48 45 49 86 50 46 51 91 52 85 53 87 54
REMARK SMILES IDX 47 55 90 56 84 57 83 58 48 60 74 61 57 62 73 63 58 64 61 65
REMARK SMILES IDX 72 66 88 67 59 68 60 69 71 71 89 72 62 73 49 74 50 75 55 76
REMARK SMILES IDX 51 77 52 78 54 79 56 80 53 81 75 82 76 83 81 84 77 85 78 86
REMARK SMILES IDX 80 87 82 88 79 89 63 90 64 91 69 92 65 93 66 94 68 95 70 96
REMARK SMILES IDX 67 97
REMARK H PARENT 2 14 87 59 61 70
REMARK Flexibility Score: inf
ROOT
ATOM      1  C   UNL A   1      34.624  31.526  28.252  1.00  0.00     0.188 C 
ENDROOT
BRANCH   1   2
ATOM      2  C   UNL A   1      33.990  30.532  27.277  1.00  0.00     0.188 C 
BRANCH   2   3
ATOM      3  O   UNL A   1      34.525  29.223  27.104  1.00  0.00    -0.376 OA
BRANCH   3   4
ATOM      4  C   UNL A   1      33.498  28.236  26.847  1.00  0.00     0.202 C 
BRANCH   4   5
ATOM      5  C   UNL A   1      33.666  27.532  25.477  1.00  0.00     0.261 C 
BRANCH   5   6
ATOM      6  O   UNL A   1      32.766  28.107  24.506  1.00  0.00    -0.463 OA
BRANCH   6   7
ATOM      7  C   UNL A   1      32.804  27.865  23.145  1.00  0.00     0.320 C 
ATOM      8  O   UNL A   1      33.696  28.227  22.399  1.00  0.00    -0.251 OA
BRANCH   7   9
ATOM      9  C   UNL A   1      31.678  26.828  22.864  1.00  0.00     0.139 C 
ATOM     10  C   UNL A   1      29.206  29.633  23.164  1.00  0.00     0.332 C 
ATOM     11  N   UNL A   1      29.780  28.324  23.443  1.00  0.00    -0.336 N 
ATOM     12  C   UNL A   1      28.798  27.347  23.875  1.00  0.00     0.262 C 
ATOM     13  C   UNL A   1      30.574  27.788  22.332  1.00  0.00     0.283 C 
ATOM     14  H   UNL A   1      30.415  28.491  24.223  1.00  0.00     0.347 HD
ATOM     15  C   UNL A   1      29.410  25.950  23.822  1.00  0.00     0.068 C 
ATOM     16  C   UNL A   1      30.965  25.916  23.928  1.00  0.00     0.039 C 
ATOM     17  C   UNL A   1      32.390  25.782  21.949  1.00  0.00     0.145 C 
ATOM     18  C   UNL A   1      31.357  24.469  23.607  1.00  0.00     0.125 C 
ATOM     19  N   UNL A   1      32.498  24.580  22.762  1.00  0.00    -0.336 N 
BRANCH  19  20
ATOM     20  C   UNL A   1      33.382  23.519  22.664  1.00  0.00     0.273 C 
ATOM     21  O   UNL A   1      34.027  23.328  21.632  1.00  0.00    -0.267 OA
BRANCH  20  22
ATOM     22  C   UNL A   1      33.466  22.564  23.774  1.00  0.00     0.139 A 
ATOM     23  C   UNL A   1      33.993  22.905  25.009  1.00  0.00     0.101 A 
ATOM     24  N   UNL A   1      33.200  21.198  23.624  1.00  0.00    -0.231 NA
ATOM     25  S   UNL A   1      34.143  21.522  26.003  1.00  0.00    -0.122 S 
ATOM     26  C   UNL A   1      33.552  20.548  24.715  1.00  0.00     0.124 A 
BRANCH  26  27
ATOM     27  C   UNL A   1      33.517  19.097  24.884  1.00  0.00     0.013 A 
ATOM     28  C   UNL A   1      32.534  18.502  25.680  1.00  0.00     0.031 A 
ATOM     29  C   UNL A   1      34.457  18.284  24.250  1.00  0.00     0.031 A 
ATOM     30  C   UNL A   1      32.526  17.121  25.790  1.00  0.00     0.111 A 
ATOM     31  C   UNL A   1      34.368  16.914  24.429  1.00  0.00     0.111 A 
ATOM     32  N   UNL A   1      33.420  16.315  25.178  1.00  0.00    -0.265 NA
ENDBRANCH  26  27
ENDBRANCH  20  22
ENDBRANCH  19  20
ENDBRANCH   7   9
ENDBRANCH   6   7
ENDBRANCH   5   6
ENDBRANCH   4   5
ENDBRANCH   3   4
ENDBRANCH   2   3
ENDBRANCH   1   2
BRANCH   1  33
ATOM     33  O   UNL A   1      34.490  32.900  27.989  1.00  0.00    -0.377 OA
BRANCH  33  34
ATOM     34  C   UNL A   1      34.434  33.736  29.126  1.00  0.00     0.188 C 
BRANCH  34  35
ATOM     35  C   UNL A   1      35.167  33.284  30.399  1.00  0.00     0.188 C 
BRANCH  35  36
ATOM     36  O   UNL A   1      35.554  34.333  31.287  1.00  0.00    -0.376 OA
BRANCH  36  37
ATOM     37  C   UNL A   1      36.039  33.892  32.559  1.00  0.00     0.202 C 
BRANCH  37  38
ATOM     38  C   UNL A   1      36.056  32.367  32.743  1.00  0.00     0.261 C 
BRANCH  38  39
ATOM     39  O   UNL A   1      37.276  31.723  32.351  1.00  0.00    -0.460 OA
BRANCH  39  40
ATOM     40  C   UNL A   1      37.220  30.396  32.058  1.00  0.00     0.338 C 
ATOM     41  O   UNL A   1      36.278  29.667  32.169  1.00  0.00    -0.246 OA
BRANCH  40  42
ATOM     42  C   UNL A   1      38.475  30.078  31.321  1.00  0.00     0.060 A 
ATOM     43  C   UNL A   1      39.349  29.142  31.897  1.00  0.00     0.016 A 
ATOM     44  C   UNL A   1      38.697  30.543  30.021  1.00  0.00     0.016 A 
ATOM     45  C   UNL A   1      40.415  28.633  31.148  1.00  0.00     0.010 A 
ATOM     46  C   UNL A   1      39.796  30.075  29.294  1.00  0.00     0.010 A 
ATOM     47  C   UNL A   1      40.661  29.121  29.856  1.00  0.00    -0.014 A 
BRANCH  47  48
ATOM     48  C   UNL A   1      41.974  28.860  29.220  1.00  0.00     0.031 A 
ATOM     49  C   UNL A   1      42.206  27.462  28.716  1.00  0.00     0.074 A 
ATOM     50  C   UNL A   1      42.926  29.800  29.088  1.00  0.00     0.049 A 
ATOM     51  N   UNL A   1      43.261  26.945  28.146  1.00  0.00    -0.248 NA
ATOM     52  C   UNL A   1      41.084  26.520  28.882  1.00  0.00     0.031 C 
ATOM     53  C   UNL A   1      42.814  31.197  29.501  1.00  0.00     0.029 A 
ATOM     54  N   UNL A   1      44.195  29.705  28.567  1.00  0.00    -0.354 N 
ATOM     55  C   UNL A   1      42.924  25.625  27.877  1.00  0.00     0.074 A 
ATOM     56  C   UNL A   1      41.583  25.411  28.367  1.00  0.00     0.031 C 
ATOM     57  C   UNL A   1      43.974  31.825  29.231  1.00  0.00     0.029 A 
ATOM     58  C   UNL A   1      44.919  30.870  28.654  1.00  0.00     0.049 A 
ATOM     59  H   UNL A   1      44.551  28.878  28.168  1.00  0.00     0.167 HD
ATOM     60  C   UNL A   1      43.665  24.672  27.269  1.00  0.00     0.037 A 
ATOM     61  C   UNL A   1      46.204  31.119  28.323  1.00  0.00     0.037 A 
ATOM     62  C   UNL A   1      45.012  24.870  26.818  1.00  0.00     0.049 A 
ATOM     63  C   UNL A   1      47.048  30.008  27.745  1.00  0.00     0.074 A 
ATOM     64  C   UNL A   1      45.850  23.968  26.187  1.00  0.00     0.029 A 
ATOM     65  N   UNL A   1      45.726  26.048  26.970  1.00  0.00    -0.354 N 
ATOM     66  N   UNL A   1      46.710  28.774  27.453  1.00  0.00    -0.248 NA
ATOM     67  C   UNL A   1      48.457  30.323  27.457  1.00  0.00     0.031 C 
ATOM     68  C   UNL A   1      47.091  24.585  26.006  1.00  0.00     0.029 A 
ATOM     69  C   UNL A   1      47.008  25.887  26.476  1.00  0.00     0.049 A 
ATOM     70  H   UNL A   1      45.373  26.875  27.370  1.00  0.00     0.167 HD
ATOM     71  C   UNL A   1      47.851  28.177  26.929  1.00  0.00     0.074 A 
ATOM     72  C   UNL A   1      48.888  29.186  26.929  1.00  0.00     0.031 C 
ATOM     73  C   UNL A   1      48.026  26.907  26.487  1.00  0.00     0.037 A 
BRANCH  60  74
ATOM     74  C   UNL A   1      43.033  23.324  27.106  1.00  0.00     0.057 A 
ATOM     75  C   UNL A   1      42.915  22.429  28.177  1.00  0.00     0.134 A 
ATOM     76  C   UNL A   1      42.547  22.913  25.859  1.00  0.00     0.134 A 
ATOM     77  F   UNL A   1      43.390  22.754  29.390  1.00  0.00    -0.206 F 
ATOM     78  C   UNL A   1      42.353  21.164  28.009  1.00  0.00     0.040 A 
ATOM     79  C   UNL A   1      41.960  21.659  25.685  1.00  0.00     0.040 A 
ATOM     80  F   UNL A   1      42.640  23.719  24.791  1.00  0.00    -0.206 F 
ATOM     81  C   UNL A   1      41.868  20.779  26.762  1.00  0.00     0.006 A 
ENDBRANCH  60  74
BRANCH  61  82
ATOM     82  C   UNL A   1      46.795  32.464  28.553  1.00  0.00     0.057 A 
ATOM     83  C   UNL A   1      47.359  32.811  29.787  1.00  0.00     0.134 A 
ATOM     84  C   UNL A   1      46.766  33.453  27.561  1.00  0.00     0.134 A 
ATOM     85  F   UNL A   1      47.386  31.922  30.790  1.00  0.00    -0.206 F 
ATOM     86  C   UNL A   1      47.860  34.093  30.031  1.00  0.00     0.040 A 
ATOM     87  C   UNL A   1      47.284  34.731  27.784  1.00  0.00     0.040 A 
ATOM     88  F   UNL A   1      46.230  33.191  26.359  1.00  0.00    -0.206 F 
ATOM     89  C   UNL A   1      47.827  35.056  29.024  1.00  0.00     0.006 A 
ENDBRANCH  61  82
BRANCH  73  90
ATOM     90  C   UNL A   1      49.377  26.538  25.946  1.00  0.00     0.057 A 
ATOM     91  C   UNL A   1      49.772  26.892  24.650  1.00  0.00     0.134 A 
ATOM     92  C   UNL A   1      50.315  25.885  26.754  1.00  0.00     0.134 A 
ATOM     93  F   UNL A   1      48.918  27.512  23.823  1.00  0.00    -0.206 F 
ATOM     94  C   UNL A   1      51.050  26.593  24.171  1.00  0.00     0.040 A 
ATOM     95  C   UNL A   1      51.603  25.604  26.297  1.00  0.00     0.040 A 
ATOM     96  F   UNL A   1      50.004  25.531  28.010  1.00  0.00    -0.206 F 
ATOM     97  C   UNL A   1      51.972  25.955  25.000  1.00  0.00     0.006 A 
ENDBRANCH  73  90
ENDBRANCH  47  48
ENDBRANCH  40  42
ENDBRANCH  39  40
ENDBRANCH  38  39
ENDBRANCH  37  38
ENDBRANCH  36  37
ENDBRANCH  35  36
ENDBRANCH  34  35
ENDBRANCH  33  34
ENDBRANCH   1  33
TORSDOF 23
ENDMDL
MODEL 2
REMARK VINA RESULT:     -10.1      3.070      7.298
REMARK SMILES C[N@H+]1CC[C@H]2CN(C(=O)c3csc(-c4ccncc4)n3)C[C@@]2(C(=O)OCCOCCOCCOCCOC(=O)c2ccc(-c3c4nc(c(-c5c(F)cccc5F)c5ccc([nH]5)c(-c5c(F)cccc5F)c5nc(c(-c6c(F)cccc6F)c6ccc3[nH]6)C=C5)C=C4)cc2)C1
REMARK SMILES IDX 30 1 29 2 28 3 27 4 26 5 25 6 23 7 24 8 22 9 1 10 2 11 3 12
REMARK SMILES IDX 94 13 4 15 5 16 21 17 6 18 7 19 8 20 9 21 10 22 11 23 20 24
REMARK SMILES IDX 12 25 13 26 14 27 15 28 19 29 16 30 18 31 17 32 31 33 32 34
REMARK SMILES IDX 33 35 34 36 35 37 36 38 37 39 38 40 39 41 40 42 41 43 93 44
REMARK SMILES IDX 42 45 92 46 43 47 44 48 45 49 86 50 46 51 91 52 85 53 87 54
REMARK SMILES IDX 47 55 90 56 84 57 83 58 48 60 74 61 57 62 73 63 58 64 61 65
REMARK SMILES IDX 72 66 88 67 59 68 60 69 71 71 89 72 62 73 49 74 50 75 55 76
REMARK SMILES IDX 51 77 52 78 54 79 56 80 53 81 75 82 76 83 81 84 77 85 78 86
REMARK SMILES IDX 80 87 82 88 79 89 63 90 64 91 69 92 65 93 66 94 68 95 70 96
REMARK SMILES IDX 67 97
REMARK H PARENT 2 14 87 59 61 70
REMARK Flexibility Score: inf
ROOT
ATOM      1  C   UNL A   1      37.658  30.515  28.475  1.00  0.00     0.188 C 
ENDROOT
BRANCH   1   2
ATOM      2  C   UNL A   1      36.329  30.106  27.838  1.00  0.00     0.188 C 
BRANCH   2   3
ATOM      3  O   UNL A   1      35.369  31.081  27.440  1.00  0.00    -0.376 OA
BRANCH   3   4
ATOM      4  C   UNL A   1      34.037  30.529  27.317  1.00  0.00     0.202 C 
BRANCH   4   5
ATOM      5  C   UNL A   1      34.023  28.980  27.314  1.00  0.00     0.261 C 
BRANCH   5   6
ATOM      6  O   UNL A   1      33.620  28.486  26.018  1.00  0.00    -0.463 OA
BRANCH   6   7
ATOM      7  C   UNL A   1      32.646  27.528  25.800  1.00  0.00     0.320 C 
ATOM      8  O   UNL A   1      32.126  26.855  26.671  1.00  0.00    -0.251 OA
BRANCH   7   9
ATOM      9  C   UNL A   1      32.183  27.718  24.327  1.00  0.00     0.139 C 
ATOM     10  C   UNL A   1      31.008  31.150  25.280  1.00  0.00     0.332 C 
ATOM     11  N   UNL A   1      30.904  29.813  24.711  1.00  0.00    -0.336 N 
ATOM     12  C   UNL A   1      29.915  29.715  23.654  1.00  0.00     0.262 C 
ATOM     13  C   UNL A   1      32.189  29.273  24.256  1.00  0.00     0.283 C 
ATOM     14  H   UNL A   1      30.585  29.236  25.489  1.00  0.00     0.347 HD
ATOM     15  C   UNL A   1      30.103  28.401  22.900  1.00  0.00     0.068 C 
ATOM     16  C   UNL A   1      30.802  27.275  23.720  1.00  0.00     0.039 C 
ATOM     17  C   UNL A   1      33.198  26.839  23.528  1.00  0.00     0.145 C 
ATOM     18  C   UNL A   1      31.099  26.165  22.704  1.00  0.00     0.125 C 
ATOM     19  N   UNL A   1      32.414  25.723  23.022  1.00  0.00    -0.336 N 
BRANCH  19  20
ATOM     20  C   UNL A   1      32.819  24.454  22.642  1.00  0.00     0.273 C 
ATOM     21  O   UNL A   1      33.404  24.273  21.572  1.00  0.00    -0.267 OA
BRANCH  20  22
ATOM     22  C   UNL A   1      32.453  23.312  23.486  1.00  0.00     0.139 A 
ATOM     23  C   UNL A   1      32.095  23.456  24.816  1.00  0.00     0.101 A 
ATOM     24  N   UNL A   1      32.615  21.983  23.079  1.00  0.00    -0.231 NA
ATOM     25  S   UNL A   1      31.938  21.929  25.567  1.00  0.00    -0.122 S 
ATOM     26  C   UNL A   1      32.408  21.172  24.097  1.00  0.00     0.124 A 
BRANCH  26  27
ATOM     27  C   UNL A   1      32.588  19.722  24.074  1.00  0.00     0.013 A 
ATOM     28  C   UNL A   1      32.430  19.010  22.882  1.00  0.00     0.031 A 
ATOM     29  C   UNL A   1      32.927  19.029  25.236  1.00  0.00     0.031 A 
ATOM     30  C   UNL A   1      32.635  17.639  22.904  1.00  0.00     0.111 A 
ATOM     31  C   UNL A   1      33.103  17.658  25.156  1.00  0.00     0.111 A 
ATOM     32  N   UNL A   1      32.972  16.950  24.016  1.00  0.00    -0.265 NA
ENDBRANCH  26  27
ENDBRANCH  20  22
ENDBRANCH  19  20
ENDBRANCH   7   9
ENDBRANCH   6   7
ENDBRANCH   5   6
ENDBRANCH   4   5
ENDBRANCH   3   4
ENDBRANCH   2   3
ENDBRANCH   1   2
BRANCH   1  33
ATOM     33  O   UNL A   1      38.780  29.695  28.268  1.00  0.00    -0.377 OA
BRANCH  33  34
ATOM     34  C   UNL A   1      38.501  28.339  27.991  1.00  0.00     0.188 C 
BRANCH  34  35
ATOM     35  C   UNL A   1      39.681  27.360  27.884  1.00  0.00     0.188 C 
BRANCH  35  36
ATOM     36  O   UNL A   1      39.665  26.280  28.817  1.00  0.00    -0.376 OA
BRANCH  36  37
ATOM     37  C   UNL A   1      39.520  24.983  28.229  1.00  0.00     0.202 C 
BRANCH  37  38
ATOM     38  C   UNL A   1      40.486  24.695  27.071  1.00  0.00     0.261 C 
BRANCH  38  39
ATOM     39  O   UNL A   1      41.473  23.690  27.340  1.00  0.00    -0.460 OA
BRANCH  39  40
ATOM     40  C   UNL A   1      42.376  23.416  26.359  1.00  0.00     0.338 C 
ATOM     41  O   UNL A   1      42.267  22.619  25.474  1.00  0.00    -0.246 OA
BRANCH  40  42
ATOM     42  C   UNL A   1      43.412  24.484  26.436  1.00  0.00     0.060 A 
ATOM     43  C   UNL A   1      43.848  25.056  25.230  1.00  0.00     0.016 A 
ATOM     44  C   UNL A   1      43.807  25.032  27.660  1.00  0.00     0.016 A 
ATOM     45  C   UNL A   1      44.635  26.211  25.253  1.00  0.00     0.010 A 
ATOM     46  C   UNL A   1      44.641  26.154  27.681  1.00  0.00     0.010 A 
ATOM     47  C   UNL A   1      45.061  26.746  26.478  1.00  0.00    -0.014 A 
BRANCH  47  48
ATOM     48  C   UNL A   1      46.172  27.726  26.494  1.00  0.00     0.031 A 
ATOM     49  C   UNL A   1      45.784  29.175  26.605  1.00  0.00     0.074 A 
ATOM     50  C   UNL A   1      47.466  27.371  26.414  1.00  0.00     0.049 A 
ATOM     51  N   UNL A   1      46.536  30.242  26.615  1.00  0.00    -0.248 NA
ATOM     52  C   UNL A   1      44.340  29.450  26.721  1.00  0.00     0.031 C 
ATOM     53  C   UNL A   1      47.976  26.004  26.339  1.00  0.00     0.029 A 
ATOM     54  N   UNL A   1      48.597  28.154  26.373  1.00  0.00    -0.354 N 
ATOM     55  C   UNL A   1      45.659  31.310  26.750  1.00  0.00     0.074 A 
ATOM     56  C   UNL A   1      44.321  30.770  26.790  1.00  0.00     0.031 C 
ATOM     57  C   UNL A   1      49.319  26.044  26.245  1.00  0.00     0.029 A 
ATOM     58  C   UNL A   1      49.761  27.439  26.225  1.00  0.00     0.049 A 
ATOM     59  H   UNL A   1      48.573  29.135  26.444  1.00  0.00     0.167 HD
ATOM     60  C   UNL A   1      45.941  32.629  26.836  1.00  0.00     0.037 A 
ATOM     61  C   UNL A   1      51.030  27.872  26.069  1.00  0.00     0.037 A 
ATOM     62  C   UNL A   1      47.266  33.173  26.756  1.00  0.00     0.049 A 
ATOM     63  C   UNL A   1      51.310  29.355  26.061  1.00  0.00     0.074 A 
ATOM     64  C   UNL A   1      47.660  34.496  26.836  1.00  0.00     0.029 A 
ATOM     65  N   UNL A   1      48.412  32.419  26.555  1.00  0.00    -0.354 N 
ATOM     66  N   UNL A   1      50.481  30.358  26.232  1.00  0.00    -0.248 NA
ATOM     67  C   UNL A   1      52.704  29.769  25.830  1.00  0.00     0.031 C 
ATOM     68  C   UNL A   1      49.042  34.548  26.628  1.00  0.00     0.029 A 
ATOM     69  C   UNL A   1      49.513  33.253  26.472  1.00  0.00     0.049 A 
ATOM     70  H   UNL A   1      48.439  31.439  26.481  1.00  0.00     0.167 HD
ATOM     71  C   UNL A   1      51.252  31.513  26.153  1.00  0.00     0.074 A 
ATOM     72  C   UNL A   1      52.618  31.088  25.932  1.00  0.00     0.031 C 
ATOM     73  C   UNL A   1      50.866  32.809  26.252  1.00  0.00     0.037 A 
BRANCH  60  74
ATOM     74  C   UNL A   1      44.779  33.562  26.985  1.00  0.00     0.057 A 
ATOM     75  C   UNL A   1      44.263  33.904  28.242  1.00  0.00     0.134 A 
ATOM     76  C   UNL A   1      44.163  34.116  25.857  1.00  0.00     0.134 A 
ATOM     77  F   UNL A   1      44.792  33.381  29.360  1.00  0.00    -0.206 F 
ATOM     78  C   UNL A   1      43.161  34.749  28.371  1.00  0.00     0.040 A 
ATOM     79  C   UNL A   1      43.075  34.982  25.975  1.00  0.00     0.040 A 
ATOM     80  F   UNL A   1      44.602  33.819  24.625  1.00  0.00    -0.206 F 
ATOM     81  C   UNL A   1      42.568  35.295  27.235  1.00  0.00     0.006 A 
ENDBRANCH  60  74
BRANCH  61  82
ATOM     82  C   UNL A   1      52.140  26.900  25.876  1.00  0.00     0.057 A 
ATOM     83  C   UNL A   1      52.437  26.376  24.612  1.00  0.00     0.134 A 
ATOM     84  C   UNL A   1      52.899  26.435  26.958  1.00  0.00     0.134 A 
ATOM     85  F   UNL A   1      51.726  26.753  23.541  1.00  0.00    -0.206 F 
ATOM     86  C   UNL A   1      53.438  25.416  24.433  1.00  0.00     0.040 A 
ATOM     87  C   UNL A   1      53.917  25.494  26.789  1.00  0.00     0.040 A 
ATOM     88  F   UNL A   1      52.659  26.888  28.198  1.00  0.00    -0.206 F 
ATOM     89  C   UNL A   1      54.184  24.977  25.524  1.00  0.00     0.006 A 
ENDBRANCH  61  82
BRANCH  73  90
ATOM     90  C   UNL A   1      51.930  33.862  26.148  1.00  0.00     0.057 A 
ATOM     91  C   UNL A   1      52.259  34.458  24.924  1.00  0.00     0.134 A 
ATOM     92  C   UNL A   1      52.582  34.333  27.295  1.00  0.00     0.134 A 
ATOM     93  F   UNL A   1      51.675  34.047  23.789  1.00  0.00    -0.206 F 
ATOM     94  C   UNL A   1      53.212  35.475  24.843  1.00  0.00     0.040 A 
ATOM     95  C   UNL A   1      53.517  35.366  27.230  1.00  0.00     0.040 A 
ATOM     96  F   UNL A   1      52.303  33.814  28.499  1.00  0.00    -0.206 F 
ATOM     97  C   UNL A   1      53.837  35.938  26.000  1.00  0.00     0.006 A 
ENDBRANCH  73  90
ENDBRANCH  47  48
ENDBRANCH  40  42
ENDBRANCH  39  40
ENDBRANCH  38  39
ENDBRANCH  37  38
ENDBRANCH  36  37
ENDBRANCH  35  36
ENDBRANCH  34  35
ENDBRANCH  33  34
ENDBRANCH   1  33
TORSDOF 23
ENDMDL
MODEL 3
REMARK VINA RESULT:     -10.1      3.241      8.388
REMARK SMILES C[N@H+]1CC[C@H]2CN(C(=O)c3csc(-c4ccncc4)n3)C[C@@]2(C(=O)OCCOCCOCCOCCOC(=O)c2ccc(-c3c4nc(c(-c5c(F)cccc5F)c5ccc([nH]5)c(-c5c(F)cccc5F)c5nc(c(-c6c(F)cccc6F)c6ccc3[nH]6)C=C5)C=C4)cc2)C1
REMARK SMILES IDX 30 1 29 2 28 3 27 4 26 5 25 6 23 7 24 8 22 9 1 10 2 11 3 12
REMARK SMILES IDX 94 13 4 15 5 16 21 17 6 18 7 19 8 20 9 21 10 22 11 23 20 24
REMARK SMILES IDX 12 25 13 26 14 27 15 28 19 29 16 30 18 31 17 32 31 33 32 34
REMARK SMILES IDX 33 35 34 36 35 37 36 38 37 39 38 40 39 41 40 42 41 43 93 44
REMARK SMILES IDX 42 45 92 46 43 47 44 48 45 49 86 50 46 51 91 52 85 53 87 54
REMARK SMILES IDX 47 55 90 56 84 57 83 58 48 60 74 61 57 62 73 63 58 64 61 65
REMARK SMILES IDX 72 66 88 67 59 68 60 69 71 71 89 72 62 73 49 74 50 75 55 76
REMARK SMILES IDX 51 77 52 78 54 79 56 80 53 81 75 82 76 83 81 84 77 85 78 86
REMARK SMILES IDX 80 87 82 88 79 89 63 90 64 91 69 92 65 93 66 94 68 95 70 96
REMARK SMILES IDX 67 97
REMARK H PARENT 2 14 87 59 61 70
REMARK Flexibility Score: inf
ROOT
ATOM      1  C   UNL A   1      35.559  30.154  28.309  1.00  0.00     0.188 C 
ENDROOT
BRANCH   1   2
ATOM      2  C   UNL A   1      34.467  29.359  27.589  1.00  0.00     0.188 C 
BRANCH   2   3
ATOM      3  O   UNL A   1      34.148  29.611  26.224  1.00  0.00    -0.376 OA
BRANCH   3   4
ATOM      4  C   UNL A   1      33.150  28.698  25.711  1.00  0.00     0.202 C 
BRANCH   4   5
ATOM      5  C   UNL A   1      33.116  27.349  26.473  1.00  0.00     0.261 C 
BRANCH   5   6
ATOM      6  O   UNL A   1      32.685  26.289  25.593  1.00  0.00    -0.463 OA
BRANCH   6   7
ATOM      7  C   UNL A   1      33.290  25.048  25.487  1.00  0.00     0.320 C 
ATOM      8  O   UNL A   1      34.393  24.773  25.922  1.00  0.00    -0.251 OA
BRANCH   7   9
ATOM      9  C   UNL A   1      32.181  24.075  24.993  1.00  0.00     0.139 C 
ATOM     10  C   UNL A   1      34.633  21.271  25.441  1.00  0.00     0.332 C 
ATOM     11  N   UNL A   1      33.656  22.091  24.737  1.00  0.00    -0.336 N 
ATOM     12  C   UNL A   1      32.951  21.373  23.691  1.00  0.00     0.262 C 
ATOM     13  C   UNL A   1      32.700  22.753  25.631  1.00  0.00     0.283 C 
ATOM     14  H   UNL A   1      34.215  22.818  24.291  1.00  0.00     0.347 HD
ATOM     15  C   UNL A   1      31.740  22.185  23.242  1.00  0.00     0.068 C 
ATOM     16  C   UNL A   1      31.853  23.719  23.497  1.00  0.00     0.039 C 
ATOM     17  C   UNL A   1      30.868  24.774  25.467  1.00  0.00     0.145 C 
ATOM     18  C   UNL A   1      30.456  24.278  23.203  1.00  0.00     0.125 C 
ATOM     19  N   UNL A   1      30.214  25.218  24.245  1.00  0.00    -0.336 N 
BRANCH  19  20
ATOM     20  C   UNL A   1      29.291  26.232  24.050  1.00  0.00     0.273 C 
ATOM     21  O   UNL A   1      28.125  26.106  24.429  1.00  0.00    -0.267 OA
BRANCH  20  22
ATOM     22  C   UNL A   1      29.697  27.422  23.295  1.00  0.00     0.139 A 
ATOM     23  C   UNL A   1      31.015  27.666  22.945  1.00  0.00     0.101 A 
ATOM     24  N   UNL A   1      28.830  28.488  23.032  1.00  0.00    -0.231 NA
ATOM     25  S   UNL A   1      31.179  29.226  22.265  1.00  0.00    -0.122 S 
ATOM     26  C   UNL A   1      29.503  29.503  22.528  1.00  0.00     0.124 A 
BRANCH  26  27
ATOM     27  C   UNL A   1      28.948  30.821  22.226  1.00  0.00     0.013 A 
ATOM     28  C   UNL A   1      29.028  31.853  23.165  1.00  0.00     0.031 A 
ATOM     29  C   UNL A   1      28.336  31.071  20.997  1.00  0.00     0.031 A 
ATOM     30  C   UNL A   1      28.509  33.091  22.825  1.00  0.00     0.111 A 
ATOM     31  C   UNL A   1      27.842  32.340  20.755  1.00  0.00     0.111 A 
ATOM     32  N   UNL A   1      27.921  33.357  21.638  1.00  0.00    -0.265 NA
ENDBRANCH  26  27
ENDBRANCH  20  22
ENDBRANCH  19  20
ENDBRANCH   7   9
ENDBRANCH   6   7
ENDBRANCH   5   6
ENDBRANCH   4   5
ENDBRANCH   3   4
ENDBRANCH   2   3
ENDBRANCH   1   2
BRANCH   1  33
ATOM     33  O   UNL A   1      36.752  30.427  27.619  1.00  0.00    -0.377 OA
BRANCH  33  34
ATOM     34  C   UNL A   1      37.938  30.015  28.265  1.00  0.00     0.188 C 
BRANCH  34  35
ATOM     35  C   UNL A   1      37.815  29.157  29.535  1.00  0.00     0.188 C 
BRANCH  35  36
ATOM     36  O   UNL A   1      38.518  27.915  29.503  1.00  0.00    -0.376 OA
BRANCH  36  37
ATOM     37  C   UNL A   1      39.608  27.866  28.577  1.00  0.00     0.202 C 
BRANCH  37  38
ATOM     38  C   UNL A   1      39.585  26.659  27.627  1.00  0.00     0.261 C 
BRANCH  38  39
ATOM     39  O   UNL A   1      40.245  25.486  28.122  1.00  0.00    -0.460 OA
BRANCH  39  40
ATOM     40  C   UNL A   1      41.082  24.830  27.273  1.00  0.00     0.338 C 
ATOM     41  O   UNL A   1      40.831  23.870  26.604  1.00  0.00    -0.246 OA
BRANCH  40  42
ATOM     42  C   UNL A   1      42.289  25.691  27.128  1.00  0.00     0.060 A 
ATOM     43  C   UNL A   1      43.015  25.994  28.290  1.00  0.00     0.016 A 
ATOM     44  C   UNL A   1      42.794  26.036  25.870  1.00  0.00     0.016 A 
ATOM     45  C   UNL A   1      44.274  26.594  28.187  1.00  0.00     0.010 A 
ATOM     46  C   UNL A   1      44.027  26.687  25.772  1.00  0.00     0.010 A 
ATOM     47  C   UNL A   1      44.770  26.972  26.930  1.00  0.00    -0.014 A 
BRANCH  47  48
ATOM     48  C   UNL A   1      45.908  27.918  26.855  1.00  0.00     0.031 A 
ATOM     49  C   UNL A   1      45.561  29.382  26.852  1.00  0.00     0.074 A 
ATOM     50  C   UNL A   1      47.191  27.522  26.792  1.00  0.00     0.049 A 
ATOM     51  N   UNL A   1      46.343  30.425  26.768  1.00  0.00    -0.248 NA
ATOM     52  C   UNL A   1      44.127  29.706  26.959  1.00  0.00     0.031 C 
ATOM     53  C   UNL A   1      47.662  26.139  26.823  1.00  0.00     0.029 A 
ATOM     54  N   UNL A   1      48.342  28.266  26.677  1.00  0.00    -0.354 N 
ATOM     55  C   UNL A   1      45.497  31.524  26.824  1.00  0.00     0.074 A 
ATOM     56  C   UNL A   1      44.145  31.027  26.921  1.00  0.00     0.031 C 
ATOM     57  C   UNL A   1      49.004  26.133  26.713  1.00  0.00     0.029 A 
ATOM     58  C   UNL A   1      49.484  27.508  26.575  1.00  0.00     0.049 A 
ATOM     59  H   UNL A   1      48.346  29.250  26.668  1.00  0.00     0.167 HD
ATOM     60  C   UNL A   1      45.816  32.837  26.800  1.00  0.00     0.037 A 
ATOM     61  C   UNL A   1      50.762  27.891  26.372  1.00  0.00     0.037 A 
ATOM     62  C   UNL A   1      47.154  33.335  26.663  1.00  0.00     0.049 A 
ATOM     63  C   UNL A   1      51.083  29.361  26.241  1.00  0.00     0.074 A 
ATOM     64  C   UNL A   1      47.585  34.648  26.631  1.00  0.00     0.029 A 
ATOM     65  N   UNL A   1      48.277  32.536  26.513  1.00  0.00    -0.354 N 
ATOM     66  N   UNL A   1      50.284  30.397  26.338  1.00  0.00    -0.248 NA
ATOM     67  C   UNL A   1      52.485  29.714  25.963  1.00  0.00     0.031 C 
ATOM     68  C   UNL A   1      48.965  34.645  26.406  1.00  0.00     0.029 A 
ATOM     69  C   UNL A   1      49.399  33.329  26.352  1.00  0.00     0.049 A 
ATOM     70  H   UNL A   1      48.276  31.552  26.518  1.00  0.00     0.167 HD
ATOM     71  C   UNL A   1      51.086  31.519  26.157  1.00  0.00     0.074 A 
ATOM     72  C   UNL A   1      52.437  31.039  25.959  1.00  0.00     0.031 C 
ATOM     73  C   UNL A   1      50.736  32.830  26.155  1.00  0.00     0.037 A 
BRANCH  60  74
ATOM     74  C   UNL A   1      44.682  33.812  26.884  1.00  0.00     0.057 A 
ATOM     75  C   UNL A   1      44.259  34.348  28.107  1.00  0.00     0.134 A 
ATOM     76  C   UNL A   1      43.999  34.210  25.729  1.00  0.00     0.134 A 
ATOM     77  F   UNL A   1      44.854  33.982  29.253  1.00  0.00    -0.206 F 
ATOM     78  C   UNL A   1      43.181  35.231  28.180  1.00  0.00     0.040 A 
ATOM     79  C   UNL A   1      42.936  35.112  25.787  1.00  0.00     0.040 A 
ATOM     80  F   UNL A   1      44.349  33.724  24.529  1.00  0.00    -0.206 F 
ATOM     81  C   UNL A   1      42.521  35.620  27.017  1.00  0.00     0.006 A 
ENDBRANCH  60  74
BRANCH  61  82
ATOM     82  C   UNL A   1      51.843  26.876  26.248  1.00  0.00     0.057 A 
ATOM     83  C   UNL A   1      52.646  26.530  27.342  1.00  0.00     0.134 A 
ATOM     84  C   UNL A   1      52.132  26.263  25.022  1.00  0.00     0.134 A 
ATOM     85  F   UNL A   1      52.444  27.106  28.536  1.00  0.00    -0.206 F 
ATOM     86  C   UNL A   1      53.703  25.624  27.219  1.00  0.00     0.040 A 
ATOM     87  C   UNL A   1      53.170  25.339  24.891  1.00  0.00     0.040 A 
ATOM     88  F   UNL A   1      51.409  26.557  23.931  1.00  0.00    -0.206 F 
ATOM     89  C   UNL A   1      53.964  25.022  25.990  1.00  0.00     0.006 A 
ENDBRANCH  61  82
BRANCH  73  90
ATOM     90  C   UNL A   1      51.827  33.840  25.955  1.00  0.00     0.057 A 
ATOM     91  C   UNL A   1      52.480  34.443  27.038  1.00  0.00     0.134 A 
ATOM     92  C   UNL A   1      52.276  34.162  24.668  1.00  0.00     0.134 A 
ATOM     93  F   UNL A   1      52.094  34.183  28.296  1.00  0.00    -0.206 F 
ATOM     94  C   UNL A   1      53.531  35.342  26.846  1.00  0.00     0.040 A 
ATOM     95  C   UNL A   1      53.341  35.039  24.464  1.00  0.00     0.040 A 
ATOM     96  F   UNL A   1      51.702  33.609  23.589  1.00  0.00    -0.206 F 
ATOM     97  C   UNL A   1      53.970  35.635  25.555  1.00  0.00     0.006 A 
ENDBRANCH  73  90
ENDBRANCH  47  48
ENDBRANCH  40  42
ENDBRANCH  39  40
ENDBRANCH  38  39
ENDBRANCH  37  38
ENDBRANCH  36  37
ENDBRANCH  35  36
ENDBRANCH  34  35
ENDBRANCH  33  34
ENDBRANCH   1  33
TORSDOF 23
ENDMDL
