MODEL 1
REMARK VINA RESULT:      -8.9      0.000      0.000
REMARK SMILES CCC1(C(=O)NCCc2ccc(C(=O)OCCOCCOCCOCCOC(=O)c3ccc(-c4c5nc(c(-c6c(F)cccc6F)c6ccc([nH]6)c(-c6c(F)cccc6F)c6nc(c(-c7c(F)cccc7F)c7ccc4[nH]7)C=C6)C=C5)cc3)cc2)CCCC1
REMARK SMILES IDX 19 1 18 2 17 3 16 4 15 5 13 6 14 7 12 8 9 9 10 10 85 11
REMARK SMILES IDX 11 12 84 13 8 14 7 15 6 16 4 17 5 18 3 20 86 21 89 22 87 23
REMARK SMILES IDX 88 24 2 25 1 26 20 27 21 28 22 29 23 30 24 31 25 32 26 33
REMARK SMILES IDX 27 34 28 35 29 36 30 37 31 38 83 39 32 40 82 41 33 42 34 43
REMARK SMILES IDX 35 44 76 45 36 46 81 47 75 48 77 49 37 50 80 51 74 52 73 53
REMARK SMILES IDX 38 55 64 56 47 57 63 58 48 59 51 60 62 61 78 62 49 63 50 64
REMARK SMILES IDX 61 66 79 67 52 68 39 69 40 70 45 71 41 72 42 73 44 74 46 75
REMARK SMILES IDX 43 76 65 77 66 78 71 79 67 80 68 81 70 82 72 83 69 84 53 85
REMARK SMILES IDX 54 86 59 87 55 88 56 89 58 90 60 91 57 92
REMARK H PARENT 6 19 77 54 51 65
REMARK Flexibility Score: inf
ROOT
ATOM      1  C   UNL A   1      37.857  31.774  29.191  1.00  0.00     0.188 C 
ENDROOT
BRANCH   1   2
ATOM      2  O   UNL A   1      36.682  32.231  29.843  1.00  0.00    -0.376 OA
BRANCH   2   3
ATOM      3  C   UNL A   1      35.433  31.689  29.453  1.00  0.00     0.202 C 
BRANCH   3   4
ATOM      4  C   UNL A   1      35.109  31.653  27.951  1.00  0.00     0.261 C 
BRANCH   4   5
ATOM      5  O   UNL A   1      34.073  30.739  27.575  1.00  0.00    -0.460 OA
BRANCH   5   6
ATOM      6  C   UNL A   1      34.486  29.553  27.084  1.00  0.00     0.338 C 
ATOM      7  O   UNL A   1      35.507  28.956  27.375  1.00  0.00    -0.246 OA
BRANCH   6   8
ATOM      8  C   UNL A   1      33.370  28.963  26.316  1.00  0.00     0.060 A 
ATOM      9  C   UNL A   1      31.184  27.809  24.992  1.00  0.00    -0.046 A 
ATOM     10  C   UNL A   1      31.403  27.561  26.353  1.00  0.00     0.004 A 
ATOM     11  C   UNL A   1      32.038  28.702  24.321  1.00  0.00     0.004 A 
ATOM     12  C   UNL A   1      32.500  28.113  27.005  1.00  0.00     0.016 A 
ATOM     13  C   UNL A   1      33.120  29.290  24.981  1.00  0.00     0.016 A 
BRANCH   9  14
ATOM     14  C   UNL A   1      30.146  27.068  24.180  1.00  0.00     0.056 C 
BRANCH  14  15
ATOM     15  C   UNL A   1      30.479  25.632  23.767  1.00  0.00     0.120 C 
BRANCH  15  16
ATOM     16  N   UNL A   1      31.446  25.591  22.697  1.00  0.00    -0.355 N 
ATOM     17  C   UNL A   1      32.703  25.084  22.637  1.00  0.00     0.226 C 
ATOM     18  O   UNL A   1      33.355  25.453  21.654  1.00  0.00    -0.274 OA
ATOM     19  H   UNL A   1      31.138  26.007  21.860  1.00  0.00     0.163 HD
BRANCH  17  20
ATOM     20  C   UNL A   1      33.318  24.148  23.719  1.00  0.00     0.049 C 
ATOM     21  C   UNL A   1      32.428  23.900  24.952  1.00  0.00     0.017 C 
ATOM     22  C   UNL A   1      34.637  24.730  24.275  1.00  0.00     0.017 C 
ATOM     23  C   UNL A   1      33.071  24.564  26.166  1.00  0.00     0.001 C 
ATOM     24  C   UNL A   1      34.431  25.091  25.742  1.00  0.00     0.001 C 
BRANCH  20  25
ATOM     25  C   UNL A   1      33.639  22.778  23.032  1.00  0.00     0.013 C 
ATOM     26  C   UNL A   1      32.443  22.057  22.406  1.00  0.00     0.005 C 
ENDBRANCH  20  25
ENDBRANCH  17  20
ENDBRANCH  15  16
ENDBRANCH  14  15
ENDBRANCH   9  14
ENDBRANCH   6   8
ENDBRANCH   5   6
ENDBRANCH   4   5
ENDBRANCH   3   4
ENDBRANCH   2   3
ENDBRANCH   1   2
BRANCH   1  27
ATOM     27  C   UNL A   1      38.817  30.983  30.105  1.00  0.00     0.188 C 
BRANCH  27  28
ATOM     28  O   UNL A   1      38.640  29.580  30.221  1.00  0.00    -0.377 OA
BRANCH  28  29
ATOM     29  C   UNL A   1      39.305  28.707  29.310  1.00  0.00     0.188 C 
BRANCH  29  30
ATOM     30  C   UNL A   1      39.282  27.168  29.479  1.00  0.00     0.188 C 
BRANCH  30  31
ATOM     31  O   UNL A   1      39.883  26.446  28.417  1.00  0.00    -0.376 OA
BRANCH  31  32
ATOM     32  C   UNL A   1      39.232  25.271  27.973  1.00  0.00     0.202 C 
BRANCH  32  33
ATOM     33  C   UNL A   1      39.956  24.441  26.905  1.00  0.00     0.261 C 
BRANCH  33  34
ATOM     34  O   UNL A   1      41.116  23.717  27.344  1.00  0.00    -0.460 OA
BRANCH  34  35
ATOM     35  C   UNL A   1      42.117  23.542  26.456  1.00  0.00     0.338 C 
ATOM     36  O   UNL A   1      42.231  22.644  25.636  1.00  0.00    -0.246 OA
BRANCH  35  37
ATOM     37  C   UNL A   1      42.975  24.743  26.510  1.00  0.00     0.060 A 
ATOM     38  C   UNL A   1      43.295  25.416  25.323  1.00  0.00     0.016 A 
ATOM     39  C   UNL A   1      43.444  25.213  27.739  1.00  0.00     0.016 A 
ATOM     40  C   UNL A   1      44.115  26.545  25.359  1.00  0.00     0.010 A 
ATOM     41  C   UNL A   1      44.284  26.328  27.772  1.00  0.00     0.010 A 
ATOM     42  C   UNL A   1      44.650  26.979  26.578  1.00  0.00    -0.014 A 
BRANCH  42  43
ATOM     43  C   UNL A   1      45.751  27.971  26.592  1.00  0.00     0.031 A 
ATOM     44  C   UNL A   1      45.392  29.428  26.701  1.00  0.00     0.074 A 
ATOM     45  C   UNL A   1      47.040  27.597  26.520  1.00  0.00     0.049 A 
ATOM     46  N   UNL A   1      46.165  30.482  26.664  1.00  0.00    -0.248 NA
ATOM     47  C   UNL A   1      43.961  29.734  26.869  1.00  0.00     0.031 C 
ATOM     48  C   UNL A   1      47.521  26.218  26.456  1.00  0.00     0.029 A 
ATOM     49  N   UNL A   1      48.183  28.356  26.477  1.00  0.00    -0.354 N 
ATOM     50  C   UNL A   1      45.314  31.574  26.794  1.00  0.00     0.074 A 
ATOM     51  C   UNL A   1      43.966  31.057  26.878  1.00  0.00     0.031 C 
ATOM     52  C   UNL A   1      48.863  26.229  26.367  1.00  0.00     0.029 A 
ATOM     53  C   UNL A   1      49.331  27.614  26.331  1.00  0.00     0.049 A 
ATOM     54  H   UNL A   1      48.182  29.337  26.544  1.00  0.00     0.167 HD
ATOM     55  C   UNL A   1      45.630  32.889  26.847  1.00  0.00     0.037 A 
ATOM     56  C   UNL A   1      50.607  28.013  26.160  1.00  0.00     0.037 A 
ATOM     57  C   UNL A   1      46.971  33.401  26.757  1.00  0.00     0.049 A 
ATOM     58  C   UNL A   1      50.925  29.488  26.137  1.00  0.00     0.074 A 
ATOM     59  C   UNL A   1      47.397  34.716  26.816  1.00  0.00     0.029 A 
ATOM     60  N   UNL A   1      48.103  32.621  26.577  1.00  0.00    -0.354 N 
ATOM     61  N   UNL A   1      50.120  30.512  26.286  1.00  0.00    -0.248 NA
ATOM     62  C   UNL A   1      52.331  29.860  25.922  1.00  0.00     0.031 C 
ATOM     63  C   UNL A   1      48.780  34.736  26.610  1.00  0.00     0.029 A 
ATOM     64  C   UNL A   1      49.224  33.429  26.491  1.00  0.00     0.049 A 
ATOM     65  H   UNL A   1      48.109  31.638  26.519  1.00  0.00     0.167 HD
ATOM     66  C   UNL A   1      50.925  31.645  26.219  1.00  0.00     0.074 A 
ATOM     67  C   UNL A   1      52.283  31.180  26.027  1.00  0.00     0.031 C 
ATOM     68  C   UNL A   1      50.573  32.952  26.309  1.00  0.00     0.037 A 
BRANCH  55  69
ATOM     69  C   UNL A   1      44.496  33.866  26.976  1.00  0.00     0.057 A 
ATOM     70  C   UNL A   1      43.865  34.426  25.857  1.00  0.00     0.134 A 
ATOM     71  C   UNL A   1      44.015  34.233  28.239  1.00  0.00     0.134 A 
ATOM     72  F   UNL A   1      44.287  34.130  24.618  1.00  0.00    -0.206 F 
ATOM     73  C   UNL A   1      42.815  35.336  25.991  1.00  0.00     0.040 A 
ATOM     74  C   UNL A   1      42.946  35.118  28.385  1.00  0.00     0.040 A 
ATOM     75  F   UNL A   1      44.572  33.732  29.353  1.00  0.00    -0.206 F 
ATOM     76  C   UNL A   1      42.348  35.679  27.259  1.00  0.00     0.006 A 
ENDBRANCH  55  69
BRANCH  56  77
ATOM     77  C   UNL A   1      51.686  27.008  25.976  1.00  0.00     0.057 A 
ATOM     78  C   UNL A   1      52.419  26.522  27.065  1.00  0.00     0.134 A 
ATOM     79  C   UNL A   1      52.035  26.535  24.705  1.00  0.00     0.134 A 
ATOM     80  F   UNL A   1      52.153  26.955  28.306  1.00  0.00    -0.206 F 
ATOM     81  C   UNL A   1      53.470  25.618  26.896  1.00  0.00     0.040 A 
ATOM     82  C   UNL A   1      53.064  25.610  24.524  1.00  0.00     0.040 A 
ATOM     83  F   UNL A   1      51.375  26.962  23.619  1.00  0.00    -0.206 F 
ATOM     84  C   UNL A   1      53.792  25.156  25.621  1.00  0.00     0.006 A 
ENDBRANCH  56  77
BRANCH  68  85
ATOM     85  C   UNL A   1      51.674  33.973  26.251  1.00  0.00     0.057 A 
ATOM     86  C   UNL A   1      52.304  34.455  27.407  1.00  0.00     0.134 A 
ATOM     87  C   UNL A   1      52.142  34.446  25.018  1.00  0.00     0.134 A 
ATOM     88  F   UNL A   1      51.898  34.052  28.621  1.00  0.00    -0.206 F 
ATOM     89  C   UNL A   1      53.340  35.388  27.337  1.00  0.00     0.040 A 
ATOM     90  C   UNL A   1      53.198  35.353  24.935  1.00  0.00     0.040 A 
ATOM     91  F   UNL A   1      51.594  34.017  23.872  1.00  0.00    -0.206 F 
ATOM     92  C   UNL A   1      53.795  35.834  26.098  1.00  0.00     0.006 A 
ENDBRANCH  68  85
ENDBRANCH  42  43
ENDBRANCH  35  37
ENDBRANCH  34  35
ENDBRANCH  33  34
ENDBRANCH  32  33
ENDBRANCH  31  32
ENDBRANCH  30  31
ENDBRANCH  29  30
ENDBRANCH  28  29
ENDBRANCH  27  28
ENDBRANCH   1  27
TORSDOF 25
ENDMDL
MODEL 2
REMARK VINA RESULT:      -8.8      7.435     11.507
REMARK SMILES CCC1(C(=O)NCCc2ccc(C(=O)OCCOCCOCCOCCOC(=O)c3ccc(-c4c5nc(c(-c6c(F)cccc6F)c6ccc([nH]6)c(-c6c(F)cccc6F)c6nc(c(-c7c(F)cccc7F)c7ccc4[nH]7)C=C6)C=C5)cc3)cc2)CCCC1
REMARK SMILES IDX 19 1 18 2 17 3 16 4 15 5 13 6 14 7 12 8 9 9 10 10 85 11
REMARK SMILES IDX 11 12 84 13 8 14 7 15 6 16 4 17 5 18 3 20 86 21 89 22 87 23
REMARK SMILES IDX 88 24 2 25 1 26 20 27 21 28 22 29 23 30 24 31 25 32 26 33
REMARK SMILES IDX 27 34 28 35 29 36 30 37 31 38 83 39 32 40 82 41 33 42 34 43
REMARK SMILES IDX 35 44 76 45 36 46 81 47 75 48 77 49 37 50 80 51 74 52 73 53
REMARK SMILES IDX 38 55 64 56 47 57 63 58 48 59 51 60 62 61 78 62 49 63 50 64
REMARK SMILES IDX 61 66 79 67 52 68 39 69 40 70 45 71 41 72 42 73 44 74 46 75
REMARK SMILES IDX 43 76 65 77 66 78 71 79 67 80 68 81 70 82 72 83 69 84 53 85
REMARK SMILES IDX 54 86 59 87 55 88 56 89 58 90 60 91 57 92
REMARK H PARENT 6 19 77 54 51 65
REMARK Flexibility Score: inf
ROOT
ATOM      1  C   UNL A   1      31.740  31.596  26.792  1.00  0.00     0.188 C 
ENDROOT
BRANCH   1   2
ATOM      2  O   UNL A   1      30.706  31.736  25.830  1.00  0.00    -0.376 OA
BRANCH   2   3
ATOM      3  C   UNL A   1      30.644  30.812  24.759  1.00  0.00     0.202 C 
BRANCH   3   4
ATOM      4  C   UNL A   1      29.401  30.847  23.856  1.00  0.00     0.261 C 
BRANCH   4   5
ATOM      5  O   UNL A   1      29.049  29.596  23.256  1.00  0.00    -0.460 OA
BRANCH   5   6
ATOM      6  C   UNL A   1      29.935  29.101  22.367  1.00  0.00     0.338 C 
ATOM      7  O   UNL A   1      30.560  29.729  21.530  1.00  0.00    -0.246 OA
BRANCH   6   8
ATOM      8  C   UNL A   1      30.220  27.699  22.738  1.00  0.00     0.060 A 
ATOM      9  C   UNL A   1      30.625  25.035  23.512  1.00  0.00    -0.046 A 
ATOM     10  C   UNL A   1      29.637  25.813  24.129  1.00  0.00     0.004 A 
ATOM     11  C   UNL A   1      31.360  25.593  22.451  1.00  0.00     0.004 A 
ATOM     12  C   UNL A   1      29.451  27.141  23.762  1.00  0.00     0.016 A 
ATOM     13  C   UNL A   1      31.152  26.916  22.053  1.00  0.00     0.016 A 
BRANCH   9  14
ATOM     14  C   UNL A   1      31.022  23.665  24.013  1.00  0.00     0.056 C 
BRANCH  14  15
ATOM     15  C   UNL A   1      32.215  23.593  24.969  1.00  0.00     0.120 C 
BRANCH  15  16
ATOM     16  N   UNL A   1      33.422  23.180  24.294  1.00  0.00    -0.355 N 
ATOM     17  C   UNL A   1      34.150  22.037  24.367  1.00  0.00     0.226 C 
ATOM     18  O   UNL A   1      35.273  22.115  23.856  1.00  0.00    -0.274 OA
ATOM     19  H   UNL A   1      33.781  23.848  23.667  1.00  0.00     0.163 HD
BRANCH  17  20
ATOM     20  C   UNL A   1      33.660  20.734  25.064  1.00  0.00     0.049 C 
ATOM     21  C   UNL A   1      34.622  19.536  24.960  1.00  0.00     0.017 C 
ATOM     22  C   UNL A   1      32.326  20.245  24.458  1.00  0.00     0.017 C 
ATOM     23  C   UNL A   1      33.985  18.467  24.077  1.00  0.00     0.001 C 
ATOM     24  C   UNL A   1      32.569  18.914  23.755  1.00  0.00     0.001 C 
BRANCH  20  25
ATOM     25  C   UNL A   1      33.417  21.070  26.575  1.00  0.00     0.013 C 
ATOM     26  C   UNL A   1      34.548  21.827  27.273  1.00  0.00     0.005 C 
ENDBRANCH  20  25
ENDBRANCH  17  20
ENDBRANCH  15  16
ENDBRANCH  14  15
ENDBRANCH   9  14
ENDBRANCH   6   8
ENDBRANCH   5   6
ENDBRANCH   4   5
ENDBRANCH   3   4
ENDBRANCH   2   3
ENDBRANCH   1   2
BRANCH   1  27
ATOM     27  C   UNL A   1      32.804  30.541  26.422  1.00  0.00     0.188 C 
BRANCH  27  28
ATOM     28  O   UNL A   1      33.972  30.446  27.224  1.00  0.00    -0.377 OA
BRANCH  28  29
ATOM     29  C   UNL A   1      34.259  31.468  28.177  1.00  0.00     0.188 C 
BRANCH  29  30
ATOM     30  C   UNL A   1      35.402  32.491  27.969  1.00  0.00     0.188 C 
BRANCH  30  31
ATOM     31  O   UNL A   1      34.972  33.812  27.688  1.00  0.00    -0.376 OA
BRANCH  31  32
ATOM     32  C   UNL A   1      33.668  34.176  28.097  1.00  0.00     0.202 C 
BRANCH  32  33
ATOM     33  C   UNL A   1      33.559  35.121  29.302  1.00  0.00     0.261 C 
BRANCH  33  34
ATOM     34  O   UNL A   1      32.931  34.580  30.476  1.00  0.00    -0.460 OA
BRANCH  34  35
ATOM     35  C   UNL A   1      33.092  35.251  31.636  1.00  0.00     0.338 C 
ATOM     36  O   UNL A   1      32.313  36.039  32.149  1.00  0.00    -0.246 OA
BRANCH  35  37
ATOM     37  C   UNL A   1      34.306  34.724  32.290  1.00  0.00     0.060 A 
ATOM     38  C   UNL A   1      35.509  35.437  32.190  1.00  0.00     0.016 A 
ATOM     39  C   UNL A   1      34.248  33.534  33.020  1.00  0.00     0.016 A 
ATOM     40  C   UNL A   1      36.666  34.944  32.794  1.00  0.00     0.010 A 
ATOM     41  C   UNL A   1      35.412  33.028  33.603  1.00  0.00     0.010 A 
ATOM     42  C   UNL A   1      36.633  33.714  33.463  1.00  0.00    -0.014 A 
BRANCH  42  43
ATOM     43  C   UNL A   1      37.899  33.039  33.835  1.00  0.00     0.031 A 
ATOM     44  C   UNL A   1      38.432  31.974  32.916  1.00  0.00     0.074 A 
ATOM     45  C   UNL A   1      38.571  33.364  34.953  1.00  0.00     0.049 A 
ATOM     46  N   UNL A   1      39.474  31.197  33.055  1.00  0.00    -0.248 NA
ATOM     47  C   UNL A   1      37.678  31.755  31.669  1.00  0.00     0.031 C 
ATOM     48  C   UNL A   1      38.185  34.405  35.903  1.00  0.00     0.029 A 
ATOM     49  N   UNL A   1      39.720  32.832  35.483  1.00  0.00    -0.354 N 
ATOM     50  C   UNL A   1      39.494  30.392  31.922  1.00  0.00     0.074 A 
ATOM     51  C   UNL A   1      38.344  30.752  31.122  1.00  0.00     0.031 C 
ATOM     52  C   UNL A   1      39.076  34.428  36.910  1.00  0.00     0.029 A 
ATOM     53  C   UNL A   1      40.072  33.379  36.693  1.00  0.00     0.049 A 
ATOM     54  H   UNL A   1      40.243  32.126  35.039  1.00  0.00     0.167 HD
ATOM     55  C   UNL A   1      40.396  29.443  31.575  1.00  0.00     0.037 A 
ATOM     56  C   UNL A   1      41.069  33.048  37.539  1.00  0.00     0.037 A 
ATOM     57  C   UNL A   1      41.535  29.084  32.375  1.00  0.00     0.049 A 
ATOM     58  C   UNL A   1      42.012  31.930  37.172  1.00  0.00     0.074 A 
ATOM     59  C   UNL A   1      42.516  28.146  32.104  1.00  0.00     0.029 A 
ATOM     60  N   UNL A   1      41.840  29.638  33.609  1.00  0.00    -0.354 N 
ATOM     61  N   UNL A   1      42.040  31.191  36.088  1.00  0.00    -0.248 NA
ATOM     62  C   UNL A   1      43.062  31.600  38.146  1.00  0.00     0.031 C 
ATOM     63  C   UNL A   1      43.381  28.090  33.203  1.00  0.00     0.029 A 
ATOM     64  C   UNL A   1      42.977  29.040  34.127  1.00  0.00     0.049 A 
ATOM     65  H   UNL A   1      41.324  30.351  34.052  1.00  0.00     0.167 HD
ATOM     66  C   UNL A   1      43.128  30.337  36.235  1.00  0.00     0.074 A 
ATOM     67  C   UNL A   1      43.740  30.658  37.508  1.00  0.00     0.031 C 
ATOM     68  C   UNL A   1      43.581  29.375  35.393  1.00  0.00     0.037 A 
BRANCH  55  69
ATOM     69  C   UNL A   1      40.161  28.707  30.287  1.00  0.00     0.057 A 
ATOM     70  C   UNL A   1      40.745  29.113  29.080  1.00  0.00     0.134 A 
ATOM     71  C   UNL A   1      39.357  27.560  30.262  1.00  0.00     0.134 A 
ATOM     72  F   UNL A   1      41.514  30.212  29.032  1.00  0.00    -0.206 F 
ATOM     73  C   UNL A   1      40.516  28.421  27.889  1.00  0.00     0.040 A 
ATOM     74  C   UNL A   1      39.145  26.843  29.083  1.00  0.00     0.040 A 
ATOM     75  F   UNL A   1      38.769  27.114  31.382  1.00  0.00    -0.206 F 
ATOM     76  C   UNL A   1      39.719  27.278  27.891  1.00  0.00     0.006 A 
ENDBRANCH  55  69
BRANCH  56  77
ATOM     77  C   UNL A   1      41.222  33.768  38.831  1.00  0.00     0.057 A 
ATOM     78  C   UNL A   1      40.478  33.402  39.959  1.00  0.00     0.134 A 
ATOM     79  C   UNL A   1      42.090  34.859  38.960  1.00  0.00     0.134 A 
ATOM     80  F   UNL A   1      39.609  32.383  39.893  1.00  0.00    -0.206 F 
ATOM     81  C   UNL A   1      40.575  34.106  41.161  1.00  0.00     0.040 A 
ATOM     82  C   UNL A   1      42.220  35.554  40.164  1.00  0.00     0.040 A 
ATOM     83  F   UNL A   1      42.831  35.263  37.918  1.00  0.00    -0.206 F 
ATOM     84  C   UNL A   1      41.453  35.183  41.267  1.00  0.00     0.006 A 
ENDBRANCH  56  77
BRANCH  68  85
ATOM     85  C   UNL A   1      44.824  28.631  35.792  1.00  0.00     0.057 A 
ATOM     86  C   UNL A   1      46.105  29.074  35.433  1.00  0.00     0.134 A 
ATOM     87  C   UNL A   1      44.741  27.482  36.589  1.00  0.00     0.134 A 
ATOM     88  F   UNL A   1      46.257  30.162  34.662  1.00  0.00    -0.206 F 
ATOM     89  C   UNL A   1      47.253  28.384  35.829  1.00  0.00     0.040 A 
ATOM     90  C   UNL A   1      45.882  26.804  37.018  1.00  0.00     0.040 A 
ATOM     91  F   UNL A   1      43.548  27.010  36.982  1.00  0.00    -0.206 F 
ATOM     92  C   UNL A   1      47.143  27.250  36.630  1.00  0.00     0.006 A 
ENDBRANCH  68  85
ENDBRANCH  42  43
ENDBRANCH  35  37
ENDBRANCH  34  35
ENDBRANCH  33  34
ENDBRANCH  32  33
ENDBRANCH  31  32
ENDBRANCH  30  31
ENDBRANCH  29  30
ENDBRANCH  28  29
ENDBRANCH  27  28
ENDBRANCH   1  27
TORSDOF 25
ENDMDL
MODEL 3
REMARK VINA RESULT:      -8.4      1.061      6.037
REMARK SMILES CCC1(C(=O)NCCc2ccc(C(=O)OCCOCCOCCOCCOC(=O)c3ccc(-c4c5nc(c(-c6c(F)cccc6F)c6ccc([nH]6)c(-c6c(F)cccc6F)c6nc(c(-c7c(F)cccc7F)c7ccc4[nH]7)C=C6)C=C5)cc3)cc2)CCCC1
REMARK SMILES IDX 19 1 18 2 17 3 16 4 15 5 13 6 14 7 12 8 9 9 10 10 85 11
REMARK SMILES IDX 11 12 84 13 8 14 7 15 6 16 4 17 5 18 3 20 86 21 89 22 87 23
REMARK SMILES IDX 88 24 2 25 1 26 20 27 21 28 22 29 23 30 24 31 25 32 26 33
REMARK SMILES IDX 27 34 28 35 29 36 30 37 31 38 83 39 32 40 82 41 33 42 34 43
REMARK SMILES IDX 35 44 76 45 36 46 81 47 75 48 77 49 37 50 80 51 74 52 73 53
REMARK SMILES IDX 38 55 64 56 47 57 63 58 48 59 51 60 62 61 78 62 49 63 50 64
REMARK SMILES IDX 61 66 79 67 52 68 39 69 40 70 45 71 41 72 42 73 44 74 46 75
REMARK SMILES IDX 43 76 65 77 66 78 71 79 67 80 68 81 70 82 72 83 69 84 53 85
REMARK SMILES IDX 54 86 59 87 55 88 56 89 58 90 60 91 57 92
REMARK H PARENT 6 19 77 54 51 65
REMARK Flexibility Score: inf
ROOT
ATOM      1  C   UNL A   1      37.046  32.029  28.269  1.00  0.00     0.188 C 
ENDROOT
BRANCH   1   2
ATOM      2  O   UNL A   1      35.713  32.517  28.272  1.00  0.00    -0.376 OA
BRANCH   2   3
ATOM      3  C   UNL A   1      34.667  31.634  28.634  1.00  0.00     0.202 C 
BRANCH   3   4
ATOM      4  C   UNL A   1      33.597  31.323  27.575  1.00  0.00     0.261 C 
BRANCH   4   5
ATOM      5  O   UNL A   1      33.171  29.958  27.523  1.00  0.00    -0.460 OA
BRANCH   5   6
ATOM      6  C   UNL A   1      34.052  29.087  26.989  1.00  0.00     0.338 C 
ATOM      7  O   UNL A   1      35.214  28.928  27.320  1.00  0.00    -0.246 OA
BRANCH   6   8
ATOM      8  C   UNL A   1      33.309  28.171  26.100  1.00  0.00     0.060 A 
ATOM      9  C   UNL A   1      31.770  26.467  24.491  1.00  0.00    -0.046 A 
ATOM     10  C   UNL A   1      31.271  26.933  25.713  1.00  0.00     0.004 A 
ATOM     11  C   UNL A   1      33.025  26.926  24.053  1.00  0.00     0.004 A 
ATOM     12  C   UNL A   1      32.042  27.759  26.523  1.00  0.00     0.016 A 
ATOM     13  C   UNL A   1      33.789  27.786  24.846  1.00  0.00     0.016 A 
BRANCH   9  14
ATOM     14  C   UNL A   1      31.076  25.400  23.674  1.00  0.00     0.056 C 
BRANCH  14  15
ATOM     15  C   UNL A   1      31.913  24.681  22.614  1.00  0.00     0.120 C 
BRANCH  15  16
ATOM     16  N   UNL A   1      31.763  23.248  22.691  1.00  0.00    -0.355 N 
ATOM     17  C   UNL A   1      32.551  22.287  23.235  1.00  0.00     0.226 C 
ATOM     18  O   UNL A   1      32.261  21.135  22.893  1.00  0.00    -0.274 OA
ATOM     19  H   UNL A   1      30.940  22.906  22.273  1.00  0.00     0.163 HD
BRANCH  17  20
ATOM     20  C   UNL A   1      33.754  22.578  24.180  1.00  0.00     0.049 C 
ATOM     21  C   UNL A   1      34.483  21.329  24.713  1.00  0.00     0.017 C 
ATOM     22  C   UNL A   1      33.302  23.357  25.435  1.00  0.00     0.017 C 
ATOM     23  C   UNL A   1      34.235  21.218  26.215  1.00  0.00     0.001 C 
ATOM     24  C   UNL A   1      33.491  22.466  26.657  1.00  0.00     0.001 C 
BRANCH  20  25
ATOM     25  C   UNL A   1      34.771  23.469  23.390  1.00  0.00     0.013 C 
ATOM     26  C   UNL A   1      36.182  22.895  23.249  1.00  0.00     0.005 C 
ENDBRANCH  20  25
ENDBRANCH  17  20
ENDBRANCH  15  16
ENDBRANCH  14  15
ENDBRANCH   9  14
ENDBRANCH   6   8
ENDBRANCH   5   6
ENDBRANCH   4   5
ENDBRANCH   3   4
ENDBRANCH   2   3
ENDBRANCH   1   2
BRANCH   1  27
ATOM     27  C   UNL A   1      37.299  30.884  29.272  1.00  0.00     0.188 C 
BRANCH  27  28
ATOM     28  O   UNL A   1      38.363  29.980  29.015  1.00  0.00    -0.377 OA
BRANCH  28  29
ATOM     29  C   UNL A   1      38.407  28.729  29.698  1.00  0.00     0.188 C 
BRANCH  29  30
ATOM     30  C   UNL A   1      39.702  27.885  29.790  1.00  0.00     0.188 C 
BRANCH  30  31
ATOM     31  O   UNL A   1      40.124  27.310  28.565  1.00  0.00    -0.376 OA
BRANCH  31  32
ATOM     32  C   UNL A   1      39.182  26.535  27.848  1.00  0.00     0.202 C 
BRANCH  32  33
ATOM     33  C   UNL A   1      39.703  25.249  27.191  1.00  0.00     0.261 C 
BRANCH  33  34
ATOM     34  O   UNL A   1      40.736  24.549  27.902  1.00  0.00    -0.460 OA
BRANCH  34  35
ATOM     35  C   UNL A   1      41.681  23.920  27.172  1.00  0.00     0.338 C 
ATOM     36  O   UNL A   1      41.580  22.848  26.596  1.00  0.00    -0.246 OA
BRANCH  35  37
ATOM     37  C   UNL A   1      42.819  24.850  27.022  1.00  0.00     0.060 A 
ATOM     38  C   UNL A   1      43.491  25.307  28.165  1.00  0.00     0.016 A 
ATOM     39  C   UNL A   1      43.232  25.252  25.750  1.00  0.00     0.016 A 
ATOM     40  C   UNL A   1      44.560  26.195  28.038  1.00  0.00     0.010 A 
ATOM     41  C   UNL A   1      44.286  26.159  25.625  1.00  0.00     0.010 A 
ATOM     42  C   UNL A   1      44.932  26.661  26.771  1.00  0.00    -0.014 A 
BRANCH  42  43
ATOM     43  C   UNL A   1      45.846  27.821  26.648  1.00  0.00     0.031 A 
ATOM     44  C   UNL A   1      47.316  27.552  26.479  1.00  0.00     0.074 A 
ATOM     45  C   UNL A   1      45.390  29.085  26.674  1.00  0.00     0.049 A 
ATOM     46  N   UNL A   1      48.317  28.392  26.421  1.00  0.00    -0.248 NA
ATOM     47  C   UNL A   1      47.709  26.137  26.367  1.00  0.00     0.031 C 
ATOM     48  C   UNL A   1      43.987  29.479  26.788  1.00  0.00     0.029 A 
ATOM     49  N   UNL A   1      46.071  30.276  26.619  1.00  0.00    -0.354 N 
ATOM     50  C   UNL A   1      49.455  27.608  26.275  1.00  0.00     0.074 A 
ATOM     51  C   UNL A   1      49.027  26.227  26.287  1.00  0.00     0.031 C 
ATOM     52  C   UNL A   1      43.912  30.821  26.809  1.00  0.00     0.029 A 
ATOM     53  C   UNL A   1      45.262  31.379  26.746  1.00  0.00     0.049 A 
ATOM     54  H   UNL A   1      47.046  30.334  26.499  1.00  0.00     0.167 HD
ATOM     55  C   UNL A   1      50.742  28.005  26.136  1.00  0.00     0.037 A 
ATOM     56  C   UNL A   1      45.582  32.686  26.831  1.00  0.00     0.037 A 
ATOM     57  C   UNL A   1      51.166  29.379  26.130  1.00  0.00     0.049 A 
ATOM     58  C   UNL A   1      47.031  33.100  26.759  1.00  0.00     0.074 A 
ATOM     59  C   UNL A   1      52.445  29.886  25.979  1.00  0.00     0.029 A 
ATOM     60  N   UNL A   1      50.322  30.467  26.294  1.00  0.00    -0.354 N 
ATOM     61  N   UNL A   1      48.099  32.356  26.596  1.00  0.00    -0.248 NA
ATOM     62  C   UNL A   1      47.318  34.537  26.882  1.00  0.00     0.031 C 
ATOM     63  C   UNL A   1      52.382  31.277  26.113  1.00  0.00     0.029 A 
ATOM     64  C   UNL A   1      51.055  31.641  26.279  1.00  0.00     0.049 A 
ATOM     65  H   UNL A   1      49.344  30.412  26.405  1.00  0.00     0.167 HD
ATOM     66  C   UNL A   1      49.176  33.235  26.561  1.00  0.00     0.074 A 
ATOM     67  C   UNL A   1      48.631  34.568  26.709  1.00  0.00     0.031 C 
ATOM     68  C   UNL A   1      50.498  32.963  26.419  1.00  0.00     0.037 A 
BRANCH  55  69
ATOM     69  C   UNL A   1      51.785  26.932  26.012  1.00  0.00     0.057 A 
ATOM     70  C   UNL A   1      52.212  26.448  24.769  1.00  0.00     0.134 A 
ATOM     71  C   UNL A   1      52.387  26.392  27.156  1.00  0.00     0.134 A 
ATOM     72  F   UNL A   1      51.665  26.911  23.634  1.00  0.00    -0.206 F 
ATOM     73  C   UNL A   1      53.180  25.447  24.668  1.00  0.00     0.040 A 
ATOM     74  C   UNL A   1      53.378  25.412  27.067  1.00  0.00     0.040 A 
ATOM     75  F   UNL A   1      52.028  26.811  28.379  1.00  0.00    -0.206 F 
ATOM     76  C   UNL A   1      53.771  24.932  25.820  1.00  0.00     0.006 A 
ENDBRANCH  55  69
BRANCH  56  77
ATOM     77  C   UNL A   1      44.517  33.706  27.014  1.00  0.00     0.057 A 
ATOM     78  C   UNL A   1      43.920  34.338  25.917  1.00  0.00     0.134 A 
ATOM     79  C   UNL A   1      44.094  34.099  28.289  1.00  0.00     0.134 A 
ATOM     80  F   UNL A   1      44.301  34.026  24.668  1.00  0.00    -0.206 F 
ATOM     81  C   UNL A   1      42.957  35.336  26.079  1.00  0.00     0.040 A 
ATOM     82  C   UNL A   1      43.111  35.075  28.467  1.00  0.00     0.040 A 
ATOM     83  F   UNL A   1      44.626  33.536  29.384  1.00  0.00    -0.206 F 
ATOM     84  C   UNL A   1      42.547  35.703  27.360  1.00  0.00     0.006 A 
ENDBRANCH  56  77
BRANCH  68  85
ATOM     85  C   UNL A   1      51.444  34.130  26.365  1.00  0.00     0.057 A 
ATOM     86  C   UNL A   1      51.982  34.707  27.524  1.00  0.00     0.134 A 
ATOM     87  C   UNL A   1      51.861  34.651  25.133  1.00  0.00     0.134 A 
ATOM     88  F   UNL A   1      51.618  34.263  28.737  1.00  0.00    -0.206 F 
ATOM     89  C   UNL A   1      52.876  35.777  27.458  1.00  0.00     0.040 A 
ATOM     90  C   UNL A   1      52.779  35.699  25.055  1.00  0.00     0.040 A 
ATOM     91  F   UNL A   1      51.397  34.138  23.984  1.00  0.00    -0.206 F 
ATOM     92  C   UNL A   1      53.284  36.271  26.220  1.00  0.00     0.006 A 
ENDBRANCH  68  85
ENDBRANCH  42  43
ENDBRANCH  35  37
ENDBRANCH  34  35
ENDBRANCH  33  34
ENDBRANCH  32  33
ENDBRANCH  31  32
ENDBRANCH  30  31
ENDBRANCH  29  30
ENDBRANCH  28  29
ENDBRANCH  27  28
ENDBRANCH   1  27
TORSDOF 25
ENDMDL
