MODEL 1
REMARK VINA RESULT:      -8.0      0.000      0.000
REMARK SMILES COc1ccc(-c2noc(CC(=O)OCCOCCOCCOCCOC(=O)c3ccc(-c4c5nc(c(-c6c(F)cccc6F)c6ccc([nH]6)c(-c6c(F)cccc6F)c6nc(c(-c7c(F)cccc7F)c7ccc4[nH]7)C=C6)C=C5)cc3)c2-c2ccc(OC)cc2)cc1
REMARK SMILES IDX 19 1 18 2 17 3 16 4 15 5 14 6 12 7 13 8 11 9 10 10 7 11 8 12
REMARK SMILES IDX 83 13 9 14 6 15 3 16 4 17 93 18 5 19 92 20 2 21 1 22 84 23
REMARK SMILES IDX 85 24 91 25 86 26 90 27 87 28 88 29 89 30 20 31 21 32 22 33
REMARK SMILES IDX 23 34 24 35 25 36 26 37 27 38 28 39 29 40 30 41 82 42 31 43
REMARK SMILES IDX 81 44 32 45 33 46 34 47 75 48 35 49 80 50 74 51 76 52 36 53
REMARK SMILES IDX 79 54 73 55 72 56 37 58 63 59 46 60 62 61 47 62 50 63 61 64
REMARK SMILES IDX 77 65 48 66 49 67 60 69 78 70 51 71 38 72 39 73 44 74 40 75
REMARK SMILES IDX 41 76 43 77 45 78 42 79 64 80 65 81 70 82 66 83 67 84 69 85
REMARK SMILES IDX 71 86 68 87 52 88 53 89 58 90 54 91 55 92 57 93 59 94 56 95
REMARK H PARENT 76 57 50 68
REMARK Flexibility Score: inf
ROOT
ATOM      1  C   UNL A   1      40.111  34.040  35.437  1.00  0.00     0.188 C 
ENDROOT
BRANCH   1   2
ATOM      2  C   UNL A   1      39.305  33.101  34.535  1.00  0.00     0.188 C 
BRANCH   2   3
ATOM      3  O   UNL A   1      37.966  32.782  34.861  1.00  0.00    -0.376 OA
BRANCH   3   4
ATOM      4  C   UNL A   1      36.904  33.157  33.995  1.00  0.00     0.202 C 
BRANCH   4   5
ATOM      5  C   UNL A   1      36.830  32.720  32.514  1.00  0.00     0.261 C 
BRANCH   5   6
ATOM      6  O   UNL A   1      36.570  33.754  31.541  1.00  0.00    -0.463 OA
BRANCH   6   7
ATOM      7  C   UNL A   1      35.500  33.589  30.733  1.00  0.00     0.313 C 
ATOM      8  O   UNL A   1      34.339  33.605  31.139  1.00  0.00    -0.252 OA
BRANCH   7   9
ATOM      9  C   UNL A   1      35.782  33.535  29.247  1.00  0.00     0.201 C 
BRANCH   9  10
ATOM     10  C   UNL A   1      35.040  32.567  28.382  1.00  0.00     0.156 A 
ATOM     11  C   UNL A   1      33.959  30.879  27.403  1.00  0.00     0.122 A 
ATOM     12  N   UNL A   1      33.147  31.940  27.317  1.00  0.00    -0.079 NA
ATOM     13  C   UNL A   1      35.183  31.237  28.043  1.00  0.00     0.053 A 
ATOM     14  O   UNL A   1      33.788  32.955  27.991  1.00  0.00    -0.359 OA
BRANCH  11  15
ATOM     15  C   UNL A   1      33.497  29.547  27.056  1.00  0.00     0.005 A 
ATOM     16  C   UNL A   1      32.562  26.962  26.507  1.00  0.00     0.118 A 
ATOM     17  C   UNL A   1      33.847  27.349  26.114  1.00  0.00     0.047 A 
ATOM     18  C   UNL A   1      31.745  27.867  27.182  1.00  0.00     0.047 A 
ATOM     19  C   UNL A   1      34.313  28.643  26.373  1.00  0.00     0.014 A 
ATOM     20  C   UNL A   1      32.211  29.156  27.450  1.00  0.00     0.014 A 
BRANCH  16  21
ATOM     21  O   UNL A   1      32.222  25.665  26.233  1.00  0.00    -0.497 OA
ATOM     22  C   UNL A   1      30.835  25.433  26.008  1.00  0.00     0.278 C 
ENDBRANCH  16  21
ENDBRANCH  11  15
BRANCH  13  23
ATOM     23  C   UNL A   1      36.219  30.388  28.569  1.00  0.00    -0.012 A 
ATOM     24  C   UNL A   1      37.299  29.983  27.788  1.00  0.00     0.013 A 
ATOM     25  C   UNL A   1      36.092  29.924  29.883  1.00  0.00     0.013 A 
ATOM     26  C   UNL A   1      38.274  29.153  28.346  1.00  0.00     0.047 A 
ATOM     27  C   UNL A   1      37.071  29.114  30.439  1.00  0.00     0.047 A 
ATOM     28  C   UNL A   1      38.175  28.736  29.679  1.00  0.00     0.118 A 
BRANCH  28  29
ATOM     29  O   UNL A   1      39.204  27.956  30.131  1.00  0.00    -0.497 OA
ATOM     30  C   UNL A   1      39.606  28.187  31.478  1.00  0.00     0.278 C 
ENDBRANCH  28  29
ENDBRANCH  13  23
ENDBRANCH   9  10
ENDBRANCH   7   9
ENDBRANCH   6   7
ENDBRANCH   5   6
ENDBRANCH   4   5
ENDBRANCH   3   4
ENDBRANCH   2   3
ENDBRANCH   1   2
BRANCH   1  31
ATOM     31  O   UNL A   1      40.327  35.343  34.941  1.00  0.00    -0.377 OA
BRANCH  31  32
ATOM     32  C   UNL A   1      40.632  36.373  35.866  1.00  0.00     0.188 C 
BRANCH  32  33
ATOM     33  C   UNL A   1      39.968  36.340  37.253  1.00  0.00     0.188 C 
BRANCH  33  34
ATOM     34  O   UNL A   1      40.876  36.318  38.344  1.00  0.00    -0.376 OA
BRANCH  34  35
ATOM     35  C   UNL A   1      42.262  36.506  38.099  1.00  0.00     0.202 C 
BRANCH  35  36
ATOM     36  C   UNL A   1      43.215  35.308  38.256  1.00  0.00     0.261 C 
BRANCH  36  37
ATOM     37  O   UNL A   1      42.884  34.336  39.259  1.00  0.00    -0.460 OA
BRANCH  37  38
ATOM     38  C   UNL A   1      43.826  33.450  39.648  1.00  0.00     0.338 C 
ATOM     39  O   UNL A   1      44.410  33.402  40.706  1.00  0.00    -0.246 OA
BRANCH  38  40
ATOM     40  C   UNL A   1      43.890  32.407  38.600  1.00  0.00     0.060 A 
ATOM     41  C   UNL A   1      45.126  32.094  38.018  1.00  0.00     0.016 A 
ATOM     42  C   UNL A   1      42.729  31.740  38.202  1.00  0.00     0.016 A 
ATOM     43  C   UNL A   1      45.199  31.141  37.001  1.00  0.00     0.010 A 
ATOM     44  C   UNL A   1      42.798  30.805  37.168  1.00  0.00     0.010 A 
ATOM     45  C   UNL A   1      44.026  30.531  36.538  1.00  0.00    -0.014 A 
BRANCH  45  46
ATOM     46  C   UNL A   1      44.024  29.798  35.251  1.00  0.00     0.031 A 
ATOM     47  C   UNL A   1      43.456  30.501  34.049  1.00  0.00     0.074 A 
ATOM     48  C   UNL A   1      44.488  28.542  35.146  1.00  0.00     0.049 A 
ATOM     49  N   UNL A   1      43.208  30.040  32.851  1.00  0.00    -0.248 NA
ATOM     50  C   UNL A   1      43.113  31.921  34.232  1.00  0.00     0.031 C 
ATOM     51  C   UNL A   1      45.117  27.777  36.220  1.00  0.00     0.029 A 
ATOM     52  N   UNL A   1      44.482  27.683  34.076  1.00  0.00    -0.354 N 
ATOM     53  C   UNL A   1      42.662  31.105  32.146  1.00  0.00     0.074 A 
ATOM     54  C   UNL A   1      42.589  32.227  33.056  1.00  0.00     0.031 C 
ATOM     55  C   UNL A   1      45.417  26.549  35.759  1.00  0.00     0.029 A 
ATOM     56  C   UNL A   1      44.961  26.430  34.374  1.00  0.00     0.049 A 
ATOM     57  H   UNL A   1      44.164  27.939  33.179  1.00  0.00     0.167 HD
ATOM     58  C   UNL A   1      42.261  31.147  30.854  1.00  0.00     0.037 A 
ATOM     59  C   UNL A   1      44.992  25.312  33.623  1.00  0.00     0.037 A 
ATOM     60  C   UNL A   1      42.328  30.023  29.958  1.00  0.00     0.049 A 
ATOM     61  C   UNL A   1      44.451  25.352  32.215  1.00  0.00     0.074 A 
ATOM     62  C   UNL A   1      41.949  29.957  28.630  1.00  0.00     0.029 A 
ATOM     63  N   UNL A   1      42.796  28.765  30.307  1.00  0.00    -0.354 N 
ATOM     64  N   UNL A   1      43.940  26.361  31.551  1.00  0.00    -0.248 NA
ATOM     65  C   UNL A   1      44.485  24.094  31.455  1.00  0.00     0.031 C 
ATOM     66  C   UNL A   1      42.133  28.643  28.191  1.00  0.00     0.029 A 
ATOM     67  C   UNL A   1      42.692  27.908  29.224  1.00  0.00     0.049 A 
ATOM     68  H   UNL A   1      43.149  28.518  31.192  1.00  0.00     0.167 HD
ATOM     69  C   UNL A   1      43.637  25.873  30.284  1.00  0.00     0.074 A 
ATOM     70  C   UNL A   1      44.019  24.477  30.274  1.00  0.00     0.031 C 
ATOM     71  C   UNL A   1      43.100  26.525  29.224  1.00  0.00     0.037 A 
BRANCH  58  72
ATOM     72  C   UNL A   1      41.679  32.437  30.354  1.00  0.00     0.057 A 
ATOM     73  C   UNL A   1      40.303  32.697  30.390  1.00  0.00     0.134 A 
ATOM     74  C   UNL A   1      42.510  33.437  29.832  1.00  0.00     0.134 A 
ATOM     75  F   UNL A   1      39.448  31.775  30.862  1.00  0.00    -0.206 F 
ATOM     76  C   UNL A   1      39.771  33.889  29.895  1.00  0.00     0.040 A 
ATOM     77  C   UNL A   1      41.994  34.646  29.365  1.00  0.00     0.040 A 
ATOM     78  F   UNL A   1      43.837  33.256  29.769  1.00  0.00    -0.206 F 
ATOM     79  C   UNL A   1      40.619  34.871  29.387  1.00  0.00     0.006 A 
ENDBRANCH  58  72
BRANCH  59  80
ATOM     80  C   UNL A   1      45.542  24.051  34.184  1.00  0.00     0.057 A 
ATOM     81  C   UNL A   1      46.921  23.812  34.213  1.00  0.00     0.134 A 
ATOM     82  C   UNL A   1      44.705  23.043  34.682  1.00  0.00     0.134 A 
ATOM     83  F   UNL A   1      47.774  24.726  33.727  1.00  0.00    -0.206 F 
ATOM     84  C   UNL A   1      47.447  22.614  34.698  1.00  0.00     0.040 A 
ATOM     85  C   UNL A   1      45.220  21.852  35.197  1.00  0.00     0.040 A 
ATOM     86  F   UNL A   1      43.374  23.207  34.683  1.00  0.00    -0.206 F 
ATOM     87  C   UNL A   1      46.595  21.631  35.199  1.00  0.00     0.006 A 
ENDBRANCH  59  80
BRANCH  71  88
ATOM     88  C   UNL A   1      42.953  25.765  27.936  1.00  0.00     0.057 A 
ATOM     89  C   UNL A   1      43.983  25.686  26.991  1.00  0.00     0.134 A 
ATOM     90  C   UNL A   1      41.782  25.040  27.676  1.00  0.00     0.134 A 
ATOM     91  F   UNL A   1      45.127  26.364  27.172  1.00  0.00    -0.206 F 
ATOM     92  C   UNL A   1      43.847  24.926  25.828  1.00  0.00     0.040 A 
ATOM     93  C   UNL A   1      41.646  24.252  26.532  1.00  0.00     0.040 A 
ATOM     94  F   UNL A   1      40.760  25.062  28.545  1.00  0.00    -0.206 F 
ATOM     95  C   UNL A   1      42.680  24.198  25.601  1.00  0.00     0.006 A 
ENDBRANCH  71  88
ENDBRANCH  45  46
ENDBRANCH  38  40
ENDBRANCH  37  38
ENDBRANCH  36  37
ENDBRANCH  35  36
ENDBRANCH  34  35
ENDBRANCH  33  34
ENDBRANCH  32  33
ENDBRANCH  31  32
ENDBRANCH   1  31
TORSDOF 25
ENDMDL
MODEL 2
REMARK VINA RESULT:      -7.8      3.327      9.157
REMARK SMILES COc1ccc(-c2noc(CC(=O)OCCOCCOCCOCCOC(=O)c3ccc(-c4c5nc(c(-c6c(F)cccc6F)c6ccc([nH]6)c(-c6c(F)cccc6F)c6nc(c(-c7c(F)cccc7F)c7ccc4[nH]7)C=C6)C=C5)cc3)c2-c2ccc(OC)cc2)cc1
REMARK SMILES IDX 19 1 18 2 17 3 16 4 15 5 14 6 12 7 13 8 11 9 10 10 7 11 8 12
REMARK SMILES IDX 83 13 9 14 6 15 3 16 4 17 93 18 5 19 92 20 2 21 1 22 84 23
REMARK SMILES IDX 85 24 91 25 86 26 90 27 87 28 88 29 89 30 20 31 21 32 22 33
REMARK SMILES IDX 23 34 24 35 25 36 26 37 27 38 28 39 29 40 30 41 82 42 31 43
REMARK SMILES IDX 81 44 32 45 33 46 34 47 75 48 35 49 80 50 74 51 76 52 36 53
REMARK SMILES IDX 79 54 73 55 72 56 37 58 63 59 46 60 62 61 47 62 50 63 61 64
REMARK SMILES IDX 77 65 48 66 49 67 60 69 78 70 51 71 38 72 39 73 44 74 40 75
REMARK SMILES IDX 41 76 43 77 45 78 42 79 64 80 65 81 70 82 66 83 67 84 69 85
REMARK SMILES IDX 71 86 68 87 52 88 53 89 58 90 54 91 55 92 57 93 59 94 56 95
REMARK H PARENT 76 57 50 68
REMARK Flexibility Score: inf
ROOT
ATOM      1  C   UNL A   1      39.302  24.875  27.243  1.00  0.00     0.188 C 
ENDROOT
BRANCH   1   2
ATOM      2  C   UNL A   1      40.054  26.186  26.998  1.00  0.00     0.188 C 
BRANCH   2   3
ATOM      3  O   UNL A   1      40.284  27.081  28.069  1.00  0.00    -0.376 OA
BRANCH   3   4
ATOM      4  C   UNL A   1      40.005  26.692  29.407  1.00  0.00     0.202 C 
BRANCH   4   5
ATOM      5  C   UNL A   1      39.108  27.521  30.356  1.00  0.00     0.261 C 
BRANCH   5   6
ATOM      6  O   UNL A   1      39.751  28.125  31.498  1.00  0.00    -0.463 OA
BRANCH   6   7
ATOM      7  C   UNL A   1      39.014  28.262  32.622  1.00  0.00     0.313 C 
ATOM      8  O   UNL A   1      38.169  27.443  32.978  1.00  0.00    -0.252 OA
BRANCH   7   9
ATOM      9  C   UNL A   1      39.384  29.413  33.532  1.00  0.00     0.201 C 
BRANCH   9  10
ATOM     10  C   UNL A   1      38.545  30.650  33.549  1.00  0.00     0.156 A 
ATOM     11  C   UNL A   1      37.029  32.277  33.374  1.00  0.00     0.122 A 
ATOM     12  N   UNL A   1      37.302  32.163  34.679  1.00  0.00    -0.079 NA
ATOM     13  C   UNL A   1      37.815  31.359  32.616  1.00  0.00     0.053 A 
ATOM     14  O   UNL A   1      38.179  31.107  34.785  1.00  0.00    -0.359 OA
BRANCH  11  15
ATOM     15  C   UNL A   1      35.925  33.097  32.905  1.00  0.00     0.005 A 
ATOM     16  C   UNL A   1      33.714  34.584  32.033  1.00  0.00     0.118 A 
ATOM     17  C   UNL A   1      34.848  34.460  31.224  1.00  0.00     0.047 A 
ATOM     18  C   UNL A   1      33.683  33.958  33.278  1.00  0.00     0.047 A 
ATOM     19  C   UNL A   1      35.960  33.731  31.661  1.00  0.00     0.014 A 
ATOM     20  C   UNL A   1      34.787  33.221  33.712  1.00  0.00     0.014 A 
BRANCH  16  21
ATOM     21  O   UNL A   1      32.674  35.291  31.493  1.00  0.00    -0.497 OA
ATOM     22  C   UNL A   1      33.046  36.317  30.578  1.00  0.00     0.278 C 
ENDBRANCH  16  21
ENDBRANCH  11  15
BRANCH  13  23
ATOM     23  C   UNL A   1      37.675  30.957  31.241  1.00  0.00    -0.012 A 
ATOM     24  C   UNL A   1      38.604  31.331  30.272  1.00  0.00     0.013 A 
ATOM     25  C   UNL A   1      36.544  30.219  30.879  1.00  0.00     0.013 A 
ATOM     26  C   UNL A   1      38.416  30.919  28.951  1.00  0.00     0.047 A 
ATOM     27  C   UNL A   1      36.370  29.797  29.569  1.00  0.00     0.047 A 
ATOM     28  C   UNL A   1      37.313  30.132  28.600  1.00  0.00     0.118 A 
BRANCH  28  29
ATOM     29  O   UNL A   1      37.250  29.756  27.287  1.00  0.00    -0.497 OA
ATOM     30  C   UNL A   1      38.504  29.578  26.635  1.00  0.00     0.278 C 
ENDBRANCH  28  29
ENDBRANCH  13  23
ENDBRANCH   9  10
ENDBRANCH   7   9
ENDBRANCH   6   7
ENDBRANCH   5   6
ENDBRANCH   4   5
ENDBRANCH   3   4
ENDBRANCH   2   3
ENDBRANCH   1   2
BRANCH   1  31
ATOM     31  O   UNL A   1      39.939  23.700  26.788  1.00  0.00    -0.377 OA
BRANCH  31  32
ATOM     32  C   UNL A   1      40.985  23.155  27.574  1.00  0.00     0.188 C 
BRANCH  32  33
ATOM     33  C   UNL A   1      42.441  23.453  27.176  1.00  0.00     0.188 C 
BRANCH  33  34
ATOM     34  O   UNL A   1      43.111  22.379  26.536  1.00  0.00    -0.376 OA
BRANCH  34  35
ATOM     35  C   UNL A   1      44.400  22.596  25.980  1.00  0.00     0.202 C 
BRANCH  35  36
ATOM     36  C   UNL A   1      44.514  23.279  24.606  1.00  0.00     0.261 C 
BRANCH  36  37
ATOM     37  O   UNL A   1      44.551  24.714  24.592  1.00  0.00    -0.460 OA
BRANCH  37  38
ATOM     38  C   UNL A   1      45.674  25.343  25.000  1.00  0.00     0.338 C 
ATOM     39  O   UNL A   1      46.799  25.211  24.571  1.00  0.00    -0.246 OA
BRANCH  38  40
ATOM     40  C   UNL A   1      45.255  26.388  25.961  1.00  0.00     0.060 A 
ATOM     41  C   UNL A   1      46.225  27.029  26.744  1.00  0.00     0.016 A 
ATOM     42  C   UNL A   1      43.907  26.731  26.079  1.00  0.00     0.016 A 
ATOM     43  C   UNL A   1      45.844  27.988  27.683  1.00  0.00     0.010 A 
ATOM     44  C   UNL A   1      43.523  27.672  27.036  1.00  0.00     0.010 A 
ATOM     45  C   UNL A   1      44.486  28.275  27.867  1.00  0.00    -0.014 A 
BRANCH  45  46
ATOM     46  C   UNL A   1      44.034  29.008  29.073  1.00  0.00     0.031 A 
ATOM     47  C   UNL A   1      43.835  30.494  28.953  1.00  0.00     0.074 A 
ATOM     48  C   UNL A   1      43.823  28.387  30.245  1.00  0.00     0.049 A 
ATOM     49  N   UNL A   1      43.586  31.380  29.880  1.00  0.00    -0.248 NA
ATOM     50  C   UNL A   1      43.945  31.054  27.595  1.00  0.00     0.031 C 
ATOM     51  C   UNL A   1      43.921  26.948  30.473  1.00  0.00     0.029 A 
ATOM     52  N   UNL A   1      43.499  28.905  31.474  1.00  0.00    -0.354 N 
ATOM     53  C   UNL A   1      43.528  32.603  29.222  1.00  0.00     0.074 A 
ATOM     54  C   UNL A   1      43.798  32.349  27.824  1.00  0.00     0.031 C 
ATOM     55  C   UNL A   1      43.684  26.698  31.774  1.00  0.00     0.029 A 
ATOM     56  C   UNL A   1      43.462  27.964  32.474  1.00  0.00     0.049 A 
ATOM     57  H   UNL A   1      43.312  29.860  31.625  1.00  0.00     0.167 HD
ATOM     58  C   UNL A   1      43.271  33.828  29.736  1.00  0.00     0.037 A 
ATOM     59  C   UNL A   1      43.302  28.116  33.803  1.00  0.00     0.037 A 
ATOM     60  C   UNL A   1      43.015  34.074  31.130  1.00  0.00     0.049 A 
ATOM     61  C   UNL A   1      43.113  29.501  34.371  1.00  0.00     0.074 A 
ATOM     62  C   UNL A   1      42.742  35.276  31.757  1.00  0.00     0.029 A 
ATOM     63  N   UNL A   1      43.011  33.097  32.114  1.00  0.00    -0.354 N 
ATOM     64  N   UNL A   1      43.054  30.653  33.746  1.00  0.00    -0.248 NA
ATOM     65  C   UNL A   1      42.973  29.607  35.831  1.00  0.00     0.031 C 
ATOM     66  C   UNL A   1      42.631  35.035  33.130  1.00  0.00     0.029 A 
ATOM     67  C   UNL A   1      42.765  33.673  33.349  1.00  0.00     0.049 A 
ATOM     68  H   UNL A   1      43.161  32.136  31.958  1.00  0.00     0.167 HD
ATOM     69  C   UNL A   1      42.826  31.611  34.728  1.00  0.00     0.074 A 
ATOM     70  C   UNL A   1      42.758  30.906  35.990  1.00  0.00     0.031 C 
ATOM     71  C   UNL A   1      42.676  32.952  34.594  1.00  0.00     0.037 A 
BRANCH  58  72
ATOM     72  C   UNL A   1      43.297  34.993  28.790  1.00  0.00     0.057 A 
ATOM     73  C   UNL A   1      44.496  35.582  28.366  1.00  0.00     0.134 A 
ATOM     74  C   UNL A   1      42.103  35.530  28.291  1.00  0.00     0.134 A 
ATOM     75  F   UNL A   1      45.675  35.127  28.819  1.00  0.00    -0.206 F 
ATOM     76  C   UNL A   1      44.506  36.683  27.507  1.00  0.00     0.040 A 
ATOM     77  C   UNL A   1      42.102  36.610  27.406  1.00  0.00     0.040 A 
ATOM     78  F   UNL A   1      40.920  35.014  28.652  1.00  0.00    -0.206 F 
ATOM     79  C   UNL A   1      43.305  37.195  27.020  1.00  0.00     0.006 A 
ENDBRANCH  58  72
BRANCH  59  80
ATOM     80  C   UNL A   1      43.326  26.930  34.699  1.00  0.00     0.057 A 
ATOM     81  C   UNL A   1      42.155  26.224  34.996  1.00  0.00     0.134 A 
ATOM     82  C   UNL A   1      44.512  26.489  35.299  1.00  0.00     0.134 A 
ATOM     83  F   UNL A   1      40.982  26.612  34.474  1.00  0.00    -0.206 F 
ATOM     84  C   UNL A   1      42.158  25.135  35.869  1.00  0.00     0.040 A 
ATOM     85  C   UNL A   1      44.535  25.384  36.152  1.00  0.00     0.040 A 
ATOM     86  F   UNL A   1      45.670  27.122  35.058  1.00  0.00    -0.206 F 
ATOM     87  C   UNL A   1      43.353  24.708  36.445  1.00  0.00     0.006 A 
ENDBRANCH  59  80
BRANCH  71  88
ATOM     88  C   UNL A   1      42.354  33.747  35.828  1.00  0.00     0.057 A 
ATOM     89  C   UNL A   1      41.039  34.000  36.234  1.00  0.00     0.134 A 
ATOM     90  C   UNL A   1      43.385  34.202  36.662  1.00  0.00     0.134 A 
ATOM     91  F   UNL A   1      40.004  33.601  35.478  1.00  0.00    -0.206 F 
ATOM     92  C   UNL A   1      40.760  34.690  37.416  1.00  0.00     0.040 A 
ATOM     93  C   UNL A   1      43.120  34.866  37.860  1.00  0.00     0.040 A 
ATOM     94  F   UNL A   1      44.669  33.983  36.339  1.00  0.00    -0.206 F 
ATOM     95  C   UNL A   1      41.803  35.116  38.237  1.00  0.00     0.006 A 
ENDBRANCH  71  88
ENDBRANCH  45  46
ENDBRANCH  38  40
ENDBRANCH  37  38
ENDBRANCH  36  37
ENDBRANCH  35  36
ENDBRANCH  34  35
ENDBRANCH  33  34
ENDBRANCH  32  33
ENDBRANCH  31  32
ENDBRANCH   1  31
TORSDOF 25
ENDMDL
MODEL 3
REMARK VINA RESULT:      -7.4      5.435     10.604
REMARK SMILES COc1ccc(-c2noc(CC(=O)OCCOCCOCCOCCOC(=O)c3ccc(-c4c5nc(c(-c6c(F)cccc6F)c6ccc([nH]6)c(-c6c(F)cccc6F)c6nc(c(-c7c(F)cccc7F)c7ccc4[nH]7)C=C6)C=C5)cc3)c2-c2ccc(OC)cc2)cc1
REMARK SMILES IDX 19 1 18 2 17 3 16 4 15 5 14 6 12 7 13 8 11 9 10 10 7 11 8 12
REMARK SMILES IDX 83 13 9 14 6 15 3 16 4 17 93 18 5 19 92 20 2 21 1 22 84 23
REMARK SMILES IDX 85 24 91 25 86 26 90 27 87 28 88 29 89 30 20 31 21 32 22 33
REMARK SMILES IDX 23 34 24 35 25 36 26 37 27 38 28 39 29 40 30 41 82 42 31 43
REMARK SMILES IDX 81 44 32 45 33 46 34 47 75 48 35 49 80 50 74 51 76 52 36 53
REMARK SMILES IDX 79 54 73 55 72 56 37 58 63 59 46 60 62 61 47 62 50 63 61 64
REMARK SMILES IDX 77 65 48 66 49 67 60 69 78 70 51 71 38 72 39 73 44 74 40 75
REMARK SMILES IDX 41 76 43 77 45 78 42 79 64 80 65 81 70 82 66 83 67 84 69 85
REMARK SMILES IDX 71 86 68 87 52 88 53 89 58 90 54 91 55 92 57 93 59 94 56 95
REMARK H PARENT 76 57 50 68
REMARK Flexibility Score: inf
ROOT
ATOM      1  C   UNL A   1      34.795  31.012  27.951  1.00  0.00     0.188 C 
ENDROOT
BRANCH   1   2
ATOM      2  C   UNL A   1      33.832  30.206  27.076  1.00  0.00     0.188 C 
BRANCH   2   3
ATOM      3  O   UNL A   1      32.506  30.658  26.878  1.00  0.00    -0.376 OA
BRANCH   3   4
ATOM      4  C   UNL A   1      31.753  30.215  25.757  1.00  0.00     0.202 C 
BRANCH   4   5
ATOM      5  C   UNL A   1      31.434  28.725  25.492  1.00  0.00     0.261 C 
BRANCH   5   6
ATOM      6  O   UNL A   1      32.252  28.048  24.514  1.00  0.00    -0.463 OA
BRANCH   6   7
ATOM      7  C   UNL A   1      33.031  27.035  24.955  1.00  0.00     0.313 C 
ATOM      8  O   UNL A   1      33.080  26.686  26.133  1.00  0.00    -0.252 OA
BRANCH   7   9
ATOM      9  C   UNL A   1      33.742  26.224  23.893  1.00  0.00     0.201 C 
BRANCH   9  10
ATOM     10  C   UNL A   1      33.275  24.839  23.577  1.00  0.00     0.156 A 
ATOM     11  C   UNL A   1      32.685  22.690  23.478  1.00  0.00     0.122 A 
ATOM     12  N   UNL A   1      31.603  23.389  23.116  1.00  0.00    -0.079 NA
ATOM     13  C   UNL A   1      33.778  23.566  23.750  1.00  0.00     0.053 A 
ATOM     14  O   UNL A   1      31.952  24.714  23.254  1.00  0.00    -0.359 OA
BRANCH  11  15
ATOM     15  C   UNL A   1      32.608  21.262  23.732  1.00  0.00     0.005 A 
ATOM     16  C   UNL A   1      32.575  18.513  24.280  1.00  0.00     0.118 A 
ATOM     17  C   UNL A   1      32.237  18.986  23.008  1.00  0.00     0.047 A 
ATOM     18  C   UNL A   1      32.937  19.416  25.278  1.00  0.00     0.047 A 
ATOM     19  C   UNL A   1      32.238  20.359  22.734  1.00  0.00     0.014 A 
ATOM     20  C   UNL A   1      32.948  20.785  25.005  1.00  0.00     0.014 A 
BRANCH  16  21
ATOM     21  O   UNL A   1      32.573  17.153  24.427  1.00  0.00    -0.497 OA
ATOM     22  C   UNL A   1      33.173  16.669  25.624  1.00  0.00     0.278 C 
ENDBRANCH  16  21
ENDBRANCH  11  15
BRANCH  13  23
ATOM     23  C   UNL A   1      35.030  23.285  24.402  1.00  0.00    -0.012 A 
ATOM     24  C   UNL A   1      35.292  23.721  25.700  1.00  0.00     0.013 A 
ATOM     25  C   UNL A   1      36.016  22.606  23.679  1.00  0.00     0.013 A 
ATOM     26  C   UNL A   1      36.526  23.426  26.283  1.00  0.00     0.047 A 
ATOM     27  C   UNL A   1      37.234  22.301  24.268  1.00  0.00     0.047 A 
ATOM     28  C   UNL A   1      37.491  22.696  25.579  1.00  0.00     0.118 A 
BRANCH  28  29
ATOM     29  O   UNL A   1      38.647  22.435  26.261  1.00  0.00    -0.497 OA
ATOM     30  C   UNL A   1      39.417  23.574  26.631  1.00  0.00     0.278 C 
ENDBRANCH  28  29
ENDBRANCH  13  23
ENDBRANCH   9  10
ENDBRANCH   7   9
ENDBRANCH   6   7
ENDBRANCH   5   6
ENDBRANCH   4   5
ENDBRANCH   3   4
ENDBRANCH   2   3
ENDBRANCH   1   2
BRANCH   1  31
ATOM     31  O   UNL A   1      35.673  30.262  28.762  1.00  0.00    -0.377 OA
BRANCH  31  32
ATOM     32  C   UNL A   1      36.698  29.514  28.130  1.00  0.00     0.188 C 
BRANCH  32  33
ATOM     33  C   UNL A   1      37.927  29.098  28.957  1.00  0.00     0.188 C 
BRANCH  33  34
ATOM     34  O   UNL A   1      37.640  28.713  30.292  1.00  0.00    -0.376 OA
BRANCH  34  35
ATOM     35  C   UNL A   1      38.308  27.591  30.852  1.00  0.00     0.202 C 
BRANCH  35  36
ATOM     36  C   UNL A   1      38.528  27.538  32.374  1.00  0.00     0.261 C 
BRANCH  36  37
ATOM     37  O   UNL A   1      39.019  28.731  33.005  1.00  0.00    -0.460 OA
BRANCH  37  38
ATOM     38  C   UNL A   1      40.285  28.748  33.475  1.00  0.00     0.338 C 
ATOM     39  O   UNL A   1      40.787  28.003  34.286  1.00  0.00    -0.246 OA
BRANCH  38  40
ATOM     40  C   UNL A   1      41.028  29.742  32.669  1.00  0.00     0.060 A 
ATOM     41  C   UNL A   1      40.863  29.759  31.277  1.00  0.00     0.016 A 
ATOM     42  C   UNL A   1      41.880  30.656  33.294  1.00  0.00     0.016 A 
ATOM     43  C   UNL A   1      41.585  30.664  30.498  1.00  0.00     0.010 A 
ATOM     44  C   UNL A   1      42.620  31.544  32.513  1.00  0.00     0.010 A 
ATOM     45  C   UNL A   1      42.505  31.525  31.110  1.00  0.00    -0.014 A 
BRANCH  45  46
ATOM     46  C   UNL A   1      43.522  32.231  30.297  1.00  0.00     0.031 A 
ATOM     47  C   UNL A   1      44.828  31.528  30.048  1.00  0.00     0.074 A 
ATOM     48  C   UNL A   1      43.312  33.464  29.808  1.00  0.00     0.049 A 
ATOM     49  N   UNL A   1      45.926  31.974  29.497  1.00  0.00    -0.248 NA
ATOM     50  C   UNL A   1      44.904  30.126  30.495  1.00  0.00     0.031 C 
ATOM     51  C   UNL A   1      42.070  34.224  29.928  1.00  0.00     0.029 A 
ATOM     52  N   UNL A   1      44.158  34.301  29.125  1.00  0.00    -0.354 N 
ATOM     53  C   UNL A   1      46.827  30.918  29.548  1.00  0.00     0.074 A 
ATOM     54  C   UNL A   1      46.159  29.819  30.210  1.00  0.00     0.031 C 
ATOM     55  C   UNL A   1      42.242  35.429  29.355  1.00  0.00     0.029 A 
ATOM     56  C   UNL A   1      43.619  35.539  28.870  1.00  0.00     0.049 A 
ATOM     57  H   UNL A   1      45.065  34.040  28.844  1.00  0.00     0.167 HD
ATOM     58  C   UNL A   1      48.097  30.867  29.083  1.00  0.00     0.037 A 
ATOM     59  C   UNL A   1      44.186  36.639  28.339  1.00  0.00     0.037 A 
ATOM     60  C   UNL A   1      48.757  31.968  28.436  1.00  0.00     0.049 A 
ATOM     61  C   UNL A   1      45.633  36.593  27.915  1.00  0.00     0.074 A 
ATOM     62  C   UNL A   1      50.041  32.023  27.926  1.00  0.00     0.029 A 
ATOM     63  N   UNL A   1      48.185  33.213  28.220  1.00  0.00    -0.354 N 
ATOM     64  N   UNL A   1      46.480  35.593  27.961  1.00  0.00    -0.248 NA
ATOM     65  C   UNL A   1      46.205  37.834  27.369  1.00  0.00     0.031 C 
ATOM     66  C   UNL A   1      50.266  33.320  27.454  1.00  0.00     0.029 A 
ATOM     67  C   UNL A   1      49.099  34.051  27.606  1.00  0.00     0.049 A 
ATOM     68  H   UNL A   1      47.265  33.463  28.467  1.00  0.00     0.167 HD
ATOM     69  C   UNL A   1      47.665  36.067  27.410  1.00  0.00     0.074 A 
ATOM     70  C   UNL A   1      47.429  37.446  27.039  1.00  0.00     0.031 C 
ATOM     71  C   UNL A   1      48.840  35.416  27.221  1.00  0.00     0.037 A 
BRANCH  58  72
ATOM     72  C   UNL A   1      48.859  29.592  29.298  1.00  0.00     0.057 A 
ATOM     73  C   UNL A   1      48.875  28.563  28.347  1.00  0.00     0.134 A 
ATOM     74  C   UNL A   1      49.592  29.392  30.475  1.00  0.00     0.134 A 
ATOM     75  F   UNL A   1      48.179  28.682  27.205  1.00  0.00    -0.206 F 
ATOM     76  C   UNL A   1      49.564  27.370  28.571  1.00  0.00     0.040 A 
ATOM     77  C   UNL A   1      50.312  28.217  30.697  1.00  0.00     0.040 A 
ATOM     78  F   UNL A   1      49.623  30.335  31.427  1.00  0.00    -0.206 F 
ATOM     79  C   UNL A   1      50.291  27.198  29.748  1.00  0.00     0.006 A 
ENDBRANCH  58  72
BRANCH  59  80
ATOM     80  C   UNL A   1      43.394  37.888  28.187  1.00  0.00     0.057 A 
ATOM     81  C   UNL A   1      43.427  38.889  29.165  1.00  0.00     0.134 A 
ATOM     82  C   UNL A   1      42.568  38.101  27.076  1.00  0.00     0.134 A 
ATOM     83  F   UNL A   1      44.178  38.733  30.265  1.00  0.00    -0.206 F 
ATOM     84  C   UNL A   1      42.655  40.047  29.054  1.00  0.00     0.040 A 
ATOM     85  C   UNL A   1      41.813  39.267  26.938  1.00  0.00     0.040 A 
ATOM     86  F   UNL A   1      42.490  37.182  26.103  1.00  0.00    -0.206 F 
ATOM     87  C   UNL A   1      41.849  40.242  27.934  1.00  0.00     0.006 A 
ENDBRANCH  59  80
BRANCH  71  88
ATOM     88  C   UNL A   1      49.945  36.155  26.521  1.00  0.00     0.057 A 
ATOM     89  C   UNL A   1      50.940  36.851  27.217  1.00  0.00     0.134 A 
ATOM     90  C   UNL A   1      50.051  36.105  25.123  1.00  0.00     0.134 A 
ATOM     91  F   UNL A   1      50.894  36.947  28.555  1.00  0.00    -0.206 F 
ATOM     92  C   UNL A   1      51.992  37.482  26.550  1.00  0.00     0.040 A 
ATOM     93  C   UNL A   1      51.113  36.705  24.447  1.00  0.00     0.040 A 
ATOM     94  F   UNL A   1      49.138  35.445  24.395  1.00  0.00    -0.206 F 
ATOM     95  C   UNL A   1      52.085  37.401  25.162  1.00  0.00     0.006 A 
ENDBRANCH  71  88
ENDBRANCH  45  46
ENDBRANCH  38  40
ENDBRANCH  37  38
ENDBRANCH  36  37
ENDBRANCH  35  36
ENDBRANCH  34  35
ENDBRANCH  33  34
ENDBRANCH  32  33
ENDBRANCH  31  32
ENDBRANCH   1  31
TORSDOF 25
ENDMDL
