MODEL 1
REMARK VINA RESULT:     -10.3      0.000      0.000
REMARK SMILES C[C@H]1[C@H](C(=O)OCCOCCOCCOCCOC(=O)c2ccc(-c3c4nc(c(-c5c(F)cccc5F)c5ccc([nH]5)c(-c5c(F)cccc5F)c5nc(c(-c6c(F)cccc6F)c6ccc3[nH]6)C=C5)C=C4)cc2)CC[N@@H+]1Cc1cscn1
REMARK SMILES IDX 12 1 11 2 10 3 9 4 8 5 7 6 6 7 4 8 5 9 3 10 1 11 2 12 77 13
REMARK SMILES IDX 75 14 76 15 78 17 79 18 80 19 83 20 81 21 82 22 13 23 14 24
REMARK SMILES IDX 15 25 16 26 17 27 18 28 19 29 20 30 21 31 22 32 74 33 23 34
REMARK SMILES IDX 73 35 24 36 25 37 26 38 67 39 27 40 72 41 66 42 68 43 28 44
REMARK SMILES IDX 71 45 65 46 64 47 29 49 55 50 38 51 54 52 39 53 42 54 53 55
REMARK SMILES IDX 69 56 40 57 41 58 52 60 70 61 43 62 30 63 31 64 36 65 32 66
REMARK SMILES IDX 33 67 35 68 37 69 34 70 56 71 57 72 62 73 58 74 59 75 61 76
REMARK SMILES IDX 63 77 60 78 44 79 45 80 50 81 46 82 47 83 49 84 51 85 48 86
REMARK H PARENT 77 16 68 48 42 59
REMARK Flexibility Score: inf
ROOT
ATOM      1  O   UNL A   1      40.967  21.523  26.286  1.00  0.00    -0.377 OA
ENDROOT
BRANCH   1   2
ATOM      2  C   UNL A   1      39.673  22.064  26.272  1.00  0.00     0.188 C 
BRANCH   2   3
ATOM      3  C   UNL A   1      38.566  21.402  25.448  1.00  0.00     0.188 C 
BRANCH   3   4
ATOM      4  O   UNL A   1      37.204  21.626  25.765  1.00  0.00    -0.376 OA
BRANCH   4   5
ATOM      5  C   UNL A   1      36.209  21.897  24.797  1.00  0.00     0.202 C 
BRANCH   5   6
ATOM      6  C   UNL A   1      36.121  23.198  23.978  1.00  0.00     0.261 C 
BRANCH   6   7
ATOM      7  O   UNL A   1      35.174  23.233  22.896  1.00  0.00    -0.463 OA
BRANCH   7   8
ATOM      8  C   UNL A   1      34.041  23.937  23.112  1.00  0.00     0.315 C 
ATOM      9  O   UNL A   1      34.008  25.163  23.161  1.00  0.00    -0.252 OA
BRANCH   8  10
ATOM     10  C   UNL A   1      32.781  23.109  23.339  1.00  0.00     0.162 C 
ATOM     11  C   UNL A   1      31.845  21.013  22.263  1.00  0.00     0.076 C 
ATOM     12  C   UNL A   1      32.791  21.570  23.344  1.00  0.00     0.195 C 
ATOM     13  N   UNL A   1      32.242  21.130  24.630  1.00  0.00    -0.327 N 
ATOM     14  C   UNL A   1      32.181  23.507  24.680  1.00  0.00     0.083 C 
ATOM     15  C   UNL A   1      31.552  22.248  25.243  1.00  0.00     0.263 C 
ATOM     16  H   UNL A   1      31.541  20.405  24.467  1.00  0.00     0.348 HD
BRANCH  13  17
ATOM     17  C   UNL A   1      33.150  20.344  25.473  1.00  0.00     0.320 C 
BRANCH  17  18
ATOM     18  C   UNL A   1      33.257  18.884  25.125  1.00  0.00     0.105 A 
ATOM     19  C   UNL A   1      34.222  18.281  24.338  1.00  0.00     0.096 A 
ATOM     20  N   UNL A   1      32.345  17.994  25.690  1.00  0.00    -0.244 NA
ATOM     21  S   UNL A   1      33.985  16.585  24.289  1.00  0.00    -0.130 S 
ATOM     22  C   UNL A   1      32.639  16.764  25.332  1.00  0.00     0.176 A 
ENDBRANCH  17  18
ENDBRANCH  13  17
ENDBRANCH   8  10
ENDBRANCH   7   8
ENDBRANCH   6   7
ENDBRANCH   5   6
ENDBRANCH   4   5
ENDBRANCH   3   4
ENDBRANCH   2   3
ENDBRANCH   1   2
BRANCH   1  23
ATOM     23  C   UNL A   1      41.000  20.123  26.189  1.00  0.00     0.188 C 
BRANCH  23  24
ATOM     24  C   UNL A   1      42.437  19.622  26.114  1.00  0.00     0.188 C 
BRANCH  24  25
ATOM     25  O   UNL A   1      43.297  20.086  25.087  1.00  0.00    -0.376 OA
BRANCH  25  26
ATOM     26  C   UNL A   1      44.250  21.124  25.262  1.00  0.00     0.202 C 
BRANCH  26  27
ATOM     27  C   UNL A   1      44.519  22.301  24.293  1.00  0.00     0.261 C 
BRANCH  27  28
ATOM     28  O   UNL A   1      43.816  23.530  24.467  1.00  0.00    -0.460 OA
BRANCH  28  29
ATOM     29  C   UNL A   1      44.525  24.555  24.971  1.00  0.00     0.338 C 
ATOM     30  O   UNL A   1      45.668  24.877  24.690  1.00  0.00    -0.246 OA
BRANCH  29  31
ATOM     31  C   UNL A   1      43.619  25.360  25.817  1.00  0.00     0.060 A 
ATOM     32  C   UNL A   1      43.925  26.714  26.004  1.00  0.00     0.016 A 
ATOM     33  C   UNL A   1      42.490  24.798  26.420  1.00  0.00     0.016 A 
ATOM     34  C   UNL A   1      43.138  27.497  26.837  1.00  0.00     0.010 A 
ATOM     35  C   UNL A   1      41.719  25.577  27.290  1.00  0.00     0.010 A 
ATOM     36  C   UNL A   1      42.076  26.913  27.539  1.00  0.00    -0.014 A 
BRANCH  36  37
ATOM     37  C   UNL A   1      41.552  27.638  28.719  1.00  0.00     0.031 A 
ATOM     38  C   UNL A   1      42.308  27.505  30.014  1.00  0.00     0.074 A 
ATOM     39  C   UNL A   1      40.507  28.477  28.621  1.00  0.00     0.049 A 
ATOM     40  N   UNL A   1      42.094  28.085  31.166  1.00  0.00    -0.248 NA
ATOM     41  C   UNL A   1      43.466  26.594  30.004  1.00  0.00     0.031 C 
ATOM     42  C   UNL A   1      39.733  28.729  27.408  1.00  0.00     0.029 A 
ATOM     43  N   UNL A   1      39.926  29.281  29.568  1.00  0.00    -0.354 N 
ATOM     44  C   UNL A   1      43.089  27.612  32.013  1.00  0.00     0.074 A 
ATOM     45  C   UNL A   1      43.880  26.666  31.258  1.00  0.00     0.031 C 
ATOM     46  C   UNL A   1      38.773  29.630  27.685  1.00  0.00     0.029 A 
ATOM     47  C   UNL A   1      38.853  29.997  29.099  1.00  0.00     0.049 A 
ATOM     48  H   UNL A   1      40.249  29.339  30.496  1.00  0.00     0.167 HD
ATOM     49  C   UNL A   1      43.332  27.945  33.302  1.00  0.00     0.037 A 
ATOM     50  C   UNL A   1      38.027  30.841  29.745  1.00  0.00     0.037 A 
ATOM     51  C   UNL A   1      42.541  28.882  34.053  1.00  0.00     0.049 A 
ATOM     52  C   UNL A   1      38.272  31.137  31.204  1.00  0.00     0.074 A 
ATOM     53  C   UNL A   1      42.702  29.292  35.364  1.00  0.00     0.029 A 
ATOM     54  N   UNL A   1      41.429  29.548  33.557  1.00  0.00    -0.354 N 
ATOM     55  N   UNL A   1      39.226  30.702  31.992  1.00  0.00    -0.248 NA
ATOM     56  C   UNL A   1      37.326  32.052  31.859  1.00  0.00     0.031 C 
ATOM     57  C   UNL A   1      41.653  30.162  35.680  1.00  0.00     0.029 A 
ATOM     58  C   UNL A   1      40.879  30.347  34.545  1.00  0.00     0.049 A 
ATOM     59  H   UNL A   1      41.083  29.465  32.640  1.00  0.00     0.167 HD
ATOM     60  C   UNL A   1      39.018  31.317  33.221  1.00  0.00     0.074 A 
ATOM     61  C   UNL A   1      37.856  32.167  33.068  1.00  0.00     0.031 C 
ATOM     62  C   UNL A   1      39.725  31.193  34.373  1.00  0.00     0.037 A 
BRANCH  49  63
ATOM     63  C   UNL A   1      44.482  27.262  33.986  1.00  0.00     0.057 A 
ATOM     64  C   UNL A   1      45.773  27.806  33.997  1.00  0.00     0.134 A 
ATOM     65  C   UNL A   1      44.290  26.045  34.652  1.00  0.00     0.134 A 
ATOM     66  F   UNL A   1      46.032  28.958  33.360  1.00  0.00    -0.206 F 
ATOM     67  C   UNL A   1      46.836  27.151  34.624  1.00  0.00     0.040 A 
ATOM     68  C   UNL A   1      45.337  25.397  35.308  1.00  0.00     0.040 A 
ATOM     69  F   UNL A   1      43.078  25.467  34.680  1.00  0.00    -0.206 F 
ATOM     70  C   UNL A   1      46.616  25.947  35.289  1.00  0.00     0.006 A 
ENDBRANCH  49  63
BRANCH  50  71
ATOM     71  C   UNL A   1      36.885  31.465  29.029  1.00  0.00     0.057 A 
ATOM     72  C   UNL A   1      36.915  32.808  28.636  1.00  0.00     0.134 A 
ATOM     73  C   UNL A   1      35.719  30.740  28.754  1.00  0.00     0.134 A 
ATOM     74  F   UNL A   1      37.995  33.562  28.891  1.00  0.00    -0.206 F 
ATOM     75  C   UNL A   1      35.821  33.414  28.017  1.00  0.00     0.040 A 
ATOM     76  C   UNL A   1      34.628  31.326  28.110  1.00  0.00     0.040 A 
ATOM     77  F   UNL A   1      35.625  29.449  29.103  1.00  0.00    -0.206 F 
ATOM     78  C   UNL A   1      34.673  32.671  27.749  1.00  0.00     0.006 A 
ENDBRANCH  50  71
BRANCH  62  79
ATOM     79  C   UNL A   1      39.289  32.032  35.542  1.00  0.00     0.057 A 
ATOM     80  C   UNL A   1      38.436  31.541  36.539  1.00  0.00     0.134 A 
ATOM     81  C   UNL A   1      39.749  33.349  35.681  1.00  0.00     0.134 A 
ATOM     82  F   UNL A   1      37.951  30.291  36.464  1.00  0.00    -0.206 F 
ATOM     83  C   UNL A   1      38.027  32.339  37.609  1.00  0.00     0.040 A 
ATOM     84  C   UNL A   1      39.375  34.145  36.763  1.00  0.00     0.040 A 
ATOM     85  F   UNL A   1      40.580  33.880  34.771  1.00  0.00    -0.206 F 
ATOM     86  C   UNL A   1      38.502  33.644  37.726  1.00  0.00     0.006 A 
ENDBRANCH  62  79
ENDBRANCH  36  37
ENDBRANCH  29  31
ENDBRANCH  28  29
ENDBRANCH  27  28
ENDBRANCH  26  27
ENDBRANCH  25  26
ENDBRANCH  24  25
ENDBRANCH  23  24
ENDBRANCH   1  23
TORSDOF 22
ENDMDL
MODEL 2
REMARK VINA RESULT:     -10.0      1.886      2.882
REMARK SMILES C[C@H]1[C@H](C(=O)OCCOCCOCCOCCOC(=O)c2ccc(-c3c4nc(c(-c5c(F)cccc5F)c5ccc([nH]5)c(-c5c(F)cccc5F)c5nc(c(-c6c(F)cccc6F)c6ccc3[nH]6)C=C5)C=C4)cc2)CC[N@@H+]1Cc1cscn1
REMARK SMILES IDX 12 1 11 2 10 3 9 4 8 5 7 6 6 7 4 8 5 9 3 10 1 11 2 12 77 13
REMARK SMILES IDX 75 14 76 15 78 17 79 18 80 19 83 20 81 21 82 22 13 23 14 24
REMARK SMILES IDX 15 25 16 26 17 27 18 28 19 29 20 30 21 31 22 32 74 33 23 34
REMARK SMILES IDX 73 35 24 36 25 37 26 38 67 39 27 40 72 41 66 42 68 43 28 44
REMARK SMILES IDX 71 45 65 46 64 47 29 49 55 50 38 51 54 52 39 53 42 54 53 55
REMARK SMILES IDX 69 56 40 57 41 58 52 60 70 61 43 62 30 63 31 64 36 65 32 66
REMARK SMILES IDX 33 67 35 68 37 69 34 70 56 71 57 72 62 73 58 74 59 75 61 76
REMARK SMILES IDX 63 77 60 78 44 79 45 80 50 81 46 82 47 83 49 84 51 85 48 86
REMARK H PARENT 77 16 68 48 42 59
REMARK Flexibility Score: inf
ROOT
ATOM      1  O   UNL A   1      42.521  19.672  26.509  1.00  0.00    -0.377 OA
ENDROOT
BRANCH   1   2
ATOM      2  C   UNL A   1      41.201  20.008  26.175  1.00  0.00     0.188 C 
BRANCH   2   3
ATOM      3  C   UNL A   1      40.504  21.187  26.859  1.00  0.00     0.188 C 
BRANCH   3   4
ATOM      4  O   UNL A   1      39.937  22.231  26.087  1.00  0.00    -0.376 OA
BRANCH   4   5
ATOM      5  C   UNL A   1      38.879  23.053  26.540  1.00  0.00     0.202 C 
BRANCH   5   6
ATOM      6  C   UNL A   1      37.739  23.578  25.649  1.00  0.00     0.261 C 
BRANCH   6   7
ATOM      7  O   UNL A   1      37.267  22.711  24.602  1.00  0.00    -0.463 OA
BRANCH   7   8
ATOM      8  C   UNL A   1      36.714  21.542  24.994  1.00  0.00     0.315 C 
ATOM      9  O   UNL A   1      37.330  20.480  25.019  1.00  0.00    -0.252 OA
BRANCH   8  10
ATOM     10  C   UNL A   1      35.239  21.602  25.372  1.00  0.00     0.162 C 
ATOM     11  C   UNL A   1      34.001  21.725  27.581  1.00  0.00     0.076 C 
ATOM     12  C   UNL A   1      34.703  22.534  26.474  1.00  0.00     0.195 C 
ATOM     13  N   UNL A   1      33.669  23.380  25.871  1.00  0.00    -0.327 N 
ATOM     14  C   UNL A   1      34.438  21.956  24.127  1.00  0.00     0.083 C 
ATOM     15  C   UNL A   1      33.266  22.787  24.610  1.00  0.00     0.263 C 
ATOM     16  H   UNL A   1      32.844  23.384  26.471  1.00  0.00     0.348 HD
BRANCH  13  17
ATOM     17  C   UNL A   1      33.937  24.823  25.890  1.00  0.00     0.320 C 
BRANCH  17  18
ATOM     18  C   UNL A   1      32.745  25.707  25.643  1.00  0.00     0.105 A 
ATOM     19  C   UNL A   1      32.544  26.558  24.570  1.00  0.00     0.096 A 
ATOM     20  N   UNL A   1      31.671  25.645  26.529  1.00  0.00    -0.244 NA
ATOM     21  S   UNL A   1      31.004  27.300  24.672  1.00  0.00    -0.130 S 
ATOM     22  C   UNL A   1      30.700  26.426  26.113  1.00  0.00     0.176 A 
ENDBRANCH  17  18
ENDBRANCH  13  17
ENDBRANCH   8  10
ENDBRANCH   7   8
ENDBRANCH   6   7
ENDBRANCH   5   6
ENDBRANCH   4   5
ENDBRANCH   3   4
ENDBRANCH   2   3
ENDBRANCH   1   2
BRANCH   1  23
ATOM     23  C   UNL A   1      43.013  18.548  25.826  1.00  0.00     0.188 C 
BRANCH  23  24
ATOM     24  C   UNL A   1      44.305  18.885  25.095  1.00  0.00     0.188 C 
BRANCH  24  25
ATOM     25  O   UNL A   1      44.330  19.935  24.144  1.00  0.00    -0.376 OA
BRANCH  25  26
ATOM     26  C   UNL A   1      45.042  21.151  24.325  1.00  0.00     0.202 C 
BRANCH  26  27
ATOM     27  C   UNL A   1      44.609  22.553  23.833  1.00  0.00     0.261 C 
BRANCH  27  28
ATOM     28  O   UNL A   1      43.923  23.432  24.724  1.00  0.00    -0.460 OA
BRANCH  28  29
ATOM     29  C   UNL A   1      44.573  24.558  25.068  1.00  0.00     0.338 C 
ATOM     30  O   UNL A   1      45.656  24.944  24.660  1.00  0.00    -0.246 OA
BRANCH  29  31
ATOM     31  C   UNL A   1      43.666  25.364  25.910  1.00  0.00     0.060 A 
ATOM     32  C   UNL A   1      43.994  26.708  26.127  1.00  0.00     0.016 A 
ATOM     33  C   UNL A   1      42.515  24.813  26.482  1.00  0.00     0.016 A 
ATOM     34  C   UNL A   1      43.206  27.492  26.960  1.00  0.00     0.010 A 
ATOM     35  C   UNL A   1      41.743  25.592  27.351  1.00  0.00     0.010 A 
ATOM     36  C   UNL A   1      42.120  26.916  27.631  1.00  0.00    -0.014 A 
BRANCH  36  37
ATOM     37  C   UNL A   1      41.587  27.630  28.814  1.00  0.00     0.031 A 
ATOM     38  C   UNL A   1      42.345  27.502  30.109  1.00  0.00     0.074 A 
ATOM     39  C   UNL A   1      40.532  28.455  28.720  1.00  0.00     0.049 A 
ATOM     40  N   UNL A   1      42.125  28.075  31.263  1.00  0.00    -0.248 NA
ATOM     41  C   UNL A   1      43.515  26.606  30.095  1.00  0.00     0.031 C 
ATOM     42  C   UNL A   1      39.754  28.702  27.508  1.00  0.00     0.029 A 
ATOM     43  N   UNL A   1      39.941  29.249  29.670  1.00  0.00    -0.354 N 
ATOM     44  C   UNL A   1      43.126  27.612  32.108  1.00  0.00     0.074 A 
ATOM     45  C   UNL A   1      43.929  26.679  31.349  1.00  0.00     0.031 C 
ATOM     46  C   UNL A   1      38.783  29.589  27.789  1.00  0.00     0.029 A 
ATOM     47  C   UNL A   1      38.859  29.952  29.204  1.00  0.00     0.049 A 
ATOM     48  H   UNL A   1      40.263  29.307  30.598  1.00  0.00     0.167 HD
ATOM     49  C   UNL A   1      43.366  27.943  33.397  1.00  0.00     0.037 A 
ATOM     50  C   UNL A   1      38.022  30.783  29.854  1.00  0.00     0.037 A 
ATOM     51  C   UNL A   1      42.563  28.868  34.152  1.00  0.00     0.049 A 
ATOM     52  C   UNL A   1      38.264  31.077  31.313  1.00  0.00     0.074 A 
ATOM     53  C   UNL A   1      42.719  29.274  35.465  1.00  0.00     0.029 A 
ATOM     54  N   UNL A   1      41.442  29.521  33.659  1.00  0.00    -0.354 N 
ATOM     55  N   UNL A   1      39.223  30.652  32.099  1.00  0.00    -0.248 NA
ATOM     56  C   UNL A   1      37.307  31.978  31.972  1.00  0.00     0.031 C 
ATOM     57  C   UNL A   1      41.659  30.130  35.784  1.00  0.00     0.029 A 
ATOM     58  C   UNL A   1      40.882  30.309  34.650  1.00  0.00     0.049 A 
ATOM     59  H   UNL A   1      41.097  29.436  32.741  1.00  0.00     0.167 HD
ATOM     60  C   UNL A   1      39.009  31.259  33.331  1.00  0.00     0.074 A 
ATOM     61  C   UNL A   1      37.836  32.095  33.181  1.00  0.00     0.031 C 
ATOM     62  C   UNL A   1      39.717  31.140  34.482  1.00  0.00     0.037 A 
BRANCH  49  63
ATOM     63  C   UNL A   1      44.524  27.272  34.078  1.00  0.00     0.057 A 
ATOM     64  C   UNL A   1      45.826  27.788  34.018  1.00  0.00     0.134 A 
ATOM     65  C   UNL A   1      44.331  26.097  34.814  1.00  0.00     0.134 A 
ATOM     66  F   UNL A   1      46.085  28.900  33.312  1.00  0.00    -0.206 F 
ATOM     67  C   UNL A   1      46.896  27.145  34.643  1.00  0.00     0.040 A 
ATOM     68  C   UNL A   1      45.387  25.462  35.469  1.00  0.00     0.040 A 
ATOM     69  F   UNL A   1      43.110  25.547  34.913  1.00  0.00    -0.206 F 
ATOM     70  C   UNL A   1      46.676  25.983  35.378  1.00  0.00     0.006 A 
ENDBRANCH  49  63
BRANCH  50  71
ATOM     71  C   UNL A   1      36.872  31.395  29.140  1.00  0.00     0.057 A 
ATOM     72  C   UNL A   1      35.714  30.661  28.854  1.00  0.00     0.134 A 
ATOM     73  C   UNL A   1      36.920  32.721  28.691  1.00  0.00     0.134 A 
ATOM     74  F   UNL A   1      35.616  29.379  29.236  1.00  0.00    -0.206 F 
ATOM     75  C   UNL A   1      34.658  31.215  28.130  1.00  0.00     0.040 A 
ATOM     76  C   UNL A   1      35.858  33.296  27.991  1.00  0.00     0.040 A 
ATOM     77  F   UNL A   1      37.998  33.480  28.932  1.00  0.00    -0.206 F 
ATOM     78  C   UNL A   1      34.726  32.538  27.699  1.00  0.00     0.006 A 
ENDBRANCH  50  71
BRANCH  62  79
ATOM     79  C   UNL A   1      39.271  31.970  35.654  1.00  0.00     0.057 A 
ATOM     80  C   UNL A   1      38.368  31.488  36.611  1.00  0.00     0.134 A 
ATOM     81  C   UNL A   1      39.772  33.266  35.837  1.00  0.00     0.134 A 
ATOM     82  F   UNL A   1      37.843  30.258  36.492  1.00  0.00    -0.206 F 
ATOM     83  C   UNL A   1      37.951  32.278  37.684  1.00  0.00     0.040 A 
ATOM     84  C   UNL A   1      39.389  34.052  36.924  1.00  0.00     0.040 A 
ATOM     85  F   UNL A   1      40.651  33.787  34.968  1.00  0.00    -0.206 F 
ATOM     86  C   UNL A   1      38.466  33.562  37.845  1.00  0.00     0.006 A 
ENDBRANCH  62  79
ENDBRANCH  36  37
ENDBRANCH  29  31
ENDBRANCH  28  29
ENDBRANCH  27  28
ENDBRANCH  26  27
ENDBRANCH  25  26
ENDBRANCH  24  25
ENDBRANCH  23  24
ENDBRANCH   1  23
TORSDOF 22
ENDMDL
MODEL 3
REMARK VINA RESULT:      -9.9      2.439      3.345
REMARK SMILES C[C@H]1[C@H](C(=O)OCCOCCOCCOCCOC(=O)c2ccc(-c3c4nc(c(-c5c(F)cccc5F)c5ccc([nH]5)c(-c5c(F)cccc5F)c5nc(c(-c6c(F)cccc6F)c6ccc3[nH]6)C=C5)C=C4)cc2)CC[N@@H+]1Cc1cscn1
REMARK SMILES IDX 12 1 11 2 10 3 9 4 8 5 7 6 6 7 4 8 5 9 3 10 1 11 2 12 77 13
REMARK SMILES IDX 75 14 76 15 78 17 79 18 80 19 83 20 81 21 82 22 13 23 14 24
REMARK SMILES IDX 15 25 16 26 17 27 18 28 19 29 20 30 21 31 22 32 74 33 23 34
REMARK SMILES IDX 73 35 24 36 25 37 26 38 67 39 27 40 72 41 66 42 68 43 28 44
REMARK SMILES IDX 71 45 65 46 64 47 29 49 55 50 38 51 54 52 39 53 42 54 53 55
REMARK SMILES IDX 69 56 40 57 41 58 52 60 70 61 43 62 30 63 31 64 36 65 32 66
REMARK SMILES IDX 33 67 35 68 37 69 34 70 56 71 57 72 62 73 58 74 59 75 61 76
REMARK SMILES IDX 63 77 60 78 44 79 45 80 50 81 46 82 47 83 49 84 51 85 48 86
REMARK H PARENT 77 16 68 48 42 59
REMARK Flexibility Score: inf
ROOT
ATOM      1  O   UNL A   1      42.787  20.861  26.390  1.00  0.00    -0.377 OA
ENDROOT
BRANCH   1   2
ATOM      2  C   UNL A   1      41.566  21.549  26.429  1.00  0.00     0.188 C 
BRANCH   2   3
ATOM      3  C   UNL A   1      40.246  20.798  26.236  1.00  0.00     0.188 C 
BRANCH   3   4
ATOM      4  O   UNL A   1      39.013  21.422  26.549  1.00  0.00    -0.376 OA
BRANCH   4   5
ATOM      5  C   UNL A   1      38.115  21.915  25.575  1.00  0.00     0.202 C 
BRANCH   5   6
ATOM      6  C   UNL A   1      37.490  23.322  25.598  1.00  0.00     0.261 C 
BRANCH   6   7
ATOM      7  O   UNL A   1      36.109  23.424  25.990  1.00  0.00    -0.463 OA
BRANCH   7   8
ATOM      8  C   UNL A   1      35.286  24.063  25.129  1.00  0.00     0.315 C 
ATOM      9  O   UNL A   1      35.398  23.988  23.909  1.00  0.00    -0.252 OA
BRANCH   8  10
ATOM     10  C   UNL A   1      34.211  24.936  25.767  1.00  0.00     0.162 C 
ATOM     11  C   UNL A   1      33.909  27.441  26.012  1.00  0.00     0.076 C 
ATOM     12  C   UNL A   1      33.684  26.219  25.100  1.00  0.00     0.195 C 
ATOM     13  N   UNL A   1      32.232  26.079  24.961  1.00  0.00    -0.327 N 
ATOM     14  C   UNL A   1      32.978  24.079  26.010  1.00  0.00     0.083 C 
ATOM     15  C   UNL A   1      31.789  24.999  25.822  1.00  0.00     0.263 C 
ATOM     16  H   UNL A   1      31.777  26.929  25.296  1.00  0.00     0.348 HD
BRANCH  13  17
ATOM     17  C   UNL A   1      31.720  26.108  23.586  1.00  0.00     0.320 C 
BRANCH  17  18
ATOM     18  C   UNL A   1      30.868  27.297  23.236  1.00  0.00     0.105 A 
ATOM     19  C   UNL A   1      31.271  28.454  22.590  1.00  0.00     0.096 A 
ATOM     20  N   UNL A   1      29.503  27.247  23.513  1.00  0.00    -0.244 NA
ATOM     21  S   UNL A   1      29.936  29.496  22.336  1.00  0.00    -0.130 S 
ATOM     22  C   UNL A   1      28.915  28.337  23.075  1.00  0.00     0.176 A 
ENDBRANCH  17  18
ENDBRANCH  13  17
ENDBRANCH   8  10
ENDBRANCH   7   8
ENDBRANCH   6   7
ENDBRANCH   5   6
ENDBRANCH   4   5
ENDBRANCH   3   4
ENDBRANCH   2   3
ENDBRANCH   1   2
BRANCH   1  23
ATOM     23  C   UNL A   1      42.679  19.537  25.934  1.00  0.00     0.188 C 
BRANCH  23  24
ATOM     24  C   UNL A   1      43.819  19.202  24.981  1.00  0.00     0.188 C 
BRANCH  24  25
ATOM     25  O   UNL A   1      44.262  20.163  24.038  1.00  0.00    -0.376 OA
BRANCH  25  26
ATOM     26  C   UNL A   1      45.132  21.240  24.355  1.00  0.00     0.202 C 
BRANCH  26  27
ATOM     27  C   UNL A   1      44.971  22.714  23.911  1.00  0.00     0.261 C 
BRANCH  27  28
ATOM     28  O   UNL A   1      44.185  23.606  24.701  1.00  0.00    -0.460 OA
BRANCH  28  29
ATOM     29  C   UNL A   1      44.769  24.766  25.049  1.00  0.00     0.338 C 
ATOM     30  O   UNL A   1      45.829  25.214  24.644  1.00  0.00    -0.246 OA
BRANCH  29  31
ATOM     31  C   UNL A   1      43.817  25.517  25.892  1.00  0.00     0.060 A 
ATOM     32  C   UNL A   1      44.023  26.893  26.049  1.00  0.00     0.016 A 
ATOM     33  C   UNL A   1      42.741  24.884  26.523  1.00  0.00     0.016 A 
ATOM     34  C   UNL A   1      43.191  27.633  26.879  1.00  0.00     0.010 A 
ATOM     35  C   UNL A   1      41.926  25.621  27.390  1.00  0.00     0.010 A 
ATOM     36  C   UNL A   1      42.185  26.985  27.607  1.00  0.00    -0.014 A 
BRANCH  36  37
ATOM     37  C   UNL A   1      41.624  27.692  28.781  1.00  0.00     0.031 A 
ATOM     38  C   UNL A   1      42.358  27.568  30.090  1.00  0.00     0.074 A 
ATOM     39  C   UNL A   1      40.563  28.509  28.669  1.00  0.00     0.049 A 
ATOM     40  N   UNL A   1      42.111  28.137  31.241  1.00  0.00    -0.248 NA
ATOM     41  C   UNL A   1      43.535  26.682  30.097  1.00  0.00     0.031 C 
ATOM     42  C   UNL A   1      39.807  28.751  27.442  1.00  0.00     0.029 A 
ATOM     43  N   UNL A   1      39.948  29.296  29.609  1.00  0.00    -0.354 N 
ATOM     44  C   UNL A   1      43.100  27.680  32.104  1.00  0.00     0.074 A 
ATOM     45  C   UNL A   1      43.924  26.755  31.359  1.00  0.00     0.031 C 
ATOM     46  C   UNL A   1      38.823  29.630  27.707  1.00  0.00     0.029 A 
ATOM     47  C   UNL A   1      38.869  29.991  29.123  1.00  0.00     0.049 A 
ATOM     48  H   UNL A   1      40.252  29.355  30.543  1.00  0.00     0.167 HD
ATOM     49  C   UNL A   1      43.312  28.011  33.399  1.00  0.00     0.037 A 
ATOM     50  C   UNL A   1      38.014  30.814  29.758  1.00  0.00     0.037 A 
ATOM     51  C   UNL A   1      42.487  28.928  34.139  1.00  0.00     0.049 A 
ATOM     52  C   UNL A   1      38.225  31.107  31.222  1.00  0.00     0.074 A 
ATOM     53  C   UNL A   1      42.615  29.333  35.455  1.00  0.00     0.029 A 
ATOM     54  N   UNL A   1      41.371  29.572  33.626  1.00  0.00    -0.354 N 
ATOM     55  N   UNL A   1      39.173  30.688  32.026  1.00  0.00    -0.248 NA
ATOM     56  C   UNL A   1      37.248  31.998  31.864  1.00  0.00     0.031 C 
ATOM     57  C   UNL A   1      41.542  30.179  35.756  1.00  0.00     0.029 A 
ATOM     58  C   UNL A   1      40.785  30.354  34.608  1.00  0.00     0.049 A 
ATOM     59  H   UNL A   1      41.044  29.487  32.702  1.00  0.00     0.167 HD
ATOM     60  C   UNL A   1      38.930  31.291  33.254  1.00  0.00     0.074 A 
ATOM     61  C   UNL A   1      37.753  32.118  33.084  1.00  0.00     0.031 C 
ATOM     62  C   UNL A   1      39.617  31.176  34.418  1.00  0.00     0.037 A 
BRANCH  49  63
ATOM     63  C   UNL A   1      44.463  27.349  34.100  1.00  0.00     0.057 A 
ATOM     64  C   UNL A   1      44.320  26.133  34.783  1.00  0.00     0.134 A 
ATOM     65  C   UNL A   1      45.736  27.932  34.083  1.00  0.00     0.134 A 
ATOM     66  F   UNL A   1      43.124  25.530  34.857  1.00  0.00    -0.206 F 
ATOM     67  C   UNL A   1      45.396  25.537  35.444  1.00  0.00     0.040 A 
ATOM     68  C   UNL A   1      46.825  27.330  34.713  1.00  0.00     0.040 A 
ATOM     69  F   UNL A   1      45.943  29.097  33.448  1.00  0.00    -0.206 F 
ATOM     70  C   UNL A   1      46.654  26.132  35.403  1.00  0.00     0.006 A 
ENDBRANCH  49  63
BRANCH  50  71
ATOM     71  C   UNL A   1      36.872  31.418  29.024  1.00  0.00     0.057 A 
ATOM     72  C   UNL A   1      36.875  32.767  28.649  1.00  0.00     0.134 A 
ATOM     73  C   UNL A   1      35.732  30.667  28.713  1.00  0.00     0.134 A 
ATOM     74  F   UNL A   1      37.929  33.545  28.938  1.00  0.00    -0.206 F 
ATOM     75  C   UNL A   1      35.779  33.352  28.013  1.00  0.00     0.040 A 
ATOM     76  C   UNL A   1      34.640  31.232  28.052  1.00  0.00     0.040 A 
ATOM     77  F   UNL A   1      35.664  29.369  29.043  1.00  0.00    -0.206 F 
ATOM     78  C   UNL A   1      34.658  32.583  27.709  1.00  0.00     0.006 A 
ENDBRANCH  50  71
BRANCH  62  79
ATOM     79  C   UNL A   1      39.142  32.000  35.584  1.00  0.00     0.057 A 
ATOM     80  C   UNL A   1      38.317  31.472  36.586  1.00  0.00     0.134 A 
ATOM     81  C   UNL A   1      39.536  33.339  35.713  1.00  0.00     0.134 A 
ATOM     82  F   UNL A   1      37.896  30.200  36.519  1.00  0.00    -0.206 F 
ATOM     83  C   UNL A   1      37.870  32.256  37.651  1.00  0.00     0.040 A 
ATOM     84  C   UNL A   1      39.125  34.122  36.792  1.00  0.00     0.040 A 
ATOM     85  F   UNL A   1      40.337  33.906  34.798  1.00  0.00    -0.206 F 
ATOM     86  C   UNL A   1      38.279  33.583  37.759  1.00  0.00     0.006 A 
ENDBRANCH  62  79
ENDBRANCH  36  37
ENDBRANCH  29  31
ENDBRANCH  28  29
ENDBRANCH  27  28
ENDBRANCH  26  27
ENDBRANCH  25  26
ENDBRANCH  24  25
ENDBRANCH  23  24
ENDBRANCH   1  23
TORSDOF 22
ENDMDL
