MODEL 1
REMARK VINA RESULT:     -10.8      0.000      0.000
REMARK SMILES Cc1cccc(C(=O)OCCOCCOCCOCCOC(=O)c2ccc(-c3c4nc(c(-c5c(F)cccc5F)c5ccc([nH]5)c(-c5c(F)cccc5F)c5nc(c(-c6c(F)cccc6F)c6ccc3[nH]6)C=C5)C=C4)cc2)c1OC[C@@H]1C[C@H]2CC[C@@H]1C2
REMARK SMILES IDX 14 1 13 2 12 3 11 4 10 5 9 6 7 7 8 8 6 9 1 10 2 11 3 12
REMARK SMILES IDX 78 13 4 14 5 15 79 16 80 17 81 18 82 19 86 20 83 21 85 22
REMARK SMILES IDX 87 23 84 24 15 25 16 26 17 27 18 28 19 29 20 30 21 31 22 32
REMARK SMILES IDX 23 33 24 34 25 35 77 36 26 37 76 38 27 39 28 40 29 41 70 42
REMARK SMILES IDX 30 43 75 44 69 45 71 46 31 47 74 48 68 49 67 50 32 52 58 53
REMARK SMILES IDX 41 54 57 55 42 56 45 57 56 58 72 59 43 60 44 61 55 63 73 64
REMARK SMILES IDX 46 65 33 66 34 67 39 68 35 69 36 70 38 71 40 72 37 73 59 74
REMARK SMILES IDX 60 75 65 76 61 77 62 78 64 79 66 80 63 81 47 82 48 83 53 84
REMARK SMILES IDX 49 85 50 86 52 87 54 88 51 89
REMARK H PARENT 71 51 45 62
REMARK Flexibility Score: inf
ROOT
ATOM      1  C   UNL A   1      35.352  31.571  29.156  1.00  0.00     0.188 C 
ENDROOT
BRANCH   1   2
ATOM      2  C   UNL A   1      35.535  31.042  27.718  1.00  0.00     0.188 C 
BRANCH   2   3
ATOM      3  O   UNL A   1      34.708  29.990  27.240  1.00  0.00    -0.376 OA
BRANCH   3   4
ATOM      4  C   UNL A   1      33.313  30.289  27.162  1.00  0.00     0.202 C 
BRANCH   4   5
ATOM      5  C   UNL A   1      32.362  29.108  27.294  1.00  0.00     0.261 C 
BRANCH   5   6
ATOM      6  O   UNL A   1      33.055  27.937  26.847  1.00  0.00    -0.460 OA
BRANCH   6   7
ATOM      7  C   UNL A   1      32.266  26.885  26.551  1.00  0.00     0.342 C 
ATOM      8  O   UNL A   1      31.179  26.617  27.013  1.00  0.00    -0.246 OA
BRANCH   7   9
ATOM      9  C   UNL A   1      32.655  26.449  25.200  1.00  0.00     0.102 A 
ATOM     10  C   UNL A   1      31.824  26.080  21.476  1.00  0.00     0.048 C 
ATOM     11  C   UNL A   1      32.436  26.108  22.844  1.00  0.00    -0.008 A 
ATOM     12  C   UNL A   1      33.599  25.285  22.920  1.00  0.00     0.007 A 
ATOM     13  C   UNL A   1      31.961  26.747  24.002  1.00  0.00     0.136 A 
ATOM     14  C   UNL A   1      34.236  24.990  24.114  1.00  0.00     0.001 A 
ATOM     15  C   UNL A   1      33.752  25.566  25.261  1.00  0.00     0.019 A 
BRANCH  13  16
ATOM     16  O   UNL A   1      30.864  27.536  24.174  1.00  0.00    -0.492 OA
BRANCH  16  17
ATOM     17  C   UNL A   1      29.555  27.383  23.611  1.00  0.00     0.233 C 
BRANCH  17  18
ATOM     18  C   UNL A   1      28.833  28.724  23.504  1.00  0.00     0.030 C 
ATOM     19  C   UNL A   1      27.738  28.854  22.421  1.00  0.00     0.011 C 
ATOM     20  C   UNL A   1      29.745  29.926  23.151  1.00  0.00    -0.004 C 
ATOM     21  C   UNL A   1      27.945  30.297  21.914  1.00  0.00    -0.010 C 
ATOM     22  C   UNL A   1      29.139  31.137  23.856  1.00  0.00     0.004 C 
ATOM     23  C   UNL A   1      29.448  30.257  21.684  1.00  0.00     0.007 C 
ATOM     24  C   UNL A   1      27.829  31.321  23.072  1.00  0.00     0.004 C 
ENDBRANCH  17  18
ENDBRANCH  16  17
ENDBRANCH  13  16
ENDBRANCH   7   9
ENDBRANCH   6   7
ENDBRANCH   5   6
ENDBRANCH   4   5
ENDBRANCH   3   4
ENDBRANCH   2   3
ENDBRANCH   1   2
BRANCH   1  25
ATOM     25  O   UNL A   1      34.420  32.618  29.348  1.00  0.00    -0.377 OA
BRANCH  25  26
ATOM     26  C   UNL A   1      34.371  33.672  28.395  1.00  0.00     0.188 C 
BRANCH  26  27
ATOM     27  C   UNL A   1      33.083  34.397  28.091  1.00  0.00     0.188 C 
BRANCH  27  28
ATOM     28  O   UNL A   1      32.516  34.816  29.323  1.00  0.00    -0.376 OA
BRANCH  28  29
ATOM     29  C   UNL A   1      32.887  36.117  29.754  1.00  0.00     0.202 C 
BRANCH  29  30
ATOM     30  C   UNL A   1      32.773  36.282  31.272  1.00  0.00     0.261 C 
BRANCH  30  31
ATOM     31  O   UNL A   1      34.089  36.504  31.827  1.00  0.00    -0.460 OA
BRANCH  31  32
ATOM     32  C   UNL A   1      34.443  35.687  32.860  1.00  0.00     0.338 C 
ATOM     33  O   UNL A   1      34.482  36.020  34.035  1.00  0.00    -0.246 OA
BRANCH  32  34
ATOM     34  C   UNL A   1      35.076  34.434  32.339  1.00  0.00     0.060 A 
ATOM     35  C   UNL A   1      34.761  33.186  32.905  1.00  0.00     0.016 A 
ATOM     36  C   UNL A   1      36.230  34.548  31.581  1.00  0.00     0.016 A 
ATOM     37  C   UNL A   1      35.709  32.141  32.905  1.00  0.00     0.010 A 
ATOM     38  C   UNL A   1      37.188  33.556  31.689  1.00  0.00     0.010 A 
ATOM     39  C   UNL A   1      36.988  32.363  32.408  1.00  0.00    -0.014 A 
BRANCH  39  40
ATOM     40  C   UNL A   1      38.200  31.517  32.627  1.00  0.00     0.031 A 
ATOM     41  C   UNL A   1      38.279  30.229  31.835  1.00  0.00     0.074 A 
ATOM     42  C   UNL A   1      39.345  32.024  33.186  1.00  0.00     0.049 A 
ATOM     43  N   UNL A   1      39.346  29.531  31.671  1.00  0.00    -0.248 NA
ATOM     44  C   UNL A   1      37.165  29.655  31.071  1.00  0.00     0.031 C 
ATOM     45  C   UNL A   1      40.718  31.572  32.935  1.00  0.00     0.029 A 
ATOM     46  N   UNL A   1      39.576  33.094  34.070  1.00  0.00    -0.354 N 
ATOM     47  C   UNL A   1      39.193  28.707  30.577  1.00  0.00     0.074 A 
ATOM     48  C   UNL A   1      37.790  28.776  30.274  1.00  0.00     0.031 C 
ATOM     49  C   UNL A   1      41.617  32.229  33.679  1.00  0.00     0.029 A 
ATOM     50  C   UNL A   1      40.836  32.877  34.689  1.00  0.00     0.049 A 
ATOM     51  H   UNL A   1      38.972  33.855  34.233  1.00  0.00     0.167 HD
ATOM     52  C   UNL A   1      40.316  28.169  30.011  1.00  0.00     0.037 A 
ATOM     53  C   UNL A   1      40.934  32.574  36.013  1.00  0.00     0.037 A 
ATOM     54  C   UNL A   1      41.480  28.345  30.894  1.00  0.00     0.049 A 
ATOM     55  C   UNL A   1      41.482  31.161  36.137  1.00  0.00     0.074 A 
ATOM     56  C   UNL A   1      42.742  28.884  30.746  1.00  0.00     0.029 A 
ATOM     57  N   UNL A   1      41.348  28.064  32.258  1.00  0.00    -0.354 N 
ATOM     58  N   UNL A   1      41.213  30.195  35.283  1.00  0.00    -0.248 NA
ATOM     59  C   UNL A   1      42.610  30.833  37.010  1.00  0.00     0.031 C 
ATOM     60  C   UNL A   1      43.275  29.111  32.053  1.00  0.00     0.029 A 
ATOM     61  C   UNL A   1      42.387  28.601  32.990  1.00  0.00     0.049 A 
ATOM     62  H   UNL A   1      40.606  27.548  32.648  1.00  0.00     0.167 HD
ATOM     63  C   UNL A   1      42.209  29.252  35.350  1.00  0.00     0.074 A 
ATOM     64  C   UNL A   1      43.016  29.659  36.494  1.00  0.00     0.031 C 
ATOM     65  C   UNL A   1      42.518  28.305  34.409  1.00  0.00     0.037 A 
BRANCH  52  66
ATOM     66  C   UNL A   1      40.438  27.611  28.596  1.00  0.00     0.057 A 
ATOM     67  C   UNL A   1      39.959  26.317  28.290  1.00  0.00     0.134 A 
ATOM     68  C   UNL A   1      41.119  28.228  27.527  1.00  0.00     0.134 A 
ATOM     69  F   UNL A   1      39.281  25.592  29.191  1.00  0.00    -0.206 F 
ATOM     70  C   UNL A   1      40.151  25.690  27.046  1.00  0.00     0.040 A 
ATOM     71  C   UNL A   1      41.270  27.634  26.258  1.00  0.00     0.040 A 
ATOM     72  F   UNL A   1      41.720  29.416  27.660  1.00  0.00    -0.206 F 
ATOM     73  C   UNL A   1      40.797  26.354  26.016  1.00  0.00     0.006 A 
ENDBRANCH  52  66
BRANCH  53  74
ATOM     74  C   UNL A   1      39.928  33.379  36.776  1.00  0.00     0.057 A 
ATOM     75  C   UNL A   1      38.867  32.603  37.311  1.00  0.00     0.134 A 
ATOM     76  C   UNL A   1      40.335  34.479  37.540  1.00  0.00     0.134 A 
ATOM     77  F   UNL A   1      38.387  31.557  36.618  1.00  0.00    -0.206 F 
ATOM     78  C   UNL A   1      38.460  32.726  38.646  1.00  0.00     0.040 A 
ATOM     79  C   UNL A   1      39.883  34.644  38.862  1.00  0.00     0.040 A 
ATOM     80  F   UNL A   1      41.326  35.274  37.114  1.00  0.00    -0.206 F 
ATOM     81  C   UNL A   1      39.019  33.714  39.446  1.00  0.00     0.006 A 
ENDBRANCH  53  74
BRANCH  65  82
ATOM     82  C   UNL A   1      43.016  26.926  34.779  1.00  0.00     0.057 A 
ATOM     83  C   UNL A   1      42.161  25.900  35.201  1.00  0.00     0.134 A 
ATOM     84  C   UNL A   1      44.342  26.520  34.487  1.00  0.00     0.134 A 
ATOM     85  F   UNL A   1      40.856  26.110  35.419  1.00  0.00    -0.206 F 
ATOM     86  C   UNL A   1      42.598  24.583  35.363  1.00  0.00     0.040 A 
ATOM     87  C   UNL A   1      44.771  25.197  34.591  1.00  0.00     0.040 A 
ATOM     88  F   UNL A   1      45.277  27.367  34.035  1.00  0.00    -0.206 F 
ATOM     89  C   UNL A   1      43.900  24.224  35.043  1.00  0.00     0.006 A 
ENDBRANCH  65  82
ENDBRANCH  39  40
ENDBRANCH  32  34
ENDBRANCH  31  32
ENDBRANCH  30  31
ENDBRANCH  29  30
ENDBRANCH  28  29
ENDBRANCH  27  28
ENDBRANCH  26  27
ENDBRANCH  25  26
ENDBRANCH   1  25
TORSDOF 23
ENDMDL
MODEL 2
REMARK VINA RESULT:     -10.4      1.487      3.771
REMARK SMILES Cc1cccc(C(=O)OCCOCCOCCOCCOC(=O)c2ccc(-c3c4nc(c(-c5c(F)cccc5F)c5ccc([nH]5)c(-c5c(F)cccc5F)c5nc(c(-c6c(F)cccc6F)c6ccc3[nH]6)C=C5)C=C4)cc2)c1OC[C@@H]1C[C@H]2CC[C@@H]1C2
REMARK SMILES IDX 14 1 13 2 12 3 11 4 10 5 9 6 7 7 8 8 6 9 1 10 2 11 3 12
REMARK SMILES IDX 78 13 4 14 5 15 79 16 80 17 81 18 82 19 86 20 83 21 85 22
REMARK SMILES IDX 87 23 84 24 15 25 16 26 17 27 18 28 19 29 20 30 21 31 22 32
REMARK SMILES IDX 23 33 24 34 25 35 77 36 26 37 76 38 27 39 28 40 29 41 70 42
REMARK SMILES IDX 30 43 75 44 69 45 71 46 31 47 74 48 68 49 67 50 32 52 58 53
REMARK SMILES IDX 41 54 57 55 42 56 45 57 56 58 72 59 43 60 44 61 55 63 73 64
REMARK SMILES IDX 46 65 33 66 34 67 39 68 35 69 36 70 38 71 40 72 37 73 59 74
REMARK SMILES IDX 60 75 65 76 61 77 62 78 64 79 66 80 63 81 47 82 48 83 53 84
REMARK SMILES IDX 49 85 50 86 52 87 54 88 51 89
REMARK H PARENT 71 51 45 62
REMARK Flexibility Score: inf
ROOT
ATOM      1  C   UNL A   1      33.720  30.584  27.243  1.00  0.00     0.188 C 
ENDROOT
BRANCH   1   2
ATOM      2  C   UNL A   1      32.512  29.899  26.570  1.00  0.00     0.188 C 
BRANCH   2   3
ATOM      3  O   UNL A   1      32.725  28.885  25.596  1.00  0.00    -0.376 OA
BRANCH   3   4
ATOM      4  C   UNL A   1      33.413  29.299  24.414  1.00  0.00     0.202 C 
BRANCH   4   5
ATOM      5  C   UNL A   1      32.861  28.777  23.095  1.00  0.00     0.261 C 
BRANCH   5   6
ATOM      6  O   UNL A   1      33.241  27.402  22.977  1.00  0.00    -0.460 OA
BRANCH   6   7
ATOM      7  C   UNL A   1      32.264  26.573  22.560  1.00  0.00     0.342 C 
ATOM      8  O   UNL A   1      32.193  25.974  21.511  1.00  0.00    -0.246 OA
BRANCH   7   9
ATOM      9  C   UNL A   1      31.610  26.068  23.778  1.00  0.00     0.102 A 
ATOM     10  C   UNL A   1      31.549  23.619  26.728  1.00  0.00     0.048 C 
ATOM     11  C   UNL A   1      31.312  24.702  25.718  1.00  0.00    -0.008 A 
ATOM     12  C   UNL A   1      29.991  25.232  25.809  1.00  0.00     0.007 A 
ATOM     13  C   UNL A   1      32.172  25.153  24.701  1.00  0.00     0.136 A 
ATOM     14  C   UNL A   1      29.462  26.103  24.872  1.00  0.00     0.001 A 
ATOM     15  C   UNL A   1      30.273  26.512  23.844  1.00  0.00     0.019 A 
BRANCH  13  16
ATOM     16  O   UNL A   1      33.443  24.767  24.400  1.00  0.00    -0.492 OA
BRANCH  16  17
ATOM     17  C   UNL A   1      34.637  24.933  25.177  1.00  0.00     0.233 C 
BRANCH  17  18
ATOM     18  C   UNL A   1      35.404  23.621  25.309  1.00  0.00     0.030 C 
ATOM     19  C   UNL A   1      36.938  23.712  25.481  1.00  0.00     0.011 C 
ATOM     20  C   UNL A   1      35.298  22.680  24.082  1.00  0.00    -0.004 C 
ATOM     21  C   UNL A   1      37.436  22.518  24.639  1.00  0.00    -0.010 C 
ATOM     22  C   UNL A   1      35.359  21.258  24.634  1.00  0.00     0.004 C 
ATOM     23  C   UNL A   1      36.649  22.777  23.364  1.00  0.00     0.007 C 
ATOM     24  C   UNL A   1      36.811  21.186  25.131  1.00  0.00     0.004 C 
ENDBRANCH  17  18
ENDBRANCH  16  17
ENDBRANCH  13  16
ENDBRANCH   7   9
ENDBRANCH   6   7
ENDBRANCH   5   6
ENDBRANCH   4   5
ENDBRANCH   3   4
ENDBRANCH   2   3
ENDBRANCH   1   2
BRANCH   1  25
ATOM     25  O   UNL A   1      33.499  31.849  27.836  1.00  0.00    -0.377 OA
BRANCH  25  26
ATOM     26  C   UNL A   1      34.614  32.703  28.057  1.00  0.00     0.188 C 
BRANCH  26  27
ATOM     27  C   UNL A   1      34.481  34.205  27.983  1.00  0.00     0.188 C 
BRANCH  27  28
ATOM     28  O   UNL A   1      33.138  34.540  28.300  1.00  0.00    -0.376 OA
BRANCH  28  29
ATOM     29  C   UNL A   1      32.966  35.758  29.009  1.00  0.00     0.202 C 
BRANCH  29  30
ATOM     30  C   UNL A   1      32.844  35.540  30.520  1.00  0.00     0.261 C 
BRANCH  30  31
ATOM     31  O   UNL A   1      33.966  36.164  31.184  1.00  0.00    -0.460 OA
BRANCH  31  32
ATOM     32  C   UNL A   1      34.435  35.520  32.290  1.00  0.00     0.338 C 
ATOM     33  O   UNL A   1      34.614  36.040  33.381  1.00  0.00    -0.246 OA
BRANCH  32  34
ATOM     34  C   UNL A   1      34.997  34.183  31.914  1.00  0.00     0.060 A 
ATOM     35  C   UNL A   1      34.708  33.045  32.687  1.00  0.00     0.016 A 
ATOM     36  C   UNL A   1      36.082  34.146  31.055  1.00  0.00     0.016 A 
ATOM     37  C   UNL A   1      35.633  31.982  32.768  1.00  0.00     0.010 A 
ATOM     38  C   UNL A   1      37.027  33.152  31.233  1.00  0.00     0.010 A 
ATOM     39  C   UNL A   1      36.867  32.086  32.138  1.00  0.00    -0.014 A 
BRANCH  39  40
ATOM     40  C   UNL A   1      38.078  31.244  32.383  1.00  0.00     0.031 A 
ATOM     41  C   UNL A   1      38.198  29.978  31.560  1.00  0.00     0.074 A 
ATOM     42  C   UNL A   1      39.195  31.746  32.998  1.00  0.00     0.049 A 
ATOM     43  N   UNL A   1      39.277  29.293  31.420  1.00  0.00    -0.248 NA
ATOM     44  C   UNL A   1      37.120  29.415  30.740  1.00  0.00     0.031 C 
ATOM     45  C   UNL A   1      40.581  31.310  32.789  1.00  0.00     0.029 A 
ATOM     46  N   UNL A   1      39.382  32.794  33.918  1.00  0.00    -0.354 N 
ATOM     47  C   UNL A   1      39.174  28.497  30.300  1.00  0.00     0.074 A 
ATOM     48  C   UNL A   1      37.783  28.562  29.944  1.00  0.00     0.031 C 
ATOM     49  C   UNL A   1      41.445  31.955  33.584  1.00  0.00     0.029 A 
ATOM     50  C   UNL A   1      40.620  32.571  34.579  1.00  0.00     0.049 A 
ATOM     51  H   UNL A   1      38.766  33.545  34.077  1.00  0.00     0.167 HD
ATOM     52  C   UNL A   1      40.322  27.983  29.765  1.00  0.00     0.037 A 
ATOM     53  C   UNL A   1      40.669  32.234  35.898  1.00  0.00     0.037 A 
ATOM     54  C   UNL A   1      41.450  28.145  30.696  1.00  0.00     0.049 A 
ATOM     55  C   UNL A   1      41.225  30.822  36.007  1.00  0.00     0.074 A 
ATOM     56  C   UNL A   1      42.711  28.697  30.611  1.00  0.00     0.029 A 
ATOM     57  N   UNL A   1      41.268  27.827  32.047  1.00  0.00    -0.354 N 
ATOM     58  N   UNL A   1      40.998  29.877  35.118  1.00  0.00    -0.248 NA
ATOM     59  C   UNL A   1      42.321  30.480  36.914  1.00  0.00     0.031 C 
ATOM     60  C   UNL A   1      43.192  28.894  31.943  1.00  0.00     0.029 A 
ATOM     61  C   UNL A   1      42.273  28.353  32.832  1.00  0.00     0.049 A 
ATOM     62  H   UNL A   1      40.516  27.295  32.393  1.00  0.00     0.167 HD
ATOM     63  C   UNL A   1      41.999  28.940  35.199  1.00  0.00     0.074 A 
ATOM     64  C   UNL A   1      42.757  29.323  36.384  1.00  0.00     0.031 C 
ATOM     65  C   UNL A   1      42.352  28.020  34.247  1.00  0.00     0.037 A 
BRANCH  52  66
ATOM     66  C   UNL A   1      40.504  27.463  28.341  1.00  0.00     0.057 A 
ATOM     67  C   UNL A   1      40.018  26.187  27.974  1.00  0.00     0.134 A 
ATOM     68  C   UNL A   1      41.247  28.098  27.325  1.00  0.00     0.134 A 
ATOM     69  F   UNL A   1      39.286  25.449  28.820  1.00  0.00    -0.206 F 
ATOM     70  C   UNL A   1      40.261  25.593  26.723  1.00  0.00     0.040 A 
ATOM     71  C   UNL A   1      41.450  27.537  26.048  1.00  0.00     0.040 A 
ATOM     72  F   UNL A   1      41.860  29.270  27.522  1.00  0.00    -0.206 F 
ATOM     73  C   UNL A   1      40.967  26.274  25.746  1.00  0.00     0.006 A 
ENDBRANCH  52  66
BRANCH  53  74
ATOM     74  C   UNL A   1      39.627  33.010  36.642  1.00  0.00     0.057 A 
ATOM     75  C   UNL A   1      38.561  32.210  37.128  1.00  0.00     0.134 A 
ATOM     76  C   UNL A   1      39.993  34.101  37.439  1.00  0.00     0.134 A 
ATOM     77  F   UNL A   1      38.119  31.171  36.400  1.00  0.00    -0.206 F 
ATOM     78  C   UNL A   1      38.108  32.303  38.450  1.00  0.00     0.040 A 
ATOM     79  C   UNL A   1      39.496  34.235  38.748  1.00  0.00     0.040 A 
ATOM     80  F   UNL A   1      40.987  34.918  37.061  1.00  0.00    -0.206 F 
ATOM     81  C   UNL A   1      38.627  33.283  39.286  1.00  0.00     0.006 A 
ENDBRANCH  53  74
BRANCH  65  82
ATOM     82  C   UNL A   1      42.848  26.636  34.600  1.00  0.00     0.057 A 
ATOM     83  C   UNL A   1      44.194  26.265  34.497  1.00  0.00     0.134 A 
ATOM     84  C   UNL A   1      42.021  25.713  35.288  1.00  0.00     0.134 A 
ATOM     85  F   UNL A   1      45.114  27.079  33.964  1.00  0.00    -0.206 F 
ATOM     86  C   UNL A   1      44.675  25.052  34.997  1.00  0.00     0.040 A 
ATOM     87  C   UNL A   1      42.504  24.527  35.839  1.00  0.00     0.040 A 
ATOM     88  F   UNL A   1      40.718  25.931  35.509  1.00  0.00    -0.206 F 
ATOM     89  C   UNL A   1      43.835  24.186  35.684  1.00  0.00     0.006 A 
ENDBRANCH  65  82
ENDBRANCH  39  40
ENDBRANCH  32  34
ENDBRANCH  31  32
ENDBRANCH  30  31
ENDBRANCH  29  30
ENDBRANCH  28  29
ENDBRANCH  27  28
ENDBRANCH  26  27
ENDBRANCH  25  26
ENDBRANCH   1  25
TORSDOF 23
ENDMDL
MODEL 3
REMARK VINA RESULT:     -10.3      2.681      5.098
REMARK SMILES Cc1cccc(C(=O)OCCOCCOCCOCCOC(=O)c2ccc(-c3c4nc(c(-c5c(F)cccc5F)c5ccc([nH]5)c(-c5c(F)cccc5F)c5nc(c(-c6c(F)cccc6F)c6ccc3[nH]6)C=C5)C=C4)cc2)c1OC[C@@H]1C[C@H]2CC[C@@H]1C2
REMARK SMILES IDX 14 1 13 2 12 3 11 4 10 5 9 6 7 7 8 8 6 9 1 10 2 11 3 12
REMARK SMILES IDX 78 13 4 14 5 15 79 16 80 17 81 18 82 19 86 20 83 21 85 22
REMARK SMILES IDX 87 23 84 24 15 25 16 26 17 27 18 28 19 29 20 30 21 31 22 32
REMARK SMILES IDX 23 33 24 34 25 35 77 36 26 37 76 38 27 39 28 40 29 41 70 42
REMARK SMILES IDX 30 43 75 44 69 45 71 46 31 47 74 48 68 49 67 50 32 52 58 53
REMARK SMILES IDX 41 54 57 55 42 56 45 57 56 58 72 59 43 60 44 61 55 63 73 64
REMARK SMILES IDX 46 65 33 66 34 67 39 68 35 69 36 70 38 71 40 72 37 73 59 74
REMARK SMILES IDX 60 75 65 76 61 77 62 78 64 79 66 80 63 81 47 82 48 83 53 84
REMARK SMILES IDX 49 85 50 86 52 87 54 88 51 89
REMARK H PARENT 71 51 45 62
REMARK Flexibility Score: inf
ROOT
ATOM      1  C   UNL A   1      31.087  26.777  26.067  1.00  0.00     0.188 C 
ENDROOT
BRANCH   1   2
ATOM      2  C   UNL A   1      30.813  27.453  24.707  1.00  0.00     0.188 C 
BRANCH   2   3
ATOM      3  O   UNL A   1      31.778  27.367  23.666  1.00  0.00    -0.376 OA
BRANCH   3   4
ATOM      4  C   UNL A   1      31.309  26.815  22.434  1.00  0.00     0.202 C 
BRANCH   4   5
ATOM      5  C   UNL A   1      32.084  25.623  21.892  1.00  0.00     0.261 C 
BRANCH   5   6
ATOM      6  O   UNL A   1      32.377  24.755  22.993  1.00  0.00    -0.460 OA
BRANCH   6   7
ATOM      7  C   UNL A   1      33.248  23.763  22.722  1.00  0.00     0.342 C 
ATOM      8  O   UNL A   1      33.771  23.501  21.662  1.00  0.00    -0.246 OA
BRANCH   7   9
ATOM      9  C   UNL A   1      33.893  23.425  24.001  1.00  0.00     0.102 A 
ATOM     10  C   UNL A   1      33.888  21.452  27.289  1.00  0.00     0.048 C 
ATOM     11  C   UNL A   1      34.180  22.323  26.104  1.00  0.00    -0.008 A 
ATOM     12  C   UNL A   1      35.226  23.254  26.375  1.00  0.00     0.007 A 
ATOM     13  C   UNL A   1      33.511  22.372  24.868  1.00  0.00     0.136 A 
ATOM     14  C   UNL A   1      35.554  24.290  25.517  1.00  0.00     0.001 A 
ATOM     15  C   UNL A   1      34.873  24.382  24.330  1.00  0.00     0.019 A 
BRANCH  13  16
ATOM     16  O   UNL A   1      32.470  21.622  24.411  1.00  0.00    -0.492 OA
BRANCH  16  17
ATOM     17  C   UNL A   1      32.507  20.435  23.608  1.00  0.00     0.233 C 
BRANCH  17  18
ATOM     18  C   UNL A   1      33.002  19.234  24.410  1.00  0.00     0.030 C 
ATOM     19  C   UNL A   1      34.528  18.991  24.452  1.00  0.00     0.011 C 
ATOM     20  C   UNL A   1      32.496  17.860  23.900  1.00  0.00    -0.004 C 
ATOM     21  C   UNL A   1      34.619  17.452  24.384  1.00  0.00    -0.010 C 
ATOM     22  C   UNL A   1      32.359  16.976  25.137  1.00  0.00     0.004 C 
ATOM     23  C   UNL A   1      33.695  17.208  23.202  1.00  0.00     0.007 C 
ATOM     24  C   UNL A   1      33.830  16.791  25.544  1.00  0.00     0.004 C 
ENDBRANCH  17  18
ENDBRANCH  16  17
ENDBRANCH  13  16
ENDBRANCH   7   9
ENDBRANCH   6   7
ENDBRANCH   5   6
ENDBRANCH   4   5
ENDBRANCH   3   4
ENDBRANCH   2   3
ENDBRANCH   1   2
BRANCH   1  25
ATOM     25  O   UNL A   1      31.163  27.615  27.203  1.00  0.00    -0.377 OA
BRANCH  25  26
ATOM     26  C   UNL A   1      32.084  28.698  27.194  1.00  0.00     0.188 C 
BRANCH  26  27
ATOM     27  C   UNL A   1      31.741  30.017  26.547  1.00  0.00     0.188 C 
BRANCH  27  28
ATOM     28  O   UNL A   1      32.647  30.993  27.040  1.00  0.00    -0.376 OA
BRANCH  28  29
ATOM     29  C   UNL A   1      33.873  30.485  27.544  1.00  0.00     0.202 C 
BRANCH  29  30
ATOM     30  C   UNL A   1      34.843  31.599  27.948  1.00  0.00     0.261 C 
BRANCH  30  31
ATOM     31  O   UNL A   1      34.190  32.879  27.795  1.00  0.00    -0.460 OA
BRANCH  31  32
ATOM     32  C   UNL A   1      33.897  33.539  28.952  1.00  0.00     0.338 C 
ATOM     33  O   UNL A   1      32.912  34.239  29.130  1.00  0.00    -0.246 OA
BRANCH  32  34
ATOM     34  C   UNL A   1      35.088  33.550  29.860  1.00  0.00     0.060 A 
ATOM     35  C   UNL A   1      36.338  33.995  29.393  1.00  0.00     0.016 A 
ATOM     36  C   UNL A   1      35.043  32.780  31.009  1.00  0.00     0.016 A 
ATOM     37  C   UNL A   1      37.531  33.474  29.938  1.00  0.00     0.010 A 
ATOM     38  C   UNL A   1      36.215  32.195  31.455  1.00  0.00     0.010 A 
ATOM     39  C   UNL A   1      37.476  32.466  30.892  1.00  0.00    -0.014 A 
BRANCH  39  40
ATOM     40  C   UNL A   1      38.595  31.572  31.324  1.00  0.00     0.031 A 
ATOM     41  C   UNL A   1      38.765  30.281  30.552  1.00  0.00     0.074 A 
ATOM     42  C   UNL A   1      39.638  32.036  32.084  1.00  0.00     0.049 A 
ATOM     43  N   UNL A   1      39.816  29.541  30.581  1.00  0.00    -0.248 NA
ATOM     44  C   UNL A   1      37.787  29.750  29.596  1.00  0.00     0.031 C 
ATOM     45  C   UNL A   1      41.015  31.529  32.084  1.00  0.00     0.029 A 
ATOM     46  N   UNL A   1      39.746  33.097  33.001  1.00  0.00    -0.354 N 
ATOM     47  C   UNL A   1      39.833  28.722  29.473  1.00  0.00     0.074 A 
ATOM     48  C   UNL A   1      38.512  28.845  28.921  1.00  0.00     0.031 C 
ATOM     49  C   UNL A   1      41.789  32.152  32.982  1.00  0.00     0.029 A 
ATOM     50  C   UNL A   1      40.863  32.832  33.837  1.00  0.00     0.049 A 
ATOM     51  H   UNL A   1      39.153  33.881  33.055  1.00  0.00     0.167 HD
ATOM     52  C   UNL A   1      41.018  28.139  29.118  1.00  0.00     0.037 A 
ATOM     53  C   UNL A   1      40.707  32.528  35.156  1.00  0.00     0.037 A 
ATOM     54  C   UNL A   1      42.008  28.271  30.198  1.00  0.00     0.049 A 
ATOM     55  C   UNL A   1      41.168  31.094  35.370  1.00  0.00     0.074 A 
ATOM     56  C   UNL A   1      43.296  28.759  30.285  1.00  0.00     0.029 A 
ATOM     57  N   UNL A   1      41.620  27.998  31.515  1.00  0.00    -0.354 N 
ATOM     58  N   UNL A   1      41.021  30.138  34.476  1.00  0.00    -0.248 NA
ATOM     59  C   UNL A   1      42.105  30.724  36.431  1.00  0.00     0.031 C 
ATOM     60  C   UNL A   1      43.591  28.967  31.668  1.00  0.00     0.029 A 
ATOM     61  C   UNL A   1      42.528  28.495  32.426  1.00  0.00     0.049 A 
ATOM     62  H   UNL A   1      40.800  27.512  31.760  1.00  0.00     0.167 HD
ATOM     63  C   UNL A   1      41.950  29.156  34.717  1.00  0.00     0.074 A 
ATOM     64  C   UNL A   1      42.552  29.533  35.991  1.00  0.00     0.031 C 
ATOM     65  C   UNL A   1      42.388  28.196  33.844  1.00  0.00     0.037 A 
BRANCH  52  66
ATOM     66  C   UNL A   1      41.373  27.574  27.746  1.00  0.00     0.057 A 
ATOM     67  C   UNL A   1      41.176  26.203  27.460  1.00  0.00     0.134 A 
ATOM     68  C   UNL A   1      42.022  28.279  26.711  1.00  0.00     0.134 A 
ATOM     69  F   UNL A   1      40.567  25.388  28.332  1.00  0.00    -0.206 F 
ATOM     70  C   UNL A   1      41.597  25.590  26.267  1.00  0.00     0.040 A 
ATOM     71  C   UNL A   1      42.399  27.687  25.489  1.00  0.00     0.040 A 
ATOM     72  F   UNL A   1      42.373  29.563  26.840  1.00  0.00    -0.206 F 
ATOM     73  C   UNL A   1      42.199  26.334  25.266  1.00  0.00     0.006 A 
ENDBRANCH  52  66
BRANCH  53  74
ATOM     74  C   UNL A   1      39.611  33.373  35.728  1.00  0.00     0.057 A 
ATOM     75  C   UNL A   1      38.533  32.621  36.262  1.00  0.00     0.134 A 
ATOM     76  C   UNL A   1      39.912  34.573  36.383  1.00  0.00     0.134 A 
ATOM     77  F   UNL A   1      38.152  31.481  35.664  1.00  0.00    -0.206 F 
ATOM     78  C   UNL A   1      38.005  32.884  37.533  1.00  0.00     0.040 A 
ATOM     79  C   UNL A   1      39.340  34.873  37.632  1.00  0.00     0.040 A 
ATOM     80  F   UNL A   1      40.911  35.354  35.948  1.00  0.00    -0.206 F 
ATOM     81  C   UNL A   1      38.459  33.983  38.251  1.00  0.00     0.006 A 
ENDBRANCH  53  74
BRANCH  65  82
ATOM     82  C   UNL A   1      42.756  26.800  34.291  1.00  0.00     0.057 A 
ATOM     83  C   UNL A   1      44.082  26.360  34.387  1.00  0.00     0.134 A 
ATOM     84  C   UNL A   1      41.794  25.936  34.871  1.00  0.00     0.134 A 
ATOM     85  F   UNL A   1      45.110  27.114  33.975  1.00  0.00    -0.206 F 
ATOM     86  C   UNL A   1      44.424  25.140  34.975  1.00  0.00     0.040 A 
ATOM     87  C   UNL A   1      42.132  24.743  35.509  1.00  0.00     0.040 A 
ATOM     88  F   UNL A   1      40.485  26.223  34.900  1.00  0.00    -0.206 F 
ATOM     89  C   UNL A   1      43.452  24.334  35.551  1.00  0.00     0.006 A 
ENDBRANCH  65  82
ENDBRANCH  39  40
ENDBRANCH  32  34
ENDBRANCH  31  32
ENDBRANCH  30  31
ENDBRANCH  29  30
ENDBRANCH  28  29
ENDBRANCH  27  28
ENDBRANCH  26  27
ENDBRANCH  25  26
ENDBRANCH   1  25
TORSDOF 23
ENDMDL
