MODEL 1
REMARK VINA RESULT:      -9.4      0.000      0.000
REMARK SMILES CC(C)N(CCCC(=O)OCCOCCOCCOCCOC(=O)c1ccc(-c2c3nc(c(-c4c(F)cccc4F)c4ccc([nH]4)c(-c4c(F)cccc4F)c4nc(c(-c5c(F)cccc5F)c5ccc2[nH]5)C=C4)C=C3)cc1)C(=O)Cc1c(F)cccc1F
REMARK SMILES IDX 14 1 13 2 12 3 11 4 10 5 8 6 9 7 7 8 6 9 5 10 4 11 2 12 1 13
REMARK SMILES IDX 3 14 79 15 80 16 81 17 82 18 83 19 88 20 84 21 85 22 87 23
REMARK SMILES IDX 89 24 86 25 15 26 16 27 17 28 18 29 19 30 20 31 21 32 22 33
REMARK SMILES IDX 23 34 24 35 25 36 26 37 78 38 27 39 77 40 28 41 29 42 30 43
REMARK SMILES IDX 71 44 31 45 76 46 70 47 72 48 32 49 75 50 69 51 68 52 33 54
REMARK SMILES IDX 59 55 42 56 58 57 43 58 46 59 57 60 73 61 44 62 45 63 56 65
REMARK SMILES IDX 74 66 47 67 34 68 35 69 40 70 36 71 37 72 39 73 41 74 38 75
REMARK SMILES IDX 60 76 61 77 66 78 62 79 63 80 65 81 67 82 64 83 48 84 49 85
REMARK SMILES IDX 54 86 50 87 51 88 53 89 55 90 52 91
REMARK H PARENT 72 53 46 64
REMARK Flexibility Score: inf
ROOT
ATOM      1  C   UNL A   1      38.093  20.539  24.934  1.00  0.00     0.188 C 
ENDROOT
BRANCH   1   2
ATOM      2  O   UNL A   1      37.548  21.596  25.699  1.00  0.00    -0.376 OA
BRANCH   2   3
ATOM      3  C   UNL A   1      36.140  21.700  25.747  1.00  0.00     0.202 C 
BRANCH   3   4
ATOM      4  C   UNL A   1      35.511  22.176  24.464  1.00  0.00     0.261 C 
BRANCH   4   5
ATOM      5  O   UNL A   1      34.362  21.467  24.021  1.00  0.00    -0.463 OA
BRANCH   5   6
ATOM      6  C   UNL A   1      33.165  21.601  24.621  1.00  0.00     0.305 C 
ATOM      7  O   UNL A   1      32.921  21.294  25.775  1.00  0.00    -0.252 OA
BRANCH   6   8
ATOM      8  C   UNL A   1      32.155  22.149  23.625  1.00  0.00     0.124 C 
BRANCH   8   9
ATOM      9  C   UNL A   1      31.917  23.669  23.687  1.00  0.00     0.033 C 
BRANCH   9  10
ATOM     10  C   UNL A   1      31.784  24.343  25.074  1.00  0.00     0.120 C 
BRANCH  10  11
ATOM     11  N   UNL A   1      31.952  25.796  25.105  1.00  0.00    -0.340 N 
BRANCH  11  12
ATOM     12  C   UNL A   1      33.352  26.249  25.260  1.00  0.00     0.078 C 
ATOM     13  C   UNL A   1      34.286  25.134  25.742  1.00  0.00     0.031 C 
ATOM     14  C   UNL A   1      33.854  26.983  24.023  1.00  0.00     0.031 C 
ENDBRANCH  11  12
BRANCH  11  15
ATOM     15  C   UNL A   1      30.949  26.757  24.899  1.00  0.00     0.227 C 
ATOM     16  O   UNL A   1      30.892  27.780  25.590  1.00  0.00    -0.275 OA
BRANCH  15  17
ATOM     17  C   UNL A   1      29.845  26.562  23.869  1.00  0.00     0.142 C 
BRANCH  17  18
ATOM     18  C   UNL A   1      29.205  27.756  23.202  1.00  0.00     0.033 A 
ATOM     19  C   UNL A   1      27.877  28.141  23.363  1.00  0.00     0.129 A 
ATOM     20  C   UNL A   1      30.035  28.629  22.469  1.00  0.00     0.129 A 
ATOM     21  F   UNL A   1      27.018  27.361  24.029  1.00  0.00    -0.207 F 
ATOM     22  C   UNL A   1      27.413  29.377  22.896  1.00  0.00     0.040 A 
ATOM     23  C   UNL A   1      29.595  29.880  22.024  1.00  0.00     0.040 A 
ATOM     24  F   UNL A   1      31.340  28.346  22.344  1.00  0.00    -0.207 F 
ATOM     25  C   UNL A   1      28.278  30.264  22.254  1.00  0.00     0.006 A 
ENDBRANCH  17  18
ENDBRANCH  15  17
ENDBRANCH  11  15
ENDBRANCH  10  11
ENDBRANCH   9  10
ENDBRANCH   8   9
ENDBRANCH   6   8
ENDBRANCH   5   6
ENDBRANCH   4   5
ENDBRANCH   3   4
ENDBRANCH   2   3
ENDBRANCH   1   2
BRANCH   1  26
ATOM     26  C   UNL A   1      39.065  19.603  25.667  1.00  0.00     0.188 C 
BRANCH  26  27
ATOM     27  O   UNL A   1      40.366  19.984  26.075  1.00  0.00    -0.377 OA
BRANCH  27  28
ATOM     28  C   UNL A   1      41.465  19.108  26.222  1.00  0.00     0.188 C 
BRANCH  28  29
ATOM     29  C   UNL A   1      42.908  19.505  25.871  1.00  0.00     0.188 C 
BRANCH  29  30
ATOM     30  O   UNL A   1      43.260  20.563  25.002  1.00  0.00    -0.376 OA
BRANCH  30  31
ATOM     31  C   UNL A   1      43.117  21.904  25.397  1.00  0.00     0.202 C 
BRANCH  31  32
ATOM     32  C   UNL A   1      44.154  22.914  24.889  1.00  0.00     0.261 C 
BRANCH  32  33
ATOM     33  O   UNL A   1      43.688  24.244  24.632  1.00  0.00    -0.460 OA
BRANCH  33  34
ATOM     34  C   UNL A   1      44.437  25.244  25.164  1.00  0.00     0.338 C 
ATOM     35  O   UNL A   1      45.576  25.541  24.888  1.00  0.00    -0.246 OA
BRANCH  34  36
ATOM     36  C   UNL A   1      43.584  26.031  26.090  1.00  0.00     0.060 A 
ATOM     37  C   UNL A   1      43.917  27.369  26.341  1.00  0.00     0.016 A 
ATOM     38  C   UNL A   1      42.500  25.441  26.742  1.00  0.00     0.016 A 
ATOM     39  C   UNL A   1      43.196  28.109  27.279  1.00  0.00     0.010 A 
ATOM     40  C   UNL A   1      41.801  26.170  27.709  1.00  0.00     0.010 A 
ATOM     41  C   UNL A   1      42.179  27.490  28.015  1.00  0.00    -0.014 A 
BRANCH  41  42
ATOM     42  C   UNL A   1      41.720  28.118  29.279  1.00  0.00     0.031 A 
ATOM     43  C   UNL A   1      40.473  28.961  29.224  1.00  0.00     0.074 A 
ATOM     44  C   UNL A   1      42.352  27.919  30.449  1.00  0.00     0.049 A 
ATOM     45  N   UNL A   1      39.907  29.679  30.160  1.00  0.00    -0.248 NA
ATOM     46  C   UNL A   1      39.769  29.001  27.930  1.00  0.00     0.031 C 
ATOM     47  C   UNL A   1      43.525  27.074  30.647  1.00  0.00     0.029 A 
ATOM     48  N   UNL A   1      42.090  28.433  31.694  1.00  0.00    -0.354 N 
ATOM     49  C   UNL A   1      38.793  30.260  29.567  1.00  0.00     0.074 A 
ATOM     50  C   UNL A   1      38.776  29.839  28.185  1.00  0.00     0.031 C 
ATOM     51  C   UNL A   1      43.899  27.145  31.937  1.00  0.00     0.029 A 
ATOM     52  C   UNL A   1      43.013  28.068  32.645  1.00  0.00     0.049 A 
ATOM     53  H   UNL A   1      41.316  29.009  31.889  1.00  0.00     0.167 HD
ATOM     54  C   UNL A   1      37.860  31.066  30.125  1.00  0.00     0.037 A 
ATOM     55  C   UNL A   1      43.142  28.466  33.927  1.00  0.00     0.037 A 
ATOM     56  C   UNL A   1      37.880  31.485  31.500  1.00  0.00     0.049 A 
ATOM     57  C   UNL A   1      42.143  29.441  34.502  1.00  0.00     0.074 A 
ATOM     58  C   UNL A   1      36.984  32.304  32.164  1.00  0.00     0.029 A 
ATOM     59  N   UNL A   1      38.849  31.121  32.421  1.00  0.00    -0.354 N 
ATOM     60  N   UNL A   1      41.090  29.983  33.936  1.00  0.00    -0.248 NA
ATOM     61  C   UNL A   1      42.350  29.858  35.897  1.00  0.00     0.031 C 
ATOM     62  C   UNL A   1      37.441  32.479  33.472  1.00  0.00     0.029 A 
ATOM     63  C   UNL A   1      38.587  31.716  33.642  1.00  0.00     0.049 A 
ATOM     64  H   UNL A   1      39.612  30.525  32.234  1.00  0.00     0.167 HD
ATOM     65  C   UNL A   1      40.494  30.773  34.914  1.00  0.00     0.074 A 
ATOM     66  C   UNL A   1      41.294  30.629  36.111  1.00  0.00     0.031 C 
ATOM     67  C   UNL A   1      39.384  31.548  34.830  1.00  0.00     0.037 A 
BRANCH  54  68
ATOM     68  C   UNL A   1      36.761  31.572  29.239  1.00  0.00     0.057 A 
ATOM     69  C   UNL A   1      35.655  30.781  28.901  1.00  0.00     0.134 A 
ATOM     70  C   UNL A   1      36.792  32.882  28.743  1.00  0.00     0.134 A 
ATOM     71  F   UNL A   1      35.571  29.511  29.327  1.00  0.00    -0.206 F 
ATOM     72  C   UNL A   1      34.629  31.268  28.089  1.00  0.00     0.040 A 
ATOM     73  C   UNL A   1      35.759  33.390  27.954  1.00  0.00     0.040 A 
ATOM     74  F   UNL A   1      37.822  33.694  29.027  1.00  0.00    -0.206 F 
ATOM     75  C   UNL A   1      34.676  32.579  27.620  1.00  0.00     0.006 A 
ENDBRANCH  54  68
BRANCH  55  76
ATOM     76  C   UNL A   1      44.277  27.978  34.756  1.00  0.00     0.057 A 
ATOM     77  C   UNL A   1      44.149  26.856  35.581  1.00  0.00     0.134 A 
ATOM     78  C   UNL A   1      45.502  28.656  34.780  1.00  0.00     0.134 A 
ATOM     79  F   UNL A   1      42.993  26.178  35.624  1.00  0.00    -0.206 F 
ATOM     80  C   UNL A   1      45.185  26.440  36.421  1.00  0.00     0.040 A 
ATOM     81  C   UNL A   1      46.558  28.234  35.590  1.00  0.00     0.040 A 
ATOM     82  F   UNL A   1      45.692  29.742  34.015  1.00  0.00    -0.206 F 
ATOM     83  C   UNL A   1      46.397  27.130  36.423  1.00  0.00     0.006 A 
ENDBRANCH  55  76
BRANCH  67  84
ATOM     84  C   UNL A   1      38.934  32.257  36.077  1.00  0.00     0.057 A 
ATOM     85  C   UNL A   1      38.152  31.627  37.052  1.00  0.00     0.134 A 
ATOM     86  C   UNL A   1      39.334  33.578  36.323  1.00  0.00     0.134 A 
ATOM     87  F   UNL A   1      37.729  30.366  36.875  1.00  0.00    -0.206 F 
ATOM     88  C   UNL A   1      37.762  32.293  38.216  1.00  0.00     0.040 A 
ATOM     89  C   UNL A   1      38.977  34.242  37.497  1.00  0.00     0.040 A 
ATOM     90  F   UNL A   1      40.096  34.236  35.437  1.00  0.00    -0.206 F 
ATOM     91  C   UNL A   1      38.181  33.602  38.444  1.00  0.00     0.006 A 
ENDBRANCH  67  84
ENDBRANCH  41  42
ENDBRANCH  34  36
ENDBRANCH  33  34
ENDBRANCH  32  33
ENDBRANCH  31  32
ENDBRANCH  30  31
ENDBRANCH  29  30
ENDBRANCH  28  29
ENDBRANCH  27  28
ENDBRANCH  26  27
ENDBRANCH   1  26
TORSDOF 27
ENDMDL
MODEL 2
REMARK VINA RESULT:      -8.8      4.803     10.753
REMARK SMILES CC(C)N(CCCC(=O)OCCOCCOCCOCCOC(=O)c1ccc(-c2c3nc(c(-c4c(F)cccc4F)c4ccc([nH]4)c(-c4c(F)cccc4F)c4nc(c(-c5c(F)cccc5F)c5ccc2[nH]5)C=C4)C=C3)cc1)C(=O)Cc1c(F)cccc1F
REMARK SMILES IDX 14 1 13 2 12 3 11 4 10 5 8 6 9 7 7 8 6 9 5 10 4 11 2 12 1 13
REMARK SMILES IDX 3 14 79 15 80 16 81 17 82 18 83 19 88 20 84 21 85 22 87 23
REMARK SMILES IDX 89 24 86 25 15 26 16 27 17 28 18 29 19 30 20 31 21 32 22 33
REMARK SMILES IDX 23 34 24 35 25 36 26 37 78 38 27 39 77 40 28 41 29 42 30 43
REMARK SMILES IDX 71 44 31 45 76 46 70 47 72 48 32 49 75 50 69 51 68 52 33 54
REMARK SMILES IDX 59 55 42 56 58 57 43 58 46 59 57 60 73 61 44 62 45 63 56 65
REMARK SMILES IDX 74 66 47 67 34 68 35 69 40 70 36 71 37 72 39 73 41 74 38 75
REMARK SMILES IDX 60 76 61 77 66 78 62 79 63 80 65 81 67 82 64 83 48 84 49 85
REMARK SMILES IDX 54 86 50 87 51 88 53 89 55 90 52 91
REMARK H PARENT 72 53 46 64
REMARK Flexibility Score: inf
ROOT
ATOM      1  C   UNL A   1      33.512  31.782  27.822  1.00  0.00     0.188 C 
ENDROOT
BRANCH   1   2
ATOM      2  O   UNL A   1      34.626  31.026  27.387  1.00  0.00    -0.376 OA
BRANCH   2   3
ATOM      3  C   UNL A   1      34.592  29.633  27.616  1.00  0.00     0.202 C 
BRANCH   3   4
ATOM      4  C   UNL A   1      34.187  28.820  26.414  1.00  0.00     0.261 C 
BRANCH   4   5
ATOM      5  O   UNL A   1      32.791  28.687  26.181  1.00  0.00    -0.463 OA
BRANCH   5   6
ATOM      6  C   UNL A   1      32.001  27.945  26.979  1.00  0.00     0.305 C 
ATOM      7  O   UNL A   1      31.471  28.339  28.003  1.00  0.00    -0.252 OA
BRANCH   6   8
ATOM      8  C   UNL A   1      31.913  26.529  26.433  1.00  0.00     0.124 C 
BRANCH   8   9
ATOM      9  C   UNL A   1      33.186  26.001  25.744  1.00  0.00     0.033 C 
BRANCH   9  10
ATOM     10  C   UNL A   1      33.035  24.990  24.583  1.00  0.00     0.120 C 
BRANCH  10  11
ATOM     11  N   UNL A   1      32.947  23.579  24.963  1.00  0.00    -0.340 N 
BRANCH  11  12
ATOM     12  C   UNL A   1      32.284  23.333  26.262  1.00  0.00     0.078 C 
ATOM     13  C   UNL A   1      30.881  22.734  26.108  1.00  0.00     0.031 C 
ATOM     14  C   UNL A   1      33.181  22.563  27.223  1.00  0.00     0.031 C 
ENDBRANCH  11  12
BRANCH  11  15
ATOM     15  C   UNL A   1      33.328  22.479  24.179  1.00  0.00     0.227 C 
ATOM     16  O   UNL A   1      34.382  22.487  23.533  1.00  0.00    -0.275 OA
BRANCH  15  17
ATOM     17  C   UNL A   1      32.440  21.252  24.026  1.00  0.00     0.142 C 
BRANCH  17  18
ATOM     18  C   UNL A   1      33.052  19.882  23.856  1.00  0.00     0.033 A 
ATOM     19  C   UNL A   1      33.984  19.313  24.720  1.00  0.00     0.129 A 
ATOM     20  C   UNL A   1      32.553  19.057  22.827  1.00  0.00     0.129 A 
ATOM     21  F   UNL A   1      34.521  20.033  25.712  1.00  0.00    -0.207 F 
ATOM     22  C   UNL A   1      34.337  17.961  24.626  1.00  0.00     0.040 A 
ATOM     23  C   UNL A   1      32.872  17.698  22.739  1.00  0.00     0.040 A 
ATOM     24  F   UNL A   1      31.600  19.529  22.009  1.00  0.00    -0.207 F 
ATOM     25  C   UNL A   1      33.759  17.142  23.656  1.00  0.00     0.006 A 
ENDBRANCH  17  18
ENDBRANCH  15  17
ENDBRANCH  11  15
ENDBRANCH  10  11
ENDBRANCH   9  10
ENDBRANCH   8   9
ENDBRANCH   6   8
ENDBRANCH   5   6
ENDBRANCH   4   5
ENDBRANCH   3   4
ENDBRANCH   2   3
ENDBRANCH   1   2
BRANCH   1  26
ATOM     26  C   UNL A   1      33.762  33.277  28.068  1.00  0.00     0.188 C 
BRANCH  26  27
ATOM     27  O   UNL A   1      32.742  34.199  28.406  1.00  0.00    -0.377 OA
BRANCH  27  28
ATOM     28  C   UNL A   1      32.950  35.543  28.789  1.00  0.00     0.188 C 
BRANCH  28  29
ATOM     29  C   UNL A   1      33.180  35.975  30.247  1.00  0.00     0.188 C 
BRANCH  29  30
ATOM     30  O   UNL A   1      32.682  35.285  31.376  1.00  0.00    -0.376 OA
BRANCH  30  31
ATOM     31  C   UNL A   1      33.535  34.529  32.198  1.00  0.00     0.202 C 
BRANCH  31  32
ATOM     32  C   UNL A   1      34.968  34.284  31.707  1.00  0.00     0.261 C 
BRANCH  32  33
ATOM     33  O   UNL A   1      35.266  32.970  31.218  1.00  0.00    -0.460 OA
BRANCH  33  34
ATOM     34  C   UNL A   1      35.974  32.174  32.060  1.00  0.00     0.338 C 
ATOM     35  O   UNL A   1      35.574  31.604  33.049  1.00  0.00    -0.246 OA
BRANCH  34  36
ATOM     36  C   UNL A   1      37.341  32.002  31.509  1.00  0.00     0.060 A 
ATOM     37  C   UNL A   1      37.539  32.168  30.131  1.00  0.00     0.016 A 
ATOM     38  C   UNL A   1      38.405  31.630  32.333  1.00  0.00     0.016 A 
ATOM     39  C   UNL A   1      38.789  31.920  29.565  1.00  0.00     0.010 A 
ATOM     40  C   UNL A   1      39.649  31.345  31.761  1.00  0.00     0.010 A 
ATOM     41  C   UNL A   1      39.830  31.441  30.369  1.00  0.00    -0.014 A 
BRANCH  41  42
ATOM     42  C   UNL A   1      40.991  30.777  29.726  1.00  0.00     0.031 A 
ATOM     43  C   UNL A   1      42.209  31.618  29.448  1.00  0.00     0.074 A 
ATOM     44  C   UNL A   1      40.994  29.465  29.433  1.00  0.00     0.049 A 
ATOM     45  N   UNL A   1      43.318  31.305  28.829  1.00  0.00    -0.248 NA
ATOM     46  C   UNL A   1      42.167  33.009  29.936  1.00  0.00     0.031 C 
ATOM     47  C   UNL A   1      39.907  28.530  29.712  1.00  0.00     0.029 A 
ATOM     48  N   UNL A   1      41.953  28.696  28.821  1.00  0.00    -0.354 N 
ATOM     49  C   UNL A   1      44.096  32.456  28.845  1.00  0.00     0.074 A 
ATOM     50  C   UNL A   1      43.324  33.484  29.506  1.00  0.00     0.031 C 
ATOM     51  C   UNL A   1      40.250  27.314  29.249  1.00  0.00     0.029 A 
ATOM     52  C   UNL A   1      41.563  27.395  28.611  1.00  0.00     0.049 A 
ATOM     53  H   UNL A   1      42.835  29.043  28.556  1.00  0.00     0.167 HD
ATOM     54  C   UNL A   1      45.346  32.641  28.361  1.00  0.00     0.037 A 
ATOM     55  C   UNL A   1      42.186  26.399  27.949  1.00  0.00     0.037 A 
ATOM     56  C   UNL A   1      46.112  31.617  27.702  1.00  0.00     0.049 A 
ATOM     57  C   UNL A   1      43.541  26.655  27.334  1.00  0.00     0.074 A 
ATOM     58  C   UNL A   1      47.386  31.702  27.172  1.00  0.00     0.029 A 
ATOM     59  N   UNL A   1      45.669  30.323  27.480  1.00  0.00    -0.354 N 
ATOM     60  N   UNL A   1      44.272  27.745  27.356  1.00  0.00    -0.248 NA
ATOM     61  C   UNL A   1      44.159  25.539  26.602  1.00  0.00     0.031 C 
ATOM     62  C   UNL A   1      47.693  30.474  26.580  1.00  0.00     0.029 A 
ATOM     63  C   UNL A   1      46.636  29.604  26.800  1.00  0.00     0.049 A 
ATOM     64  H   UNL A   1      44.796  29.966  27.766  1.00  0.00     0.167 HD
ATOM     65  C   UNL A   1      45.444  27.434  26.675  1.00  0.00     0.074 A 
ATOM     66  C   UNL A   1      45.334  26.051  26.264  1.00  0.00     0.031 C 
ATOM     67  C   UNL A   1      46.517  28.221  26.414  1.00  0.00     0.037 A 
BRANCH  54  68
ATOM     68  C   UNL A   1      45.948  34.008  28.497  1.00  0.00     0.057 A 
ATOM     69  C   UNL A   1      45.787  34.992  27.513  1.00  0.00     0.134 A 
ATOM     70  C   UNL A   1      46.673  34.356  29.644  1.00  0.00     0.134 A 
ATOM     71  F   UNL A   1      45.121  34.719  26.380  1.00  0.00    -0.206 F 
ATOM     72  C   UNL A   1      46.340  36.266  27.657  1.00  0.00     0.040 A 
ATOM     73  C   UNL A   1      47.205  35.635  29.813  1.00  0.00     0.040 A 
ATOM     74  F   UNL A   1      46.865  33.461  30.626  1.00  0.00    -0.206 F 
ATOM     75  C   UNL A   1      47.043  36.593  28.815  1.00  0.00     0.006 A 
ENDBRANCH  54  68
BRANCH  55  76
ATOM     76  C   UNL A   1      41.531  25.073  27.794  1.00  0.00     0.057 A 
ATOM     77  C   UNL A   1      41.940  23.963  28.542  1.00  0.00     0.134 A 
ATOM     78  C   UNL A   1      40.511  24.872  26.855  1.00  0.00     0.134 A 
ATOM     79  F   UNL A   1      42.930  24.082  29.439  1.00  0.00    -0.206 F 
ATOM     80  C   UNL A   1      41.382  22.699  28.344  1.00  0.00     0.040 A 
ATOM     81  C   UNL A   1      39.922  23.621  26.669  1.00  0.00     0.040 A 
ATOM     82  F   UNL A   1      40.072  25.892  26.102  1.00  0.00    -0.206 F 
ATOM     83  C   UNL A   1      40.366  22.526  27.406  1.00  0.00     0.006 A 
ENDBRANCH  55  76
BRANCH  67  84
ATOM     84  C   UNL A   1      47.681  27.597  25.697  1.00  0.00     0.057 A 
ATOM     85  C   UNL A   1      48.738  26.986  26.382  1.00  0.00     0.134 A 
ATOM     86  C   UNL A   1      47.715  27.564  24.295  1.00  0.00     0.134 A 
ATOM     87  F   UNL A   1      48.772  26.988  27.723  1.00  0.00    -0.206 F 
ATOM     88  C   UNL A   1      49.801  26.390  25.700  1.00  0.00     0.040 A 
ATOM     89  C   UNL A   1      48.756  26.943  23.604  1.00  0.00     0.040 A 
ATOM     90  F   UNL A   1      46.727  28.119  23.577  1.00  0.00    -0.206 F 
ATOM     91  C   UNL A   1      49.807  26.361  24.307  1.00  0.00     0.006 A 
ENDBRANCH  67  84
ENDBRANCH  41  42
ENDBRANCH  34  36
ENDBRANCH  33  34
ENDBRANCH  32  33
ENDBRANCH  31  32
ENDBRANCH  30  31
ENDBRANCH  29  30
ENDBRANCH  28  29
ENDBRANCH  27  28
ENDBRANCH  26  27
ENDBRANCH   1  26
TORSDOF 27
ENDMDL
MODEL 3
REMARK VINA RESULT:      -8.6      5.177     11.689
REMARK SMILES CC(C)N(CCCC(=O)OCCOCCOCCOCCOC(=O)c1ccc(-c2c3nc(c(-c4c(F)cccc4F)c4ccc([nH]4)c(-c4c(F)cccc4F)c4nc(c(-c5c(F)cccc5F)c5ccc2[nH]5)C=C4)C=C3)cc1)C(=O)Cc1c(F)cccc1F
REMARK SMILES IDX 14 1 13 2 12 3 11 4 10 5 8 6 9 7 7 8 6 9 5 10 4 11 2 12 1 13
REMARK SMILES IDX 3 14 79 15 80 16 81 17 82 18 83 19 88 20 84 21 85 22 87 23
REMARK SMILES IDX 89 24 86 25 15 26 16 27 17 28 18 29 19 30 20 31 21 32 22 33
REMARK SMILES IDX 23 34 24 35 25 36 26 37 78 38 27 39 77 40 28 41 29 42 30 43
REMARK SMILES IDX 71 44 31 45 76 46 70 47 72 48 32 49 75 50 69 51 68 52 33 54
REMARK SMILES IDX 59 55 42 56 58 57 43 58 46 59 57 60 73 61 44 62 45 63 56 65
REMARK SMILES IDX 74 66 47 67 34 68 35 69 40 70 36 71 37 72 39 73 41 74 38 75
REMARK SMILES IDX 60 76 61 77 66 78 62 79 63 80 65 81 67 82 64 83 48 84 49 85
REMARK SMILES IDX 54 86 50 87 51 88 53 89 55 90 52 91
REMARK H PARENT 72 53 46 64
REMARK Flexibility Score: inf
ROOT
ATOM      1  C   UNL A   1      37.641  29.668  29.501  1.00  0.00     0.188 C 
ENDROOT
BRANCH   1   2
ATOM      2  O   UNL A   1      39.046  29.624  29.352  1.00  0.00    -0.376 OA
BRANCH   2   3
ATOM      3  C   UNL A   1      39.646  28.348  29.256  1.00  0.00     0.202 C 
BRANCH   3   4
ATOM      4  C   UNL A   1      39.815  27.851  27.843  1.00  0.00     0.261 C 
BRANCH   4   5
ATOM      5  O   UNL A   1      40.647  26.712  27.669  1.00  0.00    -0.463 OA
BRANCH   5   6
ATOM      6  C   UNL A   1      40.502  25.877  26.624  1.00  0.00     0.305 C 
ATOM      7  O   UNL A   1      40.918  26.085  25.497  1.00  0.00    -0.252 OA
BRANCH   6   8
ATOM      8  C   UNL A   1      39.700  24.659  27.053  1.00  0.00     0.124 C 
BRANCH   8   9
ATOM      9  C   UNL A   1      40.054  23.342  26.335  1.00  0.00     0.033 C 
BRANCH   9  10
ATOM     10  C   UNL A   1      40.732  22.214  27.148  1.00  0.00     0.120 C 
BRANCH  10  11
ATOM     11  N   UNL A   1      42.057  21.796  26.690  1.00  0.00    -0.340 N 
BRANCH  11  12
ATOM     12  C   UNL A   1      42.377  20.375  26.953  1.00  0.00     0.078 C 
ATOM     13  C   UNL A   1      41.312  19.675  27.805  1.00  0.00     0.031 C 
ATOM     14  C   UNL A   1      42.734  19.626  25.675  1.00  0.00     0.031 C 
ENDBRANCH  11  12
BRANCH  11  15
ATOM     15  C   UNL A   1      42.970  22.570  25.957  1.00  0.00     0.227 C 
ATOM     16  O   UNL A   1      42.915  22.627  24.723  1.00  0.00    -0.275 OA
BRANCH  15  17
ATOM     17  C   UNL A   1      44.112  23.320  26.628  1.00  0.00     0.142 C 
BRANCH  17  18
ATOM     18  C   UNL A   1      43.828  24.526  27.494  1.00  0.00     0.033 A 
ATOM     19  C   UNL A   1      43.371  24.473  28.808  1.00  0.00     0.129 A 
ATOM     20  C   UNL A   1      44.177  25.797  26.992  1.00  0.00     0.129 A 
ATOM     21  F   UNL A   1      43.003  23.309  29.355  1.00  0.00    -0.207 F 
ATOM     22  C   UNL A   1      43.346  25.615  29.619  1.00  0.00     0.040 A 
ATOM     23  C   UNL A   1      44.186  26.940  27.798  1.00  0.00     0.040 A 
ATOM     24  F   UNL A   1      44.691  25.899  25.758  1.00  0.00    -0.207 F 
ATOM     25  C   UNL A   1      43.783  26.845  29.127  1.00  0.00     0.006 A 
ENDBRANCH  17  18
ENDBRANCH  15  17
ENDBRANCH  11  15
ENDBRANCH  10  11
ENDBRANCH   9  10
ENDBRANCH   8   9
ENDBRANCH   6   8
ENDBRANCH   5   6
ENDBRANCH   4   5
ENDBRANCH   3   4
ENDBRANCH   2   3
ENDBRANCH   1   2
BRANCH   1  26
ATOM     26  C   UNL A   1      36.854  30.284  28.334  1.00  0.00     0.188 C 
BRANCH  26  27
ATOM     27  O   UNL A   1      35.466  30.556  28.379  1.00  0.00    -0.377 OA
BRANCH  27  28
ATOM     28  C   UNL A   1      34.847  31.724  27.881  1.00  0.00     0.188 C 
BRANCH  28  29
ATOM     29  C   UNL A   1      34.689  33.010  28.709  1.00  0.00     0.188 C 
BRANCH  29  30
ATOM     30  O   UNL A   1      35.481  33.343  29.832  1.00  0.00    -0.376 OA
BRANCH  30  31
ATOM     31  C   UNL A   1      35.030  33.085  31.138  1.00  0.00     0.202 C 
BRANCH  31  32
ATOM     32  C   UNL A   1      36.054  33.171  32.277  1.00  0.00     0.261 C 
BRANCH  32  33
ATOM     33  O   UNL A   1      36.019  32.126  33.256  1.00  0.00    -0.460 OA
BRANCH  33  34
ATOM     34  C   UNL A   1      36.883  32.261  34.295  1.00  0.00     0.338 C 
ATOM     35  O   UNL A   1      36.682  32.804  35.357  1.00  0.00    -0.246 OA
BRANCH  34  36
ATOM     36  C   UNL A   1      38.126  31.516  33.975  1.00  0.00     0.060 A 
ATOM     37  C   UNL A   1      39.353  32.032  34.413  1.00  0.00     0.016 A 
ATOM     38  C   UNL A   1      38.085  30.350  33.209  1.00  0.00     0.016 A 
ATOM     39  C   UNL A   1      40.548  31.411  34.048  1.00  0.00     0.010 A 
ATOM     40  C   UNL A   1      39.284  29.747  32.812  1.00  0.00     0.010 A 
ATOM     41  C   UNL A   1      40.519  30.305  33.189  1.00  0.00    -0.014 A 
BRANCH  41  42
ATOM     42  C   UNL A   1      41.757  29.922  32.466  1.00  0.00     0.031 A 
ATOM     43  C   UNL A   1      42.478  28.683  32.929  1.00  0.00     0.074 A 
ATOM     44  C   UNL A   1      42.212  30.614  31.407  1.00  0.00     0.049 A 
ATOM     45  N   UNL A   1      43.614  28.177  32.524  1.00  0.00    -0.248 NA
ATOM     46  C   UNL A   1      41.825  27.910  34.001  1.00  0.00     0.031 C 
ATOM     47  C   UNL A   1      41.570  31.787  30.821  1.00  0.00     0.029 A 
ATOM     48  N   UNL A   1      43.336  30.426  30.643  1.00  0.00    -0.354 N 
ATOM     49  C   UNL A   1      43.815  27.039  33.295  1.00  0.00     0.074 A 
ATOM     50  C   UNL A   1      42.702  26.942  34.212  1.00  0.00     0.031 C 
ATOM     51  C   UNL A   1      42.326  32.231  29.800  1.00  0.00     0.029 A 
ATOM     52  C   UNL A   1      43.520  31.395  29.687  1.00  0.00     0.049 A 
ATOM     53  H   UNL A   1      43.954  29.669  30.769  1.00  0.00     0.167 HD
ATOM     54  C   UNL A   1      44.830  26.146  33.239  1.00  0.00     0.037 A 
ATOM     55  C   UNL A   1      44.553  31.597  28.844  1.00  0.00     0.037 A 
ATOM     56  C   UNL A   1      45.937  26.244  32.326  1.00  0.00     0.049 A 
ATOM     57  C   UNL A   1      45.722  30.641  28.864  1.00  0.00     0.074 A 
ATOM     58  C   UNL A   1      47.020  25.394  32.191  1.00  0.00     0.029 A 
ATOM     59  N   UNL A   1      46.103  27.258  31.396  1.00  0.00    -0.354 N 
ATOM     60  N   UNL A   1      45.903  29.565  29.594  1.00  0.00    -0.248 NA
ATOM     61  C   UNL A   1      46.830  30.928  27.941  1.00  0.00     0.031 C 
ATOM     62  C   UNL A   1      47.869  25.924  31.216  1.00  0.00     0.029 A 
ATOM     63  C   UNL A   1      47.283  27.069  30.698  1.00  0.00     0.049 A 
ATOM     64  H   UNL A   1      45.474  28.003  31.253  1.00  0.00     0.167 HD
ATOM     65  C   UNL A   1      47.123  29.032  29.193  1.00  0.00     0.074 A 
ATOM     66  C   UNL A   1      47.632  29.893  28.147  1.00  0.00     0.031 C 
ATOM     67  C   UNL A   1      47.766  27.927  29.647  1.00  0.00     0.037 A 
BRANCH  54  68
ATOM     68  C   UNL A   1      44.807  25.006  34.214  1.00  0.00     0.057 A 
ATOM     69  C   UNL A   1      44.315  23.740  33.865  1.00  0.00     0.134 A 
ATOM     70  C   UNL A   1      45.314  25.165  35.510  1.00  0.00     0.134 A 
ATOM     71  F   UNL A   1      43.797  23.524  32.646  1.00  0.00    -0.206 F 
ATOM     72  C   UNL A   1      44.312  22.682  34.775  1.00  0.00     0.040 A 
ATOM     73  C   UNL A   1      45.344  24.107  36.418  1.00  0.00     0.040 A 
ATOM     74  F   UNL A   1      45.800  26.350  35.909  1.00  0.00    -0.206 F 
ATOM     75  C   UNL A   1      44.837  22.862  36.054  1.00  0.00     0.006 A 
ENDBRANCH  54  68
BRANCH  55  76
ATOM     76  C   UNL A   1      44.560  32.769  27.929  1.00  0.00     0.057 A 
ATOM     77  C   UNL A   1      45.000  34.027  28.356  1.00  0.00     0.134 A 
ATOM     78  C   UNL A   1      44.078  32.671  26.617  1.00  0.00     0.134 A 
ATOM     79  F   UNL A   1      45.449  34.195  29.609  1.00  0.00    -0.206 F 
ATOM     80  C   UNL A   1      44.935  35.148  27.526  1.00  0.00     0.040 A 
ATOM     81  C   UNL A   1      44.037  33.776  25.766  1.00  0.00     0.040 A 
ATOM     82  F   UNL A   1      43.638  31.495  26.143  1.00  0.00    -0.206 F 
ATOM     83  C   UNL A   1      44.455  35.023  26.224  1.00  0.00     0.006 A 
ENDBRANCH  55  76
BRANCH  67  84
ATOM     84  C   UNL A   1      49.061  27.553  28.983  1.00  0.00     0.057 A 
ATOM     85  C   UNL A   1      49.108  26.741  27.843  1.00  0.00     0.134 A 
ATOM     86  C   UNL A   1      50.277  28.056  29.468  1.00  0.00     0.134 A 
ATOM     87  F   UNL A   1      47.983  26.220  27.332  1.00  0.00    -0.206 F 
ATOM     88  C   UNL A   1      50.319  26.422  27.225  1.00  0.00     0.040 A 
ATOM     89  C   UNL A   1      51.489  27.770  28.840  1.00  0.00     0.040 A 
ATOM     90  F   UNL A   1      50.303  28.851  30.549  1.00  0.00    -0.206 F 
ATOM     91  C   UNL A   1      51.513  26.943  27.720  1.00  0.00     0.006 A 
ENDBRANCH  67  84
ENDBRANCH  41  42
ENDBRANCH  34  36
ENDBRANCH  33  34
ENDBRANCH  32  33
ENDBRANCH  31  32
ENDBRANCH  30  31
ENDBRANCH  29  30
ENDBRANCH  28  29
ENDBRANCH  27  28
ENDBRANCH  26  27
ENDBRANCH   1  26
TORSDOF 27
ENDMDL
