MODEL 1
REMARK VINA RESULT:      -8.8      0.000      0.000
REMARK SMILES O=C(OCCOCCOCCOCCOC(=O)c1ccc(-c2c3nc(c(-c4c(F)cccc4F)c4ccc([nH]4)c(-c4c(F)cccc4F)c4nc(c(-c5c(F)cccc5F)c5ccc2[nH]5)C=C4)C=C3)cc1)C1=Cc2cc(Cl)cc(-c3ccccc3)c2O[C@@H]1C(F)(F)F
REMARK SMILES IDX 10 1 9 2 8 3 7 4 6 5 5 6 4 7 3 8 2 9 1 10 72 11 73 12 88 13
REMARK SMILES IDX 74 14 87 15 75 16 86 17 76 18 79 19 77 20 78 21 89 22 90 23
REMARK SMILES IDX 91 24 92 25 80 26 81 27 85 28 82 29 84 30 83 31 11 32 12 33
REMARK SMILES IDX 13 34 14 35 15 36 16 37 17 38 18 39 19 40 71 41 20 42 70 43
REMARK SMILES IDX 21 44 22 45 23 46 64 47 24 48 69 49 63 50 65 51 25 52 68 53
REMARK SMILES IDX 62 54 61 55 26 57 52 58 35 59 51 60 36 61 39 62 50 63 66 64
REMARK SMILES IDX 37 65 38 66 49 68 67 69 40 70 27 71 28 72 33 73 29 74 30 75
REMARK SMILES IDX 32 76 34 77 31 78 53 79 54 80 59 81 55 82 56 83 58 84 60 85
REMARK SMILES IDX 57 86 41 87 42 88 47 89 43 90 44 91 46 92 48 93 45 94
REMARK H PARENT 65 56 39 67
REMARK Flexibility Score: inf
ROOT
ATOM      1  C   UNL A   1      33.079  34.936  28.948  1.00  0.00     0.188 C 
ENDROOT
BRANCH   1   2
ATOM      2  O   UNL A   1      32.670  36.295  29.082  1.00  0.00    -0.377 OA
BRANCH   2   3
ATOM      3  C   UNL A   1      33.014  36.930  30.312  1.00  0.00     0.188 C 
BRANCH   3   4
ATOM      4  C   UNL A   1      33.257  35.935  31.439  1.00  0.00     0.188 C 
BRANCH   4   5
ATOM      5  O   UNL A   1      33.440  36.570  32.684  1.00  0.00    -0.376 OA
BRANCH   5   6
ATOM      6  C   UNL A   1      34.382  36.031  33.592  1.00  0.00     0.202 C 
BRANCH   6   7
ATOM      7  C   UNL A   1      35.562  35.245  33.006  1.00  0.00     0.261 C 
BRANCH   7   8
ATOM      8  O   UNL A   1      36.594  34.909  33.958  1.00  0.00    -0.460 OA
BRANCH   8   9
ATOM      9  C   UNL A   1      36.602  33.640  34.470  1.00  0.00     0.338 C 
ATOM     10  O   UNL A   1      35.655  32.879  34.356  1.00  0.00    -0.246 OA
BRANCH   9  11
ATOM     11  C   UNL A   1      37.834  33.327  35.256  1.00  0.00     0.087 C 
ATOM     12  C   UNL A   1      38.304  32.069  35.272  1.00  0.00     0.027 C 
ATOM     13  C   UNL A   1      38.839  34.420  35.362  1.00  0.00     0.316 C 
ATOM     14  C   UNL A   1      39.616  31.871  34.643  1.00  0.00     0.019 A 
ATOM     15  O   UNL A   1      39.923  34.240  34.409  1.00  0.00    -0.475 OA
ATOM     16  C   UNL A   1      40.201  30.616  34.514  1.00  0.00     0.032 A 
ATOM     17  C   UNL A   1      40.166  32.960  33.951  1.00  0.00     0.135 A 
ATOM     18  C   UNL A   1      41.282  30.456  33.647  1.00  0.00     0.042 A 
ATOM     19  C   UNL A   1      41.002  32.724  32.834  1.00  0.00     0.026 A 
ATOM     20  Cl  UNL A   1      42.121  28.958  33.581  1.00  0.00    -0.084 Cl
ATOM     21  C   UNL A   1      41.630  31.473  32.760  1.00  0.00     0.033 A 
BRANCH  13  22
ATOM     22  C   UNL A   1      39.158  34.740  36.833  1.00  0.00     0.430 C 
ATOM     23  F   UNL A   1      39.403  36.058  37.018  1.00  0.00    -0.167 F 
ATOM     24  F   UNL A   1      38.072  34.452  37.611  1.00  0.00    -0.167 F 
ATOM     25  F   UNL A   1      40.194  34.041  37.334  1.00  0.00    -0.167 F 
ENDBRANCH  13  22
BRANCH  19  26
ATOM     26  C   UNL A   1      41.008  33.556  31.603  1.00  0.00    -0.015 A 
ATOM     27  C   UNL A   1      42.184  34.258  31.234  1.00  0.00     0.009 A 
ATOM     28  C   UNL A   1      39.901  33.700  30.774  1.00  0.00     0.009 A 
ATOM     29  C   UNL A   1      42.263  35.020  30.059  1.00  0.00     0.001 A 
ATOM     30  C   UNL A   1      39.998  34.422  29.573  1.00  0.00     0.001 A 
ATOM     31  C   UNL A   1      41.172  35.076  29.207  1.00  0.00     0.000 A 
ENDBRANCH  19  26
ENDBRANCH   9  11
ENDBRANCH   8   9
ENDBRANCH   7   8
ENDBRANCH   6   7
ENDBRANCH   5   6
ENDBRANCH   4   5
ENDBRANCH   3   4
ENDBRANCH   2   3
ENDBRANCH   1   2
BRANCH   1  32
ATOM     32  C   UNL A   1      34.143  34.659  27.860  1.00  0.00     0.188 C 
BRANCH  32  33
ATOM     33  O   UNL A   1      35.283  33.841  28.080  1.00  0.00    -0.376 OA
BRANCH  33  34
ATOM     34  C   UNL A   1      35.944  33.936  29.321  1.00  0.00     0.202 C 
BRANCH  34  35
ATOM     35  C   UNL A   1      35.585  32.819  30.318  1.00  0.00     0.261 C 
BRANCH  35  36
ATOM     36  O   UNL A   1      36.672  32.367  31.155  1.00  0.00    -0.460 OA
BRANCH  36  37
ATOM     37  C   UNL A   1      36.665  31.054  31.519  1.00  0.00     0.338 C 
ATOM     38  O   UNL A   1      35.849  30.509  32.219  1.00  0.00    -0.246 OA
BRANCH  37  39
ATOM     39  C   UNL A   1      37.776  30.333  30.807  1.00  0.00     0.060 A 
ATOM     40  C   UNL A   1      38.514  29.379  31.526  1.00  0.00     0.016 A 
ATOM     41  C   UNL A   1      38.098  30.560  29.463  1.00  0.00     0.016 A 
ATOM     42  C   UNL A   1      39.601  28.708  30.934  1.00  0.00     0.010 A 
ATOM     43  C   UNL A   1      39.179  29.878  28.868  1.00  0.00     0.010 A 
ATOM     44  C   UNL A   1      39.973  28.978  29.611  1.00  0.00    -0.014 A 
BRANCH  44  45
ATOM     45  C   UNL A   1      41.298  28.519  29.083  1.00  0.00     0.031 A 
ATOM     46  C   UNL A   1      42.389  29.552  28.931  1.00  0.00     0.074 A 
ATOM     47  C   UNL A   1      41.588  27.241  28.762  1.00  0.00     0.049 A 
ATOM     48  N   UNL A   1      43.635  29.398  28.561  1.00  0.00    -0.248 NA
ATOM     49  C   UNL A   1      42.027  30.940  29.260  1.00  0.00     0.031 C 
ATOM     50  C   UNL A   1      40.694  26.104  28.907  1.00  0.00     0.029 A 
ATOM     51  N   UNL A   1      42.729  26.683  28.222  1.00  0.00    -0.354 N 
ATOM     52  C   UNL A   1      44.217  30.652  28.680  1.00  0.00     0.074 A 
ATOM     53  C   UNL A   1      43.165  31.576  29.039  1.00  0.00     0.031 C 
ATOM     54  C   UNL A   1      41.265  25.006  28.381  1.00  0.00     0.029 A 
ATOM     55  C   UNL A   1      42.605  25.347  27.911  1.00  0.00     0.049 A 
ATOM     56  H   UNL A   1      43.557  27.195  28.072  1.00  0.00     0.167 HD
ATOM     57  C   UNL A   1      45.520  31.003  28.565  1.00  0.00     0.037 A 
ATOM     58  C   UNL A   1      43.471  24.487  27.337  1.00  0.00     0.037 A 
ATOM     59  C   UNL A   1      46.576  30.111  28.170  1.00  0.00     0.049 A 
ATOM     60  C   UNL A   1      44.887  24.930  27.069  1.00  0.00     0.074 A 
ATOM     61  C   UNL A   1      47.925  30.383  28.030  1.00  0.00     0.029 A 
ATOM     62  N   UNL A   1      46.400  28.780  27.833  1.00  0.00    -0.354 N 
ATOM     63  N   UNL A   1      45.443  26.097  27.283  1.00  0.00    -0.248 NA
ATOM     64  C   UNL A   1      45.813  23.918  26.536  1.00  0.00     0.031 C 
ATOM     65  C   UNL A   1      48.557  29.231  27.550  1.00  0.00     0.029 A 
ATOM     66  C   UNL A   1      47.610  28.223  27.452  1.00  0.00     0.049 A 
ATOM     67  H   UNL A   1      45.541  28.298  27.859  1.00  0.00     0.167 HD
ATOM     68  C   UNL A   1      46.791  25.941  26.973  1.00  0.00     0.074 A 
ATOM     69  C   UNL A   1      46.968  24.567  26.559  1.00  0.00     0.031 C 
ATOM     70  C   UNL A   1      47.791  26.854  27.045  1.00  0.00     0.037 A 
BRANCH  57  71
ATOM     71  C   UNL A   1      45.862  32.425  28.897  1.00  0.00     0.057 A 
ATOM     72  C   UNL A   1      45.952  33.404  27.897  1.00  0.00     0.134 A 
ATOM     73  C   UNL A   1      46.108  32.821  30.215  1.00  0.00     0.134 A 
ATOM     74  F   UNL A   1      45.745  33.083  26.610  1.00  0.00    -0.206 F 
ATOM     75  C   UNL A   1      46.308  34.720  28.192  1.00  0.00     0.040 A 
ATOM     76  C   UNL A   1      46.437  34.142  30.527  1.00  0.00     0.040 A 
ATOM     77  F   UNL A   1      46.038  31.935  31.219  1.00  0.00    -0.206 F 
ATOM     78  C   UNL A   1      46.547  35.093  29.513  1.00  0.00     0.006 A 
ENDBRANCH  57  71
BRANCH  58  79
ATOM     79  C   UNL A   1      43.056  23.096  27.001  1.00  0.00     0.057 A 
ATOM     80  C   UNL A   1      42.769  22.710  25.686  1.00  0.00     0.134 A 
ATOM     81  C   UNL A   1      42.853  22.142  28.007  1.00  0.00     0.134 A 
ATOM     82  F   UNL A   1      42.916  23.584  24.679  1.00  0.00    -0.206 F 
ATOM     83  C   UNL A   1      42.259  21.444  25.386  1.00  0.00     0.040 A 
ATOM     84  C   UNL A   1      42.366  20.864  27.718  1.00  0.00     0.040 A 
ATOM     85  F   UNL A   1      43.106  22.444  29.288  1.00  0.00    -0.206 F 
ATOM     86  C   UNL A   1      42.055  20.517  26.405  1.00  0.00     0.006 A 
ENDBRANCH  58  79
BRANCH  70  87
ATOM     87  C   UNL A   1      49.182  26.387  26.713  1.00  0.00     0.057 A 
ATOM     88  C   UNL A   1      49.756  26.583  25.450  1.00  0.00     0.134 A 
ATOM     89  C   UNL A   1      49.967  25.744  27.681  1.00  0.00     0.134 A 
ATOM     90  F   UNL A   1      49.061  27.183  24.472  1.00  0.00    -0.206 F 
ATOM     91  C   UNL A   1      51.042  26.125  25.151  1.00  0.00     0.040 A 
ATOM     92  C   UNL A   1      51.265  25.314  27.405  1.00  0.00     0.040 A 
ATOM     93  F   UNL A   1      49.488  25.531  28.916  1.00  0.00    -0.206 F 
ATOM     94  C   UNL A   1      51.802  25.493  26.132  1.00  0.00     0.006 A 
ENDBRANCH  70  87
ENDBRANCH  44  45
ENDBRANCH  37  39
ENDBRANCH  36  37
ENDBRANCH  35  36
ENDBRANCH  34  35
ENDBRANCH  33  34
ENDBRANCH  32  33
ENDBRANCH   1  32
TORSDOF 22
ENDMDL
MODEL 2
REMARK VINA RESULT:      -8.3      5.196     12.389
REMARK SMILES O=C(OCCOCCOCCOCCOC(=O)c1ccc(-c2c3nc(c(-c4c(F)cccc4F)c4ccc([nH]4)c(-c4c(F)cccc4F)c4nc(c(-c5c(F)cccc5F)c5ccc2[nH]5)C=C4)C=C3)cc1)C1=Cc2cc(Cl)cc(-c3ccccc3)c2O[C@@H]1C(F)(F)F
REMARK SMILES IDX 10 1 9 2 8 3 7 4 6 5 5 6 4 7 3 8 2 9 1 10 72 11 73 12 88 13
REMARK SMILES IDX 74 14 87 15 75 16 86 17 76 18 79 19 77 20 78 21 89 22 90 23
REMARK SMILES IDX 91 24 92 25 80 26 81 27 85 28 82 29 84 30 83 31 11 32 12 33
REMARK SMILES IDX 13 34 14 35 15 36 16 37 17 38 18 39 19 40 71 41 20 42 70 43
REMARK SMILES IDX 21 44 22 45 23 46 64 47 24 48 69 49 63 50 65 51 25 52 68 53
REMARK SMILES IDX 62 54 61 55 26 57 52 58 35 59 51 60 36 61 39 62 50 63 66 64
REMARK SMILES IDX 37 65 38 66 49 68 67 69 40 70 27 71 28 72 33 73 29 74 30 75
REMARK SMILES IDX 32 76 34 77 31 78 53 79 54 80 59 81 55 82 56 83 58 84 60 85
REMARK SMILES IDX 57 86 41 87 42 88 47 89 43 90 44 91 46 92 48 93 45 94
REMARK H PARENT 65 56 39 67
REMARK Flexibility Score: inf
ROOT
ATOM      1  C   UNL A   1      46.673  27.467  24.643  1.00  0.00     0.188 C 
ENDROOT
BRANCH   1   2
ATOM      2  O   UNL A   1      47.551  26.909  23.668  1.00  0.00    -0.377 OA
BRANCH   2   3
ATOM      3  C   UNL A   1      48.912  26.762  24.069  1.00  0.00     0.188 C 
BRANCH   3   4
ATOM      4  C   UNL A   1      49.114  26.992  25.561  1.00  0.00     0.188 C 
BRANCH   4   5
ATOM      5  O   UNL A   1      49.367  25.793  26.259  1.00  0.00    -0.376 OA
BRANCH   5   6
ATOM      6  C   UNL A   1      50.580  25.665  26.975  1.00  0.00     0.202 C 
BRANCH   6   7
ATOM      7  C   UNL A   1      50.490  25.275  28.456  1.00  0.00     0.261 C 
BRANCH   7   8
ATOM      8  O   UNL A   1      49.939  26.296  29.316  1.00  0.00    -0.460 OA
BRANCH   8   9
ATOM      9  C   UNL A   1      48.890  25.952  30.124  1.00  0.00     0.338 C 
ATOM     10  O   UNL A   1      49.037  25.337  31.167  1.00  0.00    -0.246 OA
BRANCH   9  11
ATOM     11  C   UNL A   1      47.558  26.315  29.551  1.00  0.00     0.087 C 
ATOM     12  C   UNL A   1      46.901  25.423  28.792  1.00  0.00     0.027 C 
ATOM     13  C   UNL A   1      46.727  27.245  30.363  1.00  0.00     0.316 C 
ATOM     14  C   UNL A   1      45.638  24.923  29.347  1.00  0.00     0.019 A 
ATOM     15  O   UNL A   1      45.720  26.527  31.129  1.00  0.00    -0.475 OA
ATOM     16  C   UNL A   1      44.881  23.940  28.717  1.00  0.00     0.032 A 
ATOM     17  C   UNL A   1      45.326  25.288  30.665  1.00  0.00     0.135 A 
ATOM     18  C   UNL A   1      43.872  23.295  29.432  1.00  0.00     0.042 A 
ATOM     19  C   UNL A   1      44.570  24.405  31.472  1.00  0.00     0.026 A 
ATOM     20  Cl  UNL A   1      42.823  22.189  28.638  1.00  0.00    -0.084 Cl
ATOM     21  C   UNL A   1      43.766  23.466  30.810  1.00  0.00     0.033 A 
BRANCH  13  22
ATOM     22  C   UNL A   1      46.328  28.489  29.549  1.00  0.00     0.430 C 
ATOM     23  F   UNL A   1      47.370  29.335  29.382  1.00  0.00    -0.167 F 
ATOM     24  F   UNL A   1      45.951  28.112  28.291  1.00  0.00    -0.167 F 
ATOM     25  F   UNL A   1      45.299  29.181  30.075  1.00  0.00    -0.167 F 
ENDBRANCH  13  22
BRANCH  19  26
ATOM     26  C   UNL A   1      44.804  24.191  32.923  1.00  0.00    -0.015 A 
ATOM     27  C   UNL A   1      43.794  23.590  33.718  1.00  0.00     0.009 A 
ATOM     28  C   UNL A   1      45.978  24.561  33.569  1.00  0.00     0.009 A 
ATOM     29  C   UNL A   1      43.978  23.319  35.082  1.00  0.00     0.001 A 
ATOM     30  C   UNL A   1      46.178  24.244  34.923  1.00  0.00     0.001 A 
ATOM     31  C   UNL A   1      45.190  23.619  35.681  1.00  0.00     0.000 A 
ENDBRANCH  19  26
ENDBRANCH   9  11
ENDBRANCH   8   9
ENDBRANCH   7   8
ENDBRANCH   6   7
ENDBRANCH   5   6
ENDBRANCH   4   5
ENDBRANCH   3   4
ENDBRANCH   2   3
ENDBRANCH   1   2
BRANCH   1  32
ATOM     32  C   UNL A   1      45.539  26.538  25.137  1.00  0.00     0.188 C 
BRANCH  32  33
ATOM     33  O   UNL A   1      45.263  25.272  24.554  1.00  0.00    -0.376 OA
BRANCH  33  34
ATOM     34  C   UNL A   1      44.943  24.199  25.410  1.00  0.00     0.202 C 
BRANCH  34  35
ATOM     35  C   UNL A   1      43.520  23.644  25.227  1.00  0.00     0.261 C 
BRANCH  35  36
ATOM     36  O   UNL A   1      42.529  24.173  26.136  1.00  0.00    -0.460 OA
BRANCH  36  37
ATOM     37  C   UNL A   1      42.074  25.432  25.887  1.00  0.00     0.338 C 
ATOM     38  O   UNL A   1      41.762  25.882  24.813  1.00  0.00    -0.246 OA
BRANCH  37  39
ATOM     39  C   UNL A   1      41.892  26.164  27.188  1.00  0.00     0.060 A 
ATOM     40  C   UNL A   1      40.662  26.040  27.852  1.00  0.00     0.016 A 
ATOM     41  C   UNL A   1      42.894  26.951  27.769  1.00  0.00     0.016 A 
ATOM     42  C   UNL A   1      40.409  26.741  29.045  1.00  0.00     0.010 A 
ATOM     43  C   UNL A   1      42.644  27.644  28.971  1.00  0.00     0.010 A 
ATOM     44  C   UNL A   1      41.381  27.584  29.599  1.00  0.00    -0.014 A 
BRANCH  44  45
ATOM     45  C   UNL A   1      41.017  28.567  30.670  1.00  0.00     0.031 A 
ATOM     46  C   UNL A   1      41.711  28.439  32.005  1.00  0.00     0.074 A 
ATOM     47  C   UNL A   1      40.133  29.574  30.510  1.00  0.00     0.049 A 
ATOM     48  N   UNL A   1      41.621  29.202  33.066  1.00  0.00    -0.248 NA
ATOM     49  C   UNL A   1      42.645  27.312  32.153  1.00  0.00     0.031 C 
ATOM     50  C   UNL A   1      39.422  29.895  29.283  1.00  0.00     0.029 A 
ATOM     51  N   UNL A   1      39.661  30.510  31.406  1.00  0.00    -0.354 N 
ATOM     52  C   UNL A   1      42.533  28.685  33.975  1.00  0.00     0.074 A 
ATOM     53  C   UNL A   1      43.078  27.480  33.391  1.00  0.00     0.031 C 
ATOM     54  C   UNL A   1      38.536  30.879  29.515  1.00  0.00     0.029 A 
ATOM     55  C   UNL A   1      38.657  31.308  30.905  1.00  0.00     0.049 A 
ATOM     56  H   UNL A   1      40.012  30.601  32.322  1.00  0.00     0.167 HD
ATOM     57  C   UNL A   1      42.936  29.194  35.162  1.00  0.00     0.037 A 
ATOM     58  C   UNL A   1      37.929  32.286  31.484  1.00  0.00     0.037 A 
ATOM     59  C   UNL A   1      42.381  30.367  35.781  1.00  0.00     0.049 A 
ATOM     60  C   UNL A   1      38.285  32.750  32.873  1.00  0.00     0.074 A 
ATOM     61  C   UNL A   1      42.732  30.955  36.984  1.00  0.00     0.029 A 
ATOM     62  N   UNL A   1      41.345  31.121  35.255  1.00  0.00    -0.354 N 
ATOM     63  N   UNL A   1      39.222  32.311  33.678  1.00  0.00    -0.248 NA
ATOM     64  C   UNL A   1      37.523  33.888  33.412  1.00  0.00     0.031 C 
ATOM     65  C   UNL A   1      41.867  32.030  37.215  1.00  0.00     0.029 A 
ATOM     66  C   UNL A   1      41.019  32.150  36.125  1.00  0.00     0.049 A 
ATOM     67  H   UNL A   1      40.904  30.952  34.391  1.00  0.00     0.167 HD
ATOM     68  C   UNL A   1      39.203  33.155  34.783  1.00  0.00     0.074 A 
ATOM     69  C   UNL A   1      38.165  34.134  34.545  1.00  0.00     0.031 C 
ATOM     70  C   UNL A   1      39.990  33.129  35.887  1.00  0.00     0.037 A 
BRANCH  57  71
ATOM     71  C   UNL A   1      44.056  28.475  35.854  1.00  0.00     0.057 A 
ATOM     72  C   UNL A   1      43.803  27.430  36.755  1.00  0.00     0.134 A 
ATOM     73  C   UNL A   1      45.390  28.826  35.629  1.00  0.00     0.134 A 
ATOM     74  F   UNL A   1      42.542  27.058  37.028  1.00  0.00    -0.206 F 
ATOM     75  C   UNL A   1      44.836  26.782  37.432  1.00  0.00     0.040 A 
ATOM     76  C   UNL A   1      46.435  28.165  36.279  1.00  0.00     0.040 A 
ATOM     77  F   UNL A   1      45.702  29.816  34.780  1.00  0.00    -0.206 F 
ATOM     78  C   UNL A   1      46.158  27.147  37.190  1.00  0.00     0.006 A 
ENDBRANCH  57  71
BRANCH  58  79
ATOM     79  C   UNL A   1      36.807  32.937  30.752  1.00  0.00     0.057 A 
ATOM     80  C   UNL A   1      35.474  32.559  30.960  1.00  0.00     0.134 A 
ATOM     81  C   UNL A   1      37.052  33.896  29.761  1.00  0.00     0.134 A 
ATOM     82  F   UNL A   1      35.173  31.625  31.874  1.00  0.00    -0.206 F 
ATOM     83  C   UNL A   1      34.433  33.078  30.185  1.00  0.00     0.040 A 
ATOM     84  C   UNL A   1      36.017  34.442  28.996  1.00  0.00     0.040 A 
ATOM     85  F   UNL A   1      38.304  34.304  29.508  1.00  0.00    -0.206 F 
ATOM     86  C   UNL A   1      34.705  34.022  29.197  1.00  0.00     0.006 A 
ENDBRANCH  58  79
BRANCH  70  87
ATOM     87  C   UNL A   1      39.795  34.219  36.905  1.00  0.00     0.057 A 
ATOM     88  C   UNL A   1      39.008  34.040  38.051  1.00  0.00     0.134 A 
ATOM     89  C   UNL A   1      40.420  35.464  36.744  1.00  0.00     0.134 A 
ATOM     90  F   UNL A   1      38.373  32.879  38.267  1.00  0.00    -0.206 F 
ATOM     91  C   UNL A   1      38.820  35.070  38.977  1.00  0.00     0.040 A 
ATOM     92  C   UNL A   1      40.267  36.487  37.680  1.00  0.00     0.040 A 
ATOM     93  F   UNL A   1      41.197  35.704  35.678  1.00  0.00    -0.206 F 
ATOM     94  C   UNL A   1      39.456  36.295  38.796  1.00  0.00     0.006 A 
ENDBRANCH  70  87
ENDBRANCH  44  45
ENDBRANCH  37  39
ENDBRANCH  36  37
ENDBRANCH  35  36
ENDBRANCH  34  35
ENDBRANCH  33  34
ENDBRANCH  32  33
ENDBRANCH   1  32
TORSDOF 22
ENDMDL
MODEL 3
REMARK VINA RESULT:      -7.9      3.316      5.072
REMARK SMILES O=C(OCCOCCOCCOCCOC(=O)c1ccc(-c2c3nc(c(-c4c(F)cccc4F)c4ccc([nH]4)c(-c4c(F)cccc4F)c4nc(c(-c5c(F)cccc5F)c5ccc2[nH]5)C=C4)C=C3)cc1)C1=Cc2cc(Cl)cc(-c3ccccc3)c2O[C@@H]1C(F)(F)F
REMARK SMILES IDX 10 1 9 2 8 3 7 4 6 5 5 6 4 7 3 8 2 9 1 10 72 11 73 12 88 13
REMARK SMILES IDX 74 14 87 15 75 16 86 17 76 18 79 19 77 20 78 21 89 22 90 23
REMARK SMILES IDX 91 24 92 25 80 26 81 27 85 28 82 29 84 30 83 31 11 32 12 33
REMARK SMILES IDX 13 34 14 35 15 36 16 37 17 38 18 39 19 40 71 41 20 42 70 43
REMARK SMILES IDX 21 44 22 45 23 46 64 47 24 48 69 49 63 50 65 51 25 52 68 53
REMARK SMILES IDX 62 54 61 55 26 57 52 58 35 59 51 60 36 61 39 62 50 63 66 64
REMARK SMILES IDX 37 65 38 66 49 68 67 69 40 70 27 71 28 72 33 73 29 74 30 75
REMARK SMILES IDX 32 76 34 77 31 78 53 79 54 80 59 81 55 82 56 83 58 84 60 85
REMARK SMILES IDX 57 86 41 87 42 88 47 89 43 90 44 91 46 92 48 93 45 94
REMARK H PARENT 65 56 39 67
REMARK Flexibility Score: inf
ROOT
ATOM      1  C   UNL A   1      36.174  34.498  34.091  1.00  0.00     0.188 C 
ENDROOT
BRANCH   1   2
ATOM      2  O   UNL A   1      35.927  33.158  34.508  1.00  0.00    -0.377 OA
BRANCH   2   3
ATOM      3  C   UNL A   1      37.072  32.312  34.594  1.00  0.00     0.188 C 
BRANCH   3   4
ATOM      4  C   UNL A   1      38.344  32.993  34.107  1.00  0.00     0.188 C 
BRANCH   4   5
ATOM      5  O   UNL A   1      38.936  32.311  33.025  1.00  0.00    -0.376 OA
BRANCH   5   6
ATOM      6  C   UNL A   1      39.195  30.926  33.152  1.00  0.00     0.202 C 
BRANCH   6   7
ATOM      7  C   UNL A   1      40.415  30.507  33.983  1.00  0.00     0.261 C 
BRANCH   7   8
ATOM      8  O   UNL A   1      40.335  29.178  34.545  1.00  0.00    -0.460 OA
BRANCH   8   9
ATOM      9  C   UNL A   1      40.851  28.144  33.814  1.00  0.00     0.338 C 
ATOM     10  O   UNL A   1      40.484  27.894  32.677  1.00  0.00    -0.246 OA
BRANCH   9  11
ATOM     11  C   UNL A   1      41.822  27.305  34.579  1.00  0.00     0.087 C 
ATOM     12  C   UNL A   1      43.069  27.144  34.108  1.00  0.00     0.027 C 
ATOM     13  C   UNL A   1      41.658  27.299  36.059  1.00  0.00     0.316 C 
ATOM     14  C   UNL A   1      44.140  27.723  34.928  1.00  0.00     0.019 A 
ATOM     15  O   UNL A   1      42.597  28.206  36.701  1.00  0.00    -0.475 OA
ATOM     16  C   UNL A   1      45.475  27.705  34.537  1.00  0.00     0.032 A 
ATOM     17  C   UNL A   1      43.755  28.518  36.017  1.00  0.00     0.135 A 
ATOM     18  C   UNL A   1      46.388  28.529  35.195  1.00  0.00     0.042 A 
ATOM     19  C   UNL A   1      44.587  29.587  36.427  1.00  0.00     0.026 A 
ATOM     20  Cl  UNL A   1      48.065  28.417  34.839  1.00  0.00    -0.084 Cl
ATOM     21  C   UNL A   1      45.941  29.513  36.074  1.00  0.00     0.033 A 
BRANCH  13  22
ATOM     22  C   UNL A   1      41.491  25.866  36.593  1.00  0.00     0.430 C 
ATOM     23  F   UNL A   1      42.602  25.437  37.234  1.00  0.00    -0.167 F 
ATOM     24  F   UNL A   1      40.490  25.835  37.522  1.00  0.00    -0.167 F 
ATOM     25  F   UNL A   1      41.172  24.962  35.645  1.00  0.00    -0.167 F 
ENDBRANCH  13  22
BRANCH  19  26
ATOM     26  C   UNL A   1      44.085  30.900  36.908  1.00  0.00    -0.015 A 
ATOM     27  C   UNL A   1      45.003  31.944  37.193  1.00  0.00     0.009 A 
ATOM     28  C   UNL A   1      42.737  31.174  37.111  1.00  0.00     0.009 A 
ATOM     29  C   UNL A   1      44.584  33.218  37.602  1.00  0.00     0.001 A 
ATOM     30  C   UNL A   1      42.318  32.465  37.473  1.00  0.00     0.001 A 
ATOM     31  C   UNL A   1      43.230  33.489  37.713  1.00  0.00     0.000 A 
ENDBRANCH  19  26
ENDBRANCH   9  11
ENDBRANCH   8   9
ENDBRANCH   7   8
ENDBRANCH   6   7
ENDBRANCH   5   6
ENDBRANCH   4   5
ENDBRANCH   3   4
ENDBRANCH   2   3
ENDBRANCH   1   2
BRANCH   1  32
ATOM     32  C   UNL A   1      35.456  34.942  32.795  1.00  0.00     0.188 C 
BRANCH  32  33
ATOM     33  O   UNL A   1      34.412  34.193  32.190  1.00  0.00    -0.376 OA
BRANCH  33  34
ATOM     34  C   UNL A   1      34.223  34.315  30.798  1.00  0.00     0.202 C 
BRANCH  34  35
ATOM     35  C   UNL A   1      35.099  33.372  29.953  1.00  0.00     0.261 C 
BRANCH  35  36
ATOM     36  O   UNL A   1      34.712  31.980  29.981  1.00  0.00    -0.460 OA
BRANCH  36  37
ATOM     37  C   UNL A   1      34.817  31.288  28.813  1.00  0.00     0.338 C 
ATOM     38  O   UNL A   1      34.060  31.344  27.876  1.00  0.00    -0.246 OA
BRANCH  37  39
ATOM     39  C   UNL A   1      36.107  30.517  28.804  1.00  0.00     0.060 A 
ATOM     40  C   UNL A   1      36.510  29.884  29.990  1.00  0.00     0.016 A 
ATOM     41  C   UNL A   1      36.916  30.393  27.667  1.00  0.00     0.016 A 
ATOM     42  C   UNL A   1      37.733  29.192  30.063  1.00  0.00     0.010 A 
ATOM     43  C   UNL A   1      38.135  29.689  27.738  1.00  0.00     0.010 A 
ATOM     44  C   UNL A   1      38.581  29.119  28.950  1.00  0.00    -0.014 A 
BRANCH  44  45
ATOM     45  C   UNL A   1      40.003  28.673  29.104  1.00  0.00     0.031 A 
ATOM     46  C   UNL A   1      40.992  29.662  29.672  1.00  0.00     0.074 A 
ATOM     47  C   UNL A   1      40.450  27.437  28.794  1.00  0.00     0.049 A 
ATOM     48  N   UNL A   1      42.258  29.499  29.963  1.00  0.00    -0.248 NA
ATOM     49  C   UNL A   1      40.476  31.008  29.968  1.00  0.00     0.031 C 
ATOM     50  C   UNL A   1      39.637  26.337  28.304  1.00  0.00     0.029 A 
ATOM     51  N   UNL A   1      41.722  26.904  28.829  1.00  0.00    -0.354 N 
ATOM     52  C   UNL A   1      42.666  30.695  30.536  1.00  0.00     0.074 A 
ATOM     53  C   UNL A   1      41.551  31.612  30.444  1.00  0.00     0.031 C 
ATOM     54  C   UNL A   1      40.426  25.295  27.987  1.00  0.00     0.029 A 
ATOM     55  C   UNL A   1      41.809  25.631  28.311  1.00  0.00     0.049 A 
ATOM     56  H   UNL A   1      42.498  27.390  29.191  1.00  0.00     0.167 HD
ATOM     57  C   UNL A   1      43.837  30.994  31.145  1.00  0.00     0.037 A 
ATOM     58  C   UNL A   1      42.870  24.817  28.135  1.00  0.00     0.037 A 
ATOM     59  C   UNL A   1      44.972  30.114  31.214  1.00  0.00     0.049 A 
ATOM     60  C   UNL A   1      44.214  25.222  28.684  1.00  0.00     0.074 A 
ATOM     61  C   UNL A   1      46.199  30.337  31.813  1.00  0.00     0.029 A 
ATOM     62  N   UNL A   1      45.027  28.852  30.648  1.00  0.00    -0.354 N 
ATOM     63  N   UNL A   1      44.554  26.320  29.314  1.00  0.00    -0.248 NA
ATOM     64  C   UNL A   1      45.310  24.248  28.553  1.00  0.00     0.031 C 
ATOM     65  C   UNL A   1      47.018  29.231  31.558  1.00  0.00     0.029 A 
ATOM     66  C   UNL A   1      46.279  28.294  30.854  1.00  0.00     0.049 A 
ATOM     67  H   UNL A   1      44.287  28.414  30.168  1.00  0.00     0.167 HD
ATOM     68  C   UNL A   1      45.877  26.142  29.707  1.00  0.00     0.074 A 
ATOM     69  C   UNL A   1      46.276  24.830  29.247  1.00  0.00     0.031 C 
ATOM     70  C   UNL A   1      46.678  26.986  30.402  1.00  0.00     0.037 A 
BRANCH  57  71
ATOM     71  C   UNL A   1      43.926  32.339  31.804  1.00  0.00     0.057 A 
ATOM     72  C   UNL A   1      43.795  32.479  33.193  1.00  0.00     0.134 A 
ATOM     73  C   UNL A   1      44.135  33.500  31.053  1.00  0.00     0.134 A 
ATOM     74  F   UNL A   1      43.574  31.404  33.967  1.00  0.00    -0.206 F 
ATOM     75  C   UNL A   1      43.836  33.730  33.809  1.00  0.00     0.040 A 
ATOM     76  C   UNL A   1      44.207  34.755  31.661  1.00  0.00     0.040 A 
ATOM     77  F   UNL A   1      44.268  33.436  29.720  1.00  0.00    -0.206 F 
ATOM     78  C   UNL A   1      44.048  34.872  33.041  1.00  0.00     0.006 A 
ENDBRANCH  57  71
BRANCH  58  79
ATOM     79  C   UNL A   1      42.720  23.507  27.442  1.00  0.00     0.057 A 
ATOM     80  C   UNL A   1      42.883  23.383  26.056  1.00  0.00     0.134 A 
ATOM     81  C   UNL A   1      42.322  22.361  28.143  1.00  0.00     0.134 A 
ATOM     82  F   UNL A   1      43.235  24.449  25.321  1.00  0.00    -0.206 F 
ATOM     83  C   UNL A   1      42.619  22.185  25.388  1.00  0.00     0.040 A 
ATOM     84  C   UNL A   1      42.079  21.149  27.490  1.00  0.00     0.040 A 
ATOM     85  F   UNL A   1      42.146  22.406  29.471  1.00  0.00    -0.206 F 
ATOM     86  C   UNL A   1      42.214  21.062  26.107  1.00  0.00     0.006 A 
ENDBRANCH  58  79
BRANCH  70  87
ATOM     87  C   UNL A   1      48.058  26.501  30.754  1.00  0.00     0.057 A 
ATOM     88  C   UNL A   1      48.336  25.844  31.960  1.00  0.00     0.134 A 
ATOM     89  C   UNL A   1      49.124  26.679  29.860  1.00  0.00     0.134 A 
ATOM     90  F   UNL A   1      47.367  25.647  32.866  1.00  0.00    -0.206 F 
ATOM     91  C   UNL A   1      49.627  25.418  32.281  1.00  0.00     0.040 A 
ATOM     92  C   UNL A   1      50.411  26.226  30.155  1.00  0.00     0.040 A 
ATOM     93  F   UNL A   1      48.931  27.289  28.682  1.00  0.00    -0.206 F 
ATOM     94  C   UNL A   1      50.668  25.604  31.374  1.00  0.00     0.006 A 
ENDBRANCH  70  87
ENDBRANCH  44  45
ENDBRANCH  37  39
ENDBRANCH  36  37
ENDBRANCH  35  36
ENDBRANCH  34  35
ENDBRANCH  33  34
ENDBRANCH  32  33
ENDBRANCH   1  32
TORSDOF 22
ENDMDL
