MODEL 1
REMARK VINA RESULT:      -9.9      0.000      0.000
REMARK SMILES O=C(OCCOCCOCCOCCOC(=O)[C@H]1CC[C@@H]([NH+]2CCCC2)CC1)c1ccc(-c2c3nc(c(-c4c(F)cccc4F)c4ccc([nH]4)c(-c4c(F)cccc4F)c4nc(c(-c5c(F)cccc5F)c5ccc2[nH]5)C=C4)C=C3)cc1
REMARK SMILES IDX 8 1 7 2 6 3 5 4 4 5 3 6 2 7 1 8 29 9 30 10 82 11 31 12 81 13
REMARK SMILES IDX 32 14 33 15 34 16 75 17 35 18 80 19 74 20 76 21 36 22 79 23
REMARK SMILES IDX 73 24 72 25 37 27 63 28 46 29 62 30 47 31 50 32 61 33 77 34
REMARK SMILES IDX 48 35 49 36 60 38 78 39 51 40 38 41 39 42 44 43 40 44 41 45
REMARK SMILES IDX 43 46 45 47 42 48 64 49 65 50 70 51 66 52 67 53 69 54 71 55
REMARK SMILES IDX 68 56 52 57 53 58 58 59 54 60 55 61 57 62 59 63 56 64 9 65
REMARK SMILES IDX 10 66 11 67 12 68 13 69 14 70 15 71 16 72 17 73 18 74 19 75
REMARK SMILES IDX 28 76 20 77 27 78 21 79 22 80 23 81 26 82 24 84 25 85
REMARK H PARENT 76 26 50 37 22 83
REMARK Flexibility Score: inf
ROOT
ATOM      1  C   UNL A   1      40.789  20.670  26.753  1.00  0.00     0.188 C 
ENDROOT
BRANCH   1   2
ATOM      2  C   UNL A   1      41.410  19.393  26.221  1.00  0.00     0.188 C 
BRANCH   2   3
ATOM      3  O   UNL A   1      42.336  19.766  25.213  1.00  0.00    -0.376 OA
BRANCH   3   4
ATOM      4  C   UNL A   1      43.600  20.234  25.658  1.00  0.00     0.202 C 
BRANCH   4   5
ATOM      5  C   UNL A   1      44.044  21.513  24.967  1.00  0.00     0.261 C 
BRANCH   5   6
ATOM      6  O   UNL A   1      43.258  22.671  25.298  1.00  0.00    -0.460 OA
BRANCH   6   7
ATOM      7  C   UNL A   1      43.588  23.981  25.358  1.00  0.00     0.338 C 
ATOM      8  O   UNL A   1      44.432  24.399  24.560  1.00  0.00    -0.246 OA
BRANCH   7   9
ATOM      9  C   UNL A   1      43.014  24.980  26.310  1.00  0.00     0.060 A 
ATOM     10  C   UNL A   1      43.282  26.347  26.317  1.00  0.00     0.016 A 
ATOM     11  C   UNL A   1      42.036  24.509  27.205  1.00  0.00     0.016 A 
ATOM     12  C   UNL A   1      42.639  27.224  27.169  1.00  0.00     0.010 A 
ATOM     13  C   UNL A   1      41.388  25.378  28.087  1.00  0.00     0.010 A 
ATOM     14  C   UNL A   1      41.714  26.738  28.077  1.00  0.00    -0.014 A 
BRANCH  14  15
ATOM     15  C   UNL A   1      41.328  27.651  29.156  1.00  0.00     0.031 A 
ATOM     16  C   UNL A   1      42.217  27.684  30.358  1.00  0.00     0.074 A 
ATOM     17  C   UNL A   1      40.346  28.543  28.963  1.00  0.00     0.049 A 
ATOM     18  N   UNL A   1      42.060  28.306  31.489  1.00  0.00    -0.248 NA
ATOM     19  C   UNL A   1      43.473  26.915  30.264  1.00  0.00     0.031 C 
ATOM     20  C   UNL A   1      39.581  28.703  27.723  1.00  0.00     0.029 A 
ATOM     21  N   UNL A   1      39.842  29.503  29.795  1.00  0.00    -0.354 N 
ATOM     22  C   UNL A   1      43.161  27.954  32.260  1.00  0.00     0.074 A 
ATOM     23  C   UNL A   1      43.987  27.080  31.457  1.00  0.00     0.031 C 
ATOM     24  C   UNL A   1      38.695  29.699  27.882  1.00  0.00     0.029 A 
ATOM     25  C   UNL A   1      38.774  30.178  29.256  1.00  0.00     0.049 A 
ATOM     26  H   UNL A   1      40.208  29.692  30.689  1.00  0.00     0.167 HD
ATOM     27  C   UNL A   1      43.426  28.318  33.529  1.00  0.00     0.037 A 
ATOM     28  C   UNL A   1      37.923  31.032  29.851  1.00  0.00     0.037 A 
ATOM     29  C   UNL A   1      42.562  29.196  34.270  1.00  0.00     0.049 A 
ATOM     30  C   UNL A   1      38.163  31.337  31.304  1.00  0.00     0.074 A 
ATOM     31  C   UNL A   1      42.644  29.596  35.587  1.00  0.00     0.029 A 
ATOM     32  N   UNL A   1      41.436  29.808  33.726  1.00  0.00    -0.354 N 
ATOM     33  N   UNL A   1      39.136  30.920  32.084  1.00  0.00    -0.248 NA
ATOM     34  C   UNL A   1      37.187  32.204  31.970  1.00  0.00     0.031 C 
ATOM     35  C   UNL A   1      41.537  30.410  35.854  1.00  0.00     0.029 A 
ATOM     36  C   UNL A   1      40.798  30.566  34.687  1.00  0.00     0.049 A 
ATOM     37  H   UNL A   1      41.138  29.714  32.792  1.00  0.00     0.167 HD
ATOM     38  C   UNL A   1      38.901  31.481  33.328  1.00  0.00     0.074 A 
ATOM     39  C   UNL A   1      37.697  32.283  33.192  1.00  0.00     0.031 C 
ATOM     40  C   UNL A   1      39.602  31.349  34.482  1.00  0.00     0.037 A 
BRANCH  27  41
ATOM     41  C   UNL A   1      44.606  27.665  34.187  1.00  0.00     0.057 A 
ATOM     42  C   UNL A   1      45.906  28.182  34.098  1.00  0.00     0.134 A 
ATOM     43  C   UNL A   1      44.448  26.432  34.835  1.00  0.00     0.134 A 
ATOM     44  F   UNL A   1      46.136  29.336  33.454  1.00  0.00    -0.206 F 
ATOM     45  C   UNL A   1      47.008  27.476  34.589  1.00  0.00     0.040 A 
ATOM     46  C   UNL A   1      45.538  25.732  35.354  1.00  0.00     0.040 A 
ATOM     47  F   UNL A   1      43.234  25.871  34.943  1.00  0.00    -0.206 F 
ATOM     48  C   UNL A   1      46.825  26.246  35.219  1.00  0.00     0.006 A 
ENDBRANCH  27  41
BRANCH  28  49
ATOM     49  C   UNL A   1      36.748  31.553  29.107  1.00  0.00     0.057 A 
ATOM     50  C   UNL A   1      36.689  32.874  28.655  1.00  0.00     0.134 A 
ATOM     51  C   UNL A   1      35.654  30.726  28.811  1.00  0.00     0.134 A 
ATOM     52  F   UNL A   1      37.692  33.724  28.917  1.00  0.00    -0.206 F 
ATOM     53  C   UNL A   1      35.585  33.356  27.943  1.00  0.00     0.040 A 
ATOM     54  C   UNL A   1      34.559  31.185  28.077  1.00  0.00     0.040 A 
ATOM     55  F   UNL A   1      35.643  29.446  29.213  1.00  0.00    -0.206 F 
ATOM     56  C   UNL A   1      34.519  32.507  27.646  1.00  0.00     0.006 A 
ENDBRANCH  28  49
BRANCH  40  57
ATOM     57  C   UNL A   1      39.098  32.117  35.664  1.00  0.00     0.057 A 
ATOM     58  C   UNL A   1      38.309  31.515  36.650  1.00  0.00     0.134 A 
ATOM     59  C   UNL A   1      39.476  33.451  35.849  1.00  0.00     0.134 A 
ATOM     60  F   UNL A   1      37.906  30.243  36.519  1.00  0.00    -0.206 F 
ATOM     61  C   UNL A   1      37.903  32.222  37.780  1.00  0.00     0.040 A 
ATOM     62  C   UNL A   1      39.101  34.160  36.988  1.00  0.00     0.040 A 
ATOM     63  F   UNL A   1      40.242  34.075  34.940  1.00  0.00    -0.206 F 
ATOM     64  C   UNL A   1      38.309  33.545  37.956  1.00  0.00     0.006 A 
ENDBRANCH  40  57
ENDBRANCH  14  15
ENDBRANCH   7   9
ENDBRANCH   6   7
ENDBRANCH   5   6
ENDBRANCH   4   5
ENDBRANCH   3   4
ENDBRANCH   2   3
ENDBRANCH   1   2
BRANCH   1  65
ATOM     65  O   UNL A   1      39.522  20.982  26.190  1.00  0.00    -0.377 OA
BRANCH  65  66
ATOM     66  C   UNL A   1      39.145  22.348  26.082  1.00  0.00     0.188 C 
BRANCH  66  67
ATOM     67  C   UNL A   1      37.822  22.756  25.441  1.00  0.00     0.188 C 
BRANCH  67  68
ATOM     68  O   UNL A   1      36.889  21.771  25.072  1.00  0.00    -0.376 OA
BRANCH  68  69
ATOM     69  C   UNL A   1      35.518  22.107  24.919  1.00  0.00     0.202 C 
BRANCH  69  70
ATOM     70  C   UNL A   1      34.982  23.058  23.826  1.00  0.00     0.261 C 
BRANCH  70  71
ATOM     71  O   UNL A   1      33.881  23.936  24.171  1.00  0.00    -0.463 OA
BRANCH  71  72
ATOM     72  C   UNL A   1      33.619  24.965  23.322  1.00  0.00     0.309 C 
ATOM     73  O   UNL A   1      33.658  24.858  22.098  1.00  0.00    -0.252 OA
BRANCH  72  74
ATOM     74  C   UNL A   1      33.336  26.327  23.995  1.00  0.00     0.099 C 
ATOM     75  C   UNL A   1      33.572  27.628  23.193  1.00  0.00     0.021 C 
ATOM     76  C   UNL A   1      31.964  26.202  24.653  1.00  0.00     0.021 C 
ATOM     77  C   UNL A   1      32.797  28.872  23.612  1.00  0.00     0.066 C 
ATOM     78  C   UNL A   1      31.391  27.524  25.130  1.00  0.00     0.066 C 
ATOM     79  C   UNL A   1      31.351  28.606  24.043  1.00  0.00     0.184 C 
BRANCH  79  80
ATOM     80  N   UNL A   1      30.395  28.464  22.936  1.00  0.00    -0.333 N 
ATOM     81  C   UNL A   1      30.281  29.637  22.070  1.00  0.00     0.262 C 
ATOM     82  C   UNL A   1      29.036  27.978  23.156  1.00  0.00     0.262 C 
ATOM     83  H   UNL A   1      30.889  27.681  22.506  1.00  0.00     0.348 HD
ATOM     84  C   UNL A   1      28.968  30.287  22.464  1.00  0.00     0.067 C 
ATOM     85  C   UNL A   1      28.078  29.114  22.822  1.00  0.00     0.067 C 
ENDBRANCH  79  80
ENDBRANCH  72  74
ENDBRANCH  71  72
ENDBRANCH  70  71
ENDBRANCH  69  70
ENDBRANCH  68  69
ENDBRANCH  67  68
ENDBRANCH  66  67
ENDBRANCH  65  66
ENDBRANCH   1  65
TORSDOF 21
ENDMDL
MODEL 2
REMARK VINA RESULT:      -9.9      3.481      8.828
REMARK SMILES O=C(OCCOCCOCCOCCOC(=O)[C@H]1CC[C@@H]([NH+]2CCCC2)CC1)c1ccc(-c2c3nc(c(-c4c(F)cccc4F)c4ccc([nH]4)c(-c4c(F)cccc4F)c4nc(c(-c5c(F)cccc5F)c5ccc2[nH]5)C=C4)C=C3)cc1
REMARK SMILES IDX 8 1 7 2 6 3 5 4 4 5 3 6 2 7 1 8 29 9 30 10 82 11 31 12 81 13
REMARK SMILES IDX 32 14 33 15 34 16 75 17 35 18 80 19 74 20 76 21 36 22 79 23
REMARK SMILES IDX 73 24 72 25 37 27 63 28 46 29 62 30 47 31 50 32 61 33 77 34
REMARK SMILES IDX 48 35 49 36 60 38 78 39 51 40 38 41 39 42 44 43 40 44 41 45
REMARK SMILES IDX 43 46 45 47 42 48 64 49 65 50 70 51 66 52 67 53 69 54 71 55
REMARK SMILES IDX 68 56 52 57 53 58 58 59 54 60 55 61 57 62 59 63 56 64 9 65
REMARK SMILES IDX 10 66 11 67 12 68 13 69 14 70 15 71 16 72 17 73 18 74 19 75
REMARK SMILES IDX 28 76 20 77 27 78 21 79 22 80 23 81 26 82 24 84 25 85
REMARK H PARENT 76 26 50 37 22 83
REMARK Flexibility Score: inf
ROOT
ATOM      1  C   UNL A   1      33.850  29.370  26.971  1.00  0.00     0.188 C 
ENDROOT
BRANCH   1   2
ATOM      2  C   UNL A   1      33.334  30.743  27.358  1.00  0.00     0.188 C 
BRANCH   2   3
ATOM      3  O   UNL A   1      31.949  30.771  27.051  1.00  0.00    -0.376 OA
BRANCH   3   4
ATOM      4  C   UNL A   1      31.385  32.048  26.791  1.00  0.00     0.202 C 
BRANCH   4   5
ATOM      5  C   UNL A   1      32.403  33.175  26.841  1.00  0.00     0.261 C 
BRANCH   5   6
ATOM      6  O   UNL A   1      32.210  34.103  27.923  1.00  0.00    -0.460 OA
BRANCH   6   7
ATOM      7  C   UNL A   1      33.059  34.543  28.879  1.00  0.00     0.338 C 
ATOM      8  O   UNL A   1      32.775  35.593  29.461  1.00  0.00    -0.246 OA
BRANCH   7   9
ATOM      9  C   UNL A   1      34.321  33.862  29.301  1.00  0.00     0.060 A 
ATOM     10  C   UNL A   1      34.413  32.798  30.194  1.00  0.00     0.016 A 
ATOM     11  C   UNL A   1      35.503  34.267  28.656  1.00  0.00     0.016 A 
ATOM     12  C   UNL A   1      35.606  32.157  30.465  1.00  0.00     0.010 A 
ATOM     13  C   UNL A   1      36.724  33.644  28.930  1.00  0.00     0.010 A 
ATOM     14  C   UNL A   1      36.769  32.598  29.857  1.00  0.00    -0.014 A 
BRANCH  14  15
ATOM     15  C   UNL A   1      38.024  32.107  30.432  1.00  0.00     0.031 A 
ATOM     16  C   UNL A   1      38.660  30.936  29.755  1.00  0.00     0.074 A 
ATOM     17  C   UNL A   1      38.651  32.815  31.384  1.00  0.00     0.049 A 
ATOM     18  N   UNL A   1      39.698  30.236  30.107  1.00  0.00    -0.248 NA
ATOM     19  C   UNL A   1      38.043  30.498  28.487  1.00  0.00     0.031 C 
ATOM     20  C   UNL A   1      38.182  34.089  31.936  1.00  0.00     0.029 A 
ATOM     21  N   UNL A   1      39.829  32.580  32.034  1.00  0.00    -0.354 N 
ATOM     22  C   UNL A   1      39.819  29.243  29.142  1.00  0.00     0.074 A 
ATOM     23  C   UNL A   1      38.759  29.446  28.180  1.00  0.00     0.031 C 
ATOM     24  C   UNL A   1      39.064  34.518  32.853  1.00  0.00     0.029 A 
ATOM     25  C   UNL A   1      40.101  33.507  33.009  1.00  0.00     0.049 A 
ATOM     26  H   UNL A   1      40.423  31.823  31.824  1.00  0.00     0.167 HD
ATOM     27  C   UNL A   1      40.725  28.247  29.097  1.00  0.00     0.037 A 
ATOM     28  C   UNL A   1      41.051  33.483  33.961  1.00  0.00     0.037 A 
ATOM     29  C   UNL A   1      41.758  28.106  30.087  1.00  0.00     0.049 A 
ATOM     30  C   UNL A   1      41.982  32.301  33.970  1.00  0.00     0.074 A 
ATOM     31  C   UNL A   1      42.701  27.110  30.230  1.00  0.00     0.029 A 
ATOM     32  N   UNL A   1      41.967  29.019  31.117  1.00  0.00    -0.354 N 
ATOM     33  N   UNL A   1      42.037  31.290  33.132  1.00  0.00    -0.248 NA
ATOM     34  C   UNL A   1      42.963  32.238  35.057  1.00  0.00     0.031 C 
ATOM     35  C   UNL A   1      43.447  27.394  31.379  1.00  0.00     0.029 A 
ATOM     36  C   UNL A   1      43.009  28.598  31.918  1.00  0.00     0.049 A 
ATOM     37  H   UNL A   1      41.447  29.844  31.255  1.00  0.00     0.167 HD
ATOM     38  C   UNL A   1      43.064  30.474  33.580  1.00  0.00     0.074 A 
ATOM     39  C   UNL A   1      43.615  31.122  34.758  1.00  0.00     0.031 C 
ATOM     40  C   UNL A   1      43.514  29.297  33.076  1.00  0.00     0.037 A 
BRANCH  27  41
ATOM     41  C   UNL A   1      40.534  27.208  28.031  1.00  0.00     0.057 A 
ATOM     42  C   UNL A   1      39.759  26.056  28.226  1.00  0.00     0.134 A 
ATOM     43  C   UNL A   1      41.231  27.317  26.821  1.00  0.00     0.134 A 
ATOM     44  F   UNL A   1      39.100  25.867  29.379  1.00  0.00    -0.206 F 
ATOM     45  C   UNL A   1      39.721  25.033  27.275  1.00  0.00     0.040 A 
ATOM     46  C   UNL A   1      41.178  26.314  25.852  1.00  0.00     0.040 A 
ATOM     47  F   UNL A   1      42.005  28.384  26.574  1.00  0.00    -0.206 F 
ATOM     48  C   UNL A   1      40.433  25.160  26.083  1.00  0.00     0.006 A 
ENDBRANCH  27  41
BRANCH  28  49
ATOM     49  C   UNL A   1      41.086  34.538  35.006  1.00  0.00     0.057 A 
ATOM     50  C   UNL A   1      40.286  34.469  36.150  1.00  0.00     0.134 A 
ATOM     51  C   UNL A   1      41.944  35.642  34.891  1.00  0.00     0.134 A 
ATOM     52  F   UNL A   1      39.430  33.450  36.316  1.00  0.00    -0.206 F 
ATOM     53  C   UNL A   1      40.332  35.459  37.138  1.00  0.00     0.040 A 
ATOM     54  C   UNL A   1      42.022  36.622  35.882  1.00  0.00     0.040 A 
ATOM     55  F   UNL A   1      42.741  35.773  33.821  1.00  0.00    -0.206 F 
ATOM     56  C   UNL A   1      41.209  36.536  37.007  1.00  0.00     0.006 A 
ENDBRANCH  28  49
BRANCH  40  57
ATOM     57  C   UNL A   1      44.673  28.667  33.782  1.00  0.00     0.057 A 
ATOM     58  C   UNL A   1      45.995  29.005  33.473  1.00  0.00     0.134 A 
ATOM     59  C   UNL A   1      44.454  27.771  34.834  1.00  0.00     0.134 A 
ATOM     60  F   UNL A   1      46.266  29.848  32.466  1.00  0.00    -0.206 F 
ATOM     61  C   UNL A   1      47.064  28.462  34.184  1.00  0.00     0.040 A 
ATOM     62  C   UNL A   1      45.511  27.245  35.571  1.00  0.00     0.040 A 
ATOM     63  F   UNL A   1      43.205  27.420  35.181  1.00  0.00    -0.206 F 
ATOM     64  C   UNL A   1      46.822  27.588  35.244  1.00  0.00     0.006 A 
ENDBRANCH  40  57
ENDBRANCH  14  15
ENDBRANCH   7   9
ENDBRANCH   6   7
ENDBRANCH   5   6
ENDBRANCH   4   5
ENDBRANCH   3   4
ENDBRANCH   2   3
ENDBRANCH   1   2
BRANCH   1  65
ATOM     65  O   UNL A   1      32.837  28.382  26.838  1.00  0.00    -0.377 OA
BRANCH  65  66
ATOM     66  C   UNL A   1      32.920  27.465  25.755  1.00  0.00     0.188 C 
BRANCH  66  67
ATOM     67  C   UNL A   1      31.807  27.362  24.718  1.00  0.00     0.188 C 
BRANCH  67  68
ATOM     68  O   UNL A   1      30.714  26.508  24.946  1.00  0.00    -0.376 OA
BRANCH  68  69
ATOM     69  C   UNL A   1      30.432  25.449  24.043  1.00  0.00     0.202 C 
BRANCH  69  70
ATOM     70  C   UNL A   1      31.300  25.118  22.808  1.00  0.00     0.261 C 
BRANCH  70  71
ATOM     71  O   UNL A   1      32.462  24.275  23.002  1.00  0.00    -0.463 OA
BRANCH  71  72
ATOM     72  C   UNL A   1      33.680  24.839  22.788  1.00  0.00     0.309 C 
ATOM     73  O   UNL A   1      33.891  25.682  21.918  1.00  0.00    -0.252 OA
BRANCH  72  74
ATOM     74  C   UNL A   1      34.829  24.298  23.668  1.00  0.00     0.099 C 
ATOM     75  C   UNL A   1      34.747  24.464  25.204  1.00  0.00     0.021 C 
ATOM     76  C   UNL A   1      35.112  22.880  23.177  1.00  0.00     0.021 C 
ATOM     77  C   UNL A   1      35.535  23.487  26.069  1.00  0.00     0.066 C 
ATOM     78  C   UNL A   1      36.020  22.084  24.096  1.00  0.00     0.066 C 
ATOM     79  C   UNL A   1      35.542  22.045  25.554  1.00  0.00     0.184 C 
BRANCH  79  80
ATOM     80  N   UNL A   1      34.340  21.266  25.884  1.00  0.00    -0.333 N 
ATOM     81  C   UNL A   1      34.094  20.120  25.008  1.00  0.00     0.262 C 
ATOM     82  C   UNL A   1      33.047  21.908  26.099  1.00  0.00     0.262 C 
ATOM     83  H   UNL A   1      34.666  21.009  26.816  1.00  0.00     0.348 HD
ATOM     84  C   UNL A   1      32.958  20.557  24.104  1.00  0.00     0.067 C 
ATOM     85  C   UNL A   1      32.109  21.443  24.992  1.00  0.00     0.067 C 
ENDBRANCH  79  80
ENDBRANCH  72  74
ENDBRANCH  71  72
ENDBRANCH  70  71
ENDBRANCH  69  70
ENDBRANCH  68  69
ENDBRANCH  67  68
ENDBRANCH  66  67
ENDBRANCH  65  66
ENDBRANCH   1  65
TORSDOF 21
ENDMDL
MODEL 3
REMARK VINA RESULT:      -9.9      3.442      8.537
REMARK SMILES O=C(OCCOCCOCCOCCOC(=O)[C@H]1CC[C@@H]([NH+]2CCCC2)CC1)c1ccc(-c2c3nc(c(-c4c(F)cccc4F)c4ccc([nH]4)c(-c4c(F)cccc4F)c4nc(c(-c5c(F)cccc5F)c5ccc2[nH]5)C=C4)C=C3)cc1
REMARK SMILES IDX 8 1 7 2 6 3 5 4 4 5 3 6 2 7 1 8 29 9 30 10 82 11 31 12 81 13
REMARK SMILES IDX 32 14 33 15 34 16 75 17 35 18 80 19 74 20 76 21 36 22 79 23
REMARK SMILES IDX 73 24 72 25 37 27 63 28 46 29 62 30 47 31 50 32 61 33 77 34
REMARK SMILES IDX 48 35 49 36 60 38 78 39 51 40 38 41 39 42 44 43 40 44 41 45
REMARK SMILES IDX 43 46 45 47 42 48 64 49 65 50 70 51 66 52 67 53 69 54 71 55
REMARK SMILES IDX 68 56 52 57 53 58 58 59 54 60 55 61 57 62 59 63 56 64 9 65
REMARK SMILES IDX 10 66 11 67 12 68 13 69 14 70 15 71 16 72 17 73 18 74 19 75
REMARK SMILES IDX 28 76 20 77 27 78 21 79 22 80 23 81 26 82 24 84 25 85
REMARK H PARENT 76 26 50 37 22 83
REMARK Flexibility Score: inf
ROOT
ATOM      1  C   UNL A   1      34.532  29.468  26.961  1.00  0.00     0.188 C 
ENDROOT
BRANCH   1   2
ATOM      2  C   UNL A   1      33.808  30.712  27.439  1.00  0.00     0.188 C 
BRANCH   2   3
ATOM      3  O   UNL A   1      32.417  30.466  27.298  1.00  0.00    -0.376 OA
BRANCH   3   4
ATOM      4  C   UNL A   1      31.609  31.582  26.956  1.00  0.00     0.202 C 
BRANCH   4   5
ATOM      5  C   UNL A   1      32.407  32.857  26.738  1.00  0.00     0.261 C 
BRANCH   5   6
ATOM      6  O   UNL A   1      32.128  33.903  27.686  1.00  0.00    -0.460 OA
BRANCH   6   7
ATOM      7  C   UNL A   1      32.946  34.595  28.511  1.00  0.00     0.338 C 
ATOM      8  O   UNL A   1      32.651  35.767  28.762  1.00  0.00    -0.246 OA
BRANCH   7   9
ATOM      9  C   UNL A   1      34.183  34.061  29.159  1.00  0.00     0.060 A 
ATOM     10  C   UNL A   1      35.488  34.283  28.729  1.00  0.00     0.016 A 
ATOM     11  C   UNL A   1      34.011  33.364  30.368  1.00  0.00     0.016 A 
ATOM     12  C   UNL A   1      36.588  33.835  29.434  1.00  0.00     0.010 A 
ATOM     13  C   UNL A   1      35.111  32.886  31.087  1.00  0.00     0.010 A 
ATOM     14  C   UNL A   1      36.401  33.109  30.597  1.00  0.00    -0.014 A 
BRANCH  14  15
ATOM     15  C   UNL A   1      37.573  32.388  31.104  1.00  0.00     0.031 A 
ATOM     16  C   UNL A   1      38.112  32.828  32.427  1.00  0.00     0.074 A 
ATOM     17  C   UNL A   1      37.989  31.268  30.493  1.00  0.00     0.049 A 
ATOM     18  N   UNL A   1      39.186  32.449  33.053  1.00  0.00    -0.248 NA
ATOM     19  C   UNL A   1      37.314  33.833  33.157  1.00  0.00     0.031 C 
ATOM     20  C   UNL A   1      37.363  30.666  29.313  1.00  0.00     0.029 A 
ATOM     21  N   UNL A   1      39.017  30.421  30.798  1.00  0.00    -0.354 N 
ATOM     22  C   UNL A   1      39.226  33.210  34.215  1.00  0.00     0.074 A 
ATOM     23  C   UNL A   1      38.054  34.058  34.213  1.00  0.00     0.031 C 
ATOM     24  C   UNL A   1      38.031  29.548  28.987  1.00  0.00     0.029 A 
ATOM     25  C   UNL A   1      39.175  29.413  29.879  1.00  0.00     0.049 A 
ATOM     26  H   UNL A   1      39.587  30.524  31.594  1.00  0.00     0.167 HD
ATOM     27  C   UNL A   1      40.176  33.204  35.169  1.00  0.00     0.037 A 
ATOM     28  C   UNL A   1      40.183  28.532  29.752  1.00  0.00     0.037 A 
ATOM     29  C   UNL A   1      41.315  32.330  35.110  1.00  0.00     0.049 A 
ATOM     30  C   UNL A   1      41.298  28.617  30.758  1.00  0.00     0.074 A 
ATOM     31  C   UNL A   1      42.405  32.257  35.952  1.00  0.00     0.029 A 
ATOM     32  N   UNL A   1      41.495  31.365  34.123  1.00  0.00    -0.354 N 
ATOM     33  N   UNL A   1      41.409  29.411  31.800  1.00  0.00    -0.248 NA
ATOM     34  C   UNL A   1      42.433  27.710  30.568  1.00  0.00     0.031 C 
ATOM     35  C   UNL A   1      43.271  31.283  35.442  1.00  0.00     0.029 A 
ATOM     36  C   UNL A   1      42.693  30.707  34.317  1.00  0.00     0.049 A 
ATOM     37  H   UNL A   1      40.863  31.181  33.392  1.00  0.00     0.167 HD
ATOM     38  C   UNL A   1      42.618  29.095  32.398  1.00  0.00     0.074 A 
ATOM     39  C   UNL A   1      43.195  28.021  31.608  1.00  0.00     0.031 C 
ATOM     40  C   UNL A   1      43.207  29.637  33.494  1.00  0.00     0.037 A 
BRANCH  27  41
ATOM     41  C   UNL A   1      40.060  34.245  36.244  1.00  0.00     0.057 A 
ATOM     42  C   UNL A   1      40.590  35.535  36.111  1.00  0.00     0.134 A 
ATOM     43  C   UNL A   1      39.496  33.907  37.482  1.00  0.00     0.134 A 
ATOM     44  F   UNL A   1      41.184  35.911  34.967  1.00  0.00    -0.206 F 
ATOM     45  C   UNL A   1      40.604  36.434  37.181  1.00  0.00     0.040 A 
ATOM     46  C   UNL A   1      39.478  34.806  38.549  1.00  0.00     0.040 A 
ATOM     47  F   UNL A   1      38.984  32.684  37.686  1.00  0.00    -0.206 F 
ATOM     48  C   UNL A   1      40.046  36.070  38.405  1.00  0.00     0.006 A 
ENDBRANCH  27  41
BRANCH  28  49
ATOM     49  C   UNL A   1      40.216  27.600  28.596  1.00  0.00     0.057 A 
ATOM     50  C   UNL A   1      40.877  27.922  27.408  1.00  0.00     0.134 A 
ATOM     51  C   UNL A   1      39.596  26.343  28.663  1.00  0.00     0.134 A 
ATOM     52  F   UNL A   1      41.477  29.113  27.269  1.00  0.00    -0.206 F 
ATOM     53  C   UNL A   1      40.917  27.034  26.327  1.00  0.00     0.040 A 
ATOM     54  C   UNL A   1      39.651  25.435  27.603  1.00  0.00     0.040 A 
ATOM     55  F   UNL A   1      38.944  25.966  29.773  1.00  0.00    -0.206 F 
ATOM     56  C   UNL A   1      40.308  25.783  26.427  1.00  0.00     0.006 A 
ENDBRANCH  28  49
BRANCH  40  57
ATOM     57  C   UNL A   1      44.519  29.049  33.909  1.00  0.00     0.057 A 
ATOM     58  C   UNL A   1      45.736  29.581  33.470  1.00  0.00     0.134 A 
ATOM     59  C   UNL A   1      44.556  27.987  34.820  1.00  0.00     0.134 A 
ATOM     60  F   UNL A   1      45.760  30.590  32.588  1.00  0.00    -0.206 F 
ATOM     61  C   UNL A   1      46.951  29.067  33.918  1.00  0.00     0.040 A 
ATOM     62  C   UNL A   1      45.764  27.484  35.297  1.00  0.00     0.040 A 
ATOM     63  F   UNL A   1      43.419  27.445  35.282  1.00  0.00    -0.206 F 
ATOM     64  C   UNL A   1      46.967  28.023  34.843  1.00  0.00     0.006 A 
ENDBRANCH  40  57
ENDBRANCH  14  15
ENDBRANCH   7   9
ENDBRANCH   6   7
ENDBRANCH   5   6
ENDBRANCH   4   5
ENDBRANCH   3   4
ENDBRANCH   2   3
ENDBRANCH   1   2
BRANCH   1  65
ATOM     65  O   UNL A   1      33.722  28.302  26.918  1.00  0.00    -0.377 OA
BRANCH  65  66
ATOM     66  C   UNL A   1      33.551  27.640  25.672  1.00  0.00     0.188 C 
BRANCH  66  67
ATOM     67  C   UNL A   1      32.200  27.620  24.964  1.00  0.00     0.188 C 
BRANCH  67  68
ATOM     68  O   UNL A   1      31.163  26.809  25.458  1.00  0.00    -0.376 OA
BRANCH  68  69
ATOM     69  C   UNL A   1      30.676  25.722  24.684  1.00  0.00     0.202 C 
BRANCH  69  70
ATOM     70  C   UNL A   1      31.346  25.221  23.386  1.00  0.00     0.261 C 
BRANCH  70  71
ATOM     71  O   UNL A   1      32.437  24.276  23.507  1.00  0.00    -0.463 OA
BRANCH  71  72
ATOM     72  C   UNL A   1      33.681  24.721  23.186  1.00  0.00     0.309 C 
ATOM     73  O   UNL A   1      33.906  25.482  22.247  1.00  0.00    -0.252 OA
BRANCH  72  74
ATOM     74  C   UNL A   1      34.834  24.148  24.041  1.00  0.00     0.099 C 
ATOM     75  C   UNL A   1      34.708  24.156  25.582  1.00  0.00     0.021 C 
ATOM     76  C   UNL A   1      35.197  22.801  23.419  1.00  0.00     0.021 C 
ATOM     77  C   UNL A   1      35.521  23.133  26.368  1.00  0.00     0.066 C 
ATOM     78  C   UNL A   1      36.121  21.959  24.280  1.00  0.00     0.066 C 
ATOM     79  C   UNL A   1      35.611  21.752  25.713  1.00  0.00     0.184 C 
BRANCH  79  80
ATOM     80  N   UNL A   1      34.441  20.889  25.930  1.00  0.00    -0.333 N 
ATOM     81  C   UNL A   1      34.249  19.852  24.916  1.00  0.00     0.262 C 
ATOM     82  C   UNL A   1      33.120  21.446  26.208  1.00  0.00     0.262 C 
ATOM     83  H   UNL A   1      34.772  20.532  26.827  1.00  0.00     0.348 HD
ATOM     84  C   UNL A   1      33.101  20.351  24.060  1.00  0.00     0.067 C 
ATOM     85  C   UNL A   1      32.210  21.085  25.041  1.00  0.00     0.067 C 
ENDBRANCH  79  80
ENDBRANCH  72  74
ENDBRANCH  71  72
ENDBRANCH  70  71
ENDBRANCH  69  70
ENDBRANCH  68  69
ENDBRANCH  67  68
ENDBRANCH  66  67
ENDBRANCH  65  66
ENDBRANCH   1  65
TORSDOF 21
ENDMDL
