MODEL 1
REMARK VINA RESULT:     -11.1      0.000      0.000
REMARK SMILES CN1C(=O)C[C@@H](C(=O)OCCOCCOCCOCCOC(=O)c2ccc(-c3c4nc(c(-c5c(F)cccc5F)c5ccc([nH]5)c(-c5c(F)cccc5F)c5nc(c(-c6c(F)cccc6F)c6ccc3[nH]6)C=C5)C=C4)cc2)C12CCN(C(=O)c1cccc3ccccc13)CC2
REMARK SMILES IDX 16 1 15 2 14 3 13 4 12 5 11 6 10 7 9 8 7 9 8 10 6 11 1 12
REMARK SMILES IDX 2 13 3 14 78 15 4 16 5 17 79 18 95 19 80 20 94 21 81 22
REMARK SMILES IDX 82 23 83 24 84 25 85 26 93 27 86 28 88 29 92 30 87 31 89 32
REMARK SMILES IDX 91 33 90 34 17 35 18 36 19 37 20 38 21 39 22 40 23 41 24 42
REMARK SMILES IDX 25 43 77 44 26 45 76 46 27 47 28 48 29 49 70 50 30 51 75 52
REMARK SMILES IDX 69 53 71 54 31 55 74 56 68 57 67 58 32 60 58 61 41 62 57 63
REMARK SMILES IDX 42 64 45 65 56 66 72 67 43 68 44 69 55 71 73 72 46 73 33 74
REMARK SMILES IDX 34 75 39 76 35 77 36 78 38 79 40 80 37 81 59 82 60 83 65 84
REMARK SMILES IDX 61 85 62 86 64 87 66 88 63 89 47 90 48 91 53 92 49 93 50 94
REMARK SMILES IDX 52 95 54 96 51 97
REMARK H PARENT 71 59 45 70
REMARK Flexibility Score: inf
ROOT
ATOM      1  C   UNL A   1      43.266  22.375  27.220  1.00  0.00     0.188 C 
ENDROOT
BRANCH   1   2
ATOM      2  O   UNL A   1      43.257  21.473  26.114  1.00  0.00    -0.377 OA
BRANCH   2   3
ATOM      3  C   UNL A   1      42.631  20.207  26.228  1.00  0.00     0.188 C 
BRANCH   3   4
ATOM      4  C   UNL A   1      41.277  20.206  26.933  1.00  0.00     0.188 C 
BRANCH   4   5
ATOM      5  O   UNL A   1      40.175  20.668  26.179  1.00  0.00    -0.376 OA
BRANCH   5   6
ATOM      6  C   UNL A   1      39.539  21.890  26.556  1.00  0.00     0.202 C 
BRANCH   6   7
ATOM      7  C   UNL A   1      38.442  22.553  25.696  1.00  0.00     0.261 C 
BRANCH   7   8
ATOM      8  O   UNL A   1      37.119  21.939  25.727  1.00  0.00    -0.463 OA
BRANCH   8   9
ATOM      9  C   UNL A   1      36.082  22.790  25.565  1.00  0.00     0.311 C 
ATOM     10  O   UNL A   1      36.228  23.991  25.322  1.00  0.00    -0.252 OA
BRANCH   9  11
ATOM     11  C   UNL A   1      34.675  22.304  25.874  1.00  0.00     0.134 C 
ATOM     12  C   UNL A   1      32.447  20.621  23.341  1.00  0.00     0.147 C 
ATOM     13  N   UNL A   1      33.455  21.095  24.273  1.00  0.00    -0.339 N 
ATOM     14  C   UNL A   1      34.272  20.158  24.897  1.00  0.00     0.223 C 
ATOM     15  C   UNL A   1      33.379  22.370  25.014  1.00  0.00     0.060 C 
ATOM     16  O   UNL A   1      34.410  18.989  24.579  1.00  0.00    -0.275 OA
ATOM     17  C   UNL A   1      34.874  20.793  26.116  1.00  0.00     0.118 C 
ATOM     18  C   UNL A   1      33.199  23.582  24.074  1.00  0.00     0.051 C 
ATOM     19  C   UNL A   1      32.135  22.295  25.960  1.00  0.00     0.051 C 
ATOM     20  C   UNL A   1      32.743  24.886  24.749  1.00  0.00     0.122 C 
ATOM     21  C   UNL A   1      31.779  23.622  26.617  1.00  0.00     0.122 C 
ATOM     22  N   UNL A   1      31.602  24.678  25.633  1.00  0.00    -0.338 N 
ATOM     23  C   UNL A   1      30.476  25.498  25.752  1.00  0.00     0.254 C 
ATOM     24  O   UNL A   1      29.509  25.212  26.456  1.00  0.00    -0.269 OA
BRANCH  23  25
ATOM     25  C   UNL A   1      30.451  26.841  25.128  1.00  0.00     0.047 A 
ATOM     26  C   UNL A   1      29.825  26.908  23.873  1.00  0.00     0.014 A 
ATOM     27  C   UNL A   1      31.131  27.961  25.668  1.00  0.00    -0.006 A 
ATOM     28  C   UNL A   1      29.856  28.088  23.135  1.00  0.00     0.001 A 
ATOM     29  C   UNL A   1      31.138  29.162  24.908  1.00  0.00    -0.018 A 
ATOM     30  C   UNL A   1      31.784  27.968  26.921  1.00  0.00     0.009 A 
ATOM     31  C   UNL A   1      30.517  29.203  23.646  1.00  0.00     0.009 A 
ATOM     32  C   UNL A   1      31.713  30.326  25.442  1.00  0.00     0.009 A 
ATOM     33  C   UNL A   1      32.355  29.138  27.434  1.00  0.00     0.001 A 
ATOM     34  C   UNL A   1      32.302  30.319  26.705  1.00  0.00     0.001 A 
ENDBRANCH  23  25
ENDBRANCH   9  11
ENDBRANCH   8   9
ENDBRANCH   7   8
ENDBRANCH   6   7
ENDBRANCH   5   6
ENDBRANCH   4   5
ENDBRANCH   3   4
ENDBRANCH   2   3
ENDBRANCH   1   2
BRANCH   1  35
ATOM     35  C   UNL A   1      44.580  22.661  27.958  1.00  0.00     0.188 C 
BRANCH  35  36
ATOM     36  O   UNL A   1      45.193  23.931  27.720  1.00  0.00    -0.376 OA
BRANCH  36  37
ATOM     37  C   UNL A   1      46.270  23.960  26.787  1.00  0.00     0.202 C 
BRANCH  37  38
ATOM     38  C   UNL A   1      45.818  24.188  25.357  1.00  0.00     0.261 C 
BRANCH  38  39
ATOM     39  O   UNL A   1      44.989  25.347  25.254  1.00  0.00    -0.460 OA
BRANCH  39  40
ATOM     40  C   UNL A   1      43.700  25.064  24.985  1.00  0.00     0.338 C 
ATOM     41  O   UNL A   1      43.247  24.209  24.251  1.00  0.00    -0.246 OA
BRANCH  40  42
ATOM     42  C   UNL A   1      42.877  25.953  25.803  1.00  0.00     0.060 A 
ATOM     43  C   UNL A   1      43.337  27.250  26.038  1.00  0.00     0.016 A 
ATOM     44  C   UNL A   1      41.740  25.449  26.436  1.00  0.00     0.016 A 
ATOM     45  C   UNL A   1      42.701  28.026  26.999  1.00  0.00     0.010 A 
ATOM     46  C   UNL A   1      41.098  26.233  27.391  1.00  0.00     0.010 A 
ATOM     47  C   UNL A   1      41.619  27.495  27.717  1.00  0.00    -0.014 A 
BRANCH  47  48
ATOM     48  C   UNL A   1      41.184  28.188  28.947  1.00  0.00     0.031 A 
ATOM     49  C   UNL A   1      41.959  27.954  30.213  1.00  0.00     0.074 A 
ATOM     50  C   UNL A   1      40.162  29.056  28.907  1.00  0.00     0.049 A 
ATOM     51  N   UNL A   1      41.813  28.505  31.389  1.00  0.00    -0.248 NA
ATOM     52  C   UNL A   1      43.049  26.965  30.143  1.00  0.00     0.031 C 
ATOM     53  C   UNL A   1      39.362  29.359  27.721  1.00  0.00     0.029 A 
ATOM     54  N   UNL A   1      39.629  29.846  29.888  1.00  0.00    -0.354 N 
ATOM     55  C   UNL A   1      42.795  27.939  32.193  1.00  0.00     0.074 A 
ATOM     56  C   UNL A   1      43.505  26.973  31.386  1.00  0.00     0.031 C 
ATOM     57  C   UNL A   1      38.432  30.273  28.047  1.00  0.00     0.029 A 
ATOM     58  C   UNL A   1      38.568  30.604  29.464  1.00  0.00     0.049 A 
ATOM     59  H   UNL A   1      39.975  29.869  30.811  1.00  0.00     0.167 HD
ATOM     60  C   UNL A   1      43.088  28.216  33.485  1.00  0.00     0.037 A 
ATOM     61  C   UNL A   1      37.793  31.463  30.152  1.00  0.00     0.037 A 
ATOM     62  C   UNL A   1      42.365  29.174  34.278  1.00  0.00     0.049 A 
ATOM     63  C   UNL A   1      38.110  31.729  31.597  1.00  0.00     0.074 A 
ATOM     64  C   UNL A   1      42.574  29.544  35.593  1.00  0.00     0.029 A 
ATOM     65  N   UNL A   1      41.280  29.908  33.820  1.00  0.00    -0.354 N 
ATOM     66  N   UNL A   1      39.067  31.220  32.338  1.00  0.00    -0.248 NA
ATOM     67  C   UNL A   1      37.254  32.692  32.299  1.00  0.00     0.031 C 
ATOM     68  C   UNL A   1      41.587  30.474  35.944  1.00  0.00     0.029 A 
ATOM     69  C   UNL A   1      40.793  30.714  34.834  1.00  0.00     0.049 A 
ATOM     70  H   UNL A   1      40.911  29.863  32.908  1.00  0.00     0.167 HD
ATOM     71  C   UNL A   1      38.937  31.811  33.587  1.00  0.00     0.074 A 
ATOM     72  C   UNL A   1      37.820  32.730  33.498  1.00  0.00     0.031 C 
ATOM     73  C   UNL A   1      39.672  31.613  34.711  1.00  0.00     0.037 A 
BRANCH  60  74
ATOM     74  C   UNL A   1      44.217  27.453  34.113  1.00  0.00     0.057 A 
ATOM     75  C   UNL A   1      44.013  26.225  34.757  1.00  0.00     0.134 A 
ATOM     76  C   UNL A   1      45.524  27.953  34.078  1.00  0.00     0.134 A 
ATOM     77  F   UNL A   1      42.782  25.699  34.843  1.00  0.00    -0.206 F 
ATOM     78  C   UNL A   1      45.064  25.535  35.366  1.00  0.00     0.040 A 
ATOM     79  C   UNL A   1      46.587  27.262  34.664  1.00  0.00     0.040 A 
ATOM     80  F   UNL A   1      45.790  29.124  33.480  1.00  0.00    -0.206 F 
ATOM     81  C   UNL A   1      46.357  26.053  35.317  1.00  0.00     0.006 A 
ENDBRANCH  60  74
BRANCH  61  82
ATOM     82  C   UNL A   1      36.655  32.127  29.471  1.00  0.00     0.057 A 
ATOM     83  C   UNL A   1      36.798  33.376  28.855  1.00  0.00     0.134 A 
ATOM     84  C   UNL A   1      35.400  31.509  29.394  1.00  0.00     0.134 A 
ATOM     85  F   UNL A   1      37.970  34.025  28.907  1.00  0.00    -0.206 F 
ATOM     86  C   UNL A   1      35.732  33.989  28.192  1.00  0.00     0.040 A 
ATOM     87  C   UNL A   1      34.333  32.099  28.716  1.00  0.00     0.040 A 
ATOM     88  F   UNL A   1      35.203  30.309  29.959  1.00  0.00    -0.206 F 
ATOM     89  C   UNL A   1      34.498  33.345  28.115  1.00  0.00     0.006 A 
ENDBRANCH  61  82
BRANCH  73  90
ATOM     90  C   UNL A   1      39.291  32.412  35.919  1.00  0.00     0.057 A 
ATOM     91  C   UNL A   1      39.824  33.685  36.156  1.00  0.00     0.134 A 
ATOM     92  C   UNL A   1      38.349  31.920  36.832  1.00  0.00     0.134 A 
ATOM     93  F   UNL A   1      40.738  34.204  35.324  1.00  0.00    -0.206 F 
ATOM     94  C   UNL A   1      39.449  34.433  37.273  1.00  0.00     0.040 A 
ATOM     95  C   UNL A   1      37.949  32.669  37.939  1.00  0.00     0.040 A 
ATOM     96  F   UNL A   1      37.794  30.711  36.654  1.00  0.00    -0.206 F 
ATOM     97  C   UNL A   1      38.505  33.927  38.165  1.00  0.00     0.006 A 
ENDBRANCH  73  90
ENDBRANCH  47  48
ENDBRANCH  40  42
ENDBRANCH  39  40
ENDBRANCH  38  39
ENDBRANCH  37  38
ENDBRANCH  36  37
ENDBRANCH  35  36
ENDBRANCH   1  35
TORSDOF 21
ENDMDL
MODEL 2
REMARK VINA RESULT:     -10.7      1.133      2.073
REMARK SMILES CN1C(=O)C[C@@H](C(=O)OCCOCCOCCOCCOC(=O)c2ccc(-c3c4nc(c(-c5c(F)cccc5F)c5ccc([nH]5)c(-c5c(F)cccc5F)c5nc(c(-c6c(F)cccc6F)c6ccc3[nH]6)C=C5)C=C4)cc2)C12CCN(C(=O)c1cccc3ccccc13)CC2
REMARK SMILES IDX 16 1 15 2 14 3 13 4 12 5 11 6 10 7 9 8 7 9 8 10 6 11 1 12
REMARK SMILES IDX 2 13 3 14 78 15 4 16 5 17 79 18 95 19 80 20 94 21 81 22
REMARK SMILES IDX 82 23 83 24 84 25 85 26 93 27 86 28 88 29 92 30 87 31 89 32
REMARK SMILES IDX 91 33 90 34 17 35 18 36 19 37 20 38 21 39 22 40 23 41 24 42
REMARK SMILES IDX 25 43 77 44 26 45 76 46 27 47 28 48 29 49 70 50 30 51 75 52
REMARK SMILES IDX 69 53 71 54 31 55 74 56 68 57 67 58 32 60 58 61 41 62 57 63
REMARK SMILES IDX 42 64 45 65 56 66 72 67 43 68 44 69 55 71 73 72 46 73 33 74
REMARK SMILES IDX 34 75 39 76 35 77 36 78 38 79 40 80 37 81 59 82 60 83 65 84
REMARK SMILES IDX 61 85 62 86 64 87 66 88 63 89 47 90 48 91 53 92 49 93 50 94
REMARK SMILES IDX 52 95 54 96 51 97
REMARK H PARENT 71 59 45 70
REMARK Flexibility Score: inf
ROOT
ATOM      1  C   UNL A   1      43.028  22.617  26.831  1.00  0.00     0.188 C 
ENDROOT
BRANCH   1   2
ATOM      2  O   UNL A   1      42.910  21.651  25.788  1.00  0.00    -0.377 OA
BRANCH   2   3
ATOM      3  C   UNL A   1      42.511  20.324  26.082  1.00  0.00     0.188 C 
BRANCH   3   4
ATOM      4  C   UNL A   1      41.242  20.191  26.919  1.00  0.00     0.188 C 
BRANCH   4   5
ATOM      5  O   UNL A   1      40.020  20.436  26.253  1.00  0.00    -0.376 OA
BRANCH   5   6
ATOM      6  C   UNL A   1      39.377  21.700  26.422  1.00  0.00     0.202 C 
BRANCH   6   7
ATOM      7  C   UNL A   1      38.275  22.203  25.466  1.00  0.00     0.261 C 
BRANCH   7   8
ATOM      8  O   UNL A   1      36.928  21.685  25.683  1.00  0.00    -0.463 OA
BRANCH   8   9
ATOM      9  C   UNL A   1      35.930  22.582  25.521  1.00  0.00     0.311 C 
ATOM     10  O   UNL A   1      36.130  23.778  25.291  1.00  0.00    -0.252 OA
BRANCH   9  11
ATOM     11  C   UNL A   1      34.501  22.154  25.814  1.00  0.00     0.134 C 
ATOM     12  C   UNL A   1      32.203  20.651  23.232  1.00  0.00     0.147 C 
ATOM     13  N   UNL A   1      33.229  21.050  24.178  1.00  0.00    -0.339 N 
ATOM     14  C   UNL A   1      34.000  20.058  24.777  1.00  0.00     0.223 C 
ATOM     15  C   UNL A   1      33.212  22.305  24.955  1.00  0.00     0.060 C 
ATOM     16  O   UNL A   1      34.083  18.893  24.426  1.00  0.00    -0.275 OA
ATOM     17  C   UNL A   1      34.627  20.630  26.014  1.00  0.00     0.118 C 
ATOM     18  C   UNL A   1      33.091  23.551  24.049  1.00  0.00     0.051 C 
ATOM     19  C   UNL A   1      31.962  22.263  25.897  1.00  0.00     0.051 C 
ATOM     20  C   UNL A   1      32.696  24.856  24.760  1.00  0.00     0.122 C 
ATOM     21  C   UNL A   1      31.668  23.586  26.590  1.00  0.00     0.122 C 
ATOM     22  N   UNL A   1      31.544  24.676  25.636  1.00  0.00    -0.338 N 
ATOM     23  C   UNL A   1      30.457  25.545  25.776  1.00  0.00     0.254 C 
ATOM     24  O   UNL A   1      29.476  25.286  26.471  1.00  0.00    -0.269 OA
BRANCH  23  25
ATOM     25  C   UNL A   1      30.497  26.905  25.191  1.00  0.00     0.047 A 
ATOM     26  C   UNL A   1      29.884  27.036  23.935  1.00  0.00     0.014 A 
ATOM     27  C   UNL A   1      31.224  27.977  25.766  1.00  0.00    -0.006 A 
ATOM     28  C   UNL A   1      29.973  28.233  23.231  1.00  0.00     0.001 A 
ATOM     29  C   UNL A   1      31.291  29.197  25.040  1.00  0.00    -0.018 A 
ATOM     30  C   UNL A   1      31.868  27.920  27.022  1.00  0.00     0.009 A 
ATOM     31  C   UNL A   1      30.680  29.302  23.776  1.00  0.00     0.009 A 
ATOM     32  C   UNL A   1      31.915  30.319  25.609  1.00  0.00     0.009 A 
ATOM     33  C   UNL A   1      32.489  29.047  27.570  1.00  0.00     0.001 A 
ATOM     34  C   UNL A   1      32.495  30.249  26.874  1.00  0.00     0.001 A 
ENDBRANCH  23  25
ENDBRANCH   9  11
ENDBRANCH   8   9
ENDBRANCH   7   8
ENDBRANCH   6   7
ENDBRANCH   5   6
ENDBRANCH   4   5
ENDBRANCH   3   4
ENDBRANCH   2   3
ENDBRANCH   1   2
BRANCH   1  35
ATOM     35  C   UNL A   1      44.405  22.918  27.437  1.00  0.00     0.188 C 
BRANCH  35  36
ATOM     36  O   UNL A   1      45.025  24.148  27.054  1.00  0.00    -0.376 OA
BRANCH  36  37
ATOM     37  C   UNL A   1      45.469  24.251  25.703  1.00  0.00     0.202 C 
BRANCH  37  38
ATOM     38  C   UNL A   1      44.437  24.869  24.779  1.00  0.00     0.261 C 
BRANCH  38  39
ATOM     39  O   UNL A   1      44.006  26.142  25.259  1.00  0.00    -0.460 OA
BRANCH  39  40
ATOM     40  C   UNL A   1      42.713  26.169  25.632  1.00  0.00     0.338 C 
ATOM     41  O   UNL A   1      41.734  25.824  25.001  1.00  0.00    -0.246 OA
BRANCH  40  42
ATOM     42  C   UNL A   1      42.664  26.645  27.013  1.00  0.00     0.060 A 
ATOM     43  C   UNL A   1      41.692  26.113  27.863  1.00  0.00     0.016 A 
ATOM     44  C   UNL A   1      43.485  27.705  27.405  1.00  0.00     0.016 A 
ATOM     45  C   UNL A   1      41.471  26.716  29.094  1.00  0.00     0.010 A 
ATOM     46  C   UNL A   1      43.268  28.301  28.644  1.00  0.00     0.010 A 
ATOM     47  C   UNL A   1      42.219  27.846  29.458  1.00  0.00    -0.014 A 
BRANCH  47  48
ATOM     48  C   UNL A   1      41.746  28.666  30.593  1.00  0.00     0.031 A 
ATOM     49  C   UNL A   1      42.509  28.605  31.886  1.00  0.00     0.074 A 
ATOM     50  C   UNL A   1      40.700  29.492  30.439  1.00  0.00     0.049 A 
ATOM     51  N   UNL A   1      42.330  29.286  32.987  1.00  0.00    -0.248 NA
ATOM     52  C   UNL A   1      43.627  27.648  31.946  1.00  0.00     0.031 C 
ATOM     53  C   UNL A   1      39.909  29.630  29.218  1.00  0.00     0.029 A 
ATOM     54  N   UNL A   1      40.131  30.376  31.315  1.00  0.00    -0.354 N 
ATOM     55  C   UNL A   1      43.315  28.848  33.864  1.00  0.00     0.074 A 
ATOM     56  C   UNL A   1      44.064  27.816  33.185  1.00  0.00     0.031 C 
ATOM     57  C   UNL A   1      38.950  30.547  29.423  1.00  0.00     0.029 A 
ATOM     58  C   UNL A   1      39.055  31.046  30.793  1.00  0.00     0.049 A 
ATOM     59  H   UNL A   1      40.462  30.517  32.232  1.00  0.00     0.167 HD
ATOM     60  C   UNL A   1      43.580  29.283  35.118  1.00  0.00     0.037 A 
ATOM     61  C   UNL A   1      38.246  31.957  31.365  1.00  0.00     0.037 A 
ATOM     62  C   UNL A   1      42.819  30.306  35.784  1.00  0.00     0.049 A 
ATOM     63  C   UNL A   1      38.534  32.399  32.772  1.00  0.00     0.074 A 
ATOM     64  C   UNL A   1      42.998  30.833  37.049  1.00  0.00     0.029 A 
ATOM     65  N   UNL A   1      41.720  30.948  35.231  1.00  0.00    -0.354 N 
ATOM     66  N   UNL A   1      39.493  32.010  33.579  1.00  0.00    -0.248 NA
ATOM     67  C   UNL A   1      37.640  33.413  33.346  1.00  0.00     0.031 C 
ATOM     68  C   UNL A   1      41.980  31.769  37.277  1.00  0.00     0.029 A 
ATOM     69  C   UNL A   1      41.196  31.853  36.137  1.00  0.00     0.049 A 
ATOM     70  H   UNL A   1      41.366  30.786  34.326  1.00  0.00     0.167 HD
ATOM     71  C   UNL A   1      39.328  32.739  34.749  1.00  0.00     0.074 A 
ATOM     72  C   UNL A   1      38.187  33.607  34.539  1.00  0.00     0.031 C 
ATOM     73  C   UNL A   1      40.052  32.697  35.896  1.00  0.00     0.037 A 
BRANCH  60  74
ATOM     74  C   UNL A   1      44.721  28.633  35.844  1.00  0.00     0.057 A 
ATOM     75  C   UNL A   1      46.020  29.156  35.800  1.00  0.00     0.134 A 
ATOM     76  C   UNL A   1      44.520  27.467  36.593  1.00  0.00     0.134 A 
ATOM     77  F   UNL A   1      46.285  30.260  35.085  1.00  0.00    -0.206 F 
ATOM     78  C   UNL A   1      47.084  28.528  36.453  1.00  0.00     0.040 A 
ATOM     79  C   UNL A   1      45.571  26.843  37.268  1.00  0.00     0.040 A 
ATOM     80  F   UNL A   1      43.303  26.912  36.675  1.00  0.00    -0.206 F 
ATOM     81  C   UNL A   1      46.859  27.369  37.193  1.00  0.00     0.006 A 
ENDBRANCH  60  74
BRANCH  61  82
ATOM     82  C   UNL A   1      37.099  32.502  30.598  1.00  0.00     0.057 A 
ATOM     83  C   UNL A   1      35.833  31.908  30.654  1.00  0.00     0.134 A 
ATOM     84  C   UNL A   1      37.238  33.653  29.812  1.00  0.00     0.134 A 
ATOM     85  F   UNL A   1      35.640  30.796  31.377  1.00  0.00    -0.206 F 
ATOM     86  C   UNL A   1      34.748  32.436  29.953  1.00  0.00     0.040 A 
ATOM     87  C   UNL A   1      36.157  34.205  29.124  1.00  0.00     0.040 A 
ATOM     88  F   UNL A   1      38.425  34.271  29.723  1.00  0.00    -0.206 F 
ATOM     89  C   UNL A   1      34.907  33.593  29.191  1.00  0.00     0.006 A 
ENDBRANCH  61  82
BRANCH  73  90
ATOM     90  C   UNL A   1      39.630  33.621  36.998  1.00  0.00     0.057 A 
ATOM     91  C   UNL A   1      38.718  33.221  37.981  1.00  0.00     0.134 A 
ATOM     92  C   UNL A   1      40.174  34.908  37.097  1.00  0.00     0.134 A 
ATOM     93  F   UNL A   1      38.154  32.005  37.932  1.00  0.00    -0.206 F 
ATOM     94  C   UNL A   1      38.344  34.079  39.017  1.00  0.00     0.040 A 
ATOM     95  C   UNL A   1      39.827  35.765  38.141  1.00  0.00     0.040 A 
ATOM     96  F   UNL A   1      41.061  35.345  36.191  1.00  0.00    -0.206 F 
ATOM     97  C   UNL A   1      38.904  35.353  39.102  1.00  0.00     0.006 A 
ENDBRANCH  73  90
ENDBRANCH  47  48
ENDBRANCH  40  42
ENDBRANCH  39  40
ENDBRANCH  38  39
ENDBRANCH  37  38
ENDBRANCH  36  37
ENDBRANCH  35  36
ENDBRANCH   1  35
TORSDOF 21
ENDMDL
MODEL 3
REMARK VINA RESULT:     -10.3      5.991     10.980
REMARK SMILES CN1C(=O)C[C@@H](C(=O)OCCOCCOCCOCCOC(=O)c2ccc(-c3c4nc(c(-c5c(F)cccc5F)c5ccc([nH]5)c(-c5c(F)cccc5F)c5nc(c(-c6c(F)cccc6F)c6ccc3[nH]6)C=C5)C=C4)cc2)C12CCN(C(=O)c1cccc3ccccc13)CC2
REMARK SMILES IDX 16 1 15 2 14 3 13 4 12 5 11 6 10 7 9 8 7 9 8 10 6 11 1 12
REMARK SMILES IDX 2 13 3 14 78 15 4 16 5 17 79 18 95 19 80 20 94 21 81 22
REMARK SMILES IDX 82 23 83 24 84 25 85 26 93 27 86 28 88 29 92 30 87 31 89 32
REMARK SMILES IDX 91 33 90 34 17 35 18 36 19 37 20 38 21 39 22 40 23 41 24 42
REMARK SMILES IDX 25 43 77 44 26 45 76 46 27 47 28 48 29 49 70 50 30 51 75 52
REMARK SMILES IDX 69 53 71 54 31 55 74 56 68 57 67 58 32 60 58 61 41 62 57 63
REMARK SMILES IDX 42 64 45 65 56 66 72 67 43 68 44 69 55 71 73 72 46 73 33 74
REMARK SMILES IDX 34 75 39 76 35 77 36 78 38 79 40 80 37 81 59 82 60 83 65 84
REMARK SMILES IDX 61 85 62 86 64 87 66 88 63 89 47 90 48 91 53 92 49 93 50 94
REMARK SMILES IDX 52 95 54 96 51 97
REMARK H PARENT 71 59 45 70
REMARK Flexibility Score: inf
ROOT
ATOM      1  C   UNL A   1      39.697  27.616  28.860  1.00  0.00     0.188 C 
ENDROOT
BRANCH   1   2
ATOM      2  O   UNL A   1      39.123  28.921  28.914  1.00  0.00    -0.377 OA
BRANCH   2   3
ATOM      3  C   UNL A   1      38.285  29.378  27.867  1.00  0.00     0.188 C 
BRANCH   3   4
ATOM      4  C   UNL A   1      37.145  30.299  28.293  1.00  0.00     0.188 C 
BRANCH   4   5
ATOM      5  O   UNL A   1      35.865  29.709  28.397  1.00  0.00    -0.376 OA
BRANCH   5   6
ATOM      6  C   UNL A   1      35.299  29.071  27.252  1.00  0.00     0.202 C 
BRANCH   6   7
ATOM      7  C   UNL A   1      33.864  29.361  26.767  1.00  0.00     0.261 C 
BRANCH   7   8
ATOM      8  O   UNL A   1      33.626  29.285  25.329  1.00  0.00    -0.463 OA
BRANCH   8   9
ATOM      9  C   UNL A   1      32.337  29.423  24.947  1.00  0.00     0.311 C 
ATOM     10  O   UNL A   1      31.497  30.027  25.619  1.00  0.00    -0.252 OA
BRANCH   9  11
ATOM     11  C   UNL A   1      31.842  28.652  23.734  1.00  0.00     0.134 C 
ATOM     12  C   UNL A   1      28.719  26.540  23.738  1.00  0.00     0.147 C 
ATOM     13  N   UNL A   1      29.780  27.530  23.797  1.00  0.00    -0.339 N 
ATOM     14  C   UNL A   1      29.471  28.852  23.496  1.00  0.00     0.223 C 
ATOM     15  C   UNL A   1      31.217  27.229  23.636  1.00  0.00     0.060 C 
ATOM     16  O   UNL A   1      28.353  29.335  23.417  1.00  0.00    -0.275 OA
ATOM     17  C   UNL A   1      30.744  29.571  23.161  1.00  0.00     0.118 C 
ATOM     18  C   UNL A   1      31.705  26.157  24.635  1.00  0.00     0.051 C 
ATOM     19  C   UNL A   1      31.427  26.679  22.186  1.00  0.00     0.051 C 
ATOM     20  C   UNL A   1      33.064  25.515  24.311  1.00  0.00     0.122 C 
ATOM     21  C   UNL A   1      32.813  26.098  21.942  1.00  0.00     0.122 C 
ATOM     22  N   UNL A   1      33.148  25.078  22.922  1.00  0.00    -0.338 N 
ATOM     23  C   UNL A   1      33.693  23.878  22.455  1.00  0.00     0.254 C 
ATOM     24  O   UNL A   1      33.650  23.537  21.274  1.00  0.00    -0.269 OA
BRANCH  23  25
ATOM     25  C   UNL A   1      34.484  23.007  23.354  1.00  0.00     0.047 A 
ATOM     26  C   UNL A   1      35.843  23.341  23.471  1.00  0.00     0.014 A 
ATOM     27  C   UNL A   1      33.966  21.828  23.946  1.00  0.00    -0.006 A 
ATOM     28  C   UNL A   1      36.709  22.517  24.183  1.00  0.00     0.001 A 
ATOM     29  C   UNL A   1      34.863  21.008  24.683  1.00  0.00    -0.018 A 
ATOM     30  C   UNL A   1      32.614  21.427  23.870  1.00  0.00     0.009 A 
ATOM     31  C   UNL A   1      36.223  21.354  24.776  1.00  0.00     0.009 A 
ATOM     32  C   UNL A   1      34.380  19.882  25.370  1.00  0.00     0.009 A 
ATOM     33  C   UNL A   1      32.153  20.299  24.558  1.00  0.00     0.001 A 
ATOM     34  C   UNL A   1      33.030  19.541  25.323  1.00  0.00     0.001 A 
ENDBRANCH  23  25
ENDBRANCH   9  11
ENDBRANCH   8   9
ENDBRANCH   7   8
ENDBRANCH   6   7
ENDBRANCH   5   6
ENDBRANCH   4   5
ENDBRANCH   3   4
ENDBRANCH   2   3
ENDBRANCH   1   2
BRANCH   1  35
ATOM     35  C   UNL A   1      40.342  27.121  27.560  1.00  0.00     0.188 C 
BRANCH  35  36
ATOM     36  O   UNL A   1      39.920  25.845  27.072  1.00  0.00    -0.376 OA
BRANCH  36  37
ATOM     37  C   UNL A   1      39.764  24.808  28.038  1.00  0.00     0.202 C 
BRANCH  37  38
ATOM     38  C   UNL A   1      40.270  23.462  27.557  1.00  0.00     0.261 C 
BRANCH  38  39
ATOM     39  O   UNL A   1      41.110  23.601  26.412  1.00  0.00    -0.460 OA
BRANCH  39  40
ATOM     40  C   UNL A   1      42.419  23.432  26.680  1.00  0.00     0.338 C 
ATOM     41  O   UNL A   1      43.034  22.396  26.834  1.00  0.00    -0.246 OA
BRANCH  40  42
ATOM     42  C   UNL A   1      43.038  24.755  26.698  1.00  0.00     0.060 A 
ATOM     43  C   UNL A   1      43.178  25.437  25.488  1.00  0.00     0.016 A 
ATOM     44  C   UNL A   1      43.594  25.239  27.884  1.00  0.00     0.016 A 
ATOM     45  C   UNL A   1      43.971  26.576  25.445  1.00  0.00     0.010 A 
ATOM     46  C   UNL A   1      44.380  26.387  27.840  1.00  0.00     0.010 A 
ATOM     47  C   UNL A   1      44.620  27.016  26.608  1.00  0.00    -0.014 A 
BRANCH  47  48
ATOM     48  C   UNL A   1      45.711  28.004  26.474  1.00  0.00     0.031 A 
ATOM     49  C   UNL A   1      45.370  29.464  26.579  1.00  0.00     0.074 A 
ATOM     50  C   UNL A   1      46.980  27.593  26.332  1.00  0.00     0.049 A 
ATOM     51  N   UNL A   1      46.163  30.503  26.569  1.00  0.00    -0.248 NA
ATOM     52  C   UNL A   1      43.942  29.799  26.714  1.00  0.00     0.031 C 
ATOM     53  C   UNL A   1      47.406  26.198  26.238  1.00  0.00     0.029 A 
ATOM     54  N   UNL A   1      48.141  28.311  26.251  1.00  0.00    -0.354 N 
ATOM     55  C   UNL A   1      45.334  31.609  26.707  1.00  0.00     0.074 A 
ATOM     56  C   UNL A   1      43.974  31.121  26.757  1.00  0.00     0.031 C 
ATOM     57  C   UNL A   1      48.743  26.161  26.107  1.00  0.00     0.029 A 
ATOM     58  C   UNL A   1      49.257  27.529  26.096  1.00  0.00     0.049 A 
ATOM     59  H   UNL A   1      48.173  29.294  26.299  1.00  0.00     0.167 HD
ATOM     60  C   UNL A   1      45.680  32.914  26.800  1.00  0.00     0.037 A 
ATOM     61  C   UNL A   1      50.547  27.886  25.957  1.00  0.00     0.037 A 
ATOM     62  C   UNL A   1      47.038  33.385  26.739  1.00  0.00     0.049 A 
ATOM     63  C   UNL A   1      50.907  29.344  26.024  1.00  0.00     0.074 A 
ATOM     64  C   UNL A   1      47.510  34.681  26.829  1.00  0.00     0.029 A 
ATOM     65  N   UNL A   1      48.142  32.564  26.559  1.00  0.00    -0.354 N 
ATOM     66  N   UNL A   1      50.120  30.380  26.196  1.00  0.00    -0.248 NA
ATOM     67  C   UNL A   1      52.329  29.684  25.892  1.00  0.00     0.031 C 
ATOM     68  C   UNL A   1      48.901  34.647  26.663  1.00  0.00     0.029 A 
ATOM     69  C   UNL A   1      49.295  33.327  26.513  1.00  0.00     0.049 A 
ATOM     70  H   UNL A   1      48.111  31.584  26.477  1.00  0.00     0.167 HD
ATOM     71  C   UNL A   1      50.951  31.493  26.208  1.00  0.00     0.074 A 
ATOM     72  C   UNL A   1      52.305  31.001  26.043  1.00  0.00     0.031 C 
ATOM     73  C   UNL A   1      50.628  32.804  26.341  1.00  0.00     0.037 A 
BRANCH  60  74
ATOM     74  C   UNL A   1      44.568  33.911  26.952  1.00  0.00     0.057 A 
ATOM     75  C   UNL A   1      44.143  34.359  28.210  1.00  0.00     0.134 A 
ATOM     76  C   UNL A   1      43.910  34.425  25.828  1.00  0.00     0.134 A 
ATOM     77  F   UNL A   1      44.719  33.892  29.328  1.00  0.00    -0.206 F 
ATOM     78  C   UNL A   1      43.087  35.263  28.346  1.00  0.00     0.040 A 
ATOM     79  C   UNL A   1      42.868  35.346  25.950  1.00  0.00     0.040 A 
ATOM     80  F   UNL A   1      44.265  34.037  24.595  1.00  0.00    -0.206 F 
ATOM     81  C   UNL A   1      42.449  35.762  27.212  1.00  0.00     0.006 A 
ENDBRANCH  60  74
BRANCH  61  82
ATOM     82  C   UNL A   1      51.577  26.840  25.744  1.00  0.00     0.057 A 
ATOM     83  C   UNL A   1      51.980  26.461  24.458  1.00  0.00     0.134 A 
ATOM     84  C   UNL A   1      52.206  26.215  26.828  1.00  0.00     0.134 A 
ATOM     85  F   UNL A   1      51.405  27.012  23.380  1.00  0.00    -0.206 F 
ATOM     86  C   UNL A   1      52.968  25.495  24.259  1.00  0.00     0.040 A 
ATOM     87  C   UNL A   1      53.210  25.265  26.644  1.00  0.00     0.040 A 
ATOM     88  F   UNL A   1      51.867  26.540  28.084  1.00  0.00    -0.206 F 
ATOM     89  C   UNL A   1      53.592  24.899  25.355  1.00  0.00     0.006 A 
ENDBRANCH  61  82
BRANCH  73  90
ATOM     90  C   UNL A   1      51.759  33.786  26.320  1.00  0.00     0.057 A 
ATOM     91  C   UNL A   1      52.423  34.165  27.493  1.00  0.00     0.134 A 
ATOM     92  C   UNL A   1      52.214  34.325  25.110  1.00  0.00     0.134 A 
ATOM     93  F   UNL A   1      52.026  33.691  28.683  1.00  0.00    -0.206 F 
ATOM     94  C   UNL A   1      53.490  35.064  27.465  1.00  0.00     0.040 A 
ATOM     95  C   UNL A   1      53.294  35.206  25.068  1.00  0.00     0.040 A 
ATOM     96  F   UNL A   1      51.626  33.993  23.951  1.00  0.00    -0.206 F 
ATOM     97  C   UNL A   1      53.932  35.583  26.249  1.00  0.00     0.006 A 
ENDBRANCH  73  90
ENDBRANCH  47  48
ENDBRANCH  40  42
ENDBRANCH  39  40
ENDBRANCH  38  39
ENDBRANCH  37  38
ENDBRANCH  36  37
ENDBRANCH  35  36
ENDBRANCH   1  35
TORSDOF 21
ENDMDL
