MODEL 1
REMARK VINA RESULT:      -6.9      0.000      0.000
REMARK SMILES CCC[C@@H](Oc1ccc(-c2ccccc2)cc1)C(=O)OCCOCCOCCOCCOC(=O)c1ccc(-c2c3nc(c(-c4c(F)cccc4F)c4ccc([nH]4)c(-c4c(F)cccc4F)c4nc(c(-c5c(F)cccc5F)c5ccc2[nH]5)C=C4)C=C3)cc1
REMARK SMILES IDX 25 1 24 2 23 3 22 4 21 5 20 6 18 7 19 8 4 9 3 10 2 11 1 12
REMARK SMILES IDX 5 13 6 14 7 15 17 16 8 17 16 18 9 19 10 20 11 21 15 22 12 23
REMARK SMILES IDX 14 24 13 25 26 26 27 27 28 28 29 29 30 30 31 31 32 32 33 33
REMARK SMILES IDX 34 34 35 35 36 36 88 37 37 38 87 39 38 40 39 41 40 42 81 43
REMARK SMILES IDX 41 44 86 45 80 46 82 47 42 48 85 49 79 50 78 51 43 53 69 54
REMARK SMILES IDX 52 55 68 56 53 57 56 58 67 59 83 60 54 61 55 62 66 64 84 65
REMARK SMILES IDX 57 66 44 67 45 68 50 69 46 70 47 71 49 72 51 73 48 74 70 75
REMARK SMILES IDX 71 76 76 77 72 78 73 79 75 80 77 81 74 82 58 83 59 84 64 85
REMARK SMILES IDX 60 86 61 87 63 88 65 89 62 90
REMARK H PARENT 82 52 56 63
REMARK Flexibility Score: inf
ROOT
ATOM      1  C   UNL A   1      33.268  36.936  30.048  1.00  0.00     0.188 C 
ENDROOT
BRANCH   1   2
ATOM      2  C   UNL A   1      33.293  35.796  29.023  1.00  0.00     0.188 C 
BRANCH   2   3
ATOM      3  O   UNL A   1      34.441  35.591  28.217  1.00  0.00    -0.376 OA
BRANCH   3   4
ATOM      4  C   UNL A   1      35.300  34.477  28.430  1.00  0.00     0.202 C 
BRANCH   4   5
ATOM      5  C   UNL A   1      34.978  33.065  27.914  1.00  0.00     0.261 C 
BRANCH   5   6
ATOM      6  O   UNL A   1      36.043  32.098  27.976  1.00  0.00    -0.461 OA
BRANCH   6   7
ATOM      7  C   UNL A   1      36.213  31.463  29.163  1.00  0.00     0.347 C 
ATOM      8  O   UNL A   1      35.282  31.030  29.840  1.00  0.00    -0.248 OA
BRANCH   7   9
ATOM      9  C   UNL A   1      37.670  31.351  29.632  1.00  0.00     0.282 C 
BRANCH   9  10
ATOM     10  C   UNL A   1      38.115  32.221  30.827  1.00  0.00     0.057 C 
BRANCH  10  11
ATOM     11  C   UNL A   1      38.414  33.732  30.599  1.00  0.00     0.001 C 
ATOM     12  C   UNL A   1      38.981  34.221  29.271  1.00  0.00     0.004 C 
ENDBRANCH  10  11
ENDBRANCH   9  10
BRANCH   9  13
ATOM     13  O   UNL A   1      37.738  29.947  29.955  1.00  0.00    -0.479 OA
BRANCH  13  14
ATOM     14  C   UNL A   1      38.963  29.384  29.760  1.00  0.00     0.120 A 
ATOM     15  C   UNL A   1      39.800  29.954  28.807  1.00  0.00     0.047 A 
ATOM     16  C   UNL A   1      39.319  28.186  30.363  1.00  0.00     0.047 A 
ATOM     17  C   UNL A   1      40.988  29.305  28.450  1.00  0.00     0.012 A 
ATOM     18  C   UNL A   1      40.519  27.571  30.050  1.00  0.00     0.012 A 
ATOM     19  C   UNL A   1      41.348  28.087  29.050  1.00  0.00    -0.018 A 
BRANCH  19  20
ATOM     20  C   UNL A   1      42.493  27.287  28.603  1.00  0.00    -0.018 A 
ATOM     21  C   UNL A   1      42.836  26.071  29.204  1.00  0.00     0.009 A 
ATOM     22  C   UNL A   1      43.262  27.734  27.510  1.00  0.00     0.009 A 
ATOM     23  C   UNL A   1      43.906  25.318  28.713  1.00  0.00     0.001 A 
ATOM     24  C   UNL A   1      44.324  26.982  27.016  1.00  0.00     0.001 A 
ATOM     25  C   UNL A   1      44.644  25.771  27.619  1.00  0.00     0.000 A 
ENDBRANCH  19  20
ENDBRANCH  13  14
ENDBRANCH   9  13
ENDBRANCH   7   9
ENDBRANCH   6   7
ENDBRANCH   5   6
ENDBRANCH   4   5
ENDBRANCH   3   4
ENDBRANCH   2   3
ENDBRANCH   1   2
BRANCH   1  26
ATOM     26  O   UNL A   1      32.242  36.823  31.014  1.00  0.00    -0.377 OA
BRANCH  26  27
ATOM     27  C   UNL A   1      32.377  35.875  32.062  1.00  0.00     0.188 C 
BRANCH  27  28
ATOM     28  C   UNL A   1      33.541  36.024  33.055  1.00  0.00     0.188 C 
BRANCH  28  29
ATOM     29  O   UNL A   1      34.566  35.056  32.893  1.00  0.00    -0.376 OA
BRANCH  29  30
ATOM     30  C   UNL A   1      35.492  34.857  33.953  1.00  0.00     0.202 C 
BRANCH  30  31
ATOM     31  C   UNL A   1      35.693  33.427  34.484  1.00  0.00     0.261 C 
BRANCH  31  32
ATOM     32  O   UNL A   1      36.929  32.772  34.148  1.00  0.00    -0.460 OA
BRANCH  32  33
ATOM     33  C   UNL A   1      37.678  32.257  35.145  1.00  0.00     0.338 C 
ATOM     34  O   UNL A   1      37.397  32.200  36.323  1.00  0.00    -0.246 OA
BRANCH  33  35
ATOM     35  C   UNL A   1      38.844  31.581  34.531  1.00  0.00     0.060 A 
ATOM     36  C   UNL A   1      40.126  32.085  34.786  1.00  0.00     0.016 A 
ATOM     37  C   UNL A   1      38.673  30.479  33.691  1.00  0.00     0.016 A 
ATOM     38  C   UNL A   1      41.238  31.519  34.162  1.00  0.00     0.010 A 
ATOM     39  C   UNL A   1      39.787  29.926  33.049  1.00  0.00     0.010 A 
ATOM     40  C   UNL A   1      41.069  30.470  33.251  1.00  0.00    -0.014 A 
BRANCH  40  41
ATOM     41  C   UNL A   1      42.191  30.083  32.360  1.00  0.00     0.031 A 
ATOM     42  C   UNL A   1      42.900  28.783  32.628  1.00  0.00     0.074 A 
ATOM     43  C   UNL A   1      42.558  30.849  31.319  1.00  0.00     0.049 A 
ATOM     44  N   UNL A   1      43.938  28.260  32.028  1.00  0.00    -0.248 NA
ATOM     45  C   UNL A   1      42.362  27.961  33.725  1.00  0.00     0.031 C 
ATOM     46  C   UNL A   1      41.922  32.102  30.922  1.00  0.00     0.029 A 
ATOM     47  N   UNL A   1      43.572  30.681  30.407  1.00  0.00    -0.354 N 
ATOM     48  C   UNL A   1      44.185  27.058  32.680  1.00  0.00     0.074 A 
ATOM     49  C   UNL A   1      43.207  26.942  33.740  1.00  0.00     0.031 C 
ATOM     50  C   UNL A   1      42.570  32.600  29.854  1.00  0.00     0.029 A 
ATOM     51  C   UNL A   1      43.688  31.721  29.516  1.00  0.00     0.049 A 
ATOM     52  H   UNL A   1      44.159  29.891  30.392  1.00  0.00     0.167 HD
ATOM     53  C   UNL A   1      45.134  26.131  32.415  1.00  0.00     0.037 A 
ATOM     54  C   UNL A   1      44.610  31.948  28.559  1.00  0.00     0.037 A 
ATOM     55  C   UNL A   1      46.106  26.248  31.360  1.00  0.00     0.049 A 
ATOM     56  C   UNL A   1      45.711  30.940  28.338  1.00  0.00     0.074 A 
ATOM     57  C   UNL A   1      47.100  25.355  31.001  1.00  0.00     0.029 A 
ATOM     58  N   UNL A   1      46.212  27.333  30.502  1.00  0.00    -0.354 N 
ATOM     59  N   UNL A   1      45.923  29.797  28.945  1.00  0.00    -0.248 NA
ATOM     60  C   UNL A   1      46.699  31.256  27.296  1.00  0.00     0.031 C 
ATOM     61  C   UNL A   1      47.847  25.927  29.967  1.00  0.00     0.029 A 
ATOM     62  C   UNL A   1      47.276  27.145  29.636  1.00  0.00     0.049 A 
ATOM     63  H   UNL A   1      45.620  28.119  30.510  1.00  0.00     0.167 HD
ATOM     64  C   UNL A   1      47.045  29.244  28.336  1.00  0.00     0.074 A 
ATOM     65  C   UNL A   1      47.459  30.171  27.305  1.00  0.00     0.031 C 
ATOM     66  C   UNL A   1      47.673  28.072  28.606  1.00  0.00     0.037 A 
BRANCH  53  67
ATOM     67  C   UNL A   1      45.191  24.922  33.305  1.00  0.00     0.057 A 
ATOM     68  C   UNL A   1      45.827  24.943  34.554  1.00  0.00     0.134 A 
ATOM     69  C   UNL A   1      44.571  23.727  32.919  1.00  0.00     0.134 A 
ATOM     70  F   UNL A   1      46.454  26.051  34.979  1.00  0.00    -0.206 F 
ATOM     71  C   UNL A   1      45.866  23.814  35.374  1.00  0.00     0.040 A 
ATOM     72  C   UNL A   1      44.576  22.600  33.743  1.00  0.00     0.040 A 
ATOM     73  F   UNL A   1      43.941  23.637  31.738  1.00  0.00    -0.206 F 
ATOM     74  C   UNL A   1      45.231  22.640  34.972  1.00  0.00     0.006 A 
ENDBRANCH  53  67
BRANCH  54  75
ATOM     75  C   UNL A   1      44.554  33.192  27.748  1.00  0.00     0.057 A 
ATOM     76  C   UNL A   1      44.030  33.193  26.450  1.00  0.00     0.134 A 
ATOM     77  C   UNL A   1      45.057  34.404  28.239  1.00  0.00     0.134 A 
ATOM     78  F   UNL A   1      43.558  32.059  25.912  1.00  0.00    -0.206 F 
ATOM     79  C   UNL A   1      44.029  34.345  25.662  1.00  0.00     0.040 A 
ATOM     80  C   UNL A   1      45.033  35.571  27.473  1.00  0.00     0.040 A 
ATOM     81  F   UNL A   1      45.575  34.473  29.474  1.00  0.00    -0.206 F 
ATOM     82  C   UNL A   1      44.526  35.541  26.176  1.00  0.00     0.006 A 
ENDBRANCH  54  75
BRANCH  66  83
ATOM     83  C   UNL A   1      48.846  27.698  27.743  1.00  0.00     0.057 A 
ATOM     84  C   UNL A   1      50.160  28.048  28.079  1.00  0.00     0.134 A 
ATOM     85  C   UNL A   1      48.659  26.935  26.582  1.00  0.00     0.134 A 
ATOM     86  F   UNL A   1      50.411  28.784  29.171  1.00  0.00    -0.206 F 
ATOM     87  C   UNL A   1      51.242  27.676  27.277  1.00  0.00     0.040 A 
ATOM     88  C   UNL A   1      49.735  26.530  25.790  1.00  0.00     0.040 A 
ATOM     89  F   UNL A   1      47.428  26.555  26.207  1.00  0.00    -0.206 F 
ATOM     90  C   UNL A   1      51.030  26.908  26.134  1.00  0.00     0.006 A 
ENDBRANCH  66  83
ENDBRANCH  40  41
ENDBRANCH  33  35
ENDBRANCH  32  33
ENDBRANCH  31  32
ENDBRANCH  30  31
ENDBRANCH  29  30
ENDBRANCH  28  29
ENDBRANCH  27  28
ENDBRANCH  26  27
ENDBRANCH   1  26
TORSDOF 25
ENDMDL
MODEL 2
REMARK VINA RESULT:      -6.7      4.309      5.746
REMARK SMILES CCC[C@@H](Oc1ccc(-c2ccccc2)cc1)C(=O)OCCOCCOCCOCCOC(=O)c1ccc(-c2c3nc(c(-c4c(F)cccc4F)c4ccc([nH]4)c(-c4c(F)cccc4F)c4nc(c(-c5c(F)cccc5F)c5ccc2[nH]5)C=C4)C=C3)cc1
REMARK SMILES IDX 25 1 24 2 23 3 22 4 21 5 20 6 18 7 19 8 4 9 3 10 2 11 1 12
REMARK SMILES IDX 5 13 6 14 7 15 17 16 8 17 16 18 9 19 10 20 11 21 15 22 12 23
REMARK SMILES IDX 14 24 13 25 26 26 27 27 28 28 29 29 30 30 31 31 32 32 33 33
REMARK SMILES IDX 34 34 35 35 36 36 88 37 37 38 87 39 38 40 39 41 40 42 81 43
REMARK SMILES IDX 41 44 86 45 80 46 82 47 42 48 85 49 79 50 78 51 43 53 69 54
REMARK SMILES IDX 52 55 68 56 53 57 56 58 67 59 83 60 54 61 55 62 66 64 84 65
REMARK SMILES IDX 57 66 44 67 45 68 50 69 46 70 47 71 49 72 51 73 48 74 70 75
REMARK SMILES IDX 71 76 76 77 72 78 73 79 75 80 77 81 74 82 58 83 59 84 64 85
REMARK SMILES IDX 60 86 61 87 63 88 65 89 62 90
REMARK H PARENT 82 52 56 63
REMARK Flexibility Score: inf
ROOT
ATOM      1  C   UNL A   1      33.693  33.133  28.035  1.00  0.00     0.188 C 
ENDROOT
BRANCH   1   2
ATOM      2  C   UNL A   1      34.951  32.258  27.980  1.00  0.00     0.188 C 
BRANCH   2   3
ATOM      3  O   UNL A   1      34.913  30.928  28.469  1.00  0.00    -0.376 OA
BRANCH   3   4
ATOM      4  C   UNL A   1      35.333  29.835  27.660  1.00  0.00     0.202 C 
BRANCH   4   5
ATOM      5  C   UNL A   1      34.430  29.193  26.593  1.00  0.00     0.261 C 
BRANCH   5   6
ATOM      6  O   UNL A   1      33.019  29.173  26.871  1.00  0.00    -0.461 OA
BRANCH   6   7
ATOM      7  C   UNL A   1      32.192  29.157  25.796  1.00  0.00     0.347 C 
ATOM      8  O   UNL A   1      31.754  30.175  25.261  1.00  0.00    -0.248 OA
BRANCH   7   9
ATOM      9  C   UNL A   1      31.802  27.758  25.302  1.00  0.00     0.282 C 
BRANCH   9  10
ATOM     10  C   UNL A   1      30.428  27.587  24.620  1.00  0.00     0.057 C 
BRANCH  10  11
ATOM     11  C   UNL A   1      30.296  27.867  23.093  1.00  0.00     0.001 C 
ATOM     12  C   UNL A   1      29.327  28.926  22.577  1.00  0.00     0.004 C 
ENDBRANCH  10  11
ENDBRANCH   9  10
BRANCH   9  13
ATOM     13  O   UNL A   1      32.878  27.491  24.379  1.00  0.00    -0.479 OA
BRANCH  13  14
ATOM     14  C   UNL A   1      33.364  26.219  24.434  1.00  0.00     0.120 A 
ATOM     15  C   UNL A   1      33.566  25.650  25.687  1.00  0.00     0.047 A 
ATOM     16  C   UNL A   1      33.802  25.557  23.297  1.00  0.00     0.047 A 
ATOM     17  C   UNL A   1      34.227  24.421  25.793  1.00  0.00     0.012 A 
ATOM     18  C   UNL A   1      34.408  24.316  23.395  1.00  0.00     0.012 A 
ATOM     19  C   UNL A   1      34.682  23.751  24.645  1.00  0.00    -0.018 A 
BRANCH  19  20
ATOM     20  C   UNL A   1      35.516  22.546  24.704  1.00  0.00    -0.018 A 
ATOM     21  C   UNL A   1      36.913  22.600  24.645  1.00  0.00     0.009 A 
ATOM     22  C   UNL A   1      34.901  21.288  24.855  1.00  0.00     0.009 A 
ATOM     23  C   UNL A   1      37.670  21.431  24.754  1.00  0.00     0.001 A 
ATOM     24  C   UNL A   1      35.653  20.122  24.970  1.00  0.00     0.001 A 
ATOM     25  C   UNL A   1      37.041  20.197  24.921  1.00  0.00     0.000 A 
ENDBRANCH  19  20
ENDBRANCH  13  14
ENDBRANCH   9  13
ENDBRANCH   7   9
ENDBRANCH   6   7
ENDBRANCH   5   6
ENDBRANCH   4   5
ENDBRANCH   3   4
ENDBRANCH   2   3
ENDBRANCH   1   2
BRANCH   1  26
ATOM     26  O   UNL A   1      33.918  34.442  28.517  1.00  0.00    -0.377 OA
BRANCH  26  27
ATOM     27  C   UNL A   1      33.056  34.973  29.513  1.00  0.00     0.188 C 
BRANCH  27  28
ATOM     28  C   UNL A   1      33.473  36.257  30.249  1.00  0.00     0.188 C 
BRANCH  28  29
ATOM     29  O   UNL A   1      33.837  36.054  31.605  1.00  0.00    -0.376 OA
BRANCH  29  30
ATOM     30  C   UNL A   1      34.115  34.731  32.047  1.00  0.00     0.202 C 
BRANCH  30  31
ATOM     31  C   UNL A   1      35.585  34.284  32.118  1.00  0.00     0.261 C 
BRANCH  31  32
ATOM     32  O   UNL A   1      35.951  33.117  31.360  1.00  0.00    -0.460 OA
BRANCH  32  33
ATOM     33  C   UNL A   1      36.508  32.074  32.011  1.00  0.00     0.338 C 
ATOM     34  O   UNL A   1      35.965  31.309  32.779  1.00  0.00    -0.246 OA
BRANCH  33  35
ATOM     35  C   UNL A   1      37.878  31.888  31.476  1.00  0.00     0.060 A 
ATOM     36  C   UNL A   1      38.130  32.224  30.140  1.00  0.00     0.016 A 
ATOM     37  C   UNL A   1      38.894  31.363  32.277  1.00  0.00     0.016 A 
ATOM     38  C   UNL A   1      39.388  31.990  29.585  1.00  0.00     0.010 A 
ATOM     39  C   UNL A   1      40.149  31.109  31.712  1.00  0.00     0.010 A 
ATOM     40  C   UNL A   1      40.389  31.384  30.353  1.00  0.00    -0.014 A 
BRANCH  40  41
ATOM     41  C   UNL A   1      41.603  30.850  29.688  1.00  0.00     0.031 A 
ATOM     42  C   UNL A   1      41.571  29.440  29.166  1.00  0.00     0.074 A 
ATOM     43  C   UNL A   1      42.703  31.605  29.522  1.00  0.00     0.049 A 
ATOM     44  N   UNL A   1      42.519  28.737  28.603  1.00  0.00    -0.248 NA
ATOM     45  C   UNL A   1      40.290  28.725  29.299  1.00  0.00     0.031 C 
ATOM     46  C   UNL A   1      42.845  32.999  29.935  1.00  0.00     0.029 A 
ATOM     47  N   UNL A   1      43.920  31.292  28.965  1.00  0.00    -0.354 N 
ATOM     48  C   UNL A   1      41.956  27.496  28.326  1.00  0.00     0.074 A 
ATOM     49  C   UNL A   1      40.593  27.533  28.810  1.00  0.00     0.031 C 
ATOM     50  C   UNL A   1      44.086  33.419  29.631  1.00  0.00     0.029 A 
ATOM     51  C   UNL A   1      44.836  32.313  29.037  1.00  0.00     0.049 A 
ATOM     52  H   UNL A   1      44.115  30.420  28.553  1.00  0.00     0.167 HD
ATOM     53  C   UNL A   1      42.520  26.427  27.718  1.00  0.00     0.037 A 
ATOM     54  C   UNL A   1      46.139  32.339  28.690  1.00  0.00     0.037 A 
ATOM     55  C   UNL A   1      43.876  26.394  27.237  1.00  0.00     0.049 A 
ATOM     56  C   UNL A   1      46.769  31.107  28.090  1.00  0.00     0.074 A 
ATOM     57  C   UNL A   1      44.537  25.363  26.593  1.00  0.00     0.029 A 
ATOM     58  N   UNL A   1      44.783  27.436  27.361  1.00  0.00    -0.354 N 
ATOM     59  N   UNL A   1      46.224  29.947  27.813  1.00  0.00    -0.248 NA
ATOM     60  C   UNL A   1      48.198  31.190  27.755  1.00  0.00     0.031 C 
ATOM     61  C   UNL A   1      45.861  25.758  26.383  1.00  0.00     0.029 A 
ATOM     62  C   UNL A   1      46.007  27.060  26.834  1.00  0.00     0.049 A 
ATOM     63  H   UNL A   1      44.586  28.312  27.765  1.00  0.00     0.167 HD
ATOM     64  C   UNL A   1      47.231  29.177  27.241  1.00  0.00     0.074 A 
ATOM     65  C   UNL A   1      48.416  30.006  27.200  1.00  0.00     0.031 C 
ATOM     66  C   UNL A   1      47.178  27.899  26.789  1.00  0.00     0.037 A 
BRANCH  53  67
ATOM     67  C   UNL A   1      41.680  25.191  27.569  1.00  0.00     0.057 A 
ATOM     68  C   UNL A   1      41.828  24.082  28.413  1.00  0.00     0.134 A 
ATOM     69  C   UNL A   1      40.686  25.123  26.585  1.00  0.00     0.134 A 
ATOM     70  F   UNL A   1      42.772  24.075  29.367  1.00  0.00    -0.206 F 
ATOM     71  C   UNL A   1      41.036  22.942  28.267  1.00  0.00     0.040 A 
ATOM     72  C   UNL A   1      39.867  24.001  26.449  1.00  0.00     0.040 A 
ATOM     73  F   UNL A   1      40.487  26.150  25.745  1.00  0.00    -0.206 F 
ATOM     74  C   UNL A   1      40.045  22.903  27.288  1.00  0.00     0.006 A 
ENDBRANCH  53  67
BRANCH  54  75
ATOM     75  C   UNL A   1      46.949  33.564  28.919  1.00  0.00     0.057 A 
ATOM     76  C   UNL A   1      47.038  34.571  27.950  1.00  0.00     0.134 A 
ATOM     77  C   UNL A   1      47.683  33.740  30.099  1.00  0.00     0.134 A 
ATOM     78  F   UNL A   1      46.380  34.450  26.788  1.00  0.00    -0.206 F 
ATOM     79  C   UNL A   1      47.843  35.696  28.136  1.00  0.00     0.040 A 
ATOM     80  C   UNL A   1      48.469  34.875  30.310  1.00  0.00     0.040 A 
ATOM     81  F   UNL A   1      47.645  32.813  31.066  1.00  0.00    -0.206 F 
ATOM     82  C   UNL A   1      48.557  35.853  29.322  1.00  0.00     0.006 A 
ENDBRANCH  54  75
BRANCH  66  83
ATOM     83  C   UNL A   1      48.422  27.332  26.163  1.00  0.00     0.057 A 
ATOM     84  C   UNL A   1      48.638  27.356  24.779  1.00  0.00     0.134 A 
ATOM     85  C   UNL A   1      49.440  26.798  26.964  1.00  0.00     0.134 A 
ATOM     86  F   UNL A   1      47.701  27.845  23.952  1.00  0.00    -0.206 F 
ATOM     87  C   UNL A   1      49.808  26.844  24.214  1.00  0.00     0.040 A 
ATOM     88  C   UNL A   1      50.627  26.313  26.414  1.00  0.00     0.040 A 
ATOM     89  F   UNL A   1      49.306  26.755  28.298  1.00  0.00    -0.206 F 
ATOM     90  C   UNL A   1      50.810  26.328  25.033  1.00  0.00     0.006 A 
ENDBRANCH  66  83
ENDBRANCH  40  41
ENDBRANCH  33  35
ENDBRANCH  32  33
ENDBRANCH  31  32
ENDBRANCH  30  31
ENDBRANCH  29  30
ENDBRANCH  28  29
ENDBRANCH  27  28
ENDBRANCH  26  27
ENDBRANCH   1  26
TORSDOF 25
ENDMDL
MODEL 3
REMARK VINA RESULT:      -6.1      5.496      8.758
REMARK SMILES CCC[C@@H](Oc1ccc(-c2ccccc2)cc1)C(=O)OCCOCCOCCOCCOC(=O)c1ccc(-c2c3nc(c(-c4c(F)cccc4F)c4ccc([nH]4)c(-c4c(F)cccc4F)c4nc(c(-c5c(F)cccc5F)c5ccc2[nH]5)C=C4)C=C3)cc1
REMARK SMILES IDX 25 1 24 2 23 3 22 4 21 5 20 6 18 7 19 8 4 9 3 10 2 11 1 12
REMARK SMILES IDX 5 13 6 14 7 15 17 16 8 17 16 18 9 19 10 20 11 21 15 22 12 23
REMARK SMILES IDX 14 24 13 25 26 26 27 27 28 28 29 29 30 30 31 31 32 32 33 33
REMARK SMILES IDX 34 34 35 35 36 36 88 37 37 38 87 39 38 40 39 41 40 42 81 43
REMARK SMILES IDX 41 44 86 45 80 46 82 47 42 48 85 49 79 50 78 51 43 53 69 54
REMARK SMILES IDX 52 55 68 56 53 57 56 58 67 59 83 60 54 61 55 62 66 64 84 65
REMARK SMILES IDX 57 66 44 67 45 68 50 69 46 70 47 71 49 72 51 73 48 74 70 75
REMARK SMILES IDX 71 76 76 77 72 78 73 79 75 80 77 81 74 82 58 83 59 84 64 85
REMARK SMILES IDX 60 86 61 87 63 88 65 89 62 90
REMARK H PARENT 82 52 56 63
REMARK Flexibility Score: inf
ROOT
ATOM      1  C   UNL A   1      36.958  29.725  29.727  1.00  0.00     0.188 C 
ENDROOT
BRANCH   1   2
ATOM      2  C   UNL A   1      35.923  30.755  29.261  1.00  0.00     0.188 C 
BRANCH   2   3
ATOM      3  O   UNL A   1      35.544  30.813  27.896  1.00  0.00    -0.376 OA
BRANCH   3   4
ATOM      4  C   UNL A   1      35.055  29.660  27.220  1.00  0.00     0.202 C 
BRANCH   4   5
ATOM      5  C   UNL A   1      33.630  29.117  27.423  1.00  0.00     0.261 C 
BRANCH   5   6
ATOM      6  O   UNL A   1      33.328  27.855  26.801  1.00  0.00    -0.461 OA
BRANCH   6   7
ATOM      7  C   UNL A   1      32.019  27.502  26.757  1.00  0.00     0.347 C 
ATOM      8  O   UNL A   1      31.269  27.549  27.731  1.00  0.00    -0.248 OA
BRANCH   7   9
ATOM      9  C   UNL A   1      31.533  26.995  25.392  1.00  0.00     0.282 C 
BRANCH   9  10
ATOM     10  C   UNL A   1      30.697  27.955  24.518  1.00  0.00     0.057 C 
BRANCH  10  11
ATOM     11  C   UNL A   1      30.970  28.024  22.987  1.00  0.00     0.001 C 
ATOM     12  C   UNL A   1      30.564  29.253  22.179  1.00  0.00     0.004 C 
ENDBRANCH  10  11
ENDBRANCH   9  10
BRANCH   9  13
ATOM     13  O   UNL A   1      32.793  26.682  24.761  1.00  0.00    -0.479 OA
BRANCH  13  14
ATOM     14  C   UNL A   1      32.960  25.362  24.466  1.00  0.00     0.120 A 
ATOM     15  C   UNL A   1      31.831  24.552  24.429  1.00  0.00     0.047 A 
ATOM     16  C   UNL A   1      34.222  24.793  24.365  1.00  0.00     0.047 A 
ATOM     17  C   UNL A   1      31.976  23.165  24.308  1.00  0.00     0.012 A 
ATOM     18  C   UNL A   1      34.365  23.427  24.192  1.00  0.00     0.012 A 
ATOM     19  C   UNL A   1      33.251  22.582  24.215  1.00  0.00    -0.018 A 
BRANCH  19  20
ATOM     20  C   UNL A   1      33.468  21.133  24.248  1.00  0.00    -0.018 A 
ATOM     21  C   UNL A   1      34.664  20.566  24.703  1.00  0.00     0.009 A 
ATOM     22  C   UNL A   1      32.432  20.270  23.838  1.00  0.00     0.009 A 
ATOM     23  C   UNL A   1      34.809  19.177  24.762  1.00  0.00     0.001 A 
ATOM     24  C   UNL A   1      32.573  18.887  23.902  1.00  0.00     0.001 A 
ATOM     25  C   UNL A   1      33.764  18.341  24.368  1.00  0.00     0.000 A 
ENDBRANCH  19  20
ENDBRANCH  13  14
ENDBRANCH   9  13
ENDBRANCH   7   9
ENDBRANCH   6   7
ENDBRANCH   5   6
ENDBRANCH   4   5
ENDBRANCH   3   4
ENDBRANCH   2   3
ENDBRANCH   1   2
BRANCH   1  26
ATOM     26  O   UNL A   1      38.300  30.118  29.524  1.00  0.00    -0.377 OA
BRANCH  26  27
ATOM     27  C   UNL A   1      38.980  29.688  28.354  1.00  0.00     0.188 C 
BRANCH  27  28
ATOM     28  C   UNL A   1      39.032  28.185  28.034  1.00  0.00     0.188 C 
BRANCH  28  29
ATOM     29  O   UNL A   1      39.530  27.385  29.095  1.00  0.00    -0.376 OA
BRANCH  29  30
ATOM     30  C   UNL A   1      39.318  25.980  29.049  1.00  0.00     0.202 C 
BRANCH  30  31
ATOM     31  C   UNL A   1      39.860  25.204  27.837  1.00  0.00     0.261 C 
BRANCH  31  32
ATOM     32  O   UNL A   1      40.983  24.334  28.065  1.00  0.00    -0.460 OA
BRANCH  32  33
ATOM     33  C   UNL A   1      41.679  23.885  27.000  1.00  0.00     0.338 C 
ATOM     34  O   UNL A   1      41.343  23.032  26.206  1.00  0.00    -0.246 OA
BRANCH  33  35
ATOM     35  C   UNL A   1      42.865  24.758  26.836  1.00  0.00     0.060 A 
ATOM     36  C   UNL A   1      43.578  25.146  27.977  1.00  0.00     0.016 A 
ATOM     37  C   UNL A   1      43.253  25.210  25.573  1.00  0.00     0.016 A 
ATOM     38  C   UNL A   1      44.653  26.028  27.865  1.00  0.00     0.010 A 
ATOM     39  C   UNL A   1      44.318  26.111  25.464  1.00  0.00     0.010 A 
ATOM     40  C   UNL A   1      44.996  26.555  26.614  1.00  0.00    -0.014 A 
BRANCH  40  41
ATOM     41  C   UNL A   1      45.916  27.717  26.535  1.00  0.00     0.031 A 
ATOM     42  C   UNL A   1      47.387  27.454  26.359  1.00  0.00     0.074 A 
ATOM     43  C   UNL A   1      45.459  28.981  26.587  1.00  0.00     0.049 A 
ATOM     44  N   UNL A   1      48.387  28.296  26.320  1.00  0.00    -0.248 NA
ATOM     45  C   UNL A   1      47.782  26.043  26.207  1.00  0.00     0.031 C 
ATOM     46  C   UNL A   1      44.057  29.371  26.704  1.00  0.00     0.029 A 
ATOM     47  N   UNL A   1      46.141  30.173  26.558  1.00  0.00    -0.354 N 
ATOM     48  C   UNL A   1      49.527  27.520  26.152  1.00  0.00     0.074 A 
ATOM     49  C   UNL A   1      49.100  26.139  26.126  1.00  0.00     0.031 C 
ATOM     50  C   UNL A   1      43.981  30.713  26.752  1.00  0.00     0.029 A 
ATOM     51  C   UNL A   1      45.331  31.273  26.708  1.00  0.00     0.049 A 
ATOM     52  H   UNL A   1      47.116  30.234  26.440  1.00  0.00     0.167 HD
ATOM     53  C   UNL A   1      50.813  27.923  26.023  1.00  0.00     0.037 A 
ATOM     54  C   UNL A   1      45.648  32.578  26.824  1.00  0.00     0.037 A 
ATOM     55  C   UNL A   1      51.235  29.298  26.049  1.00  0.00     0.049 A 
ATOM     56  C   UNL A   1      47.097  32.995  26.762  1.00  0.00     0.074 A 
ATOM     57  C   UNL A   1      52.513  29.810  25.911  1.00  0.00     0.029 A 
ATOM     58  N   UNL A   1      50.389  30.381  26.238  1.00  0.00    -0.354 N 
ATOM     59  N   UNL A   1      48.166  32.258  26.582  1.00  0.00    -0.248 NA
ATOM     60  C   UNL A   1      47.380  34.429  26.920  1.00  0.00     0.031 C 
ATOM     61  C   UNL A   1      52.449  31.196  26.080  1.00  0.00     0.029 A 
ATOM     62  C   UNL A   1      51.122  31.556  26.252  1.00  0.00     0.049 A 
ATOM     63  H   UNL A   1      49.412  30.322  26.347  1.00  0.00     0.167 HD
ATOM     64  C   UNL A   1      49.241  33.139  26.569  1.00  0.00     0.074 A 
ATOM     65  C   UNL A   1      48.694  34.467  26.748  1.00  0.00     0.031 C 
ATOM     66  C   UNL A   1      50.563  32.873  26.421  1.00  0.00     0.037 A 
BRANCH  53  67
ATOM     67  C   UNL A   1      51.862  26.858  25.877  1.00  0.00     0.057 A 
ATOM     68  C   UNL A   1      52.286  26.394  24.625  1.00  0.00     0.134 A 
ATOM     69  C   UNL A   1      52.480  26.311  27.009  1.00  0.00     0.134 A 
ATOM     70  F   UNL A   1      51.725  26.864  23.500  1.00  0.00    -0.206 F 
ATOM     71  C   UNL A   1      53.267  25.408  24.504  1.00  0.00     0.040 A 
ATOM     72  C   UNL A   1      53.484  25.348  26.901  1.00  0.00     0.040 A 
ATOM     73  F   UNL A   1      52.126  26.712  28.240  1.00  0.00    -0.206 F 
ATOM     74  C   UNL A   1      53.876  24.889  25.645  1.00  0.00     0.006 A 
ENDBRANCH  53  67
BRANCH  54  75
ATOM     75  C   UNL A   1      44.581  33.591  27.036  1.00  0.00     0.057 A 
ATOM     76  C   UNL A   1      43.958  34.230  25.957  1.00  0.00     0.134 A 
ATOM     77  C   UNL A   1      44.183  33.969  28.325  1.00  0.00     0.134 A 
ATOM     78  F   UNL A   1      44.313  33.931  24.699  1.00  0.00    -0.206 F 
ATOM     79  C   UNL A   1      42.997  35.223  26.151  1.00  0.00     0.040 A 
ATOM     80  C   UNL A   1      43.201  34.940  28.533  1.00  0.00     0.040 A 
ATOM     81  F   UNL A   1      44.741  33.399  29.402  1.00  0.00    -0.206 F 
ATOM     82  C   UNL A   1      42.611  35.576  27.443  1.00  0.00     0.006 A 
ENDBRANCH  54  75
BRANCH  66  83
ATOM     83  C   UNL A   1      51.508  34.042  26.394  1.00  0.00     0.057 A 
ATOM     84  C   UNL A   1      52.155  34.504  27.548  1.00  0.00     0.134 A 
ATOM     85  C   UNL A   1      51.810  34.684  25.185  1.00  0.00     0.134 A 
ATOM     86  F   UNL A   1      51.906  33.941  28.740  1.00  0.00    -0.206 F 
ATOM     87  C   UNL A   1      53.047  35.578  27.504  1.00  0.00     0.040 A 
ATOM     88  C   UNL A   1      52.723  35.737  25.123  1.00  0.00     0.040 A 
ATOM     89  F   UNL A   1      51.237  34.285  24.040  1.00  0.00    -0.206 F 
ATOM     90  C   UNL A   1      53.338  36.193  26.287  1.00  0.00     0.006 A 
ENDBRANCH  66  83
ENDBRANCH  40  41
ENDBRANCH  33  35
ENDBRANCH  32  33
ENDBRANCH  31  32
ENDBRANCH  30  31
ENDBRANCH  29  30
ENDBRANCH  28  29
ENDBRANCH  27  28
ENDBRANCH  26  27
ENDBRANCH   1  26
TORSDOF 25
ENDMDL
