MODEL 1
REMARK VINA RESULT:     -11.4      0.000      0.000
REMARK SMILES Cc1onc(-c2ccccc2Cl)c1C(=O)N1CCCC[C@@H]1C(=O)OCCOCCOCCOCCOC(=O)c1ccc(-c2c3nc(c(-c4c(F)cccc4F)c4ccc([nH]4)c(-c4c(F)cccc4F)c4nc(c(-c5c(F)cccc5F)c5ccc2[nH]5)C=C4)C=C3)cc1
REMARK SMILES IDX 29 1 28 2 27 3 26 4 25 5 24 6 22 7 23 8 21 9 16 10 17 11
REMARK SMILES IDX 18 12 20 13 19 14 14 15 15 16 13 17 1 18 2 19 3 20 4 21 5 22
REMARK SMILES IDX 6 23 7 24 11 25 8 26 10 27 12 28 9 29 30 30 31 31 32 32
REMARK SMILES IDX 33 33 34 34 35 35 36 36 37 37 38 38 39 39 40 40 92 41 41 42
REMARK SMILES IDX 91 43 42 44 43 45 44 46 85 47 45 48 90 49 84 50 86 51 46 52
REMARK SMILES IDX 89 53 83 54 82 55 47 57 73 58 56 59 72 60 57 61 60 62 71 63
REMARK SMILES IDX 87 64 58 65 59 66 70 68 88 69 61 70 48 71 49 72 54 73 50 74
REMARK SMILES IDX 51 75 53 76 55 77 52 78 74 79 75 80 80 81 76 82 77 83 79 84
REMARK SMILES IDX 81 85 78 86 62 87 63 88 68 89 64 90 65 91 67 92 69 93 66 94
REMARK H PARENT 86 56 60 67
REMARK Flexibility Score: inf
ROOT
ATOM      1  C   UNL A   1      42.344  20.348  26.320  1.00  0.00     0.188 C 
ENDROOT
BRANCH   1   2
ATOM      2  C   UNL A   1      40.895  20.464  26.821  1.00  0.00     0.188 C 
BRANCH   2   3
ATOM      3  O   UNL A   1      40.147  21.461  26.163  1.00  0.00    -0.376 OA
BRANCH   3   4
ATOM      4  C   UNL A   1      38.824  21.251  25.727  1.00  0.00     0.202 C 
BRANCH   4   5
ATOM      5  C   UNL A   1      37.812  22.375  25.443  1.00  0.00     0.261 C 
BRANCH   5   6
ATOM      6  O   UNL A   1      36.768  22.208  24.478  1.00  0.00    -0.462 OA
BRANCH   6   7
ATOM      7  C   UNL A   1      35.564  21.890  24.989  1.00  0.00     0.328 C 
ATOM      8  O   UNL A   1      35.427  21.361  26.085  1.00  0.00    -0.250 OA
BRANCH   7   9
ATOM      9  C   UNL A   1      34.377  22.187  24.063  1.00  0.00     0.195 C 
ATOM     10  N   UNL A   1      33.867  23.582  24.047  1.00  0.00    -0.325 N 
ATOM     11  C   UNL A   1      32.905  23.874  22.988  1.00  0.00     0.121 C 
ATOM     12  C   UNL A   1      31.771  22.854  22.910  1.00  0.00     0.022 C 
ATOM     13  C   UNL A   1      33.219  21.177  24.071  1.00  0.00     0.037 C 
ATOM     14  C   UNL A   1      32.315  21.429  22.859  1.00  0.00     0.005 C 
BRANCH  10  15
ATOM     15  C   UNL A   1      33.800  24.358  25.206  1.00  0.00     0.260 C 
ATOM     16  O   UNL A   1      34.764  25.005  25.606  1.00  0.00    -0.269 OA
BRANCH  15  17
ATOM     17  C   UNL A   1      32.585  24.251  25.999  1.00  0.00     0.110 A 
ATOM     18  C   UNL A   1      33.057  22.309  27.766  1.00  0.00     0.092 C 
ATOM     19  C   UNL A   1      32.333  23.395  27.063  1.00  0.00     0.147 A 
ATOM     20  O   UNL A   1      31.076  23.611  27.525  1.00  0.00    -0.360 OA
ATOM     21  N   UNL A   1      30.506  24.659  26.849  1.00  0.00    -0.079 NA
ATOM     22  C   UNL A   1      31.425  25.088  25.967  1.00  0.00     0.128 A 
BRANCH  22  23
ATOM     23  C   UNL A   1      31.167  26.324  25.237  1.00  0.00     0.023 A 
ATOM     24  C   UNL A   1      30.231  26.248  24.188  1.00  0.00     0.012 A 
ATOM     25  C   UNL A   1      31.803  27.549  25.476  1.00  0.00     0.050 A 
ATOM     26  C   UNL A   1      29.938  27.360  23.399  1.00  0.00     0.001 A 
ATOM     27  C   UNL A   1      31.523  28.657  24.666  1.00  0.00     0.021 A 
ATOM     28  Cl  UNL A   1      32.952  27.793  26.733  1.00  0.00    -0.084 Cl
ATOM     29  C   UNL A   1      30.592  28.564  23.634  1.00  0.00     0.002 A 
ENDBRANCH  22  23
ENDBRANCH  15  17
ENDBRANCH  10  15
ENDBRANCH   7   9
ENDBRANCH   6   7
ENDBRANCH   5   6
ENDBRANCH   4   5
ENDBRANCH   3   4
ENDBRANCH   2   3
ENDBRANCH   1   2
BRANCH   1  30
ATOM     30  O   UNL A   1      42.666  19.256  25.472  1.00  0.00    -0.377 OA
BRANCH  30  31
ATOM     31  C   UNL A   1      43.768  19.338  24.567  1.00  0.00     0.188 C 
BRANCH  31  32
ATOM     32  C   UNL A   1      45.221  19.088  25.032  1.00  0.00     0.188 C 
BRANCH  32  33
ATOM     33  O   UNL A   1      46.106  20.170  24.814  1.00  0.00    -0.376 OA
BRANCH  33  34
ATOM     34  C   UNL A   1      45.945  21.341  25.595  1.00  0.00     0.202 C 
BRANCH  34  35
ATOM     35  C   UNL A   1      45.842  22.682  24.854  1.00  0.00     0.261 C 
BRANCH  35  36
ATOM     36  O   UNL A   1      44.968  23.667  25.431  1.00  0.00    -0.460 OA
BRANCH  36  37
ATOM     37  C   UNL A   1      43.718  23.764  24.940  1.00  0.00     0.338 C 
ATOM     38  O   UNL A   1      43.190  23.043  24.103  1.00  0.00    -0.246 OA
BRANCH  37  39
ATOM     39  C   UNL A   1      42.997  24.780  25.730  1.00  0.00     0.060 A 
ATOM     40  C   UNL A   1      43.511  26.083  25.802  1.00  0.00     0.016 A 
ATOM     41  C   UNL A   1      41.828  24.439  26.413  1.00  0.00     0.016 A 
ATOM     42  C   UNL A   1      42.891  27.032  26.610  1.00  0.00     0.010 A 
ATOM     43  C   UNL A   1      41.225  25.382  27.246  1.00  0.00     0.010 A 
ATOM     44  C   UNL A   1      41.786  26.664  27.386  1.00  0.00    -0.014 A 
BRANCH  44  45
ATOM     45  C   UNL A   1      41.398  27.515  28.535  1.00  0.00     0.031 A 
ATOM     46  C   UNL A   1      42.207  27.395  29.799  1.00  0.00     0.074 A 
ATOM     47  C   UNL A   1      40.388  28.397  28.455  1.00  0.00     0.049 A 
ATOM     48  N   UNL A   1      42.044  27.986  30.953  1.00  0.00    -0.248 NA
ATOM     49  C   UNL A   1      43.358  26.476  29.751  1.00  0.00     0.031 C 
ATOM     50  C   UNL A   1      39.571  28.646  27.270  1.00  0.00     0.029 A 
ATOM     51  N   UNL A   1      39.878  29.245  29.404  1.00  0.00    -0.354 N 
ATOM     52  C   UNL A   1      43.061  27.502  31.768  1.00  0.00     0.074 A 
ATOM     53  C   UNL A   1      43.814  26.546  30.990  1.00  0.00     0.031 C 
ATOM     54  C   UNL A   1      38.649  29.579  27.568  1.00  0.00     0.029 A 
ATOM     55  C   UNL A   1      38.792  29.964  28.971  1.00  0.00     0.049 A 
ATOM     56  H   UNL A   1      40.255  29.331  30.310  1.00  0.00     0.167 HD
ATOM     57  C   UNL A   1      43.349  27.834  33.048  1.00  0.00     0.037 A 
ATOM     58  C   UNL A   1      37.993  30.816  29.644  1.00  0.00     0.037 A 
ATOM     59  C   UNL A   1      42.595  28.784  33.820  1.00  0.00     0.049 A 
ATOM     60  C   UNL A   1      38.282  31.107  31.095  1.00  0.00     0.074 A 
ATOM     61  C   UNL A   1      42.802  29.195  35.124  1.00  0.00     0.029 A 
ATOM     62  N   UNL A   1      41.479  29.466  33.357  1.00  0.00    -0.354 N 
ATOM     63  N   UNL A   1      39.250  30.656  31.857  1.00  0.00    -0.248 NA
ATOM     64  C   UNL A   1      37.368  32.034  31.778  1.00  0.00     0.031 C 
ATOM     65  C   UNL A   1      41.778  30.083  35.469  1.00  0.00     0.029 A 
ATOM     66  C   UNL A   1      40.972  30.278  34.358  1.00  0.00     0.049 A 
ATOM     67  H   UNL A   1      41.103  29.386  32.450  1.00  0.00     0.167 HD
ATOM     68  C   UNL A   1      39.085  31.273  33.092  1.00  0.00     0.074 A 
ATOM     69  C   UNL A   1      37.929  32.135  32.975  1.00  0.00     0.031 C 
ATOM     70  C   UNL A   1      39.828  31.143  34.220  1.00  0.00     0.037 A 
BRANCH  57  71
ATOM     71  C   UNL A   1      44.504  27.131  33.700  1.00  0.00     0.057 A 
ATOM     72  C   UNL A   1      45.806  27.649  33.671  1.00  0.00     0.134 A 
ATOM     73  C   UNL A   1      44.308  25.920  34.377  1.00  0.00     0.134 A 
ATOM     74  F   UNL A   1      46.067  28.795  33.023  1.00  0.00    -0.206 F 
ATOM     75  C   UNL A   1      46.875  26.975  34.266  1.00  0.00     0.040 A 
ATOM     76  C   UNL A   1      45.363  25.254  35.003  1.00  0.00     0.040 A 
ATOM     77  F   UNL A   1      43.089  25.366  34.445  1.00  0.00    -0.206 F 
ATOM     78  C   UNL A   1      46.652  25.777  34.940  1.00  0.00     0.006 A 
ENDBRANCH  57  71
BRANCH  58  79
ATOM     79  C   UNL A   1      36.835  31.449  28.962  1.00  0.00     0.057 A 
ATOM     80  C   UNL A   1      36.854  32.801  28.600  1.00  0.00     0.134 A 
ATOM     81  C   UNL A   1      35.670  30.724  28.681  1.00  0.00     0.134 A 
ATOM     82  F   UNL A   1      37.931  33.555  28.865  1.00  0.00    -0.206 F 
ATOM     83  C   UNL A   1      35.751  33.415  28.004  1.00  0.00     0.040 A 
ATOM     84  C   UNL A   1      34.570  31.318  28.059  1.00  0.00     0.040 A 
ATOM     85  F   UNL A   1      35.586  29.426  29.002  1.00  0.00    -0.206 F 
ATOM     86  C   UNL A   1      34.606  32.670  27.727  1.00  0.00     0.006 A 
ENDBRANCH  58  79
BRANCH  70  87
ATOM     87  C   UNL A   1      39.453  31.996  35.399  1.00  0.00     0.057 A 
ATOM     88  C   UNL A   1      38.602  31.541  36.413  1.00  0.00     0.134 A 
ATOM     89  C   UNL A   1      39.991  33.284  35.539  1.00  0.00     0.134 A 
ATOM     90  F   UNL A   1      38.045  30.322  36.338  1.00  0.00    -0.206 F 
ATOM     91  C   UNL A   1      38.273  32.345  37.507  1.00  0.00     0.040 A 
ATOM     92  C   UNL A   1      39.697  34.084  36.644  1.00  0.00     0.040 A 
ATOM     93  F   UNL A   1      40.825  33.778  34.612  1.00  0.00    -0.206 F 
ATOM     94  C   UNL A   1      38.828  33.618  37.628  1.00  0.00     0.006 A 
ENDBRANCH  70  87
ENDBRANCH  44  45
ENDBRANCH  37  39
ENDBRANCH  36  37
ENDBRANCH  35  36
ENDBRANCH  34  35
ENDBRANCH  33  34
ENDBRANCH  32  33
ENDBRANCH  31  32
ENDBRANCH  30  31
ENDBRANCH   1  30
TORSDOF 23
ENDMDL
MODEL 2
REMARK VINA RESULT:     -10.7      4.616     10.403
REMARK SMILES Cc1onc(-c2ccccc2Cl)c1C(=O)N1CCCC[C@@H]1C(=O)OCCOCCOCCOCCOC(=O)c1ccc(-c2c3nc(c(-c4c(F)cccc4F)c4ccc([nH]4)c(-c4c(F)cccc4F)c4nc(c(-c5c(F)cccc5F)c5ccc2[nH]5)C=C4)C=C3)cc1
REMARK SMILES IDX 29 1 28 2 27 3 26 4 25 5 24 6 22 7 23 8 21 9 16 10 17 11
REMARK SMILES IDX 18 12 20 13 19 14 14 15 15 16 13 17 1 18 2 19 3 20 4 21 5 22
REMARK SMILES IDX 6 23 7 24 11 25 8 26 10 27 12 28 9 29 30 30 31 31 32 32
REMARK SMILES IDX 33 33 34 34 35 35 36 36 37 37 38 38 39 39 40 40 92 41 41 42
REMARK SMILES IDX 91 43 42 44 43 45 44 46 85 47 45 48 90 49 84 50 86 51 46 52
REMARK SMILES IDX 89 53 83 54 82 55 47 57 73 58 56 59 72 60 57 61 60 62 71 63
REMARK SMILES IDX 87 64 58 65 59 66 70 68 88 69 61 70 48 71 49 72 54 73 50 74
REMARK SMILES IDX 51 75 53 76 55 77 52 78 74 79 75 80 80 81 76 82 77 83 79 84
REMARK SMILES IDX 81 85 78 86 62 87 63 88 68 89 64 90 65 91 67 92 69 93 66 94
REMARK H PARENT 86 56 60 67
REMARK Flexibility Score: inf
ROOT
ATOM      1  C   UNL A   1      34.114  33.566  28.754  1.00  0.00     0.188 C 
ENDROOT
BRANCH   1   2
ATOM      2  C   UNL A   1      32.999  33.552  27.695  1.00  0.00     0.188 C 
BRANCH   2   3
ATOM      3  O   UNL A   1      32.479  32.267  27.438  1.00  0.00    -0.376 OA
BRANCH   3   4
ATOM      4  C   UNL A   1      33.302  31.137  27.271  1.00  0.00     0.202 C 
BRANCH   4   5
ATOM      5  C   UNL A   1      32.804  29.681  27.323  1.00  0.00     0.261 C 
BRANCH   5   6
ATOM      6  O   UNL A   1      33.261  28.706  26.381  1.00  0.00    -0.462 OA
BRANCH   6   7
ATOM      7  C   UNL A   1      32.487  28.560  25.290  1.00  0.00     0.328 C 
ATOM      8  O   UNL A   1      32.439  29.393  24.394  1.00  0.00    -0.250 OA
BRANCH   7   9
ATOM      9  C   UNL A   1      31.620  27.293  25.285  1.00  0.00     0.195 C 
ATOM     10  N   UNL A   1      32.324  25.993  25.424  1.00  0.00    -0.325 N 
ATOM     11  C   UNL A   1      31.455  24.843  25.653  1.00  0.00     0.121 C 
ATOM     12  C   UNL A   1      30.297  24.758  24.660  1.00  0.00     0.022 C 
ATOM     13  C   UNL A   1      30.515  27.211  24.220  1.00  0.00     0.037 C 
ATOM     14  C   UNL A   1      29.543  26.082  24.581  1.00  0.00     0.005 C 
BRANCH  10  15
ATOM     15  C   UNL A   1      33.559  25.753  24.817  1.00  0.00     0.260 C 
ATOM     16  O   UNL A   1      34.618  26.000  25.387  1.00  0.00    -0.269 OA
BRANCH  15  17
ATOM     17  C   UNL A   1      33.536  25.334  23.424  1.00  0.00     0.110 A 
ATOM     18  C   UNL A   1      33.602  27.590  22.001  1.00  0.00     0.092 C 
ATOM     19  C   UNL A   1      33.573  26.137  22.291  1.00  0.00     0.147 A 
ATOM     20  O   UNL A   1      33.528  25.353  21.184  1.00  0.00    -0.360 OA
ATOM     21  N   UNL A   1      33.552  24.032  21.549  1.00  0.00    -0.079 NA
ATOM     22  C   UNL A   1      33.613  24.009  22.891  1.00  0.00     0.128 A 
BRANCH  22  23
ATOM     23  C   UNL A   1      33.845  22.731  23.557  1.00  0.00     0.023 A 
ATOM     24  C   UNL A   1      32.743  21.858  23.636  1.00  0.00     0.012 A 
ATOM     25  C   UNL A   1      35.052  22.337  24.146  1.00  0.00     0.050 A 
ATOM     26  C   UNL A   1      32.842  20.628  24.285  1.00  0.00     0.001 A 
ATOM     27  C   UNL A   1      35.141  21.111  24.818  1.00  0.00     0.021 A 
ATOM     28  Cl  UNL A   1      36.483  23.293  24.111  1.00  0.00    -0.084 Cl
ATOM     29  C   UNL A   1      34.040  20.258  24.884  1.00  0.00     0.002 A 
ENDBRANCH  22  23
ENDBRANCH  15  17
ENDBRANCH  10  15
ENDBRANCH   7   9
ENDBRANCH   6   7
ENDBRANCH   5   6
ENDBRANCH   4   5
ENDBRANCH   3   4
ENDBRANCH   2   3
ENDBRANCH   1   2
BRANCH   1  30
ATOM     30  O   UNL A   1      34.358  34.785  29.441  1.00  0.00    -0.377 OA
BRANCH  30  31
ATOM     31  C   UNL A   1      33.274  35.568  29.940  1.00  0.00     0.188 C 
BRANCH  31  32
ATOM     32  C   UNL A   1      33.196  35.996  31.423  1.00  0.00     0.188 C 
BRANCH  32  33
ATOM     33  O   UNL A   1      34.246  35.507  32.237  1.00  0.00    -0.376 OA
BRANCH  33  34
ATOM     34  C   UNL A   1      34.001  34.366  33.038  1.00  0.00     0.202 C 
BRANCH  34  35
ATOM     35  C   UNL A   1      34.465  33.004  32.499  1.00  0.00     0.261 C 
BRANCH  35  36
ATOM     36  O   UNL A   1      35.851  32.900  32.132  1.00  0.00    -0.460 OA
BRANCH  36  37
ATOM     37  C   UNL A   1      36.675  32.237  32.965  1.00  0.00     0.338 C 
ATOM     38  O   UNL A   1      36.582  32.143  34.182  1.00  0.00    -0.246 OA
BRANCH  37  39
ATOM     39  C   UNL A   1      37.622  31.459  32.145  1.00  0.00     0.060 A 
ATOM     40  C   UNL A   1      38.635  30.726  32.780  1.00  0.00     0.016 A 
ATOM     41  C   UNL A   1      37.521  31.473  30.753  1.00  0.00     0.016 A 
ATOM     42  C   UNL A   1      39.589  30.055  32.019  1.00  0.00     0.010 A 
ATOM     43  C   UNL A   1      38.494  30.825  29.991  1.00  0.00     0.010 A 
ATOM     44  C   UNL A   1      39.560  30.159  30.624  1.00  0.00    -0.014 A 
BRANCH  44  45
ATOM     45  C   UNL A   1      40.777  29.819  29.851  1.00  0.00     0.031 A 
ATOM     46  C   UNL A   1      40.871  28.435  29.266  1.00  0.00     0.074 A 
ATOM     47  C   UNL A   1      41.754  30.715  29.636  1.00  0.00     0.049 A 
ATOM     48  N   UNL A   1      41.843  27.875  28.596  1.00  0.00    -0.248 NA
ATOM     49  C   UNL A   1      39.701  27.562  29.470  1.00  0.00     0.031 C 
ATOM     50  C   UNL A   1      41.752  32.100  30.100  1.00  0.00     0.029 A 
ATOM     51  N   UNL A   1      42.946  30.581  28.971  1.00  0.00    -0.354 N 
ATOM     52  C   UNL A   1      41.409  26.586  28.311  1.00  0.00     0.074 A 
ATOM     53  C   UNL A   1      40.102  26.434  28.908  1.00  0.00     0.031 C 
ATOM     54  C   UNL A   1      42.898  32.688  29.714  1.00  0.00     0.029 A 
ATOM     55  C   UNL A   1      43.726  31.711  29.009  1.00  0.00     0.049 A 
ATOM     56  H   UNL A   1      43.217  29.755  28.509  1.00  0.00     0.167 HD
ATOM     57  C   UNL A   1      42.039  25.618  27.606  1.00  0.00     0.037 A 
ATOM     58  C   UNL A   1      44.975  31.916  28.546  1.00  0.00     0.037 A 
ATOM     59  C   UNL A   1      43.341  25.774  27.016  1.00  0.00     0.049 A 
ATOM     60  C   UNL A   1      45.691  30.796  27.835  1.00  0.00     0.074 A 
ATOM     61  C   UNL A   1      44.069  24.857  26.279  1.00  0.00     0.029 A 
ATOM     62  N   UNL A   1      44.115  26.922  27.107  1.00  0.00    -0.354 N 
ATOM     63  N   UNL A   1      45.272  29.584  27.560  1.00  0.00    -0.248 NA
ATOM     64  C   UNL A   1      47.056  31.077  27.366  1.00  0.00     0.031 C 
ATOM     65  C   UNL A   1      45.307  25.431  25.972  1.00  0.00     0.029 A 
ATOM     66  C   UNL A   1      45.323  26.729  26.458  1.00  0.00     0.049 A 
ATOM     67  H   UNL A   1      43.845  27.751  27.563  1.00  0.00     0.167 HD
ATOM     68  C   UNL A   1      46.302  28.974  26.851  1.00  0.00     0.074 A 
ATOM     69  C   UNL A   1      47.362  29.953  26.734  1.00  0.00     0.031 C 
ATOM     70  C   UNL A   1      46.362  27.719  26.338  1.00  0.00     0.037 A 
BRANCH  57  71
ATOM     71  C   UNL A   1      41.340  24.297  27.472  1.00  0.00     0.057 A 
ATOM     72  C   UNL A   1      41.713  23.176  28.227  1.00  0.00     0.134 A 
ATOM     73  C   UNL A   1      40.270  24.146  26.581  1.00  0.00     0.134 A 
ATOM     74  F   UNL A   1      42.742  23.246  29.085  1.00  0.00    -0.206 F 
ATOM     75  C   UNL A   1      41.066  21.947  28.079  1.00  0.00     0.040 A 
ATOM     76  C   UNL A   1      39.595  22.931  26.447  1.00  0.00     0.040 A 
ATOM     77  F   UNL A   1      39.860  25.177  25.827  1.00  0.00    -0.206 F 
ATOM     78  C   UNL A   1      39.999  21.825  27.191  1.00  0.00     0.006 A 
ENDBRANCH  57  71
BRANCH  58  79
ATOM     79  C   UNL A   1      45.637  33.231  28.747  1.00  0.00     0.057 A 
ATOM     80  C   UNL A   1      45.488  34.270  27.822  1.00  0.00     0.134 A 
ATOM     81  C   UNL A   1      46.460  33.469  29.855  1.00  0.00     0.134 A 
ATOM     82  F   UNL A   1      44.734  34.095  26.726  1.00  0.00    -0.206 F 
ATOM     83  C   UNL A   1      46.148  35.490  27.978  1.00  0.00     0.040 A 
ATOM     84  C   UNL A   1      47.103  34.695  30.040  1.00  0.00     0.040 A 
ATOM     85  F   UNL A   1      46.646  32.516  30.779  1.00  0.00    -0.206 F 
ATOM     86  C   UNL A   1      46.954  35.707  29.094  1.00  0.00     0.006 A 
ENDBRANCH  58  79
BRANCH  70  87
ATOM     87  C   UNL A   1      47.588  27.352  25.549  1.00  0.00     0.057 A 
ATOM     88  C   UNL A   1      47.689  27.579  24.171  1.00  0.00     0.134 A 
ATOM     89  C   UNL A   1      48.705  26.801  26.194  1.00  0.00     0.134 A 
ATOM     90  F   UNL A   1      46.654  28.095  23.489  1.00  0.00    -0.206 F 
ATOM     91  C   UNL A   1      48.841  27.241  23.457  1.00  0.00     0.040 A 
ATOM     92  C   UNL A   1      49.873  26.491  25.499  1.00  0.00     0.040 A 
ATOM     93  F   UNL A   1      48.683  26.571  27.516  1.00  0.00    -0.206 F 
ATOM     94  C   UNL A   1      49.941  26.703  24.123  1.00  0.00     0.006 A 
ENDBRANCH  70  87
ENDBRANCH  44  45
ENDBRANCH  37  39
ENDBRANCH  36  37
ENDBRANCH  35  36
ENDBRANCH  34  35
ENDBRANCH  33  34
ENDBRANCH  32  33
ENDBRANCH  31  32
ENDBRANCH  30  31
ENDBRANCH   1  30
TORSDOF 23
ENDMDL
MODEL 3
REMARK VINA RESULT:     -10.7      4.461      9.874
REMARK SMILES Cc1onc(-c2ccccc2Cl)c1C(=O)N1CCCC[C@@H]1C(=O)OCCOCCOCCOCCOC(=O)c1ccc(-c2c3nc(c(-c4c(F)cccc4F)c4ccc([nH]4)c(-c4c(F)cccc4F)c4nc(c(-c5c(F)cccc5F)c5ccc2[nH]5)C=C4)C=C3)cc1
REMARK SMILES IDX 29 1 28 2 27 3 26 4 25 5 24 6 22 7 23 8 21 9 16 10 17 11
REMARK SMILES IDX 18 12 20 13 19 14 14 15 15 16 13 17 1 18 2 19 3 20 4 21 5 22
REMARK SMILES IDX 6 23 7 24 11 25 8 26 10 27 12 28 9 29 30 30 31 31 32 32
REMARK SMILES IDX 33 33 34 34 35 35 36 36 37 37 38 38 39 39 40 40 92 41 41 42
REMARK SMILES IDX 91 43 42 44 43 45 44 46 85 47 45 48 90 49 84 50 86 51 46 52
REMARK SMILES IDX 89 53 83 54 82 55 47 57 73 58 56 59 72 60 57 61 60 62 71 63
REMARK SMILES IDX 87 64 58 65 59 66 70 68 88 69 61 70 48 71 49 72 54 73 50 74
REMARK SMILES IDX 51 75 53 76 55 77 52 78 74 79 75 80 80 81 76 82 77 83 79 84
REMARK SMILES IDX 81 85 78 86 62 87 63 88 68 89 64 90 65 91 67 92 69 93 66 94
REMARK H PARENT 86 56 60 67
REMARK Flexibility Score: inf
ROOT
ATOM      1  C   UNL A   1      34.792  31.098  27.972  1.00  0.00     0.188 C 
ENDROOT
BRANCH   1   2
ATOM      2  C   UNL A   1      33.487  30.542  27.380  1.00  0.00     0.188 C 
BRANCH   2   3
ATOM      3  O   UNL A   1      33.667  29.375  26.611  1.00  0.00    -0.376 OA
BRANCH   3   4
ATOM      4  C   UNL A   1      33.544  29.366  25.208  1.00  0.00     0.202 C 
BRANCH   4   5
ATOM      5  C   UNL A   1      32.208  29.257  24.451  1.00  0.00     0.261 C 
BRANCH   5   6
ATOM      6  O   UNL A   1      32.106  28.524  23.226  1.00  0.00    -0.462 OA
BRANCH   6   7
ATOM      7  C   UNL A   1      31.194  27.534  23.227  1.00  0.00     0.328 C 
ATOM      8  O   UNL A   1      30.096  27.644  23.759  1.00  0.00    -0.250 OA
BRANCH   7   9
ATOM      9  C   UNL A   1      31.660  26.233  22.561  1.00  0.00     0.195 C 
ATOM     10  N   UNL A   1      31.943  25.081  23.454  1.00  0.00    -0.325 N 
ATOM     11  C   UNL A   1      32.150  23.807  22.772  1.00  0.00     0.121 C 
ATOM     12  C   UNL A   1      33.157  23.897  21.626  1.00  0.00     0.022 C 
ATOM     13  C   UNL A   1      32.732  26.357  21.466  1.00  0.00     0.037 C 
ATOM     14  C   UNL A   1      32.811  25.044  20.680  1.00  0.00     0.005 C 
BRANCH  10  15
ATOM     15  C   UNL A   1      32.548  25.245  24.702  1.00  0.00     0.260 C 
ATOM     16  O   UNL A   1      33.555  25.934  24.847  1.00  0.00    -0.269 OA
BRANCH  15  17
ATOM     17  C   UNL A   1      32.020  24.447  25.798  1.00  0.00     0.110 A 
ATOM     18  C   UNL A   1      29.607  25.458  26.318  1.00  0.00     0.092 C 
ATOM     19  C   UNL A   1      30.785  24.564  26.422  1.00  0.00     0.147 A 
ATOM     20  O   UNL A   1      30.686  23.630  27.401  1.00  0.00    -0.360 OA
ATOM     21  N   UNL A   1      31.795  22.825  27.390  1.00  0.00    -0.079 NA
ATOM     22  C   UNL A   1      32.579  23.273  26.393  1.00  0.00     0.128 A 
BRANCH  22  23
ATOM     23  C   UNL A   1      33.748  22.484  26.019  1.00  0.00     0.023 A 
ATOM     24  C   UNL A   1      35.001  22.999  26.404  1.00  0.00     0.012 A 
ATOM     25  C   UNL A   1      33.715  21.293  25.283  1.00  0.00     0.050 A 
ATOM     26  C   UNL A   1      36.185  22.347  26.063  1.00  0.00     0.001 A 
ATOM     27  C   UNL A   1      34.908  20.654  24.923  1.00  0.00     0.021 A 
ATOM     28  Cl  UNL A   1      32.259  20.539  24.762  1.00  0.00    -0.084 Cl
ATOM     29  C   UNL A   1      36.139  21.178  25.315  1.00  0.00     0.002 A 
ENDBRANCH  22  23
ENDBRANCH  15  17
ENDBRANCH  10  15
ENDBRANCH   7   9
ENDBRANCH   6   7
ENDBRANCH   5   6
ENDBRANCH   4   5
ENDBRANCH   3   4
ENDBRANCH   2   3
ENDBRANCH   1   2
BRANCH   1  30
ATOM     30  O   UNL A   1      35.237  32.368  27.518  1.00  0.00    -0.377 OA
BRANCH  30  31
ATOM     31  C   UNL A   1      34.970  33.546  28.280  1.00  0.00     0.188 C 
BRANCH  31  32
ATOM     32  C   UNL A   1      33.624  33.752  29.012  1.00  0.00     0.188 C 
BRANCH  32  33
ATOM     33  O   UNL A   1      33.631  34.778  29.986  1.00  0.00    -0.376 OA
BRANCH  33  34
ATOM     34  C   UNL A   1      34.657  34.774  30.963  1.00  0.00     0.202 C 
BRANCH  34  35
ATOM     35  C   UNL A   1      34.428  33.939  32.231  1.00  0.00     0.261 C 
BRANCH  35  36
ATOM     36  O   UNL A   1      34.925  32.591  32.209  1.00  0.00    -0.460 OA
BRANCH  36  37
ATOM     37  C   UNL A   1      36.008  32.307  32.958  1.00  0.00     0.338 C 
ATOM     38  O   UNL A   1      36.177  32.558  34.145  1.00  0.00    -0.246 OA
BRANCH  37  39
ATOM     39  C   UNL A   1      36.904  31.452  32.158  1.00  0.00     0.060 A 
ATOM     40  C   UNL A   1      37.721  30.517  32.809  1.00  0.00     0.016 A 
ATOM     41  C   UNL A   1      36.949  31.590  30.769  1.00  0.00     0.016 A 
ATOM     42  C   UNL A   1      38.633  29.761  32.078  1.00  0.00     0.010 A 
ATOM     43  C   UNL A   1      37.884  30.853  30.041  1.00  0.00     0.010 A 
ATOM     44  C   UNL A   1      38.764  29.976  30.702  1.00  0.00    -0.014 A 
BRANCH  44  45
ATOM     45  C   UNL A   1      39.987  29.504  30.013  1.00  0.00     0.031 A 
ATOM     46  C   UNL A   1      41.118  30.485  29.845  1.00  0.00     0.074 A 
ATOM     47  C   UNL A   1      40.116  28.239  29.582  1.00  0.00     0.049 A 
ATOM     48  N   UNL A   1      42.267  30.339  29.239  1.00  0.00    -0.248 NA
ATOM     49  C   UNL A   1      40.919  31.817  30.444  1.00  0.00     0.031 C 
ATOM     50  C   UNL A   1      39.117  27.184  29.739  1.00  0.00     0.029 A 
ATOM     51  N   UNL A   1      41.150  27.632  28.916  1.00  0.00    -0.354 N 
ATOM     52  C   UNL A   1      42.919  31.559  29.374  1.00  0.00     0.074 A 
ATOM     53  C   UNL A   1      42.027  32.443  30.087  1.00  0.00     0.031 C 
ATOM     54  C   UNL A   1      39.584  26.058  29.170  1.00  0.00     0.029 A 
ATOM     55  C   UNL A   1      40.896  26.325  28.582  1.00  0.00     0.049 A 
ATOM     56  H   UNL A   1      41.995  28.089  28.699  1.00  0.00     0.167 HD
ATOM     57  C   UNL A   1      44.156  31.908  28.949  1.00  0.00     0.037 A 
ATOM     58  C   UNL A   1      41.633  25.456  27.863  1.00  0.00     0.037 A 
ATOM     59  C   UNL A   1      45.038  31.024  28.237  1.00  0.00     0.049 A 
ATOM     60  C   UNL A   1      42.974  25.893  27.328  1.00  0.00     0.074 A 
ATOM     61  C   UNL A   1      46.314  31.276  27.764  1.00  0.00     0.029 A 
ATOM     62  N   UNL A   1      44.731  29.718  27.886  1.00  0.00    -0.354 N 
ATOM     63  N   UNL A   1      43.589  27.043  27.467  1.00  0.00    -0.248 NA
ATOM     64  C   UNL A   1      43.725  24.906  26.539  1.00  0.00     0.031 C 
ATOM     65  C   UNL A   1      46.755  30.140  27.077  1.00  0.00     0.029 A 
ATOM     66  C   UNL A   1      45.784  29.157  27.182  1.00  0.00     0.049 A 
ATOM     67  H   UNL A   1      43.890  29.256  28.107  1.00  0.00     0.167 HD
ATOM     68  C   UNL A   1      44.813  26.904  26.820  1.00  0.00     0.074 A 
ATOM     69  C   UNL A   1      44.854  25.555  26.296  1.00  0.00     0.031 C 
ATOM     70  C   UNL A   1      45.815  27.808  26.680  1.00  0.00     0.037 A 
BRANCH  57  71
ATOM     71  C   UNL A   1      44.603  33.316  29.212  1.00  0.00     0.057 A 
ATOM     72  C   UNL A   1      44.164  34.396  28.433  1.00  0.00     0.134 A 
ATOM     73  C   UNL A   1      45.479  33.598  30.267  1.00  0.00     0.134 A 
ATOM     74  F   UNL A   1      43.339  34.194  27.394  1.00  0.00    -0.206 F 
ATOM     75  C   UNL A   1      44.603  35.699  28.677  1.00  0.00     0.040 A 
ATOM     76  C   UNL A   1      45.900  34.901  30.541  1.00  0.00     0.040 A 
ATOM     77  F   UNL A   1      45.939  32.613  31.053  1.00  0.00    -0.206 F 
ATOM     78  C   UNL A   1      45.468  35.954  29.739  1.00  0.00     0.006 A 
ENDBRANCH  57  71
BRANCH  58  79
ATOM     79  C   UNL A   1      41.121  24.088  27.593  1.00  0.00     0.057 A 
ATOM     80  C   UNL A   1      41.626  22.974  28.275  1.00  0.00     0.134 A 
ATOM     81  C   UNL A   1      40.134  23.857  26.626  1.00  0.00     0.134 A 
ATOM     82  F   UNL A   1      42.590  23.126  29.194  1.00  0.00    -0.206 F 
ATOM     83  C   UNL A   1      41.185  21.681  27.991  1.00  0.00     0.040 A 
ATOM     84  C   UNL A   1      39.663  22.572  26.352  1.00  0.00     0.040 A 
ATOM     85  F   UNL A   1      39.609  24.880  25.937  1.00  0.00    -0.206 F 
ATOM     86  C   UNL A   1      40.196  21.478  27.030  1.00  0.00     0.006 A 
ENDBRANCH  58  79
BRANCH  70  87
ATOM     87  C   UNL A   1      47.066  27.351  25.983  1.00  0.00     0.057 A 
ATOM     88  C   UNL A   1      47.267  27.531  24.609  1.00  0.00     0.134 A 
ATOM     89  C   UNL A   1      48.106  26.760  26.714  1.00  0.00     0.134 A 
ATOM     90  F   UNL A   1      46.309  28.082  23.848  1.00  0.00    -0.206 F 
ATOM     91  C   UNL A   1      48.442  27.110  23.981  1.00  0.00     0.040 A 
ATOM     92  C   UNL A   1      49.298  26.366  26.105  1.00  0.00     0.040 A 
ATOM     93  F   UNL A   1      47.987  26.571  28.037  1.00  0.00    -0.206 F 
ATOM     94  C   UNL A   1      49.465  26.533  24.732  1.00  0.00     0.006 A 
ENDBRANCH  70  87
ENDBRANCH  44  45
ENDBRANCH  37  39
ENDBRANCH  36  37
ENDBRANCH  35  36
ENDBRANCH  34  35
ENDBRANCH  33  34
ENDBRANCH  32  33
ENDBRANCH  31  32
ENDBRANCH  30  31
ENDBRANCH   1  30
TORSDOF 23
ENDMDL
