MODEL 1
REMARK VINA RESULT:      -9.3      0.000      0.000
REMARK SMILES O=C(/C=C/c1cccs1)NCC(=O)OCCOCCOCCOCCOC(=O)c1ccc(-c2c3nc(c(-c4c(F)cccc4F)c4ccc([nH]4)c(-c4c(F)cccc4F)c4nc(c(-c5c(F)cccc5F)c5ccc2[nH]5)C=C4)C=C3)cc1
REMARK SMILES IDX 19 1 18 2 17 3 16 4 15 5 14 6 12 7 13 8 11 9 10 10 1 11 2 12
REMARK SMILES IDX 3 14 4 15 5 16 6 17 9 18 7 19 8 20 20 21 21 22 22 23 23 24
REMARK SMILES IDX 24 25 25 26 26 27 27 28 28 29 29 30 30 31 82 32 31 33 81 34
REMARK SMILES IDX 32 35 33 36 34 37 75 38 35 39 80 40 74 41 76 42 36 43 79 44
REMARK SMILES IDX 73 45 72 46 37 48 63 49 46 50 62 51 47 52 50 53 61 54 77 55
REMARK SMILES IDX 48 56 49 57 60 59 78 60 51 61 38 62 39 63 44 64 40 65 41 66
REMARK SMILES IDX 43 67 45 68 42 69 64 70 65 71 70 72 66 73 67 74 69 75 71 76
REMARK SMILES IDX 68 77 52 78 53 79 58 80 54 81 55 82 57 83 59 84 56 85
REMARK H PARENT 10 13 76 47 50 58
REMARK Flexibility Score: inf
ROOT
ATOM      1  C   UNL A   1      38.175  22.266  25.906  1.00  0.00     0.188 C 
ENDROOT
BRANCH   1   2
ATOM      2  C   UNL A   1      37.398  22.154  24.586  1.00  0.00     0.188 C 
BRANCH   2   3
ATOM      3  O   UNL A   1      36.036  21.773  24.598  1.00  0.00    -0.376 OA
BRANCH   3   4
ATOM      4  C   UNL A   1      35.479  21.087  25.711  1.00  0.00     0.202 C 
BRANCH   4   5
ATOM      5  C   UNL A   1      34.126  21.453  26.353  1.00  0.00     0.261 C 
BRANCH   5   6
ATOM      6  O   UNL A   1      33.497  22.651  25.870  1.00  0.00    -0.462 OA
BRANCH   6   7
ATOM      7  C   UNL A   1      32.518  22.484  24.946  1.00  0.00     0.325 C 
ATOM      8  O   UNL A   1      32.669  21.882  23.885  1.00  0.00    -0.250 OA
BRANCH   7   9
ATOM      9  C   UNL A   1      31.132  22.966  25.393  1.00  0.00     0.239 C 
BRANCH   9  10
ATOM     10  N   UNL A   1      30.549  24.227  24.953  1.00  0.00    -0.342 N 
ATOM     11  O   UNL A   1      31.394  25.485  26.664  1.00  0.00    -0.270 OA
ATOM     12  C   UNL A   1      30.771  25.400  25.613  1.00  0.00     0.244 C 
ATOM     13  H   UNL A   1      29.977  24.232  24.152  1.00  0.00     0.164 HD
BRANCH  12  14
ATOM     14  C   UNL A   1      30.348  26.635  24.895  1.00  0.00     0.072 C 
ATOM     15  C   UNL A   1      29.518  26.685  23.841  1.00  0.00     0.024 C 
BRANCH  15  16
ATOM     16  C   UNL A   1      29.143  27.936  23.261  1.00  0.00     0.027 A 
ATOM     17  C   UNL A   1      27.897  28.532  23.126  1.00  0.00     0.020 A 
ATOM     18  S   UNL A   1      30.361  28.959  22.589  1.00  0.00    -0.144 S 
ATOM     19  C   UNL A   1      27.936  29.773  22.423  1.00  0.00     0.012 A 
ATOM     20  C   UNL A   1      29.217  30.111  22.054  1.00  0.00     0.065 A 
ENDBRANCH  15  16
ENDBRANCH  12  14
ENDBRANCH   9  10
ENDBRANCH   7   9
ENDBRANCH   6   7
ENDBRANCH   5   6
ENDBRANCH   4   5
ENDBRANCH   3   4
ENDBRANCH   2   3
ENDBRANCH   1   2
BRANCH   1  21
ATOM     21  O   UNL A   1      39.461  21.685  25.927  1.00  0.00    -0.377 OA
BRANCH  21  22
ATOM     22  C   UNL A   1      40.343  21.995  27.000  1.00  0.00     0.188 C 
BRANCH  22  23
ATOM     23  C   UNL A   1      41.636  21.183  27.218  1.00  0.00     0.188 C 
BRANCH  23  24
ATOM     24  O   UNL A   1      42.826  21.844  26.819  1.00  0.00    -0.376 OA
BRANCH  24  25
ATOM     25  C   UNL A   1      43.389  21.518  25.556  1.00  0.00     0.202 C 
BRANCH  25  26
ATOM     26  C   UNL A   1      43.776  22.685  24.634  1.00  0.00     0.261 C 
BRANCH  26  27
ATOM     27  O   UNL A   1      43.188  23.960  24.938  1.00  0.00    -0.460 OA
BRANCH  27  28
ATOM     28  C   UNL A   1      44.001  24.989  25.256  1.00  0.00     0.338 C 
ATOM     29  O   UNL A   1      44.981  25.374  24.643  1.00  0.00    -0.246 OA
BRANCH  28  30
ATOM     30  C   UNL A   1      43.375  25.711  26.385  1.00  0.00     0.060 A 
ATOM     31  C   UNL A   1      43.812  27.005  26.698  1.00  0.00     0.016 A 
ATOM     32  C   UNL A   1      42.335  25.122  27.107  1.00  0.00     0.016 A 
ATOM     33  C   UNL A   1      43.209  27.715  27.740  1.00  0.00     0.010 A 
ATOM     34  C   UNL A   1      41.752  25.823  28.167  1.00  0.00     0.010 A 
ATOM     35  C   UNL A   1      42.194  27.117  28.498  1.00  0.00    -0.014 A 
BRANCH  35  36
ATOM     36  C   UNL A   1      41.666  27.778  29.717  1.00  0.00     0.031 A 
ATOM     37  C   UNL A   1      40.453  28.655  29.596  1.00  0.00     0.074 A 
ATOM     38  C   UNL A   1      42.275  27.630  30.906  1.00  0.00     0.049 A 
ATOM     39  N   UNL A   1      39.904  29.441  30.485  1.00  0.00    -0.248 NA
ATOM     40  C   UNL A   1      39.771  28.646  28.292  1.00  0.00     0.031 C 
ATOM     41  C   UNL A   1      43.429  26.771  31.166  1.00  0.00     0.029 A 
ATOM     42  N   UNL A   1      42.018  28.226  32.117  1.00  0.00    -0.354 N 
ATOM     43  C   UNL A   1      38.820  30.031  29.847  1.00  0.00     0.074 A 
ATOM     44  C   UNL A   1      38.800  29.526  28.491  1.00  0.00     0.031 C 
ATOM     45  C   UNL A   1      43.799  26.916  32.450  1.00  0.00     0.029 A 
ATOM     46  C   UNL A   1      42.939  27.913  33.088  1.00  0.00     0.049 A 
ATOM     47  H   UNL A   1      41.249  28.820  32.275  1.00  0.00     0.167 HD
ATOM     48  C   UNL A   1      37.924  30.915  30.348  1.00  0.00     0.037 A 
ATOM     49  C   UNL A   1      43.096  28.409  34.332  1.00  0.00     0.037 A 
ATOM     50  C   UNL A   1      37.953  31.420  31.696  1.00  0.00     0.049 A 
ATOM     51  C   UNL A   1      42.150  29.470  34.832  1.00  0.00     0.074 A 
ATOM     52  C   UNL A   1      37.072  32.295  32.306  1.00  0.00     0.029 A 
ATOM     53  N   UNL A   1      38.923  31.108  32.637  1.00  0.00    -0.354 N 
ATOM     54  N   UNL A   1      41.109  30.001  34.237  1.00  0.00    -0.248 NA
ATOM     55  C   UNL A   1      42.409  30.012  36.176  1.00  0.00     0.031 C 
ATOM     56  C   UNL A   1      37.545  32.565  33.594  1.00  0.00     0.029 A 
ATOM     57  C   UNL A   1      38.686  31.809  33.808  1.00  0.00     0.049 A 
ATOM     58  H   UNL A   1      39.668  30.480  32.493  1.00  0.00     0.167 HD
ATOM     59  C   UNL A   1      40.580  30.920  35.136  1.00  0.00     0.074 A 
ATOM     60  C   UNL A   1      41.401  30.860  36.327  1.00  0.00     0.031 C 
ATOM     61  C   UNL A   1      39.512  31.742  34.987  1.00  0.00     0.037 A 
BRANCH  48  62
ATOM     62  C   UNL A   1      36.857  31.422  29.423  1.00  0.00     0.057 A 
ATOM     63  C   UNL A   1      36.903  32.706  28.866  1.00  0.00     0.134 A 
ATOM     64  C   UNL A   1      35.787  30.594  29.053  1.00  0.00     0.134 A 
ATOM     65  F   UNL A   1      37.892  33.552  29.190  1.00  0.00    -0.206 F 
ATOM     66  C   UNL A   1      35.912  33.157  27.991  1.00  0.00     0.040 A 
ATOM     67  C   UNL A   1      34.807  31.025  28.157  1.00  0.00     0.040 A 
ATOM     68  F   UNL A   1      35.685  29.351  29.546  1.00  0.00    -0.206 F 
ATOM     69  C   UNL A   1      34.866  32.312  27.629  1.00  0.00     0.006 A 
ENDBRANCH  48  62
BRANCH  49  70
ATOM     70  C   UNL A   1      44.224  27.945  35.183  1.00  0.00     0.057 A 
ATOM     71  C   UNL A   1      44.028  27.000  36.197  1.00  0.00     0.134 A 
ATOM     72  C   UNL A   1      45.516  28.461  35.026  1.00  0.00     0.134 A 
ATOM     73  F   UNL A   1      42.807  26.491  36.418  1.00  0.00    -0.206 F 
ATOM     74  C   UNL A   1      45.071  26.597  37.033  1.00  0.00     0.040 A 
ATOM     75  C   UNL A   1      46.576  28.045  35.835  1.00  0.00     0.040 A 
ATOM     76  F   UNL A   1      45.770  29.377  34.080  1.00  0.00    -0.206 F 
ATOM     77  C   UNL A   1      46.351  27.115  36.847  1.00  0.00     0.006 A 
ENDBRANCH  49  70
BRANCH  61  78
ATOM     78  C   UNL A   1      39.155  32.635  36.142  1.00  0.00     0.057 A 
ATOM     79  C   UNL A   1      38.298  32.210  37.165  1.00  0.00     0.134 A 
ATOM     80  C   UNL A   1      39.724  33.909  36.264  1.00  0.00     0.134 A 
ATOM     81  F   UNL A   1      37.711  31.006  37.104  1.00  0.00    -0.206 F 
ATOM     82  C   UNL A   1      38.007  33.027  38.259  1.00  0.00     0.040 A 
ATOM     83  C   UNL A   1      39.463  34.724  37.367  1.00  0.00     0.040 A 
ATOM     84  F   UNL A   1      40.562  34.375  35.326  1.00  0.00    -0.206 F 
ATOM     85  C   UNL A   1      38.598  34.284  38.367  1.00  0.00     0.006 A 
ENDBRANCH  61  78
ENDBRANCH  35  36
ENDBRANCH  28  30
ENDBRANCH  27  28
ENDBRANCH  26  27
ENDBRANCH  25  26
ENDBRANCH  24  25
ENDBRANCH  23  24
ENDBRANCH  22  23
ENDBRANCH  21  22
ENDBRANCH   1  21
TORSDOF 23
ENDMDL
MODEL 2
REMARK VINA RESULT:      -8.9      1.419      1.996
REMARK SMILES O=C(/C=C/c1cccs1)NCC(=O)OCCOCCOCCOCCOC(=O)c1ccc(-c2c3nc(c(-c4c(F)cccc4F)c4ccc([nH]4)c(-c4c(F)cccc4F)c4nc(c(-c5c(F)cccc5F)c5ccc2[nH]5)C=C4)C=C3)cc1
REMARK SMILES IDX 19 1 18 2 17 3 16 4 15 5 14 6 12 7 13 8 11 9 10 10 1 11 2 12
REMARK SMILES IDX 3 14 4 15 5 16 6 17 9 18 7 19 8 20 20 21 21 22 22 23 23 24
REMARK SMILES IDX 24 25 25 26 26 27 27 28 28 29 29 30 30 31 82 32 31 33 81 34
REMARK SMILES IDX 32 35 33 36 34 37 75 38 35 39 80 40 74 41 76 42 36 43 79 44
REMARK SMILES IDX 73 45 72 46 37 48 63 49 46 50 62 51 47 52 50 53 61 54 77 55
REMARK SMILES IDX 48 56 49 57 60 59 78 60 51 61 38 62 39 63 44 64 40 65 41 66
REMARK SMILES IDX 43 67 45 68 42 69 64 70 65 71 70 72 66 73 67 74 69 75 71 76
REMARK SMILES IDX 68 77 52 78 53 79 58 80 54 81 55 82 57 83 59 84 56 85
REMARK H PARENT 10 13 76 47 50 58
REMARK Flexibility Score: inf
ROOT
ATOM      1  C   UNL A   1      40.224  22.818  26.928  1.00  0.00     0.188 C 
ENDROOT
BRANCH   1   2
ATOM      2  C   UNL A   1      38.987  22.273  26.199  1.00  0.00     0.188 C 
BRANCH   2   3
ATOM      3  O   UNL A   1      37.822  23.068  26.095  1.00  0.00    -0.376 OA
BRANCH   3   4
ATOM      4  C   UNL A   1      37.035  23.061  24.911  1.00  0.00     0.202 C 
BRANCH   4   5
ATOM      5  C   UNL A   1      36.179  21.862  24.459  1.00  0.00     0.261 C 
BRANCH   5   6
ATOM      6  O   UNL A   1      34.796  22.138  24.181  1.00  0.00    -0.462 OA
BRANCH   6   7
ATOM      7  C   UNL A   1      33.895  21.638  25.063  1.00  0.00     0.325 C 
ATOM      8  O   UNL A   1      34.174  20.836  25.951  1.00  0.00    -0.250 OA
BRANCH   7   9
ATOM      9  C   UNL A   1      32.503  22.278  24.983  1.00  0.00     0.239 C 
BRANCH   9  10
ATOM     10  N   UNL A   1      32.274  23.706  25.161  1.00  0.00    -0.342 N 
ATOM     11  O   UNL A   1      31.634  23.567  27.351  1.00  0.00    -0.270 OA
ATOM     12  C   UNL A   1      31.897  24.237  26.360  1.00  0.00     0.244 C 
ATOM     13  H   UNL A   1      32.397  24.307  24.392  1.00  0.00     0.164 HD
BRANCH  12  14
ATOM     14  C   UNL A   1      31.975  25.721  26.462  1.00  0.00     0.072 C 
ATOM     15  C   UNL A   1      31.418  26.597  25.610  1.00  0.00     0.024 C 
BRANCH  15  16
ATOM     16  C   UNL A   1      31.518  28.005  25.836  1.00  0.00     0.027 A 
ATOM     17  C   UNL A   1      31.432  29.070  24.951  1.00  0.00     0.020 A 
ATOM     18  S   UNL A   1      31.790  28.590  27.438  1.00  0.00    -0.144 S 
ATOM     19  C   UNL A   1      31.652  30.338  25.568  1.00  0.00     0.012 A 
ATOM     20  C   UNL A   1      31.882  30.216  26.918  1.00  0.00     0.065 A 
ENDBRANCH  15  16
ENDBRANCH  12  14
ENDBRANCH   9  10
ENDBRANCH   7   9
ENDBRANCH   6   7
ENDBRANCH   5   6
ENDBRANCH   4   5
ENDBRANCH   3   4
ENDBRANCH   2   3
ENDBRANCH   1   2
BRANCH   1  21
ATOM     21  O   UNL A   1      41.283  21.907  27.132  1.00  0.00    -0.377 OA
BRANCH  21  22
ATOM     22  C   UNL A   1      41.400  20.778  26.274  1.00  0.00     0.188 C 
BRANCH  22  23
ATOM     23  C   UNL A   1      42.769  20.111  26.030  1.00  0.00     0.188 C 
BRANCH  23  24
ATOM     24  O   UNL A   1      43.438  20.541  24.856  1.00  0.00    -0.376 OA
BRANCH  24  25
ATOM     25  C   UNL A   1      44.297  21.670  24.942  1.00  0.00     0.202 C 
BRANCH  25  26
ATOM     26  C   UNL A   1      43.719  23.030  24.523  1.00  0.00     0.261 C 
BRANCH  26  27
ATOM     27  O   UNL A   1      43.422  23.952  25.585  1.00  0.00    -0.460 OA
BRANCH  27  28
ATOM     28  C   UNL A   1      44.122  25.103  25.659  1.00  0.00     0.338 C 
ATOM     29  O   UNL A   1      44.863  25.574  24.814  1.00  0.00    -0.246 OA
BRANCH  28  30
ATOM     30  C   UNL A   1      43.677  25.809  26.880  1.00  0.00     0.060 A 
ATOM     31  C   UNL A   1      43.028  25.088  27.892  1.00  0.00     0.016 A 
ATOM     32  C   UNL A   1      43.935  27.173  27.038  1.00  0.00     0.016 A 
ATOM     33  C   UNL A   1      42.632  25.733  29.066  1.00  0.00     0.010 A 
ATOM     34  C   UNL A   1      43.512  27.821  28.202  1.00  0.00     0.010 A 
ATOM     35  C   UNL A   1      42.847  27.109  29.217  1.00  0.00    -0.014 A 
BRANCH  35  36
ATOM     36  C   UNL A   1      42.275  27.846  30.370  1.00  0.00     0.031 A 
ATOM     37  C   UNL A   1      41.052  28.690  30.155  1.00  0.00     0.074 A 
ATOM     38  C   UNL A   1      42.854  27.794  31.582  1.00  0.00     0.049 A 
ATOM     39  N   UNL A   1      40.466  29.528  30.971  1.00  0.00    -0.248 NA
ATOM     40  C   UNL A   1      40.406  28.575  28.838  1.00  0.00     0.031 C 
ATOM     41  C   UNL A   1      44.013  26.977  31.934  1.00  0.00     0.029 A 
ATOM     42  N   UNL A   1      42.554  28.471  32.740  1.00  0.00    -0.354 N 
ATOM     43  C   UNL A   1      39.390  30.051  30.263  1.00  0.00     0.074 A 
ATOM     44  C   UNL A   1      39.416  29.449  28.947  1.00  0.00     0.031 C 
ATOM     45  C   UNL A   1      44.346  27.221  33.214  1.00  0.00     0.029 A 
ATOM     46  C   UNL A   1      43.453  28.245  33.755  1.00  0.00     0.049 A 
ATOM     47  H   UNL A   1      41.771  29.060  32.834  1.00  0.00     0.167 HD
ATOM     48  C   UNL A   1      38.467  30.951  30.676  1.00  0.00     0.037 A 
ATOM     49  C   UNL A   1      43.568  28.831  34.964  1.00  0.00     0.037 A 
ATOM     50  C   UNL A   1      38.451  31.552  31.984  1.00  0.00     0.049 A 
ATOM     51  C   UNL A   1      42.591  29.909  35.361  1.00  0.00     0.074 A 
ATOM     52  C   UNL A   1      37.539  32.452  32.506  1.00  0.00     0.029 A 
ATOM     53  N   UNL A   1      39.399  31.325  32.970  1.00  0.00    -0.354 N 
ATOM     54  N   UNL A   1      41.558  30.376  34.702  1.00  0.00    -0.248 NA
ATOM     55  C   UNL A   1      42.804  30.549  36.669  1.00  0.00     0.031 C 
ATOM     56  C   UNL A   1      37.972  32.822  33.784  1.00  0.00     0.029 A 
ATOM     57  C   UNL A   1      39.119  32.104  34.081  1.00  0.00     0.049 A 
ATOM     58  H   UNL A   1      40.158  30.703  32.892  1.00  0.00     0.167 HD
ATOM     59  C   UNL A   1      40.990  31.347  35.519  1.00  0.00     0.074 A 
ATOM     60  C   UNL A   1      41.778  31.388  36.732  1.00  0.00     0.031 C 
ATOM     61  C   UNL A   1      39.913  32.137  35.283  1.00  0.00     0.037 A 
BRANCH  48  62
ATOM     62  C   UNL A   1      37.417  31.371  29.689  1.00  0.00     0.057 A 
ATOM     63  C   UNL A   1      36.271  30.602  29.449  1.00  0.00     0.134 A 
ATOM     64  C   UNL A   1      37.537  32.586  29.000  1.00  0.00     0.134 A 
ATOM     65  F   UNL A   1      36.102  29.423  30.066  1.00  0.00    -0.206 F 
ATOM     66  C   UNL A   1      35.292  31.015  28.542  1.00  0.00     0.040 A 
ATOM     67  C   UNL A   1      36.551  33.022  28.113  1.00  0.00     0.040 A 
ATOM     68  F   UNL A   1      38.606  33.373  29.187  1.00  0.00    -0.206 F 
ATOM     69  C   UNL A   1      35.428  32.232  27.878  1.00  0.00     0.006 A 
ENDBRANCH  48  62
BRANCH  49  70
ATOM     70  C   UNL A   1      44.679  28.451  35.875  1.00  0.00     0.057 A 
ATOM     71  C   UNL A   1      44.511  27.464  36.854  1.00  0.00     0.134 A 
ATOM     72  C   UNL A   1      45.925  29.087  35.812  1.00  0.00     0.134 A 
ATOM     73  F   UNL A   1      43.331  26.840  36.986  1.00  0.00    -0.206 F 
ATOM     74  C   UNL A   1      45.532  27.136  37.747  1.00  0.00     0.040 A 
ATOM     75  C   UNL A   1      46.966  28.748  36.678  1.00  0.00     0.040 A 
ATOM     76  F   UNL A   1      46.150  30.047  34.904  1.00  0.00    -0.206 F 
ATOM     77  C   UNL A   1      46.768  27.774  37.654  1.00  0.00     0.006 A 
ENDBRANCH  49  70
BRANCH  61  78
ATOM     78  C   UNL A   1      39.510  33.104  36.361  1.00  0.00     0.057 A 
ATOM     79  C   UNL A   1      38.641  32.735  37.395  1.00  0.00     0.134 A 
ATOM     80  C   UNL A   1      40.047  34.397  36.400  1.00  0.00     0.134 A 
ATOM     81  F   UNL A   1      38.082  31.515  37.411  1.00  0.00    -0.206 F 
ATOM     82  C   UNL A   1      38.306  33.622  38.419  1.00  0.00     0.040 A 
ATOM     83  C   UNL A   1      39.743  35.284  37.434  1.00  0.00     0.040 A 
ATOM     84  F   UNL A   1      40.895  34.813  35.448  1.00  0.00    -0.206 F 
ATOM     85  C   UNL A   1      38.866  34.898  38.446  1.00  0.00     0.006 A 
ENDBRANCH  61  78
ENDBRANCH  35  36
ENDBRANCH  28  30
ENDBRANCH  27  28
ENDBRANCH  26  27
ENDBRANCH  25  26
ENDBRANCH  24  25
ENDBRANCH  23  24
ENDBRANCH  22  23
ENDBRANCH  21  22
ENDBRANCH   1  21
TORSDOF 23
ENDMDL
MODEL 3
REMARK VINA RESULT:      -8.9      2.314      3.862
REMARK SMILES O=C(/C=C/c1cccs1)NCC(=O)OCCOCCOCCOCCOC(=O)c1ccc(-c2c3nc(c(-c4c(F)cccc4F)c4ccc([nH]4)c(-c4c(F)cccc4F)c4nc(c(-c5c(F)cccc5F)c5ccc2[nH]5)C=C4)C=C3)cc1
REMARK SMILES IDX 19 1 18 2 17 3 16 4 15 5 14 6 12 7 13 8 11 9 10 10 1 11 2 12
REMARK SMILES IDX 3 14 4 15 5 16 6 17 9 18 7 19 8 20 20 21 21 22 22 23 23 24
REMARK SMILES IDX 24 25 25 26 26 27 27 28 28 29 29 30 30 31 82 32 31 33 81 34
REMARK SMILES IDX 32 35 33 36 34 37 75 38 35 39 80 40 74 41 76 42 36 43 79 44
REMARK SMILES IDX 73 45 72 46 37 48 63 49 46 50 62 51 47 52 50 53 61 54 77 55
REMARK SMILES IDX 48 56 49 57 60 59 78 60 51 61 38 62 39 63 44 64 40 65 41 66
REMARK SMILES IDX 43 67 45 68 42 69 64 70 65 71 70 72 66 73 67 74 69 75 71 76
REMARK SMILES IDX 68 77 52 78 53 79 58 80 54 81 55 82 57 83 59 84 56 85
REMARK H PARENT 10 13 76 47 50 58
REMARK Flexibility Score: inf
ROOT
ATOM      1  C   UNL A   1      39.761  21.826  26.285  1.00  0.00     0.188 C 
ENDROOT
BRANCH   1   2
ATOM      2  C   UNL A   1      38.320  21.944  25.767  1.00  0.00     0.188 C 
BRANCH   2   3
ATOM      3  O   UNL A   1      37.540  23.075  26.101  1.00  0.00    -0.376 OA
BRANCH   3   4
ATOM      4  C   UNL A   1      36.730  23.718  25.126  1.00  0.00     0.202 C 
BRANCH   4   5
ATOM      5  C   UNL A   1      35.361  24.357  25.435  1.00  0.00     0.261 C 
BRANCH   5   6
ATOM      6  O   UNL A   1      34.711  25.026  24.343  1.00  0.00    -0.462 OA
BRANCH   6   7
ATOM      7  C   UNL A   1      33.355  25.004  24.347  1.00  0.00     0.325 C 
ATOM      8  O   UNL A   1      32.652  25.959  24.671  1.00  0.00    -0.250 OA
BRANCH   7   9
ATOM      9  C   UNL A   1      32.737  23.732  23.751  1.00  0.00     0.239 C 
BRANCH   9  10
ATOM     10  N   UNL A   1      33.109  22.392  24.184  1.00  0.00    -0.342 N 
ATOM     11  O   UNL A   1      31.267  22.050  25.492  1.00  0.00    -0.270 OA
ATOM     12  C   UNL A   1      32.308  21.640  24.993  1.00  0.00     0.244 C 
ATOM     13  H   UNL A   1      33.967  22.015  23.881  1.00  0.00     0.164 HD
BRANCH  12  14
ATOM     14  C   UNL A   1      32.682  20.204  25.120  1.00  0.00     0.072 C 
ATOM     15  C   UNL A   1      32.711  19.310  24.119  1.00  0.00     0.024 C 
BRANCH  15  16
ATOM     16  C   UNL A   1      33.134  17.964  24.350  1.00  0.00     0.027 A 
ATOM     17  C   UNL A   1      34.013  17.159  23.640  1.00  0.00     0.020 A 
ATOM     18  S   UNL A   1      32.514  17.102  25.711  1.00  0.00    -0.144 S 
ATOM     19  C   UNL A   1      34.122  15.838  24.166  1.00  0.00     0.012 A 
ATOM     20  C   UNL A   1      33.338  15.667  25.283  1.00  0.00     0.065 A 
ENDBRANCH  15  16
ENDBRANCH  12  14
ENDBRANCH   9  10
ENDBRANCH   7   9
ENDBRANCH   6   7
ENDBRANCH   5   6
ENDBRANCH   4   5
ENDBRANCH   3   4
ENDBRANCH   2   3
ENDBRANCH   1   2
BRANCH   1  21
ATOM     21  O   UNL A   1      40.125  20.584  26.849  1.00  0.00    -0.377 OA
BRANCH  21  22
ATOM     22  C   UNL A   1      41.008  19.729  26.131  1.00  0.00     0.188 C 
BRANCH  22  23
ATOM     23  C   UNL A   1      42.533  19.815  26.342  1.00  0.00     0.188 C 
BRANCH  23  24
ATOM     24  O   UNL A   1      43.282  20.056  25.162  1.00  0.00    -0.376 OA
BRANCH  24  25
ATOM     25  C   UNL A   1      43.988  21.284  25.047  1.00  0.00     0.202 C 
BRANCH  25  26
ATOM     26  C   UNL A   1      43.499  22.461  25.905  1.00  0.00     0.261 C 
BRANCH  26  27
ATOM     27  O   UNL A   1      43.188  23.676  25.203  1.00  0.00    -0.460 OA
BRANCH  27  28
ATOM     28  C   UNL A   1      43.960  24.762  25.411  1.00  0.00     0.338 C 
ATOM     29  O   UNL A   1      44.888  25.152  24.725  1.00  0.00    -0.246 OA
BRANCH  28  30
ATOM     30  C   UNL A   1      43.354  25.525  26.524  1.00  0.00     0.060 A 
ATOM     31  C   UNL A   1      43.853  26.798  26.834  1.00  0.00     0.016 A 
ATOM     32  C   UNL A   1      42.272  24.999  27.231  1.00  0.00     0.016 A 
ATOM     33  C   UNL A   1      43.270  27.547  27.859  1.00  0.00     0.010 A 
ATOM     34  C   UNL A   1      41.708  25.739  28.275  1.00  0.00     0.010 A 
ATOM     35  C   UNL A   1      42.212  27.010  28.604  1.00  0.00    -0.014 A 
BRANCH  35  36
ATOM     36  C   UNL A   1      41.699  27.709  29.808  1.00  0.00     0.031 A 
ATOM     37  C   UNL A   1      40.502  28.606  29.669  1.00  0.00     0.074 A 
ATOM     38  C   UNL A   1      42.306  27.576  30.999  1.00  0.00     0.049 A 
ATOM     39  N   UNL A   1      39.970  29.423  30.540  1.00  0.00    -0.248 NA
ATOM     40  C   UNL A   1      39.818  28.581  28.366  1.00  0.00     0.031 C 
ATOM     41  C   UNL A   1      43.443  26.701  31.278  1.00  0.00     0.029 A 
ATOM     42  N   UNL A   1      42.062  28.204  32.197  1.00  0.00    -0.354 N 
ATOM     43  C   UNL A   1      38.896  30.019  29.889  1.00  0.00     0.074 A 
ATOM     44  C   UNL A   1      38.865  29.484  28.545  1.00  0.00     0.031 C 
ATOM     45  C   UNL A   1      43.818  26.869  32.559  1.00  0.00     0.029 A 
ATOM     46  C   UNL A   1      42.978  27.896  33.174  1.00  0.00     0.049 A 
ATOM     47  H   UNL A   1      41.304  28.816  32.341  1.00  0.00     0.167 HD
ATOM     48  C   UNL A   1      38.019  30.930  30.371  1.00  0.00     0.037 A 
ATOM     49  C   UNL A   1      43.146  28.417  34.406  1.00  0.00     0.037 A 
ATOM     50  C   UNL A   1      38.059  31.466  31.707  1.00  0.00     0.049 A 
ATOM     51  C   UNL A   1      42.221  29.508  34.883  1.00  0.00     0.074 A 
ATOM     52  C   UNL A   1      37.196  32.372  32.297  1.00  0.00     0.029 A 
ATOM     53  N   UNL A   1      39.023  31.156  32.654  1.00  0.00    -0.354 N 
ATOM     54  N   UNL A   1      41.190  30.045  34.276  1.00  0.00    -0.248 NA
ATOM     55  C   UNL A   1      42.492  30.075  36.214  1.00  0.00     0.031 C 
ATOM     56  C   UNL A   1      37.675  32.661  33.579  1.00  0.00     0.029 A 
ATOM     57  C   UNL A   1      38.802  31.889  33.808  1.00  0.00     0.049 A 
ATOM     58  H   UNL A   1      39.756  30.512  32.524  1.00  0.00     0.167 HD
ATOM     59  C   UNL A   1      40.680  30.994  35.155  1.00  0.00     0.074 A 
ATOM     60  C   UNL A   1      41.501  30.945  36.346  1.00  0.00     0.031 C 
ATOM     61  C   UNL A   1      39.628  31.833  34.988  1.00  0.00     0.037 A 
BRANCH  48  62
ATOM     62  C   UNL A   1      36.960  31.437  29.436  1.00  0.00     0.057 A 
ATOM     63  C   UNL A   1      37.032  32.705  28.846  1.00  0.00     0.134 A 
ATOM     64  C   UNL A   1      35.871  30.624  29.089  1.00  0.00     0.134 A 
ATOM     65  F   UNL A   1      38.040  33.538  29.145  1.00  0.00    -0.206 F 
ATOM     66  C   UNL A   1      36.049  33.156  27.962  1.00  0.00     0.040 A 
ATOM     67  C   UNL A   1      34.898  31.053  28.185  1.00  0.00     0.040 A 
ATOM     68  F   UNL A   1      35.744  29.396  29.614  1.00  0.00    -0.206 F 
ATOM     69  C   UNL A   1      34.983  32.324  27.623  1.00  0.00     0.006 A 
ENDBRANCH  48  62
BRANCH  49  70
ATOM     70  C   UNL A   1      44.266  27.952  35.266  1.00  0.00     0.057 A 
ATOM     71  C   UNL A   1      45.519  28.576  35.229  1.00  0.00     0.134 A 
ATOM     72  C   UNL A   1      44.122  26.851  36.119  1.00  0.00     0.134 A 
ATOM     73  F   UNL A   1      45.729  29.616  34.409  1.00  0.00    -0.206 F 
ATOM     74  C   UNL A   1      46.590  28.114  35.996  1.00  0.00     0.040 A 
ATOM     75  C   UNL A   1      45.176  26.396  36.915  1.00  0.00     0.040 A 
ATOM     76  F   UNL A   1      42.952  26.201  36.196  1.00  0.00    -0.206 F 
ATOM     77  C   UNL A   1      46.417  27.026  36.849  1.00  0.00     0.006 A 
ENDBRANCH  49  70
BRANCH  61  78
ATOM     78  C   UNL A   1      39.290  32.758  36.123  1.00  0.00     0.057 A 
ATOM     79  C   UNL A   1      38.418  32.378  37.150  1.00  0.00     0.134 A 
ATOM     80  C   UNL A   1      39.892  34.020  36.222  1.00  0.00     0.134 A 
ATOM     81  F   UNL A   1      37.799  31.188  37.111  1.00  0.00    -0.206 F 
ATOM     82  C   UNL A   1      38.143  33.224  38.226  1.00  0.00     0.040 A 
ATOM     83  C   UNL A   1      39.647  34.864  37.307  1.00  0.00     0.040 A 
ATOM     84  F   UNL A   1      40.745  34.444  35.278  1.00  0.00    -0.206 F 
ATOM     85  C   UNL A   1      38.767  34.467  38.311  1.00  0.00     0.006 A 
ENDBRANCH  61  78
ENDBRANCH  35  36
ENDBRANCH  28  30
ENDBRANCH  27  28
ENDBRANCH  26  27
ENDBRANCH  25  26
ENDBRANCH  24  25
ENDBRANCH  23  24
ENDBRANCH  22  23
ENDBRANCH  21  22
ENDBRANCH   1  21
TORSDOF 23
ENDMDL
