MODEL 1
REMARK VINA RESULT:      -9.7      0.000      0.000
REMARK SMILES O=C(OCCOCCOCCOCCOC(=O)[C@@H]1C[N@@H+](CC(=O)c2ccc[nH]2)CC[NH2+]1)c1ccc(-c2c3nc(c(-c4c(F)cccc4F)c4ccc([nH]4)c(-c4c(F)cccc4F)c4nc(c(-c5c(F)cccc5F)c5ccc2[nH]5)C=C4)C=C3)cc1
REMARK SMILES IDX 10 1 9 2 8 3 7 4 6 5 5 6 4 7 3 8 2 9 1 10 32 11 33 12 85 13
REMARK SMILES IDX 34 14 84 15 35 16 36 17 37 18 78 19 38 20 83 21 77 22 79 23
REMARK SMILES IDX 39 24 82 25 76 26 75 27 40 29 66 30 49 31 65 32 50 33 53 34
REMARK SMILES IDX 64 35 80 36 51 37 52 38 63 40 81 41 54 42 41 43 42 44 47 45
REMARK SMILES IDX 43 46 44 47 46 48 48 49 45 50 67 51 68 52 73 53 69 54 70 55
REMARK SMILES IDX 72 56 74 57 71 58 55 59 56 60 61 61 57 62 58 63 60 64 62 65
REMARK SMILES IDX 59 66 11 67 12 68 13 69 14 70 15 71 16 72 17 73 18 74 19 75
REMARK SMILES IDX 31 76 20 77 30 78 29 81 21 83 22 84 23 85 24 86 25 87 28 88
REMARK SMILES IDX 26 89 27 90
REMARK H PARENT 79 28 53 39 31 79 31 80 20 82 28 91
REMARK Flexibility Score: inf
ROOT
ATOM      1  C   UNL A   1      35.622  32.947  27.946  1.00  0.00     0.188 C 
ENDROOT
BRANCH   1   2
ATOM      2  O   UNL A   1      34.880  34.055  28.387  1.00  0.00    -0.377 OA
BRANCH   2   3
ATOM      3  C   UNL A   1      34.876  34.241  29.787  1.00  0.00     0.188 C 
BRANCH   3   4
ATOM      4  C   UNL A   1      33.649  34.960  30.372  1.00  0.00     0.188 C 
BRANCH   4   5
ATOM      5  O   UNL A   1      33.617  35.493  31.695  1.00  0.00    -0.376 OA
BRANCH   5   6
ATOM      6  C   UNL A   1      34.180  34.932  32.871  1.00  0.00     0.202 C 
BRANCH   6   7
ATOM      7  C   UNL A   1      34.083  33.445  33.269  1.00  0.00     0.261 C 
BRANCH   7   8
ATOM      8  O   UNL A   1      35.075  32.565  32.735  1.00  0.00    -0.460 OA
BRANCH   8   9
ATOM      9  C   UNL A   1      36.249  32.149  33.255  1.00  0.00     0.338 C 
ATOM     10  O   UNL A   1      36.520  32.426  34.421  1.00  0.00    -0.246 OA
BRANCH   9  11
ATOM     11  C   UNL A   1      37.233  31.368  32.470  1.00  0.00     0.060 A 
ATOM     12  C   UNL A   1      38.137  30.464  33.024  1.00  0.00     0.016 A 
ATOM     13  C   UNL A   1      37.224  31.548  31.078  1.00  0.00     0.016 A 
ATOM     14  C   UNL A   1      39.136  29.906  32.274  1.00  0.00     0.010 A 
ATOM     15  C   UNL A   1      38.191  30.940  30.290  1.00  0.00     0.010 A 
ATOM     16  C   UNL A   1      39.177  30.177  30.917  1.00  0.00    -0.014 A 
BRANCH  16  17
ATOM     17  C   UNL A   1      40.327  29.610  30.218  1.00  0.00     0.031 A 
ATOM     18  C   UNL A   1      41.431  30.630  29.998  1.00  0.00     0.074 A 
ATOM     19  C   UNL A   1      40.132  28.335  29.782  1.00  0.00     0.049 A 
ATOM     20  N   UNL A   1      42.355  30.671  29.089  1.00  0.00    -0.248 NA
ATOM     21  C   UNL A   1      41.460  31.840  30.868  1.00  0.00     0.031 C 
ATOM     22  C   UNL A   1      38.899  27.561  30.034  1.00  0.00     0.029 A 
ATOM     23  N   UNL A   1      40.872  27.447  29.039  1.00  0.00    -0.354 N 
ATOM     24  C   UNL A   1      43.214  31.726  29.445  1.00  0.00     0.074 A 
ATOM     25  C   UNL A   1      42.519  32.512  30.419  1.00  0.00     0.031 C 
ATOM     26  C   UNL A   1      38.957  26.362  29.430  1.00  0.00     0.029 A 
ATOM     27  C   UNL A   1      40.223  26.221  28.747  1.00  0.00     0.049 A 
ATOM     28  H   UNL A   1      41.786  27.648  28.733  1.00  0.00     0.167 HD
ATOM     29  C   UNL A   1      44.525  31.773  29.077  1.00  0.00     0.037 A 
ATOM     30  C   UNL A   1      40.665  25.169  27.996  1.00  0.00     0.037 A 
ATOM     31  C   UNL A   1      44.843  30.700  28.192  1.00  0.00     0.049 A 
ATOM     32  C   UNL A   1      42.078  25.468  27.698  1.00  0.00     0.074 A 
ATOM     33  C   UNL A   1      44.555  30.449  26.876  1.00  0.00     0.029 A 
ATOM     34  N   UNL A   1      45.311  29.542  28.765  1.00  0.00    -0.354 N 
ATOM     35  N   UNL A   1      43.027  25.477  28.588  1.00  0.00    -0.248 NA
ATOM     36  C   UNL A   1      42.461  25.898  26.350  1.00  0.00     0.031 C 
ATOM     37  C   UNL A   1      44.502  29.040  26.785  1.00  0.00     0.029 A 
ATOM     38  C   UNL A   1      44.840  28.483  28.024  1.00  0.00     0.049 A 
ATOM     39  H   UNL A   1      45.885  29.481  29.563  1.00  0.00     0.167 HD
ATOM     40  C   UNL A   1      44.005  26.238  27.992  1.00  0.00     0.074 A 
ATOM     41  C   UNL A   1      43.737  26.202  26.572  1.00  0.00     0.031 C 
ATOM     42  C   UNL A   1      44.624  27.218  28.702  1.00  0.00     0.037 A 
BRANCH  29  43
ATOM     43  C   UNL A   1      45.659  32.560  29.668  1.00  0.00     0.057 A 
ATOM     44  C   UNL A   1      46.333  33.489  28.846  1.00  0.00     0.134 A 
ATOM     45  C   UNL A   1      46.308  32.228  30.865  1.00  0.00     0.134 A 
ATOM     46  F   UNL A   1      45.794  33.904  27.688  1.00  0.00    -0.206 F 
ATOM     47  C   UNL A   1      47.612  33.967  29.142  1.00  0.00     0.040 A 
ATOM     48  C   UNL A   1      47.569  32.739  31.195  1.00  0.00     0.040 A 
ATOM     49  F   UNL A   1      45.800  31.327  31.716  1.00  0.00    -0.206 F 
ATOM     50  C   UNL A   1      48.241  33.579  30.315  1.00  0.00     0.006 A 
ENDBRANCH  29  43
BRANCH  30  51
ATOM     51  C   UNL A   1      40.076  23.898  27.426  1.00  0.00     0.057 A 
ATOM     52  C   UNL A   1      38.915  23.792  26.649  1.00  0.00     0.134 A 
ATOM     53  C   UNL A   1      40.763  22.666  27.583  1.00  0.00     0.134 A 
ATOM     54  F   UNL A   1      38.090  24.822  26.454  1.00  0.00    -0.206 F 
ATOM     55  C   UNL A   1      38.521  22.597  26.017  1.00  0.00     0.040 A 
ATOM     56  C   UNL A   1      40.405  21.480  26.933  1.00  0.00     0.040 A 
ATOM     57  F   UNL A   1      41.838  22.552  28.377  1.00  0.00    -0.206 F 
ATOM     58  C   UNL A   1      39.284  21.444  26.129  1.00  0.00     0.006 A 
ENDBRANCH  30  51
BRANCH  42  59
ATOM     59  C   UNL A   1      44.576  27.003  30.210  1.00  0.00     0.057 A 
ATOM     60  C   UNL A   1      45.238  25.919  30.801  1.00  0.00     0.134 A 
ATOM     61  C   UNL A   1      43.786  27.763  31.085  1.00  0.00     0.134 A 
ATOM     62  F   UNL A   1      46.054  25.146  30.069  1.00  0.00    -0.206 F 
ATOM     63  C   UNL A   1      45.078  25.592  32.157  1.00  0.00     0.040 A 
ATOM     64  C   UNL A   1      43.613  27.456  32.439  1.00  0.00     0.040 A 
ATOM     65  F   UNL A   1      43.160  28.854  30.659  1.00  0.00    -0.206 F 
ATOM     66  C   UNL A   1      44.252  26.353  32.978  1.00  0.00     0.006 A 
ENDBRANCH  42  59
ENDBRANCH  16  17
ENDBRANCH   9  11
ENDBRANCH   8   9
ENDBRANCH   7   8
ENDBRANCH   6   7
ENDBRANCH   5   6
ENDBRANCH   4   5
ENDBRANCH   3   4
ENDBRANCH   2   3
ENDBRANCH   1   2
BRANCH   1  67
ATOM     67  C   UNL A   1      34.909  31.610  28.150  1.00  0.00     0.188 C 
BRANCH  67  68
ATOM     68  O   UNL A   1      33.792  31.301  27.323  1.00  0.00    -0.376 OA
BRANCH  68  69
ATOM     69  C   UNL A   1      33.388  29.931  27.216  1.00  0.00     0.202 C 
BRANCH  69  70
ATOM     70  C   UNL A   1      34.379  28.938  26.582  1.00  0.00     0.261 C 
BRANCH  70  71
ATOM     71  O   UNL A   1      33.712  27.923  25.808  1.00  0.00    -0.459 OA
BRANCH  71  72
ATOM     72  C   UNL A   1      33.296  28.263  24.560  1.00  0.00     0.371 C 
ATOM     73  O   UNL A   1      33.835  29.124  23.868  1.00  0.00    -0.245 OA
BRANCH  72  74
ATOM     74  C   UNL A   1      32.217  27.298  24.034  1.00  0.00     0.348 C 
ATOM     75  C   UNL A   1      30.987  27.283  24.954  1.00  0.00     0.341 C 
ATOM     76  N   UNL A   1      32.715  25.919  23.776  1.00  0.00    -0.325 N 
ATOM     77  N   UNL A   1      29.870  26.455  24.467  1.00  0.00    -0.318 N 
ATOM     78  C   UNL A   1      31.629  25.120  23.175  1.00  0.00     0.323 C 
ATOM     79  H   UNL A   1      33.009  25.492  24.654  1.00  0.00     0.347 HD
ATOM     80  H   UNL A   1      33.511  25.954  23.138  1.00  0.00     0.347 HD
ATOM     81  C   UNL A   1      30.320  25.132  24.002  1.00  0.00     0.324 C 
ATOM     82  H   UNL A   1      29.290  26.263  25.284  1.00  0.00     0.348 HD
BRANCH  77  83
ATOM     83  C   UNL A   1      28.907  27.151  23.590  1.00  0.00     0.346 C 
BRANCH  83  84
ATOM     84  C   UNL A   1      29.434  28.356  22.804  1.00  0.00     0.232 C 
ATOM     85  O   UNL A   1      30.278  28.203  21.917  1.00  0.00    -0.286 OA
BRANCH  84  86
ATOM     86  C   UNL A   1      28.923  29.686  23.101  1.00  0.00     0.088 A 
ATOM     87  C   UNL A   1      27.654  30.235  23.049  1.00  0.00     0.031 A 
ATOM     88  N   UNL A   1      29.767  30.688  23.540  1.00  0.00    -0.359 N 
ATOM     89  C   UNL A   1      27.737  31.575  23.506  1.00  0.00     0.020 A 
ATOM     90  C   UNL A   1      29.056  31.826  23.805  1.00  0.00     0.083 A 
ATOM     91  H   UNL A   1      30.741  30.596  23.648  1.00  0.00     0.166 HD
ENDBRANCH  84  86
ENDBRANCH  83  84
ENDBRANCH  77  83
ENDBRANCH  72  74
ENDBRANCH  71  72
ENDBRANCH  70  71
ENDBRANCH  69  70
ENDBRANCH  68  69
ENDBRANCH  67  68
ENDBRANCH   1  67
TORSDOF 23
ENDMDL
MODEL 2
REMARK VINA RESULT:      -9.7      3.650      9.081
REMARK SMILES O=C(OCCOCCOCCOCCOC(=O)[C@@H]1C[N@@H+](CC(=O)c2ccc[nH]2)CC[NH2+]1)c1ccc(-c2c3nc(c(-c4c(F)cccc4F)c4ccc([nH]4)c(-c4c(F)cccc4F)c4nc(c(-c5c(F)cccc5F)c5ccc2[nH]5)C=C4)C=C3)cc1
REMARK SMILES IDX 10 1 9 2 8 3 7 4 6 5 5 6 4 7 3 8 2 9 1 10 32 11 33 12 85 13
REMARK SMILES IDX 34 14 84 15 35 16 36 17 37 18 78 19 38 20 83 21 77 22 79 23
REMARK SMILES IDX 39 24 82 25 76 26 75 27 40 29 66 30 49 31 65 32 50 33 53 34
REMARK SMILES IDX 64 35 80 36 51 37 52 38 63 40 81 41 54 42 41 43 42 44 47 45
REMARK SMILES IDX 43 46 44 47 46 48 48 49 45 50 67 51 68 52 73 53 69 54 70 55
REMARK SMILES IDX 72 56 74 57 71 58 55 59 56 60 61 61 57 62 58 63 60 64 62 65
REMARK SMILES IDX 59 66 11 67 12 68 13 69 14 70 15 71 16 72 17 73 18 74 19 75
REMARK SMILES IDX 31 76 20 77 30 78 29 81 21 83 22 84 23 85 24 86 25 87 28 88
REMARK SMILES IDX 26 89 27 90
REMARK H PARENT 79 28 53 39 31 79 31 80 20 82 28 91
REMARK Flexibility Score: inf
ROOT
ATOM      1  C   UNL A   1      33.796  26.281  25.659  1.00  0.00     0.188 C 
ENDROOT
BRANCH   1   2
ATOM      2  O   UNL A   1      33.588  27.657  25.843  1.00  0.00    -0.377 OA
BRANCH   2   3
ATOM      3  C   UNL A   1      32.425  27.984  26.574  1.00  0.00     0.188 C 
BRANCH   3   4
ATOM      4  C   UNL A   1      32.388  29.389  27.197  1.00  0.00     0.188 C 
BRANCH   4   5
ATOM      5  O   UNL A   1      33.502  30.280  27.172  1.00  0.00    -0.376 OA
BRANCH   5   6
ATOM      6  C   UNL A   1      33.542  31.632  27.601  1.00  0.00     0.202 C 
BRANCH   6   7
ATOM      7  C   UNL A   1      32.369  32.627  27.485  1.00  0.00     0.261 C 
BRANCH   7   8
ATOM      8  O   UNL A   1      32.679  34.015  27.628  1.00  0.00    -0.460 OA
BRANCH   8   9
ATOM      9  C   UNL A   1      33.148  34.703  28.691  1.00  0.00     0.338 C 
ATOM     10  O   UNL A   1      32.557  35.717  29.058  1.00  0.00    -0.246 OA
BRANCH   9  11
ATOM     11  C   UNL A   1      34.356  34.284  29.438  1.00  0.00     0.060 A 
ATOM     12  C   UNL A   1      35.661  34.474  28.988  1.00  0.00     0.016 A 
ATOM     13  C   UNL A   1      34.153  33.679  30.689  1.00  0.00     0.016 A 
ATOM     14  C   UNL A   1      36.726  33.910  29.637  1.00  0.00     0.010 A 
ATOM     15  C   UNL A   1      35.229  33.157  31.394  1.00  0.00     0.010 A 
ATOM     16  C   UNL A   1      36.498  33.224  30.817  1.00  0.00    -0.014 A 
BRANCH  16  17
ATOM     17  C   UNL A   1      37.680  32.585  31.388  1.00  0.00     0.031 A 
ATOM     18  C   UNL A   1      37.997  31.256  30.723  1.00  0.00     0.074 A 
ATOM     19  C   UNL A   1      38.179  33.226  32.481  1.00  0.00     0.049 A 
ATOM     20  N   UNL A   1      38.631  30.226  31.188  1.00  0.00    -0.248 NA
ATOM     21  C   UNL A   1      37.447  30.996  29.362  1.00  0.00     0.031 C 
ATOM     22  C   UNL A   1      37.623  34.484  33.018  1.00  0.00     0.029 A 
ATOM     23  N   UNL A   1      39.198  32.969  33.366  1.00  0.00    -0.354 N 
ATOM     24  C   UNL A   1      38.792  29.339  30.108  1.00  0.00     0.074 A 
ATOM     25  C   UNL A   1      37.894  29.774  29.082  1.00  0.00     0.031 C 
ATOM     26  C   UNL A   1      38.269  34.850  34.139  1.00  0.00     0.029 A 
ATOM     27  C   UNL A   1      39.312  33.894  34.434  1.00  0.00     0.049 A 
ATOM     28  H   UNL A   1      39.804  32.200  33.266  1.00  0.00     0.167 HD
ATOM     29  C   UNL A   1      39.804  28.428  30.039  1.00  0.00     0.037 A 
ATOM     30  C   UNL A   1      40.176  33.887  35.493  1.00  0.00     0.037 A 
ATOM     31  C   UNL A   1      40.561  28.418  31.248  1.00  0.00     0.049 A 
ATOM     32  C   UNL A   1      41.139  32.808  35.203  1.00  0.00     0.074 A 
ATOM     33  C   UNL A   1      40.314  27.942  32.508  1.00  0.00     0.029 A 
ATOM     34  N   UNL A   1      41.656  29.247  31.300  1.00  0.00    -0.354 N 
ATOM     35  N   UNL A   1      42.016  32.849  34.244  1.00  0.00    -0.248 NA
ATOM     36  C   UNL A   1      41.061  31.547  35.947  1.00  0.00     0.031 C 
ATOM     37  C   UNL A   1      41.044  28.800  33.362  1.00  0.00     0.029 A 
ATOM     38  C   UNL A   1      41.773  29.712  32.590  1.00  0.00     0.049 A 
ATOM     39  H   UNL A   1      42.253  29.467  30.549  1.00  0.00     0.167 HD
ATOM     40  C   UNL A   1      42.330  31.524  34.053  1.00  0.00     0.074 A 
ATOM     41  C   UNL A   1      41.968  30.842  35.275  1.00  0.00     0.031 C 
ATOM     42  C   UNL A   1      42.375  31.015  32.793  1.00  0.00     0.037 A 
BRANCH  29  43
ATOM     43  C   UNL A   1      40.367  27.710  28.846  1.00  0.00     0.057 A 
ATOM     44  C   UNL A   1      41.106  28.454  27.901  1.00  0.00     0.134 A 
ATOM     45  C   UNL A   1      39.957  26.437  28.428  1.00  0.00     0.134 A 
ATOM     46  F   UNL A   1      41.576  29.677  28.200  1.00  0.00    -0.206 F 
ATOM     47  C   UNL A   1      41.326  28.007  26.596  1.00  0.00     0.040 A 
ATOM     48  C   UNL A   1      40.215  25.958  27.137  1.00  0.00     0.040 A 
ATOM     49  F   UNL A   1      39.213  25.643  29.210  1.00  0.00    -0.206 F 
ATOM     50  C   UNL A   1      40.865  26.759  26.206  1.00  0.00     0.006 A 
ENDBRANCH  29  43
BRANCH  30  51
ATOM     51  C   UNL A   1      40.332  34.645  36.792  1.00  0.00     0.057 A 
ATOM     52  C   UNL A   1      41.452  35.383  37.197  1.00  0.00     0.134 A 
ATOM     53  C   UNL A   1      39.243  34.730  37.698  1.00  0.00     0.134 A 
ATOM     54  F   UNL A   1      42.602  35.364  36.521  1.00  0.00    -0.206 F 
ATOM     55  C   UNL A   1      41.460  36.196  38.347  1.00  0.00     0.040 A 
ATOM     56  C   UNL A   1      39.223  35.561  38.824  1.00  0.00     0.040 A 
ATOM     57  F   UNL A   1      38.125  34.010  37.529  1.00  0.00    -0.206 F 
ATOM     58  C   UNL A   1      40.333  36.315  39.146  1.00  0.00     0.006 A 
ENDBRANCH  30  51
BRANCH  42  59
ATOM     59  C   UNL A   1      42.628  32.067  31.719  1.00  0.00     0.057 A 
ATOM     60  C   UNL A   1      43.841  32.766  31.670  1.00  0.00     0.134 A 
ATOM     61  C   UNL A   1      41.655  32.505  30.808  1.00  0.00     0.134 A 
ATOM     62  F   UNL A   1      44.857  32.408  32.469  1.00  0.00    -0.206 F 
ATOM     63  C   UNL A   1      44.044  33.854  30.808  1.00  0.00     0.040 A 
ATOM     64  C   UNL A   1      41.837  33.585  29.939  1.00  0.00     0.040 A 
ATOM     65  F   UNL A   1      40.486  31.881  30.712  1.00  0.00    -0.206 F 
ATOM     66  C   UNL A   1      43.036  34.277  29.947  1.00  0.00     0.006 A 
ENDBRANCH  42  59
ENDBRANCH  16  17
ENDBRANCH   9  11
ENDBRANCH   8   9
ENDBRANCH   7   8
ENDBRANCH   6   7
ENDBRANCH   5   6
ENDBRANCH   4   5
ENDBRANCH   3   4
ENDBRANCH   2   3
ENDBRANCH   1   2
BRANCH   1  67
ATOM     67  C   UNL A   1      33.621  25.821  24.211  1.00  0.00     0.188 C 
BRANCH  67  68
ATOM     68  O   UNL A   1      32.466  26.251  23.497  1.00  0.00    -0.376 OA
BRANCH  68  69
ATOM     69  C   UNL A   1      31.368  25.338  23.377  1.00  0.00     0.202 C 
BRANCH  69  70
ATOM     70  C   UNL A   1      30.661  24.891  24.669  1.00  0.00     0.261 C 
BRANCH  70  71
ATOM     71  O   UNL A   1      30.908  23.506  24.973  1.00  0.00    -0.459 OA
BRANCH  71  72
ATOM     72  C   UNL A   1      31.508  23.225  26.160  1.00  0.00     0.371 C 
ATOM     73  O   UNL A   1      31.132  23.673  27.240  1.00  0.00    -0.245 OA
BRANCH  72  74
ATOM     74  C   UNL A   1      32.565  22.114  26.018  1.00  0.00     0.348 C 
ATOM     75  C   UNL A   1      33.719  22.556  25.106  1.00  0.00     0.341 C 
ATOM     76  N   UNL A   1      32.008  20.802  25.588  1.00  0.00    -0.325 N 
ATOM     77  N   UNL A   1      34.819  21.582  24.996  1.00  0.00    -0.318 N 
ATOM     78  C   UNL A   1      33.087  19.796  25.594  1.00  0.00     0.323 C 
ATOM     79  H   UNL A   1      31.624  20.886  24.646  1.00  0.00     0.347 HD
ATOM     80  H   UNL A   1      31.266  20.516  26.227  1.00  0.00     0.347 HD
ATOM     81  C   UNL A   1      34.329  20.213  24.768  1.00  0.00     0.324 C 
ATOM     82  H   UNL A   1      35.323  21.827  24.145  1.00  0.00     0.348 HD
BRANCH  77  83
ATOM     83  C   UNL A   1      35.884  21.722  26.010  1.00  0.00     0.346 C 
BRANCH  83  84
ATOM     84  C   UNL A   1      37.167  22.434  25.571  1.00  0.00     0.232 C 
ATOM     85  O   UNL A   1      37.110  23.455  24.879  1.00  0.00    -0.286 OA
BRANCH  84  86
ATOM     86  C   UNL A   1      38.458  21.907  25.985  1.00  0.00     0.088 A 
ATOM     87  C   UNL A   1      39.098  20.703  25.747  1.00  0.00     0.031 A 
ATOM     88  N   UNL A   1      39.316  22.659  26.765  1.00  0.00    -0.359 N 
ATOM     89  C   UNL A   1      40.376  20.757  26.359  1.00  0.00     0.020 A 
ATOM     90  C   UNL A   1      40.483  21.980  26.979  1.00  0.00     0.083 A 
ATOM     91  H   UNL A   1      39.114  23.556  27.116  1.00  0.00     0.166 HD
ENDBRANCH  84  86
ENDBRANCH  83  84
ENDBRANCH  77  83
ENDBRANCH  72  74
ENDBRANCH  71  72
ENDBRANCH  70  71
ENDBRANCH  69  70
ENDBRANCH  68  69
ENDBRANCH  67  68
ENDBRANCH   1  67
TORSDOF 23
ENDMDL
MODEL 3
REMARK VINA RESULT:      -9.4      3.887      8.530
REMARK SMILES O=C(OCCOCCOCCOCCOC(=O)[C@@H]1C[N@@H+](CC(=O)c2ccc[nH]2)CC[NH2+]1)c1ccc(-c2c3nc(c(-c4c(F)cccc4F)c4ccc([nH]4)c(-c4c(F)cccc4F)c4nc(c(-c5c(F)cccc5F)c5ccc2[nH]5)C=C4)C=C3)cc1
REMARK SMILES IDX 10 1 9 2 8 3 7 4 6 5 5 6 4 7 3 8 2 9 1 10 32 11 33 12 85 13
REMARK SMILES IDX 34 14 84 15 35 16 36 17 37 18 78 19 38 20 83 21 77 22 79 23
REMARK SMILES IDX 39 24 82 25 76 26 75 27 40 29 66 30 49 31 65 32 50 33 53 34
REMARK SMILES IDX 64 35 80 36 51 37 52 38 63 40 81 41 54 42 41 43 42 44 47 45
REMARK SMILES IDX 43 46 44 47 46 48 48 49 45 50 67 51 68 52 73 53 69 54 70 55
REMARK SMILES IDX 72 56 74 57 71 58 55 59 56 60 61 61 57 62 58 63 60 64 62 65
REMARK SMILES IDX 59 66 11 67 12 68 13 69 14 70 15 71 16 72 17 73 18 74 19 75
REMARK SMILES IDX 31 76 20 77 30 78 29 81 21 83 22 84 23 85 24 86 25 87 28 88
REMARK SMILES IDX 26 89 27 90
REMARK H PARENT 79 28 53 39 31 79 31 80 20 82 28 91
REMARK Flexibility Score: inf
ROOT
ATOM      1  C   UNL A   1      34.432  23.311  26.110  1.00  0.00     0.188 C 
ENDROOT
BRANCH   1   2
ATOM      2  O   UNL A   1      35.180  22.139  26.306  1.00  0.00    -0.377 OA
BRANCH   2   3
ATOM      3  C   UNL A   1      35.418  21.390  25.133  1.00  0.00     0.188 C 
BRANCH   3   4
ATOM      4  C   UNL A   1      36.891  21.109  24.795  1.00  0.00     0.188 C 
BRANCH   4   5
ATOM      5  O   UNL A   1      37.974  21.551  25.612  1.00  0.00    -0.376 OA
BRANCH   5   6
ATOM      6  C   UNL A   1      39.225  20.912  25.817  1.00  0.00     0.202 C 
BRANCH   6   7
ATOM      7  C   UNL A   1      39.508  19.422  25.535  1.00  0.00     0.261 C 
BRANCH   7   8
ATOM      8  O   UNL A   1      40.674  18.857  26.139  1.00  0.00    -0.460 OA
BRANCH   8   9
ATOM      9  C   UNL A   1      41.978  19.170  25.988  1.00  0.00     0.338 C 
ATOM     10  O   UNL A   1      42.746  18.334  25.517  1.00  0.00    -0.246 OA
BRANCH   9  11
ATOM     11  C   UNL A   1      42.528  20.492  26.372  1.00  0.00     0.060 A 
ATOM     12  C   UNL A   1      42.413  21.049  27.643  1.00  0.00     0.016 A 
ATOM     13  C   UNL A   1      43.226  21.202  25.382  1.00  0.00     0.016 A 
ATOM     14  C   UNL A   1      42.784  22.343  27.890  1.00  0.00     0.010 A 
ATOM     15  C   UNL A   1      43.669  22.493  25.633  1.00  0.00     0.010 A 
ATOM     16  C   UNL A   1      43.377  23.068  26.871  1.00  0.00    -0.014 A 
BRANCH  16  17
ATOM     17  C   UNL A   1      43.659  24.463  27.201  1.00  0.00     0.031 A 
ATOM     18  C   UNL A   1      42.406  25.323  27.192  1.00  0.00     0.074 A 
ATOM     19  C   UNL A   1      44.986  24.745  27.314  1.00  0.00     0.049 A 
ATOM     20  N   UNL A   1      42.276  26.597  26.993  1.00  0.00    -0.248 NA
ATOM     21  C   UNL A   1      41.084  24.650  27.340  1.00  0.00     0.031 C 
ATOM     22  C   UNL A   1      46.054  23.735  27.175  1.00  0.00     0.029 A 
ATOM     23  N   UNL A   1      45.712  25.891  27.530  1.00  0.00    -0.354 N 
ATOM     24  C   UNL A   1      40.930  26.905  27.264  1.00  0.00     0.074 A 
ATOM     25  C   UNL A   1      40.220  25.662  27.285  1.00  0.00     0.031 C 
ATOM     26  C   UNL A   1      47.267  24.307  27.264  1.00  0.00     0.029 A 
ATOM     27  C   UNL A   1      47.119  25.727  27.489  1.00  0.00     0.049 A 
ATOM     28  H   UNL A   1      45.286  26.762  27.703  1.00  0.00     0.167 HD
ATOM     29  C   UNL A   1      40.517  28.140  27.665  1.00  0.00     0.037 A 
ATOM     30  C   UNL A   1      48.101  26.669  27.612  1.00  0.00     0.037 A 
ATOM     31  C   UNL A   1      41.597  29.072  27.632  1.00  0.00     0.049 A 
ATOM     32  C   UNL A   1      47.406  27.908  28.012  1.00  0.00     0.074 A 
ATOM     33  C   UNL A   1      42.263  29.702  26.616  1.00  0.00     0.029 A 
ATOM     34  N   UNL A   1      42.322  29.222  28.790  1.00  0.00    -0.354 N 
ATOM     35  N   UNL A   1      46.831  28.083  29.166  1.00  0.00    -0.248 NA
ATOM     36  C   UNL A   1      47.232  28.990  27.039  1.00  0.00     0.031 C 
ATOM     37  C   UNL A   1      43.572  29.896  27.115  1.00  0.00     0.029 A 
ATOM     38  C   UNL A   1      43.632  29.454  28.441  1.00  0.00     0.049 A 
ATOM     39  H   UNL A   1      41.966  29.173  29.707  1.00  0.00     0.167 HD
ATOM     40  C   UNL A   1      45.954  29.113  28.922  1.00  0.00     0.074 A 
ATOM     41  C   UNL A   1      46.448  29.797  27.749  1.00  0.00     0.031 C 
ATOM     42  C   UNL A   1      44.669  29.024  29.359  1.00  0.00     0.037 A 
BRANCH  29  43
ATOM     43  C   UNL A   1      39.254  28.546  28.369  1.00  0.00     0.057 A 
ATOM     44  C   UNL A   1      38.436  29.527  27.768  1.00  0.00     0.134 A 
ATOM     45  C   UNL A   1      38.978  28.268  29.715  1.00  0.00     0.134 A 
ATOM     46  F   UNL A   1      38.589  29.855  26.475  1.00  0.00    -0.206 F 
ATOM     47  C   UNL A   1      37.486  30.258  28.486  1.00  0.00     0.040 A 
ATOM     48  C   UNL A   1      37.995  28.961  30.431  1.00  0.00     0.040 A 
ATOM     49  F   UNL A   1      39.706  27.390  30.417  1.00  0.00    -0.206 F 
ATOM     50  C   UNL A   1      37.274  29.985  29.829  1.00  0.00     0.006 A 
ENDBRANCH  29  43
BRANCH  30  51
ATOM     51  C   UNL A   1      49.599  26.731  27.415  1.00  0.00     0.057 A 
ATOM     52  C   UNL A   1      50.552  27.103  28.373  1.00  0.00     0.134 A 
ATOM     53  C   UNL A   1      50.171  26.301  26.189  1.00  0.00     0.134 A 
ATOM     54  F   UNL A   1      50.211  27.611  29.558  1.00  0.00    -0.206 F 
ATOM     55  C   UNL A   1      51.938  26.977  28.165  1.00  0.00     0.040 A 
ATOM     56  C   UNL A   1      51.545  26.136  25.980  1.00  0.00     0.040 A 
ATOM     57  F   UNL A   1      49.415  26.003  25.123  1.00  0.00    -0.206 F 
ATOM     58  C   UNL A   1      52.440  26.461  26.980  1.00  0.00     0.006 A 
ENDBRANCH  30  51
BRANCH  42  59
ATOM     59  C   UNL A   1      44.491  28.073  30.537  1.00  0.00     0.057 A 
ATOM     60  C   UNL A   1      45.036  28.374  31.792  1.00  0.00     0.134 A 
ATOM     61  C   UNL A   1      43.904  26.803  30.436  1.00  0.00     0.134 A 
ATOM     62  F   UNL A   1      45.588  29.576  32.016  1.00  0.00    -0.206 F 
ATOM     63  C   UNL A   1      45.039  27.451  32.849  1.00  0.00     0.040 A 
ATOM     64  C   UNL A   1      43.895  25.868  31.476  1.00  0.00     0.040 A 
ATOM     65  F   UNL A   1      43.295  26.424  29.318  1.00  0.00    -0.206 F 
ATOM     66  C   UNL A   1      44.479  26.187  32.690  1.00  0.00     0.006 A 
ENDBRANCH  42  59
ENDBRANCH  16  17
ENDBRANCH   9  11
ENDBRANCH   8   9
ENDBRANCH   7   8
ENDBRANCH   6   7
ENDBRANCH   5   6
ENDBRANCH   4   5
ENDBRANCH   3   4
ENDBRANCH   2   3
ENDBRANCH   1   2
BRANCH   1  67
ATOM     67  C   UNL A   1      33.303  23.156  25.091  1.00  0.00     0.188 C 
BRANCH  67  68
ATOM     68  O   UNL A   1      33.637  23.108  23.708  1.00  0.00    -0.376 OA
BRANCH  68  69
ATOM     69  C   UNL A   1      32.590  23.311  22.752  1.00  0.00     0.202 C 
BRANCH  69  70
ATOM     70  C   UNL A   1      32.944  24.036  21.441  1.00  0.00     0.261 C 
BRANCH  70  71
ATOM     71  O   UNL A   1      32.321  25.330  21.348  1.00  0.00    -0.459 OA
BRANCH  71  72
ATOM     72  C   UNL A   1      32.956  26.373  21.945  1.00  0.00     0.371 C 
ATOM     73  O   UNL A   1      34.046  26.809  21.583  1.00  0.00    -0.245 OA
BRANCH  72  74
ATOM     74  C   UNL A   1      32.054  27.077  22.977  1.00  0.00     0.348 C 
ATOM     75  C   UNL A   1      31.261  28.224  22.333  1.00  0.00     0.341 C 
ATOM     76  N   UNL A   1      32.776  27.536  24.195  1.00  0.00    -0.325 N 
ATOM     77  N   UNL A   1      30.303  28.885  23.236  1.00  0.00    -0.318 N 
ATOM     78  C   UNL A   1      31.799  28.091  25.152  1.00  0.00     0.323 C 
ATOM     79  H   UNL A   1      33.453  28.256  23.940  1.00  0.00     0.347 HD
ATOM     80  H   UNL A   1      33.269  26.750  24.620  1.00  0.00     0.347 HD
ATOM     81  C   UNL A   1      30.895  29.193  24.548  1.00  0.00     0.324 C 
ATOM     82  H   UNL A   1      30.107  29.794  22.815  1.00  0.00     0.348 HD
BRANCH  77  83
ATOM     83  C   UNL A   1      28.953  28.287  23.265  1.00  0.00     0.346 C 
BRANCH  83  84
ATOM     84  C   UNL A   1      27.774  29.225  22.986  1.00  0.00     0.232 C 
ATOM     85  O   UNL A   1      26.617  28.858  23.212  1.00  0.00    -0.286 OA
BRANCH  84  86
ATOM     86  C   UNL A   1      28.025  30.559  22.464  1.00  0.00     0.088 A 
ATOM     87  C   UNL A   1      27.851  31.123  21.212  1.00  0.00     0.031 A 
ATOM     88  N   UNL A   1      28.530  31.556  23.276  1.00  0.00    -0.359 N 
ATOM     89  C   UNL A   1      28.216  32.490  21.292  1.00  0.00     0.020 A 
ATOM     90  C   UNL A   1      28.630  32.729  22.582  1.00  0.00     0.083 A 
ATOM     91  H   UNL A   1      28.781  31.438  24.220  1.00  0.00     0.166 HD
ENDBRANCH  84  86
ENDBRANCH  83  84
ENDBRANCH  77  83
ENDBRANCH  72  74
ENDBRANCH  71  72
ENDBRANCH  70  71
ENDBRANCH  69  70
ENDBRANCH  68  69
ENDBRANCH  67  68
ENDBRANCH   1  67
TORSDOF 23
ENDMDL
