MODEL 1
REMARK VINA RESULT:      -8.6      0.000      0.000
REMARK SMILES CC[N@@H+](C[C@@H]1CCCO1)[C@@H](C)c1ccc(C(=O)OCCOCCOCCOCCOC(=O)c2ccc(-c3c4nc(c(-c5c(F)cccc5F)c5ccc([nH]5)c(-c5c(F)cccc5F)c5nc(c(-c6c(F)cccc6F)c6ccc3[nH]6)C=C5)C=C4)cc2)o1
REMARK SMILES IDX 23 1 22 2 21 3 20 4 19 5 18 6 16 7 17 8 15 9 12 10 13 11
REMARK SMILES IDX 87 12 14 13 10 14 11 15 3 16 2 18 1 19 4 20 5 21 6 22 9 23
REMARK SMILES IDX 7 24 8 25 24 26 25 27 26 28 27 29 28 30 29 31 30 32 31 33
REMARK SMILES IDX 32 34 33 35 34 36 86 37 35 38 85 39 36 40 37 41 38 42 79 43
REMARK SMILES IDX 39 44 84 45 78 46 80 47 40 48 83 49 77 50 76 51 41 53 67 54
REMARK SMILES IDX 50 55 66 56 51 57 54 58 65 59 81 60 52 61 53 62 64 64 82 65
REMARK SMILES IDX 55 66 42 67 43 68 48 69 44 70 45 71 47 72 49 73 46 74 68 75
REMARK SMILES IDX 69 76 74 77 70 78 71 79 73 80 75 81 72 82 56 83 57 84 62 85
REMARK SMILES IDX 58 86 59 87 61 88 63 89 60 90
REMARK H PARENT 3 17 80 52 54 63
REMARK Flexibility Score: inf
ROOT
ATOM      1  C   UNL A   1      32.314  24.896  26.093  1.00  0.00     0.188 C 
ENDROOT
BRANCH   1   2
ATOM      2  C   UNL A   1      31.473  25.554  24.992  1.00  0.00     0.188 C 
BRANCH   2   3
ATOM      3  O   UNL A   1      30.875  26.791  25.380  1.00  0.00    -0.376 OA
BRANCH   3   4
ATOM      4  C   UNL A   1      31.094  27.868  24.471  1.00  0.00     0.202 C 
BRANCH   4   5
ATOM      5  C   UNL A   1      31.982  28.967  25.070  1.00  0.00     0.261 C 
BRANCH   5   6
ATOM      6  O   UNL A   1      32.372  28.729  26.432  1.00  0.00    -0.457 OA
BRANCH   6   7
ATOM      7  C   UNL A   1      33.706  28.581  26.663  1.00  0.00     0.374 C 
ATOM      8  O   UNL A   1      34.339  27.560  26.426  1.00  0.00    -0.242 OA
BRANCH   7   9
ATOM      9  C   UNL A   1      34.242  29.854  27.074  1.00  0.00     0.212 A 
ATOM     10  C   UNL A   1      34.018  31.923  27.812  1.00  0.00     0.162 A 
ATOM     11  C   UNL A   1      35.349  31.579  27.984  1.00  0.00     0.053 A 
ATOM     12  O   UNL A   1      33.377  30.907  27.176  1.00  0.00    -0.448 OA
ATOM     13  C   UNL A   1      35.482  30.240  27.544  1.00  0.00     0.059 A 
BRANCH  10  14
ATOM     14  C   UNL A   1      33.229  33.121  28.305  1.00  0.00     0.248 C 
ATOM     15  C   UNL A   1      32.158  33.470  27.263  1.00  0.00     0.084 C 
BRANCH  14  16
ATOM     16  N   UNL A   1      34.012  34.259  28.848  1.00  0.00    -0.324 N 
ATOM     17  H   UNL A   1      34.639  34.451  28.066  1.00  0.00     0.348 HD
BRANCH  16  18
ATOM     18  C   UNL A   1      33.339  35.553  29.053  1.00  0.00     0.259 C 
ATOM     19  C   UNL A   1      34.006  36.785  28.464  1.00  0.00     0.071 C 
ENDBRANCH  16  18
BRANCH  16  20
ATOM     20  C   UNL A   1      34.769  33.874  30.067  1.00  0.00     0.295 C 
BRANCH  20  21
ATOM     21  C   UNL A   1      34.302  34.260  31.508  1.00  0.00     0.173 C 
ATOM     22  C   UNL A   1      35.313  35.100  32.272  1.00  0.00     0.040 C 
ATOM     23  O   UNL A   1      33.995  33.160  32.381  1.00  0.00    -0.372 OA
ATOM     24  C   UNL A   1      34.840  34.938  33.697  1.00  0.00     0.031 C 
ATOM     25  C   UNL A   1      34.365  33.503  33.722  1.00  0.00     0.161 C 
ENDBRANCH  20  21
ENDBRANCH  16  20
ENDBRANCH  14  16
ENDBRANCH  10  14
ENDBRANCH   7   9
ENDBRANCH   6   7
ENDBRANCH   5   6
ENDBRANCH   4   5
ENDBRANCH   3   4
ENDBRANCH   2   3
ENDBRANCH   1   2
BRANCH   1  26
ATOM     26  O   UNL A   1      31.876  23.626  26.540  1.00  0.00    -0.377 OA
BRANCH  26  27
ATOM     27  C   UNL A   1      32.410  22.454  25.928  1.00  0.00     0.188 C 
BRANCH  27  28
ATOM     28  C   UNL A   1      33.616  21.703  26.521  1.00  0.00     0.188 C 
BRANCH  28  29
ATOM     29  O   UNL A   1      34.839  21.934  25.824  1.00  0.00    -0.376 OA
BRANCH  29  30
ATOM     30  C   UNL A   1      35.240  20.903  24.927  1.00  0.00     0.202 C 
BRANCH  30  31
ATOM     31  C   UNL A   1      36.734  20.593  25.050  1.00  0.00     0.261 C 
BRANCH  31  32
ATOM     32  O   UNL A   1      37.515  21.696  25.537  1.00  0.00    -0.460 OA
BRANCH  32  33
ATOM     33  C   UNL A   1      38.780  21.413  25.916  1.00  0.00     0.338 C 
ATOM     34  O   UNL A   1      39.411  20.395  25.697  1.00  0.00    -0.246 OA
BRANCH  33  35
ATOM     35  C   UNL A   1      39.350  22.627  26.527  1.00  0.00     0.060 A 
ATOM     36  C   UNL A   1      38.842  23.874  26.146  1.00  0.00     0.016 A 
ATOM     37  C   UNL A   1      40.380  22.530  27.468  1.00  0.00     0.016 A 
ATOM     38  C   UNL A   1      39.387  25.037  26.690  1.00  0.00     0.010 A 
ATOM     39  C   UNL A   1      40.932  23.694  27.998  1.00  0.00     0.010 A 
ATOM     40  C   UNL A   1      40.455  24.951  27.594  1.00  0.00    -0.014 A 
BRANCH  40  41
ATOM     41  C   UNL A   1      41.188  26.166  28.011  1.00  0.00     0.031 A 
ATOM     42  C   UNL A   1      42.610  26.336  27.562  1.00  0.00     0.074 A 
ATOM     43  C   UNL A   1      40.613  27.077  28.813  1.00  0.00     0.049 A 
ATOM     44  N   UNL A   1      43.474  27.264  27.877  1.00  0.00    -0.248 NA
ATOM     45  C   UNL A   1      43.127  25.317  26.632  1.00  0.00     0.031 C 
ATOM     46  C   UNL A   1      39.233  27.034  29.292  1.00  0.00     0.029 A 
ATOM     47  N   UNL A   1      41.135  28.212  29.380  1.00  0.00    -0.354 N 
ATOM     48  C   UNL A   1      44.633  26.949  27.183  1.00  0.00     0.074 A 
ATOM     49  C   UNL A   1      44.372  25.732  26.446  1.00  0.00     0.031 C 
ATOM     50  C   UNL A   1      39.023  28.089  30.100  1.00  0.00     0.029 A 
ATOM     51  C   UNL A   1      40.260  28.860  30.215  1.00  0.00     0.049 A 
ATOM     52  H   UNL A   1      42.050  28.530  29.204  1.00  0.00     0.167 HD
ATOM     53  C   UNL A   1      45.809  27.617  27.159  1.00  0.00     0.037 A 
ATOM     54  C   UNL A   1      40.451  29.935  31.000  1.00  0.00     0.037 A 
ATOM     55  C   UNL A   1      46.080  28.812  27.908  1.00  0.00     0.049 A 
ATOM     56  C   UNL A   1      41.799  30.602  31.034  1.00  0.00     0.074 A 
ATOM     57  C   UNL A   1      47.237  29.571  27.936  1.00  0.00     0.029 A 
ATOM     58  N   UNL A   1      45.182  29.413  28.775  1.00  0.00    -0.354 N 
ATOM     59  N   UNL A   1      42.882  30.313  30.353  1.00  0.00    -0.248 NA
ATOM     60  C   UNL A   1      41.955  31.736  31.957  1.00  0.00     0.031 C 
ATOM     61  C   UNL A   1      47.050  30.614  28.851  1.00  0.00     0.029 A 
ATOM     62  C   UNL A   1      45.767  30.518  29.367  1.00  0.00     0.049 A 
ATOM     63  H   UNL A   1      44.265  29.100  28.946  1.00  0.00     0.167 HD
ATOM     64  C   UNL A   1      43.839  31.238  30.750  1.00  0.00     0.074 A 
ATOM     65  C   UNL A   1      43.209  32.101  31.728  1.00  0.00     0.031 C 
ATOM     66  C   UNL A   1      45.124  31.363  30.338  1.00  0.00     0.037 A 
BRANCH  53  67
ATOM     67  C   UNL A   1      46.895  27.045  26.301  1.00  0.00     0.057 A 
ATOM     68  C   UNL A   1      47.821  26.126  26.811  1.00  0.00     0.134 A 
ATOM     69  C   UNL A   1      47.015  27.413  24.957  1.00  0.00     0.134 A 
ATOM     70  F   UNL A   1      47.768  25.751  28.098  1.00  0.00    -0.206 F 
ATOM     71  C   UNL A   1      48.841  25.606  26.016  1.00  0.00     0.040 A 
ATOM     72  C   UNL A   1      48.022  26.887  24.147  1.00  0.00     0.040 A 
ATOM     73  F   UNL A   1      46.160  28.293  24.413  1.00  0.00    -0.206 F 
ATOM     74  C   UNL A   1      48.941  25.984  24.678  1.00  0.00     0.006 A 
ENDBRANCH  53  67
BRANCH  54  75
ATOM     75  C   UNL A   1      39.343  30.444  31.844  1.00  0.00     0.057 A 
ATOM     76  C   UNL A   1      38.466  31.423  31.366  1.00  0.00     0.134 A 
ATOM     77  C   UNL A   1      39.148  29.980  33.149  1.00  0.00     0.134 A 
ATOM     78  F   UNL A   1      38.621  31.922  30.131  1.00  0.00    -0.206 F 
ATOM     79  C   UNL A   1      37.439  31.932  32.161  1.00  0.00     0.040 A 
ATOM     80  C   UNL A   1      38.115  30.468  33.949  1.00  0.00     0.040 A 
ATOM     81  F   UNL A   1      39.961  29.045  33.664  1.00  0.00    -0.206 F 
ATOM     82  C   UNL A   1      37.259  31.451  33.456  1.00  0.00     0.006 A 
ENDBRANCH  54  75
BRANCH  66  83
ATOM     83  C   UNL A   1      45.927  32.481  30.930  1.00  0.00     0.057 A 
ATOM     84  C   UNL A   1      46.680  32.304  32.096  1.00  0.00     0.134 A 
ATOM     85  C   UNL A   1      45.990  33.728  30.297  1.00  0.00     0.134 A 
ATOM     86  F   UNL A   1      46.651  31.135  32.754  1.00  0.00    -0.206 F 
ATOM     87  C   UNL A   1      47.461  33.335  32.620  1.00  0.00     0.040 A 
ATOM     88  C   UNL A   1      46.779  34.762  30.802  1.00  0.00     0.040 A 
ATOM     89  F   UNL A   1      45.294  33.956  29.173  1.00  0.00    -0.206 F 
ATOM     90  C   UNL A   1      47.518  34.566  31.967  1.00  0.00     0.006 A 
ENDBRANCH  66  83
ENDBRANCH  40  41
ENDBRANCH  33  35
ENDBRANCH  32  33
ENDBRANCH  31  32
ENDBRANCH  30  31
ENDBRANCH  29  30
ENDBRANCH  28  29
ENDBRANCH  27  28
ENDBRANCH  26  27
ENDBRANCH   1  26
TORSDOF 25
ENDMDL
MODEL 2
REMARK VINA RESULT:      -8.2      5.799     11.298
REMARK SMILES CC[N@@H+](C[C@@H]1CCCO1)[C@@H](C)c1ccc(C(=O)OCCOCCOCCOCCOC(=O)c2ccc(-c3c4nc(c(-c5c(F)cccc5F)c5ccc([nH]5)c(-c5c(F)cccc5F)c5nc(c(-c6c(F)cccc6F)c6ccc3[nH]6)C=C5)C=C4)cc2)o1
REMARK SMILES IDX 23 1 22 2 21 3 20 4 19 5 18 6 16 7 17 8 15 9 12 10 13 11
REMARK SMILES IDX 87 12 14 13 10 14 11 15 3 16 2 18 1 19 4 20 5 21 6 22 9 23
REMARK SMILES IDX 7 24 8 25 24 26 25 27 26 28 27 29 28 30 29 31 30 32 31 33
REMARK SMILES IDX 32 34 33 35 34 36 86 37 35 38 85 39 36 40 37 41 38 42 79 43
REMARK SMILES IDX 39 44 84 45 78 46 80 47 40 48 83 49 77 50 76 51 41 53 67 54
REMARK SMILES IDX 50 55 66 56 51 57 54 58 65 59 81 60 52 61 53 62 64 64 82 65
REMARK SMILES IDX 55 66 42 67 43 68 48 69 44 70 45 71 47 72 49 73 46 74 68 75
REMARK SMILES IDX 69 76 74 77 70 78 71 79 73 80 75 81 72 82 56 83 57 84 62 85
REMARK SMILES IDX 58 86 59 87 61 88 63 89 60 90
REMARK H PARENT 3 17 80 52 54 63
REMARK Flexibility Score: inf
ROOT
ATOM      1  C   UNL A   1      35.003  34.149  28.145  1.00  0.00     0.188 C 
ENDROOT
BRANCH   1   2
ATOM      2  C   UNL A   1      33.964  33.020  28.124  1.00  0.00     0.188 C 
BRANCH   2   3
ATOM      3  O   UNL A   1      34.244  31.991  27.175  1.00  0.00    -0.376 OA
BRANCH   3   4
ATOM      4  C   UNL A   1      34.085  30.664  27.673  1.00  0.00     0.202 C 
BRANCH   4   5
ATOM      5  C   UNL A   1      33.701  29.668  26.570  1.00  0.00     0.261 C 
BRANCH   5   6
ATOM      6  O   UNL A   1      32.308  29.323  26.549  1.00  0.00    -0.457 OA
BRANCH   6   7
ATOM      7  C   UNL A   1      31.508  30.075  25.744  1.00  0.00     0.374 C 
ATOM      8  O   UNL A   1      31.378  31.289  25.838  1.00  0.00    -0.242 OA
BRANCH   7   9
ATOM      9  C   UNL A   1      30.987  29.229  24.700  1.00  0.00     0.212 A 
ATOM     10  C   UNL A   1      30.352  27.269  23.907  1.00  0.00     0.162 A 
ATOM     11  C   UNL A   1      29.843  28.231  23.050  1.00  0.00     0.053 A 
ATOM     12  O   UNL A   1      31.120  27.877  24.848  1.00  0.00    -0.448 OA
ATOM     13  C   UNL A   1      30.220  29.488  23.580  1.00  0.00     0.059 A 
BRANCH  10  14
ATOM     14  C   UNL A   1      30.089  25.778  23.996  1.00  0.00     0.248 C 
ATOM     15  C   UNL A   1      30.020  25.376  25.476  1.00  0.00     0.084 C 
BRANCH  14  16
ATOM     16  N   UNL A   1      30.901  24.903  23.115  1.00  0.00    -0.324 N 
ATOM     17  H   UNL A   1      30.378  24.970  22.242  1.00  0.00     0.348 HD
BRANCH  16  18
ATOM     18  C   UNL A   1      32.251  25.344  22.722  1.00  0.00     0.259 C 
ATOM     19  C   UNL A   1      32.461  25.726  21.267  1.00  0.00     0.071 C 
ENDBRANCH  16  18
BRANCH  16  20
ATOM     20  C   UNL A   1      30.943  23.504  23.616  1.00  0.00     0.295 C 
BRANCH  20  21
ATOM     21  C   UNL A   1      32.265  22.813  24.080  1.00  0.00     0.173 C 
ATOM     22  C   UNL A   1      32.520  21.472  23.409  1.00  0.00     0.040 C 
ATOM     23  O   UNL A   1      32.372  22.551  25.489  1.00  0.00    -0.372 OA
ATOM     24  C   UNL A   1      33.545  20.853  24.328  1.00  0.00     0.031 C 
ATOM     25  C   UNL A   1      33.092  21.328  25.690  1.00  0.00     0.161 C 
ENDBRANCH  20  21
ENDBRANCH  16  20
ENDBRANCH  14  16
ENDBRANCH  10  14
ENDBRANCH   7   9
ENDBRANCH   6   7
ENDBRANCH   5   6
ENDBRANCH   4   5
ENDBRANCH   3   4
ENDBRANCH   2   3
ENDBRANCH   1   2
BRANCH   1  26
ATOM     26  O   UNL A   1      34.533  35.424  28.541  1.00  0.00    -0.377 OA
BRANCH  26  27
ATOM     27  C   UNL A   1      33.287  35.519  29.228  1.00  0.00     0.188 C 
BRANCH  27  28
ATOM     28  C   UNL A   1      33.154  35.183  30.725  1.00  0.00     0.188 C 
BRANCH  28  29
ATOM     29  O   UNL A   1      34.114  35.839  31.551  1.00  0.00    -0.376 OA
BRANCH  29  30
ATOM     30  C   UNL A   1      34.845  34.994  32.434  1.00  0.00     0.202 C 
BRANCH  30  31
ATOM     31  C   UNL A   1      35.944  34.222  31.699  1.00  0.00     0.261 C 
BRANCH  31  32
ATOM     32  O   UNL A   1      35.658  32.824  31.535  1.00  0.00    -0.460 OA
BRANCH  32  33
ATOM     33  C   UNL A   1      36.655  32.062  31.034  1.00  0.00     0.338 C 
ATOM     34  O   UNL A   1      36.821  31.725  29.875  1.00  0.00    -0.246 OA
BRANCH  33  35
ATOM     35  C   UNL A   1      37.625  31.819  32.116  1.00  0.00     0.060 A 
ATOM     36  C   UNL A   1      38.967  32.152  31.904  1.00  0.00     0.016 A 
ATOM     37  C   UNL A   1      37.207  31.263  33.329  1.00  0.00     0.016 A 
ATOM     38  C   UNL A   1      39.907  31.903  32.905  1.00  0.00     0.010 A 
ATOM     39  C   UNL A   1      38.150  31.001  34.321  1.00  0.00     0.010 A 
ATOM     40  C   UNL A   1      39.506  31.297  34.104  1.00  0.00    -0.014 A 
BRANCH  40  41
ATOM     41  C   UNL A   1      40.509  30.825  35.082  1.00  0.00     0.031 A 
ATOM     42  C   UNL A   1      40.941  31.759  36.174  1.00  0.00     0.074 A 
ATOM     43  C   UNL A   1      41.058  29.604  34.972  1.00  0.00     0.049 A 
ATOM     44  N   UNL A   1      41.868  31.600  37.082  1.00  0.00    -0.248 NA
ATOM     45  C   UNL A   1      40.233  33.048  36.250  1.00  0.00     0.031 C 
ATOM     46  C   UNL A   1      40.701  28.601  33.971  1.00  0.00     0.029 A 
ATOM     47  N   UNL A   1      42.053  29.012  35.707  1.00  0.00    -0.354 N 
ATOM     48  C   UNL A   1      41.851  32.762  37.841  1.00  0.00     0.074 A 
ATOM     49  C   UNL A   1      40.840  33.627  37.275  1.00  0.00     0.031 C 
ATOM     50  C   UNL A   1      41.483  27.520  34.144  1.00  0.00     0.029 A 
ATOM     51  C   UNL A   1      42.410  27.770  35.246  1.00  0.00     0.049 A 
ATOM     52  H   UNL A   1      42.470  29.438  36.491  1.00  0.00     0.167 HD
ATOM     53  C   UNL A   1      42.610  33.078  38.915  1.00  0.00     0.037 A 
ATOM     54  C   UNL A   1      43.393  26.946  35.655  1.00  0.00     0.037 A 
ATOM     55  C   UNL A   1      43.632  32.232  39.465  1.00  0.00     0.049 A 
ATOM     56  C   UNL A   1      44.290  27.363  36.788  1.00  0.00     0.074 A 
ATOM     57  C   UNL A   1      44.444  32.458  40.562  1.00  0.00     0.029 A 
ATOM     58  N   UNL A   1      43.993  31.000  38.943  1.00  0.00    -0.354 N 
ATOM     59  N   UNL A   1      44.250  28.452  37.517  1.00  0.00    -0.248 NA
ATOM     60  C   UNL A   1      45.379  26.442  37.145  1.00  0.00     0.031 C 
ATOM     61  C   UNL A   1      45.322  31.375  40.684  1.00  0.00     0.029 A 
ATOM     62  C   UNL A   1      45.036  30.464  39.679  1.00  0.00     0.049 A 
ATOM     63  H   UNL A   1      43.572  30.570  38.165  1.00  0.00     0.167 HD
ATOM     64  C   UNL A   1      45.291  28.338  38.429  1.00  0.00     0.074 A 
ATOM     65  C   UNL A   1      45.945  27.073  38.164  1.00  0.00     0.031 C 
ATOM     66  C   UNL A   1      45.671  29.204  39.399  1.00  0.00     0.037 A 
BRANCH  53  67
ATOM     67  C   UNL A   1      42.364  34.412  39.549  1.00  0.00     0.057 A 
ATOM     68  C   UNL A   1      43.052  35.557  39.130  1.00  0.00     0.134 A 
ATOM     69  C   UNL A   1      41.433  34.553  40.583  1.00  0.00     0.134 A 
ATOM     70  F   UNL A   1      43.971  35.480  38.156  1.00  0.00    -0.206 F 
ATOM     71  C   UNL A   1      42.833  36.796  39.731  1.00  0.00     0.040 A 
ATOM     72  C   UNL A   1      41.194  35.790  41.182  1.00  0.00     0.040 A 
ATOM     73  F   UNL A   1      40.747  33.490  41.032  1.00  0.00    -0.206 F 
ATOM     74  C   UNL A   1      41.899  36.916  40.759  1.00  0.00     0.006 A 
ENDBRANCH  53  67
BRANCH  54  75
ATOM     75  C   UNL A   1      43.601  25.646  34.974  1.00  0.00     0.057 A 
ATOM     76  C   UNL A   1      44.470  25.535  33.885  1.00  0.00     0.134 A 
ATOM     77  C   UNL A   1      42.922  24.492  35.382  1.00  0.00     0.134 A 
ATOM     78  F   UNL A   1      45.128  26.613  33.434  1.00  0.00    -0.206 F 
ATOM     79  C   UNL A   1      44.650  24.324  33.215  1.00  0.00     0.040 A 
ATOM     80  C   UNL A   1      43.105  23.271  34.733  1.00  0.00     0.040 A 
ATOM     81  F   UNL A   1      42.070  24.539  36.418  1.00  0.00    -0.206 F 
ATOM     82  C   UNL A   1      43.969  23.186  33.643  1.00  0.00     0.006 A 
ENDBRANCH  54  75
BRANCH  66  83
ATOM     83  C   UNL A   1      46.833  28.804  40.258  1.00  0.00     0.057 A 
ATOM     84  C   UNL A   1      48.137  29.216  39.962  1.00  0.00     0.134 A 
ATOM     85  C   UNL A   1      46.636  28.047  41.418  1.00  0.00     0.134 A 
ATOM     86  F   UNL A   1      48.390  29.934  38.856  1.00  0.00    -0.206 F 
ATOM     87  C   UNL A   1      49.210  28.878  40.787  1.00  0.00     0.040 A 
ATOM     88  C   UNL A   1      47.698  27.716  42.260  1.00  0.00     0.040 A 
ATOM     89  F   UNL A   1      45.407  27.628  41.757  1.00  0.00    -0.206 F 
ATOM     90  C   UNL A   1      48.990  28.132  41.945  1.00  0.00     0.006 A 
ENDBRANCH  66  83
ENDBRANCH  40  41
ENDBRANCH  33  35
ENDBRANCH  32  33
ENDBRANCH  31  32
ENDBRANCH  30  31
ENDBRANCH  29  30
ENDBRANCH  28  29
ENDBRANCH  27  28
ENDBRANCH  26  27
ENDBRANCH   1  26
TORSDOF 25
ENDMDL
MODEL 3
REMARK VINA RESULT:      -7.8      4.838     11.488
REMARK SMILES CC[N@@H+](C[C@@H]1CCCO1)[C@@H](C)c1ccc(C(=O)OCCOCCOCCOCCOC(=O)c2ccc(-c3c4nc(c(-c5c(F)cccc5F)c5ccc([nH]5)c(-c5c(F)cccc5F)c5nc(c(-c6c(F)cccc6F)c6ccc3[nH]6)C=C5)C=C4)cc2)o1
REMARK SMILES IDX 23 1 22 2 21 3 20 4 19 5 18 6 16 7 17 8 15 9 12 10 13 11
REMARK SMILES IDX 87 12 14 13 10 14 11 15 3 16 2 18 1 19 4 20 5 21 6 22 9 23
REMARK SMILES IDX 7 24 8 25 24 26 25 27 26 28 27 29 28 30 29 31 30 32 31 33
REMARK SMILES IDX 32 34 33 35 34 36 86 37 35 38 85 39 36 40 37 41 38 42 79 43
REMARK SMILES IDX 39 44 84 45 78 46 80 47 40 48 83 49 77 50 76 51 41 53 67 54
REMARK SMILES IDX 50 55 66 56 51 57 54 58 65 59 81 60 52 61 53 62 64 64 82 65
REMARK SMILES IDX 55 66 42 67 43 68 48 69 44 70 45 71 47 72 49 73 46 74 68 75
REMARK SMILES IDX 69 76 74 77 70 78 71 79 73 80 75 81 72 82 56 83 57 84 62 85
REMARK SMILES IDX 58 86 59 87 61 88 63 89 60 90
REMARK H PARENT 3 17 80 52 54 63
REMARK Flexibility Score: inf
ROOT
ATOM      1  C   UNL A   1      39.756  35.267  36.074  1.00  0.00     0.188 C 
ENDROOT
BRANCH   1   2
ATOM      2  C   UNL A   1      39.876  36.057  37.384  1.00  0.00     0.188 C 
BRANCH   2   3
ATOM      3  O   UNL A   1      39.271  35.415  38.507  1.00  0.00    -0.376 OA
BRANCH   3   4
ATOM      4  C   UNL A   1      39.984  34.282  39.000  1.00  0.00     0.202 C 
BRANCH   4   5
ATOM      5  C   UNL A   1      39.131  33.007  38.995  1.00  0.00     0.261 C 
BRANCH   5   6
ATOM      6  O   UNL A   1      37.881  33.139  38.300  1.00  0.00    -0.457 OA
BRANCH   6   7
ATOM      7  C   UNL A   1      37.655  32.258  37.287  1.00  0.00     0.374 C 
ATOM      8  O   UNL A   1      37.820  31.047  37.373  1.00  0.00    -0.242 OA
BRANCH   7   9
ATOM      9  C   UNL A   1      37.057  32.972  36.187  1.00  0.00     0.212 A 
ATOM     10  C   UNL A   1      36.371  33.117  34.093  1.00  0.00     0.162 A 
ATOM     11  C   UNL A   1      35.793  34.173  34.778  1.00  0.00     0.053 A 
ATOM     12  O   UNL A   1      37.207  32.452  34.932  1.00  0.00    -0.448 OA
ATOM     13  C   UNL A   1      36.204  34.057  36.127  1.00  0.00     0.059 A 
BRANCH  10  14
ATOM     14  C   UNL A   1      36.122  32.583  32.695  1.00  0.00     0.248 C 
ATOM     15  C   UNL A   1      36.344  31.064  32.700  1.00  0.00     0.084 C 
BRANCH  14  16
ATOM     16  N   UNL A   1      36.741  33.333  31.574  1.00  0.00    -0.324 N 
ATOM     17  H   UNL A   1      37.231  34.069  32.082  1.00  0.00     0.348 HD
BRANCH  16  18
ATOM     18  C   UNL A   1      37.820  32.695  30.801  1.00  0.00     0.259 C 
ATOM     19  C   UNL A   1      39.222  32.755  31.383  1.00  0.00     0.071 C 
ENDBRANCH  16  18
BRANCH  16  20
ATOM     20  C   UNL A   1      35.716  33.897  30.658  1.00  0.00     0.295 C 
BRANCH  20  21
ATOM     21  C   UNL A   1      34.375  34.516  31.168  1.00  0.00     0.173 C 
ATOM     22  C   UNL A   1      33.485  35.046  30.054  1.00  0.00     0.040 C 
ATOM     23  O   UNL A   1      34.503  35.608  32.094  1.00  0.00    -0.372 OA
ATOM     24  C   UNL A   1      32.542  35.949  30.811  1.00  0.00     0.031 C 
ATOM     25  C   UNL A   1      33.441  36.544  31.872  1.00  0.00     0.161 C 
ENDBRANCH  20  21
ENDBRANCH  16  20
ENDBRANCH  14  16
ENDBRANCH  10  14
ENDBRANCH   7   9
ENDBRANCH   6   7
ENDBRANCH   5   6
ENDBRANCH   4   5
ENDBRANCH   3   4
ENDBRANCH   2   3
ENDBRANCH   1   2
BRANCH   1  26
ATOM     26  O   UNL A   1      40.960  34.736  35.552  1.00  0.00    -0.377 OA
BRANCH  26  27
ATOM     27  C   UNL A   1      41.487  35.276  34.343  1.00  0.00     0.188 C 
BRANCH  27  28
ATOM     28  C   UNL A   1      42.456  36.473  34.339  1.00  0.00     0.188 C 
BRANCH  28  29
ATOM     29  O   UNL A   1      43.823  36.110  34.523  1.00  0.00    -0.376 OA
BRANCH  29  30
ATOM     30  C   UNL A   1      44.681  36.363  33.415  1.00  0.00     0.202 C 
BRANCH  30  31
ATOM     31  C   UNL A   1      44.122  35.771  32.118  1.00  0.00     0.261 C 
BRANCH  31  32
ATOM     32  O   UNL A   1      44.730  36.303  30.930  1.00  0.00    -0.460 OA
BRANCH  32  33
ATOM     33  C   UNL A   1      45.970  35.855  30.639  1.00  0.00     0.338 C 
ATOM     34  O   UNL A   1      47.032  36.400  30.878  1.00  0.00    -0.246 OA
BRANCH  33  35
ATOM     35  C   UNL A   1      45.841  34.488  30.102  1.00  0.00     0.060 A 
ATOM     36  C   UNL A   1      45.439  34.323  28.773  1.00  0.00     0.016 A 
ATOM     37  C   UNL A   1      46.114  33.381  30.911  1.00  0.00     0.016 A 
ATOM     38  C   UNL A   1      45.283  33.037  28.253  1.00  0.00     0.010 A 
ATOM     39  C   UNL A   1      45.943  32.098  30.395  1.00  0.00     0.010 A 
ATOM     40  C   UNL A   1      45.503  31.922  29.073  1.00  0.00    -0.014 A 
BRANCH  40  41
ATOM     41  C   UNL A   1      45.134  30.566  28.615  1.00  0.00     0.031 A 
ATOM     42  C   UNL A   1      43.695  30.148  28.696  1.00  0.00     0.074 A 
ATOM     43  C   UNL A   1      46.069  29.707  28.177  1.00  0.00     0.049 A 
ATOM     44  N   UNL A   1      43.153  28.986  28.442  1.00  0.00    -0.248 NA
ATOM     45  C   UNL A   1      42.738  31.182  29.125  1.00  0.00     0.031 C 
ATOM     46  C   UNL A   1      47.492  30.006  28.029  1.00  0.00     0.029 A 
ATOM     47  N   UNL A   1      45.955  28.394  27.794  1.00  0.00    -0.354 N 
ATOM     48  C   UNL A   1      41.794  29.148  28.673  1.00  0.00     0.074 A 
ATOM     49  C   UNL A   1      41.594  30.512  29.109  1.00  0.00     0.031 C 
ATOM     50  C   UNL A   1      48.125  28.898  27.603  1.00  0.00     0.029 A 
ATOM     51  C   UNL A   1      47.156  27.810  27.480  1.00  0.00     0.049 A 
ATOM     52  H   UNL A   1      45.095  27.919  27.750  1.00  0.00     0.167 HD
ATOM     53  C   UNL A   1      40.801  28.240  28.531  1.00  0.00     0.037 A 
ATOM     54  C   UNL A   1      47.438  26.534  27.156  1.00  0.00     0.037 A 
ATOM     55  C   UNL A   1      40.998  26.877  28.122  1.00  0.00     0.049 A 
ATOM     56  C   UNL A   1      46.329  25.518  27.103  1.00  0.00     0.074 A 
ATOM     57  C   UNL A   1      40.052  25.886  27.934  1.00  0.00     0.029 A 
ATOM     58  N   UNL A   1      42.234  26.312  27.854  1.00  0.00    -0.354 N 
ATOM     59  N   UNL A   1      45.043  25.686  27.297  1.00  0.00    -0.248 NA
ATOM     60  C   UNL A   1      46.714  24.131  26.801  1.00  0.00     0.031 C 
ATOM     61  C   UNL A   1      40.721  24.707  27.584  1.00  0.00     0.029 A 
ATOM     62  C   UNL A   1      42.080  24.976  27.528  1.00  0.00     0.049 A 
ATOM     63  H   UNL A   1      43.094  26.788  27.890  1.00  0.00     0.167 HD
ATOM     64  C   UNL A   1      44.465  24.435  27.121  1.00  0.00     0.074 A 
ATOM     65  C   UNL A   1      45.539  23.518  26.801  1.00  0.00     0.031 C 
ATOM     66  C   UNL A   1      43.161  24.080  27.214  1.00  0.00     0.037 A 
BRANCH  53  67
ATOM     67  C   UNL A   1      39.412  28.702  28.844  1.00  0.00     0.057 A 
ATOM     68  C   UNL A   1      38.834  28.481  30.100  1.00  0.00     0.134 A 
ATOM     69  C   UNL A   1      38.647  29.374  27.884  1.00  0.00     0.134 A 
ATOM     70  F   UNL A   1      39.512  27.825  31.054  1.00  0.00    -0.206 F 
ATOM     71  C   UNL A   1      37.534  28.899  30.385  1.00  0.00     0.040 A 
ATOM     72  C   UNL A   1      37.351  29.810  28.162  1.00  0.00     0.040 A 
ATOM     73  F   UNL A   1      39.145  29.610  26.660  1.00  0.00    -0.206 F 
ATOM     74  C   UNL A   1      36.790  29.568  29.416  1.00  0.00     0.006 A 
ENDBRANCH  53  67
BRANCH  54  75
ATOM     75  C   UNL A   1      48.836  26.131  26.877  1.00  0.00     0.057 A 
ATOM     76  C   UNL A   1      49.648  25.605  27.887  1.00  0.00     0.134 A 
ATOM     77  C   UNL A   1      49.399  26.282  25.605  1.00  0.00     0.134 A 
ATOM     78  F   UNL A   1      49.170  25.461  29.131  1.00  0.00    -0.206 F 
ATOM     79  C   UNL A   1      50.977  25.252  27.644  1.00  0.00     0.040 A 
ATOM     80  C   UNL A   1      50.720  25.917  25.344  1.00  0.00     0.040 A 
ATOM     81  F   UNL A   1      48.669  26.787  24.598  1.00  0.00    -0.206 F 
ATOM     82  C   UNL A   1      51.514  25.404  26.367  1.00  0.00     0.006 A 
ENDBRANCH  54  75
BRANCH  66  83
ATOM     83  C   UNL A   1      42.822  22.645  26.949  1.00  0.00     0.057 A 
ATOM     84  C   UNL A   1      42.732  22.142  25.646  1.00  0.00     0.134 A 
ATOM     85  C   UNL A   1      42.635  21.747  28.007  1.00  0.00     0.134 A 
ATOM     86  F   UNL A   1      42.889  22.956  24.590  1.00  0.00    -0.206 F 
ATOM     87  C   UNL A   1      42.458  20.796  25.404  1.00  0.00     0.040 A 
ATOM     88  C   UNL A   1      42.377  20.396  27.779  1.00  0.00     0.040 A 
ATOM     89  F   UNL A   1      42.714  22.169  29.278  1.00  0.00    -0.206 F 
ATOM     90  C   UNL A   1      42.287  19.917  26.474  1.00  0.00     0.006 A 
ENDBRANCH  66  83
ENDBRANCH  40  41
ENDBRANCH  33  35
ENDBRANCH  32  33
ENDBRANCH  31  32
ENDBRANCH  30  31
ENDBRANCH  29  30
ENDBRANCH  28  29
ENDBRANCH  27  28
ENDBRANCH  26  27
ENDBRANCH   1  26
TORSDOF 25
ENDMDL
