MODEL 1
REMARK VINA RESULT:     -10.3      0.000      0.000
REMARK SMILES CC[C@@H](C)c1ccc(NC(=O)[C@@H]2[C@@H](C(=O)OCCOCCOCCOCCOC(=O)c3ccc(-c4c5nc(c(-c6c(F)cccc6F)c6ccc([nH]6)c(-c6c(F)cccc6F)c6nc(c(-c7c(F)cccc7F)c7ccc4[nH]7)C=C6)C=C5)cc3)[C@@H]3C=C[C@H]2C3)cc1
REMARK SMILES IDX 21 1 20 2 19 3 18 4 17 5 16 6 14 7 15 8 13 9 12 10 88 11
REMARK SMILES IDX 85 12 87 13 89 14 86 15 10 16 9 17 11 19 8 20 5 21 6 22
REMARK SMILES IDX 91 23 7 24 90 25 3 26 4 27 2 28 1 29 22 30 23 31 24 32 25 33
REMARK SMILES IDX 26 34 27 35 28 36 29 37 30 38 31 39 32 40 84 41 33 42 83 43
REMARK SMILES IDX 34 44 35 45 36 46 77 47 37 48 82 49 76 50 78 51 38 52 81 53
REMARK SMILES IDX 75 54 74 55 39 57 65 58 48 59 64 60 49 61 52 62 63 63 79 64
REMARK SMILES IDX 50 65 51 66 62 68 80 69 53 70 40 71 41 72 46 73 42 74 43 75
REMARK SMILES IDX 45 76 47 77 44 78 66 79 67 80 72 81 68 82 69 83 71 84 73 85
REMARK SMILES IDX 70 86 54 87 55 88 60 89 56 90 57 91 59 92 61 93 58 94
REMARK H PARENT 9 18 78 56 52 67
REMARK Flexibility Score: inf
ROOT
ATOM      1  C   UNL A   1      41.087  19.946  26.845  1.00  0.00     0.188 C 
ENDROOT
BRANCH   1   2
ATOM      2  C   UNL A   1      40.036  20.852  26.181  1.00  0.00     0.188 C 
BRANCH   2   3
ATOM      3  O   UNL A   1      39.500  21.932  26.917  1.00  0.00    -0.376 OA
BRANCH   3   4
ATOM      4  C   UNL A   1      38.641  22.911  26.351  1.00  0.00     0.202 C 
BRANCH   4   5
ATOM      5  C   UNL A   1      37.589  22.689  25.251  1.00  0.00     0.261 C 
BRANCH   5   6
ATOM      6  O   UNL A   1      36.379  23.439  25.350  1.00  0.00    -0.463 OA
BRANCH   6   7
ATOM      7  C   UNL A   1      35.273  22.701  25.579  1.00  0.00     0.310 C 
ATOM      8  O   UNL A   1      35.235  21.723  26.320  1.00  0.00    -0.252 OA
BRANCH   7   9
ATOM      9  C   UNL A   1      34.017  23.263  24.946  1.00  0.00     0.119 C 
ATOM     10  C   UNL A   1      32.820  22.692  25.744  1.00  0.00     0.100 C 
ATOM     11  C   UNL A   1      31.934  22.050  24.638  1.00  0.00     0.025 C 
ATOM     12  C   UNL A   1      33.675  22.850  23.477  1.00  0.00     0.027 C 
ATOM     13  C   UNL A   1      31.387  23.097  23.711  1.00  0.00    -0.027 C 
ATOM     14  C   UNL A   1      33.014  21.491  23.685  1.00  0.00     0.017 C 
ATOM     15  C   UNL A   1      32.424  23.572  22.999  1.00  0.00    -0.027 C 
BRANCH  10  16
ATOM     16  C   UNL A   1      32.129  23.445  26.902  1.00  0.00     0.228 C 
ATOM     17  N   UNL A   1      31.624  24.718  26.927  1.00  0.00    -0.326 N 
ATOM     18  H   UNL A   1      31.565  25.083  27.840  1.00  0.00     0.169 HD
ATOM     19  O   UNL A   1      32.099  22.854  27.997  1.00  0.00    -0.274 OA
BRANCH  17  20
ATOM     20  C   UNL A   1      31.172  25.621  25.953  1.00  0.00     0.041 A 
ATOM     21  C   UNL A   1      30.216  27.301  23.837  1.00  0.00    -0.045 A 
ATOM     22  C   UNL A   1      29.411  26.348  24.449  1.00  0.00     0.006 A 
ATOM     23  C   UNL A   1      31.490  27.487  24.409  1.00  0.00     0.006 A 
ATOM     24  C   UNL A   1      29.873  25.603  25.523  1.00  0.00     0.026 A 
ATOM     25  C   UNL A   1      31.972  26.641  25.443  1.00  0.00     0.026 A 
BRANCH  21  26
ATOM     26  C   UNL A   1      29.634  28.164  22.710  1.00  0.00     0.016 C 
ATOM     27  C   UNL A   1      30.566  29.330  22.299  1.00  0.00     0.013 C 
BRANCH  26  28
ATOM     28  C   UNL A   1      28.224  28.721  23.013  1.00  0.00     0.004 C 
ATOM     29  C   UNL A   1      27.970  30.085  22.373  1.00  0.00     0.004 C 
ENDBRANCH  26  28
ENDBRANCH  21  26
ENDBRANCH  17  20
ENDBRANCH  10  16
ENDBRANCH   7   9
ENDBRANCH   6   7
ENDBRANCH   5   6
ENDBRANCH   4   5
ENDBRANCH   3   4
ENDBRANCH   2   3
ENDBRANCH   1   2
BRANCH   1  30
ATOM     30  O   UNL A   1      41.568  18.885  26.049  1.00  0.00    -0.377 OA
BRANCH  30  31
ATOM     31  C   UNL A   1      42.910  18.442  26.184  1.00  0.00     0.188 C 
BRANCH  31  32
ATOM     32  C   UNL A   1      43.987  18.790  25.137  1.00  0.00     0.188 C 
BRANCH  32  33
ATOM     33  O   UNL A   1      43.801  20.037  24.490  1.00  0.00    -0.376 OA
BRANCH  33  34
ATOM     34  C   UNL A   1      44.133  21.215  25.208  1.00  0.00     0.202 C 
BRANCH  34  35
ATOM     35  C   UNL A   1      43.612  22.543  24.640  1.00  0.00     0.261 C 
BRANCH  35  36
ATOM     36  O   UNL A   1      42.570  23.194  25.387  1.00  0.00    -0.460 OA
BRANCH  36  37
ATOM     37  C   UNL A   1      42.815  23.517  26.673  1.00  0.00     0.338 C 
ATOM     38  O   UNL A   1      42.593  22.836  27.661  1.00  0.00    -0.246 OA
BRANCH  37  39
ATOM     39  C   UNL A   1      43.587  24.779  26.686  1.00  0.00     0.060 A 
ATOM     40  C   UNL A   1      43.872  25.415  25.469  1.00  0.00     0.016 A 
ATOM     41  C   UNL A   1      44.031  25.328  27.890  1.00  0.00     0.016 A 
ATOM     42  C   UNL A   1      44.640  26.581  25.453  1.00  0.00     0.010 A 
ATOM     43  C   UNL A   1      44.816  26.484  27.871  1.00  0.00     0.010 A 
ATOM     44  C   UNL A   1      45.155  27.095  26.650  1.00  0.00    -0.014 A 
BRANCH  44  45
ATOM     45  C   UNL A   1      46.210  28.139  26.613  1.00  0.00     0.031 A 
ATOM     46  C   UNL A   1      45.790  29.581  26.709  1.00  0.00     0.074 A 
ATOM     47  C   UNL A   1      47.513  27.823  26.509  1.00  0.00     0.049 A 
ATOM     48  N   UNL A   1      46.515  30.668  26.633  1.00  0.00    -0.248 NA
ATOM     49  C   UNL A   1      44.354  29.828  26.915  1.00  0.00     0.031 C 
ATOM     50  C   UNL A   1      48.055  26.468  26.452  1.00  0.00     0.029 A 
ATOM     51  N   UNL A   1      48.619  28.633  26.421  1.00  0.00    -0.354 N 
ATOM     52  C   UNL A   1      45.623  31.724  26.769  1.00  0.00     0.074 A 
ATOM     53  C   UNL A   1      44.302  31.151  26.902  1.00  0.00     0.031 C 
ATOM     54  C   UNL A   1      49.392  26.539  26.320  1.00  0.00     0.029 A 
ATOM     55  C   UNL A   1      49.795  27.944  26.248  1.00  0.00     0.049 A 
ATOM     56  H   UNL A   1      48.574  29.615  26.475  1.00  0.00     0.167 HD
ATOM     57  C   UNL A   1      45.881  33.053  26.786  1.00  0.00     0.037 A 
ATOM     58  C   UNL A   1      51.045  28.396  26.029  1.00  0.00     0.037 A 
ATOM     59  C   UNL A   1      47.196  33.623  26.654  1.00  0.00     0.049 A 
ATOM     60  C   UNL A   1      51.298  29.882  25.975  1.00  0.00     0.074 A 
ATOM     61  C   UNL A   1      47.564  34.957  26.683  1.00  0.00     0.029 A 
ATOM     62  N   UNL A   1      48.357  32.892  26.453  1.00  0.00    -0.354 N 
ATOM     63  N   UNL A   1      50.454  30.874  26.135  1.00  0.00    -0.248 NA
ATOM     64  C   UNL A   1      52.680  30.312  25.715  1.00  0.00     0.031 C 
ATOM     65  C   UNL A   1      48.937  35.036  26.437  1.00  0.00     0.029 A 
ATOM     66  C   UNL A   1      49.437  33.748  26.324  1.00  0.00     0.049 A 
ATOM     67  H   UNL A   1      48.405  31.909  26.409  1.00  0.00     0.167 HD
ATOM     68  C   UNL A   1      51.206  32.038  26.028  1.00  0.00     0.074 A 
ATOM     69  C   UNL A   1      52.577  31.630  25.802  1.00  0.00     0.031 C 
ATOM     70  C   UNL A   1      50.799  33.330  26.112  1.00  0.00     0.037 A 
BRANCH  57  71
ATOM     71  C   UNL A   1      44.711  33.986  26.920  1.00  0.00     0.057 A 
ATOM     72  C   UNL A   1      43.987  34.436  25.809  1.00  0.00     0.134 A 
ATOM     73  C   UNL A   1      44.285  34.412  28.183  1.00  0.00     0.134 A 
ATOM     74  F   UNL A   1      44.351  34.078  24.567  1.00  0.00    -0.206 F 
ATOM     75  C   UNL A   1      42.896  35.297  25.948  1.00  0.00     0.040 A 
ATOM     76  C   UNL A   1      43.178  35.248  28.338  1.00  0.00     0.040 A 
ATOM     77  F   UNL A   1      44.931  34.016  29.291  1.00  0.00    -0.206 F 
ATOM     78  C   UNL A   1      42.484  35.698  27.217  1.00  0.00     0.006 A 
ENDBRANCH  57  71
BRANCH  58  79
ATOM     79  C   UNL A   1      52.162  27.437  25.819  1.00  0.00     0.057 A 
ATOM     80  C   UNL A   1      52.914  26.948  26.893  1.00  0.00     0.134 A 
ATOM     81  C   UNL A   1      52.528  27.017  24.534  1.00  0.00     0.134 A 
ATOM     82  F   UNL A   1      52.633  27.334  28.147  1.00  0.00    -0.206 F 
ATOM     83  C   UNL A   1      54.002  26.094  26.697  1.00  0.00     0.040 A 
ATOM     84  C   UNL A   1      53.594  26.140  24.325  1.00  0.00     0.040 A 
ATOM     85  F   UNL A   1      51.850  27.449  23.461  1.00  0.00    -0.206 F 
ATOM     86  C   UNL A   1      54.341  25.683  25.409  1.00  0.00     0.006 A 
ENDBRANCH  58  79
BRANCH  70  87
ATOM     87  C   UNL A   1      51.852  34.398  26.009  1.00  0.00     0.057 A 
ATOM     88  C   UNL A   1      52.468  34.949  27.140  1.00  0.00     0.134 A 
ATOM     89  C   UNL A   1      52.288  34.847  24.756  1.00  0.00     0.134 A 
ATOM     90  F   UNL A   1      52.092  34.572  28.371  1.00  0.00    -0.206 F 
ATOM     91  C   UNL A   1      53.460  35.926  27.028  1.00  0.00     0.040 A 
ATOM     92  C   UNL A   1      53.301  35.799  24.629  1.00  0.00     0.040 A 
ATOM     93  F   UNL A   1      51.751  34.353  23.630  1.00  0.00    -0.206 F 
ATOM     94  C   UNL A   1      53.884  36.348  25.768  1.00  0.00     0.006 A 
ENDBRANCH  70  87
ENDBRANCH  44  45
ENDBRANCH  37  39
ENDBRANCH  36  37
ENDBRANCH  35  36
ENDBRANCH  34  35
ENDBRANCH  33  34
ENDBRANCH  32  33
ENDBRANCH  31  32
ENDBRANCH  30  31
ENDBRANCH   1  30
TORSDOF 24
ENDMDL
MODEL 2
REMARK VINA RESULT:      -9.9      0.739      5.930
REMARK SMILES CC[C@@H](C)c1ccc(NC(=O)[C@@H]2[C@@H](C(=O)OCCOCCOCCOCCOC(=O)c3ccc(-c4c5nc(c(-c6c(F)cccc6F)c6ccc([nH]6)c(-c6c(F)cccc6F)c6nc(c(-c7c(F)cccc7F)c7ccc4[nH]7)C=C6)C=C5)cc3)[C@@H]3C=C[C@H]2C3)cc1
REMARK SMILES IDX 21 1 20 2 19 3 18 4 17 5 16 6 14 7 15 8 13 9 12 10 88 11
REMARK SMILES IDX 85 12 87 13 89 14 86 15 10 16 9 17 11 19 8 20 5 21 6 22
REMARK SMILES IDX 91 23 7 24 90 25 3 26 4 27 2 28 1 29 22 30 23 31 24 32 25 33
REMARK SMILES IDX 26 34 27 35 28 36 29 37 30 38 31 39 32 40 84 41 33 42 83 43
REMARK SMILES IDX 34 44 35 45 36 46 77 47 37 48 82 49 76 50 78 51 38 52 81 53
REMARK SMILES IDX 75 54 74 55 39 57 65 58 48 59 64 60 49 61 52 62 63 63 79 64
REMARK SMILES IDX 50 65 51 66 62 68 80 69 53 70 40 71 41 72 46 73 42 74 43 75
REMARK SMILES IDX 45 76 47 77 44 78 66 79 67 80 72 81 68 82 69 83 71 84 73 85
REMARK SMILES IDX 70 86 54 87 55 88 60 89 56 90 57 91 59 92 61 93 58 94
REMARK H PARENT 9 18 78 56 52 67
REMARK Flexibility Score: inf
ROOT
ATOM      1  C   UNL A   1      41.001  20.099  26.939  1.00  0.00     0.188 C 
ENDROOT
BRANCH   1   2
ATOM      2  C   UNL A   1      40.456  21.288  26.131  1.00  0.00     0.188 C 
BRANCH   2   3
ATOM      3  O   UNL A   1      39.906  22.391  26.821  1.00  0.00    -0.376 OA
BRANCH   3   4
ATOM      4  C   UNL A   1      38.726  23.062  26.405  1.00  0.00     0.202 C 
BRANCH   4   5
ATOM      5  C   UNL A   1      37.572  22.469  25.578  1.00  0.00     0.261 C 
BRANCH   5   6
ATOM      6  O   UNL A   1      36.288  23.073  25.732  1.00  0.00    -0.463 OA
BRANCH   6   7
ATOM      7  C   UNL A   1      35.244  22.248  25.508  1.00  0.00     0.310 C 
ATOM      8  O   UNL A   1      35.214  21.066  25.838  1.00  0.00    -0.252 OA
BRANCH   7   9
ATOM      9  C   UNL A   1      34.028  22.939  24.928  1.00  0.00     0.119 C 
ATOM     10  C   UNL A   1      32.809  22.475  25.762  1.00  0.00     0.100 C 
ATOM     11  C   UNL A   1      31.826  21.939  24.683  1.00  0.00     0.025 C 
ATOM     12  C   UNL A   1      33.595  22.583  23.468  1.00  0.00     0.027 C 
ATOM     13  C   UNL A   1      31.352  23.048  23.789  1.00  0.00    -0.027 C 
ATOM     14  C   UNL A   1      32.812  21.292  23.684  1.00  0.00     0.017 C 
ATOM     15  C   UNL A   1      32.405  23.430  23.044  1.00  0.00    -0.027 C 
BRANCH  10  16
ATOM     16  C   UNL A   1      32.237  23.275  26.954  1.00  0.00     0.228 C 
ATOM     17  N   UNL A   1      31.782  24.566  26.991  1.00  0.00    -0.326 N 
ATOM     18  H   UNL A   1      31.805  24.949  27.898  1.00  0.00     0.169 HD
ATOM     19  O   UNL A   1      32.270  22.705  28.061  1.00  0.00    -0.274 OA
BRANCH  17  20
ATOM     20  C   UNL A   1      31.288  25.467  26.034  1.00  0.00     0.041 A 
ATOM     21  C   UNL A   1      30.207  27.143  23.976  1.00  0.00    -0.045 A 
ATOM     22  C   UNL A   1      29.404  26.343  24.780  1.00  0.00     0.006 A 
ATOM     23  C   UNL A   1      31.572  27.185  24.322  1.00  0.00     0.006 A 
ATOM     24  C   UNL A   1      29.944  25.602  25.820  1.00  0.00     0.026 A 
ATOM     25  C   UNL A   1      32.112  26.340  25.328  1.00  0.00     0.026 A 
BRANCH  21  26
ATOM     26  C   UNL A   1      29.557  28.013  22.894  1.00  0.00     0.016 C 
ATOM     27  C   UNL A   1      30.252  29.387  22.723  1.00  0.00     0.013 C 
BRANCH  26  28
ATOM     28  C   UNL A   1      28.039  28.232  23.095  1.00  0.00     0.004 C 
ATOM     29  C   UNL A   1      27.591  29.653  22.760  1.00  0.00     0.004 C 
ENDBRANCH  26  28
ENDBRANCH  21  26
ENDBRANCH  17  20
ENDBRANCH  10  16
ENDBRANCH   7   9
ENDBRANCH   6   7
ENDBRANCH   5   6
ENDBRANCH   4   5
ENDBRANCH   3   4
ENDBRANCH   2   3
ENDBRANCH   1   2
BRANCH   1  30
ATOM     30  O   UNL A   1      41.417  18.984  26.180  1.00  0.00    -0.377 OA
BRANCH  30  31
ATOM     31  C   UNL A   1      42.747  18.501  26.290  1.00  0.00     0.188 C 
BRANCH  31  32
ATOM     32  C   UNL A   1      43.806  18.792  25.208  1.00  0.00     0.188 C 
BRANCH  32  33
ATOM     33  O   UNL A   1      43.706  20.074  24.612  1.00  0.00    -0.376 OA
BRANCH  33  34
ATOM     34  C   UNL A   1      44.192  21.187  25.346  1.00  0.00     0.202 C 
BRANCH  34  35
ATOM     35  C   UNL A   1      43.886  22.579  24.776  1.00  0.00     0.261 C 
BRANCH  35  36
ATOM     36  O   UNL A   1      42.983  23.399  25.538  1.00  0.00    -0.460 OA
BRANCH  36  37
ATOM     37  C   UNL A   1      43.354  23.771  26.780  1.00  0.00     0.338 C 
ATOM     38  O   UNL A   1      43.048  23.237  27.834  1.00  0.00    -0.246 OA
BRANCH  37  39
ATOM     39  C   UNL A   1      44.367  24.841  26.650  1.00  0.00     0.060 A 
ATOM     40  C   UNL A   1      44.829  25.485  27.807  1.00  0.00     0.016 A 
ATOM     41  C   UNL A   1      44.855  25.209  25.395  1.00  0.00     0.016 A 
ATOM     42  C   UNL A   1      45.750  26.530  27.705  1.00  0.00     0.010 A 
ATOM     43  C   UNL A   1      45.761  26.268  25.293  1.00  0.00     0.010 A 
ATOM     44  C   UNL A   1      46.185  26.958  26.444  1.00  0.00    -0.014 A 
BRANCH  44  45
ATOM     45  C   UNL A   1      46.910  28.246  26.310  1.00  0.00     0.031 A 
ATOM     46  C   UNL A   1      48.399  28.206  26.090  1.00  0.00     0.074 A 
ATOM     47  C   UNL A   1      46.270  29.427  26.369  1.00  0.00     0.049 A 
ATOM     48  N   UNL A   1      49.257  29.190  26.009  1.00  0.00    -0.248 NA
ATOM     49  C   UNL A   1      48.999  26.870  25.944  1.00  0.00     0.031 C 
ATOM     50  C   UNL A   1      44.830  29.603  26.535  1.00  0.00     0.029 A 
ATOM     51  N   UNL A   1      46.763  30.708  26.307  1.00  0.00    -0.354 N 
ATOM     52  C   UNL A   1      50.496  28.593  25.818  1.00  0.00     0.074 A 
ATOM     53  C   UNL A   1      50.285  27.163  25.823  1.00  0.00     0.031 C 
ATOM     54  C   UNL A   1      44.555  30.920  26.579  1.00  0.00     0.029 A 
ATOM     55  C   UNL A   1      45.803  31.676  26.481  1.00  0.00     0.049 A 
ATOM     56  H   UNL A   1      47.713  30.913  26.154  1.00  0.00     0.167 HD
ATOM     57  C   UNL A   1      51.703  29.183  25.647  1.00  0.00     0.037 A 
ATOM     58  C   UNL A   1      45.925  33.014  26.578  1.00  0.00     0.037 A 
ATOM     59  C   UNL A   1      51.913  30.607  25.641  1.00  0.00     0.049 A 
ATOM     60  C   UNL A   1      47.290  33.646  26.462  1.00  0.00     0.074 A 
ATOM     61  C   UNL A   1      53.094  31.303  25.452  1.00  0.00     0.029 A 
ATOM     62  N   UNL A   1      50.920  31.553  25.848  1.00  0.00    -0.354 N 
ATOM     63  N   UNL A   1      48.452  33.076  26.250  1.00  0.00    -0.248 NA
ATOM     64  C   UNL A   1      47.358  35.109  26.594  1.00  0.00     0.031 C 
ATOM     65  C   UNL A   1      52.827  32.666  25.607  1.00  0.00     0.029 A 
ATOM     66  C   UNL A   1      51.467  32.824  25.823  1.00  0.00     0.049 A 
ATOM     67  H   UNL A   1      49.967  31.349  25.991  1.00  0.00     0.167 HD
ATOM     68  C   UNL A   1      49.381  34.110  26.191  1.00  0.00     0.074 A 
ATOM     69  C   UNL A   1      48.645  35.343  26.377  1.00  0.00     0.031 C 
ATOM     70  C   UNL A   1      50.722  34.045  25.998  1.00  0.00     0.037 A 
BRANCH  57  71
ATOM     71  C   UNL A   1      52.897  28.287  25.487  1.00  0.00     0.057 A 
ATOM     72  C   UNL A   1      53.324  27.831  24.233  1.00  0.00     0.134 A 
ATOM     73  C   UNL A   1      53.650  27.902  26.603  1.00  0.00     0.134 A 
ATOM     74  F   UNL A   1      52.640  28.151  23.123  1.00  0.00    -0.206 F 
ATOM     75  C   UNL A   1      54.441  27.005  24.098  1.00  0.00     0.040 A 
ATOM     76  C   UNL A   1      54.786  27.100  26.478  1.00  0.00     0.040 A 
ATOM     77  F   UNL A   1      53.299  28.305  27.834  1.00  0.00    -0.206 F 
ATOM     78  C   UNL A   1      55.181  26.644  25.223  1.00  0.00     0.006 A 
ENDBRANCH  57  71
BRANCH  58  79
ATOM     79  C   UNL A   1      44.726  33.859  26.820  1.00  0.00     0.057 A 
ATOM     80  C   UNL A   1      44.000  34.417  25.761  1.00  0.00     0.134 A 
ATOM     81  C   UNL A   1      44.298  34.161  28.120  1.00  0.00     0.134 A 
ATOM     82  F   UNL A   1      44.375  34.190  24.492  1.00  0.00    -0.206 F 
ATOM     83  C   UNL A   1      42.909  35.260  25.983  1.00  0.00     0.040 A 
ATOM     84  C   UNL A   1      43.191  34.977  28.356  1.00  0.00     0.040 A 
ATOM     85  F   UNL A   1      44.949  33.661  29.180  1.00  0.00    -0.206 F 
ATOM     86  C   UNL A   1      42.499  35.537  27.285  1.00  0.00     0.006 A 
ENDBRANCH  58  79
BRANCH  70  87
ATOM     87  C   UNL A   1      51.478  35.342  25.926  1.00  0.00     0.057 A 
ATOM     88  C   UNL A   1      51.710  36.005  24.713  1.00  0.00     0.134 A 
ATOM     89  C   UNL A   1      51.938  35.961  27.096  1.00  0.00     0.134 A 
ATOM     90  F   UNL A   1      51.305  35.464  23.555  1.00  0.00    -0.206 F 
ATOM     91  C   UNL A   1      52.395  37.221  24.666  1.00  0.00     0.040 A 
ATOM     92  C   UNL A   1      52.596  37.192  27.064  1.00  0.00     0.040 A 
ATOM     93  F   UNL A   1      51.739  35.390  28.293  1.00  0.00    -0.206 F 
ATOM     94  C   UNL A   1      52.833  37.821  25.845  1.00  0.00     0.006 A 
ENDBRANCH  70  87
ENDBRANCH  44  45
ENDBRANCH  37  39
ENDBRANCH  36  37
ENDBRANCH  35  36
ENDBRANCH  34  35
ENDBRANCH  33  34
ENDBRANCH  32  33
ENDBRANCH  31  32
ENDBRANCH  30  31
ENDBRANCH   1  30
TORSDOF 24
ENDMDL
MODEL 3
REMARK VINA RESULT:      -9.4      5.869     12.476
REMARK SMILES CC[C@@H](C)c1ccc(NC(=O)[C@@H]2[C@@H](C(=O)OCCOCCOCCOCCOC(=O)c3ccc(-c4c5nc(c(-c6c(F)cccc6F)c6ccc([nH]6)c(-c6c(F)cccc6F)c6nc(c(-c7c(F)cccc7F)c7ccc4[nH]7)C=C6)C=C5)cc3)[C@@H]3C=C[C@H]2C3)cc1
REMARK SMILES IDX 21 1 20 2 19 3 18 4 17 5 16 6 14 7 15 8 13 9 12 10 88 11
REMARK SMILES IDX 85 12 87 13 89 14 86 15 10 16 9 17 11 19 8 20 5 21 6 22
REMARK SMILES IDX 91 23 7 24 90 25 3 26 4 27 2 28 1 29 22 30 23 31 24 32 25 33
REMARK SMILES IDX 26 34 27 35 28 36 29 37 30 38 31 39 32 40 84 41 33 42 83 43
REMARK SMILES IDX 34 44 35 45 36 46 77 47 37 48 82 49 76 50 78 51 38 52 81 53
REMARK SMILES IDX 75 54 74 55 39 57 65 58 48 59 64 60 49 61 52 62 63 63 79 64
REMARK SMILES IDX 50 65 51 66 62 68 80 69 53 70 40 71 41 72 46 73 42 74 43 75
REMARK SMILES IDX 45 76 47 77 44 78 66 79 67 80 72 81 68 82 69 83 71 84 73 85
REMARK SMILES IDX 70 86 54 87 55 88 60 89 56 90 57 91 59 92 61 93 58 94
REMARK H PARENT 9 18 78 56 52 67
REMARK Flexibility Score: inf
ROOT
ATOM      1  C   UNL A   1      46.634  24.455  25.926  1.00  0.00     0.188 C 
ENDROOT
BRANCH   1   2
ATOM      2  C   UNL A   1      45.221  25.040  26.086  1.00  0.00     0.188 C 
BRANCH   2   3
ATOM      3  O   UNL A   1      44.771  26.006  25.157  1.00  0.00    -0.376 OA
BRANCH   3   4
ATOM      4  C   UNL A   1      44.041  27.166  25.530  1.00  0.00     0.202 C 
BRANCH   4   5
ATOM      5  C   UNL A   1      44.532  28.314  26.429  1.00  0.00     0.261 C 
BRANCH   5   6
ATOM      6  O   UNL A   1      44.043  29.621  26.135  1.00  0.00    -0.463 OA
BRANCH   6   7
ATOM      7  C   UNL A   1      44.901  30.623  26.417  1.00  0.00     0.310 C 
ATOM      8  O   UNL A   1      46.062  30.671  26.021  1.00  0.00    -0.252 OA
BRANCH   7   9
ATOM      9  C   UNL A   1      44.271  31.780  27.164  1.00  0.00     0.119 C 
ATOM     10  C   UNL A   1      44.820  33.078  26.522  1.00  0.00     0.100 C 
ATOM     11  C   UNL A   1      45.392  33.859  27.739  1.00  0.00     0.025 C 
ATOM     12  C   UNL A   1      44.625  31.973  28.675  1.00  0.00     0.027 C 
ATOM     13  C   UNL A   1      44.296  34.263  28.683  1.00  0.00    -0.027 C 
ATOM     14  C   UNL A   1      45.963  32.701  28.588  1.00  0.00     0.017 C 
ATOM     15  C   UNL A   1      43.840  33.137  29.261  1.00  0.00    -0.027 C 
BRANCH  10  16
ATOM     16  C   UNL A   1      44.076  33.866  25.420  1.00  0.00     0.228 C 
ATOM     17  N   UNL A   1      43.293  34.983  25.534  1.00  0.00    -0.326 N 
ATOM     18  H   UNL A   1      42.664  35.082  24.782  1.00  0.00     0.169 HD
ATOM     19  O   UNL A   1      44.116  33.375  24.276  1.00  0.00    -0.274 OA
BRANCH  17  20
ATOM     20  C   UNL A   1      43.181  36.020  26.474  1.00  0.00     0.041 A 
ATOM     21  C   UNL A   1      43.128  38.066  28.479  1.00  0.00    -0.045 A 
ATOM     22  C   UNL A   1      44.145  37.978  27.535  1.00  0.00     0.006 A 
ATOM     23  C   UNL A   1      42.054  37.172  28.309  1.00  0.00     0.006 A 
ATOM     24  C   UNL A   1      44.105  37.027  26.527  1.00  0.00     0.026 A 
ATOM     25  C   UNL A   1      42.088  36.144  27.329  1.00  0.00     0.026 A 
BRANCH  21  26
ATOM     26  C   UNL A   1      43.168  39.189  29.522  1.00  0.00     0.016 C 
ATOM     27  C   UNL A   1      42.507  40.499  29.027  1.00  0.00     0.013 C 
BRANCH  26  28
ATOM     28  C   UNL A   1      44.587  39.503  30.050  1.00  0.00     0.004 C 
ATOM     29  C   UNL A   1      45.133  38.417  30.976  1.00  0.00     0.004 C 
ENDBRANCH  26  28
ENDBRANCH  21  26
ENDBRANCH  17  20
ENDBRANCH  10  16
ENDBRANCH   7   9
ENDBRANCH   6   7
ENDBRANCH   5   6
ENDBRANCH   4   5
ENDBRANCH   3   4
ENDBRANCH   2   3
ENDBRANCH   1   2
BRANCH   1  30
ATOM     30  O   UNL A   1      46.736  23.326  25.086  1.00  0.00    -0.377 OA
BRANCH  30  31
ATOM     31  C   UNL A   1      45.564  22.656  24.645  1.00  0.00     0.188 C 
BRANCH  31  32
ATOM     32  C   UNL A   1      45.320  21.164  24.949  1.00  0.00     0.188 C 
BRANCH  32  33
ATOM     33  O   UNL A   1      43.963  20.763  24.886  1.00  0.00    -0.376 OA
BRANCH  33  34
ATOM     34  C   UNL A   1      43.120  21.097  25.978  1.00  0.00     0.202 C 
BRANCH  34  35
ATOM     35  C   UNL A   1      41.939  22.033  25.679  1.00  0.00     0.261 C 
BRANCH  35  36
ATOM     36  O   UNL A   1      41.051  22.313  26.776  1.00  0.00    -0.460 OA
BRANCH  36  37
ATOM     37  C   UNL A   1      39.861  22.884  26.501  1.00  0.00     0.338 C 
ATOM     38  O   UNL A   1      38.885  22.353  25.996  1.00  0.00    -0.246 OA
BRANCH  37  39
ATOM     39  C   UNL A   1      39.860  24.240  27.092  1.00  0.00     0.060 A 
ATOM     40  C   UNL A   1      40.527  25.275  26.422  1.00  0.00     0.016 A 
ATOM     41  C   UNL A   1      39.209  24.486  28.302  1.00  0.00     0.016 A 
ATOM     42  C   UNL A   1      40.580  26.552  26.985  1.00  0.00     0.010 A 
ATOM     43  C   UNL A   1      39.280  25.760  28.874  1.00  0.00     0.010 A 
ATOM     44  C   UNL A   1      39.997  26.789  28.237  1.00  0.00    -0.014 A 
BRANCH  44  45
ATOM     45  C   UNL A   1      40.309  28.039  28.973  1.00  0.00     0.031 A 
ATOM     46  C   UNL A   1      41.664  28.169  29.615  1.00  0.00     0.074 A 
ATOM     47  C   UNL A   1      39.422  29.046  29.064  1.00  0.00     0.049 A 
ATOM     48  N   UNL A   1      42.145  29.130  30.362  1.00  0.00    -0.248 NA
ATOM     49  C   UNL A   1      42.603  27.059  29.383  1.00  0.00     0.031 C 
ATOM     50  C   UNL A   1      38.096  29.065  28.454  1.00  0.00     0.029 A 
ATOM     51  N   UNL A   1      39.508  30.248  29.724  1.00  0.00    -0.354 N 
ATOM     52  C   UNL A   1      43.434  28.734  30.699  1.00  0.00     0.074 A 
ATOM     53  C   UNL A   1      43.650  27.435  30.101  1.00  0.00     0.031 C 
ATOM     54  C   UNL A   1      37.482  30.217  28.782  1.00  0.00     0.029 A 
ATOM     55  C   UNL A   1      38.359  30.998  29.653  1.00  0.00     0.049 A 
ATOM     56  H   UNL A   1      40.316  30.544  30.202  1.00  0.00     0.167 HD
ATOM     57  C   UNL A   1      44.357  29.396  31.436  1.00  0.00     0.037 A 
ATOM     58  C   UNL A   1      38.045  32.165  30.248  1.00  0.00     0.037 A 
ATOM     59  C   UNL A   1      44.141  30.688  32.031  1.00  0.00     0.049 A 
ATOM     60  C   UNL A   1      39.061  32.848  31.129  1.00  0.00     0.074 A 
ATOM     61  C   UNL A   1      45.022  31.452  32.776  1.00  0.00     0.029 A 
ATOM     62  N   UNL A   1      42.954  31.402  31.959  1.00  0.00    -0.354 N 
ATOM     63  N   UNL A   1      40.288  32.482  31.417  1.00  0.00    -0.248 NA
ATOM     64  C   UNL A   1      38.650  34.110  31.763  1.00  0.00     0.031 C 
ATOM     65  C   UNL A   1      44.350  32.598  33.208  1.00  0.00     0.029 A 
ATOM     66  C   UNL A   1      43.071  32.582  32.674  1.00  0.00     0.049 A 
ATOM     67  H   UNL A   1      42.149  31.112  31.472  1.00  0.00     0.167 HD
ATOM     68  C   UNL A   1      40.803  33.481  32.236  1.00  0.00     0.074 A 
ATOM     69  C   UNL A   1      39.761  34.475  32.388  1.00  0.00     0.031 C 
ATOM     70  C   UNL A   1      42.029  33.570  32.808  1.00  0.00     0.037 A 
BRANCH  57  71
ATOM     71  C   UNL A   1      45.675  28.715  31.671  1.00  0.00     0.057 A 
ATOM     72  C   UNL A   1      46.754  28.857  30.790  1.00  0.00     0.134 A 
ATOM     73  C   UNL A   1      45.875  27.932  32.815  1.00  0.00     0.134 A 
ATOM     74  F   UNL A   1      46.625  29.581  29.667  1.00  0.00    -0.206 F 
ATOM     75  C   UNL A   1      47.977  28.225  31.025  1.00  0.00     0.040 A 
ATOM     76  C   UNL A   1      47.102  27.320  33.076  1.00  0.00     0.040 A 
ATOM     77  F   UNL A   1      44.885  27.757  33.703  1.00  0.00    -0.206 F 
ATOM     78  C   UNL A   1      48.156  27.460  32.176  1.00  0.00     0.006 A 
ENDBRANCH  57  71
BRANCH  58  79
ATOM     79  C   UNL A   1      36.697  32.764  30.056  1.00  0.00     0.057 A 
ATOM     80  C   UNL A   1      36.437  33.653  29.006  1.00  0.00     0.134 A 
ATOM     81  C   UNL A   1      35.646  32.490  30.940  1.00  0.00     0.134 A 
ATOM     82  F   UNL A   1      37.409  33.979  28.141  1.00  0.00    -0.206 F 
ATOM     83  C   UNL A   1      35.190  34.264  28.855  1.00  0.00     0.040 A 
ATOM     84  C   UNL A   1      34.386  33.070  30.784  1.00  0.00     0.040 A 
ATOM     85  F   UNL A   1      35.828  31.648  31.969  1.00  0.00    -0.206 F 
ATOM     86  C   UNL A   1      34.158  33.968  29.744  1.00  0.00     0.006 A 
ENDBRANCH  58  79
BRANCH  70  87
ATOM     87  C   UNL A   1      42.335  34.803  33.612  1.00  0.00     0.057 A 
ATOM     88  C   UNL A   1      42.049  34.892  34.981  1.00  0.00     0.134 A 
ATOM     89  C   UNL A   1      42.969  35.901  33.015  1.00  0.00     0.134 A 
ATOM     90  F   UNL A   1      41.434  33.882  35.614  1.00  0.00    -0.206 F 
ATOM     91  C   UNL A   1      42.358  36.037  35.718  1.00  0.00     0.040 A 
ATOM     92  C   UNL A   1      43.312  37.038  33.748  1.00  0.00     0.040 A 
ATOM     93  F   UNL A   1      43.284  35.879  31.711  1.00  0.00    -0.206 F 
ATOM     94  C   UNL A   1      42.999  37.111  35.103  1.00  0.00     0.006 A 
ENDBRANCH  70  87
ENDBRANCH  44  45
ENDBRANCH  37  39
ENDBRANCH  36  37
ENDBRANCH  35  36
ENDBRANCH  34  35
ENDBRANCH  33  34
ENDBRANCH  32  33
ENDBRANCH  31  32
ENDBRANCH  30  31
ENDBRANCH   1  30
TORSDOF 24
ENDMDL
