MODEL 1
REMARK VINA RESULT:     -10.0      0.000      0.000
REMARK SMILES COc1ccc(C(F)(F)F)cc1-c1cccnc1C(=O)OCCOCCOCCOCCOC(=O)c1ccc(-c2c3nc(c(-c4c(F)cccc4F)c4ccc([nH]4)c(-c4c(F)cccc4F)c4nc(c(-c5c(F)cccc5F)c5ccc2[nH]5)C=C4)C=C3)cc1
REMARK SMILES IDX 27 1 26 2 25 3 24 4 23 5 22 6 21 7 19 8 20 9 18 10 13 11
REMARK SMILES IDX 14 12 15 13 17 14 16 15 12 16 3 17 4 18 5 19 11 20 6 21 2 22
REMARK SMILES IDX 1 23 7 24 8 25 9 26 10 27 28 28 29 29 30 30 31 31 32 32
REMARK SMILES IDX 33 33 34 34 35 35 36 36 37 37 89 38 38 39 88 40 39 41 40 42
REMARK SMILES IDX 41 43 82 44 42 45 87 46 81 47 83 48 43 49 86 50 80 51 79 52
REMARK SMILES IDX 44 54 70 55 53 56 69 57 54 58 57 59 68 60 84 61 55 62 56 63
REMARK SMILES IDX 67 65 85 66 58 67 45 68 46 69 51 70 47 71 48 72 50 73 52 74
REMARK SMILES IDX 49 75 71 76 72 77 77 78 73 79 74 80 76 81 78 82 75 83 59 84
REMARK SMILES IDX 60 85 65 86 61 87 62 88 64 89 66 90 63 91
REMARK H PARENT 83 53 57 64
REMARK Flexibility Score: inf
ROOT
ATOM      1  O   UNL A   1      31.634  30.635  25.027  1.00  0.00    -0.377 OA
ENDROOT
BRANCH   1   2
ATOM      2  C   UNL A   1      31.031  29.449  24.533  1.00  0.00     0.188 C 
BRANCH   2   3
ATOM      3  C   UNL A   1      30.073  29.602  23.333  1.00  0.00     0.188 C 
BRANCH   3   4
ATOM      4  O   UNL A   1      29.243  28.480  23.106  1.00  0.00    -0.376 OA
BRANCH   4   5
ATOM      5  C   UNL A   1      29.724  27.160  23.283  1.00  0.00     0.202 C 
BRANCH   5   6
ATOM      6  C   UNL A   1      29.307  26.233  24.436  1.00  0.00     0.261 C 
BRANCH   6   7
ATOM      7  O   UNL A   1      30.236  25.215  24.801  1.00  0.00    -0.458 OA
BRANCH   7   8
ATOM      8  C   UNL A   1      30.612  25.132  26.097  1.00  0.00     0.357 C 
ATOM      9  O   UNL A   1      30.214  24.303  26.898  1.00  0.00    -0.244 OA
BRANCH   8  10
ATOM     10  C   UNL A   1      31.677  26.156  26.383  1.00  0.00     0.156 A 
ATOM     11  C   UNL A   1      32.978  26.129  25.829  1.00  0.00     0.019 A 
ATOM     12  C   UNL A   1      33.791  27.228  26.164  1.00  0.00     0.013 A 
ATOM     13  C   UNL A   1      33.363  28.199  27.069  1.00  0.00     0.021 A 
ATOM     14  N   UNL A   1      31.241  27.106  27.266  1.00  0.00    -0.249 NA
ATOM     15  C   UNL A   1      32.099  28.084  27.606  1.00  0.00     0.112 A 
BRANCH  11  16
ATOM     16  C   UNL A   1      33.530  25.003  25.029  1.00  0.00     0.027 A 
ATOM     17  C   UNL A   1      33.662  25.049  23.621  1.00  0.00     0.126 A 
ATOM     18  C   UNL A   1      34.367  24.060  22.922  1.00  0.00     0.048 A 
ATOM     19  C   UNL A   1      34.986  23.020  23.611  1.00  0.00     0.017 A 
ATOM     20  C   UNL A   1      34.058  23.867  25.675  1.00  0.00     0.025 A 
ATOM     21  C   UNL A   1      34.842  22.915  24.998  1.00  0.00     0.056 A 
BRANCH  17  22
ATOM     22  O   UNL A   1      32.998  25.974  22.852  1.00  0.00    -0.496 OA
ATOM     23  C   UNL A   1      32.897  25.581  21.485  1.00  0.00     0.278 C 
ENDBRANCH  17  22
BRANCH  21  24
ATOM     24  C   UNL A   1      35.557  21.832  25.765  1.00  0.00     0.416 C 
ATOM     25  F   UNL A   1      35.656  20.668  25.068  1.00  0.00    -0.166 F 
ATOM     26  F   UNL A   1      36.833  22.183  26.094  1.00  0.00    -0.166 F 
ATOM     27  F   UNL A   1      34.952  21.515  26.945  1.00  0.00    -0.166 F 
ENDBRANCH  21  24
ENDBRANCH  11  16
ENDBRANCH   8  10
ENDBRANCH   7   8
ENDBRANCH   6   7
ENDBRANCH   5   6
ENDBRANCH   4   5
ENDBRANCH   3   4
ENDBRANCH   2   3
ENDBRANCH   1   2
BRANCH   1  28
ATOM     28  C   UNL A   1      31.131  31.251  26.211  1.00  0.00     0.188 C 
BRANCH  28  29
ATOM     29  C   UNL A   1      31.596  32.646  26.690  1.00  0.00     0.188 C 
BRANCH  29  30
ATOM     30  O   UNL A   1      32.767  32.636  27.488  1.00  0.00    -0.376 OA
BRANCH  30  31
ATOM     31  C   UNL A   1      33.267  33.868  27.971  1.00  0.00     0.202 C 
BRANCH  31  32
ATOM     32  C   UNL A   1      33.918  33.854  29.361  1.00  0.00     0.261 C 
BRANCH  32  33
ATOM     33  O   UNL A   1      35.186  33.185  29.454  1.00  0.00    -0.460 OA
BRANCH  33  34
ATOM     34  C   UNL A   1      35.415  32.439  30.555  1.00  0.00     0.338 C 
ATOM     35  O   UNL A   1      34.697  32.324  31.534  1.00  0.00    -0.246 OA
BRANCH  34  36
ATOM     36  C   UNL A   1      36.627  31.637  30.299  1.00  0.00     0.060 A 
ATOM     37  C   UNL A   1      37.329  31.088  31.380  1.00  0.00     0.016 A 
ATOM     38  C   UNL A   1      37.056  31.417  28.989  1.00  0.00     0.016 A 
ATOM     39  C   UNL A   1      38.478  30.329  31.151  1.00  0.00     0.010 A 
ATOM     40  C   UNL A   1      38.216  30.673  28.764  1.00  0.00     0.010 A 
ATOM     41  C   UNL A   1      38.945  30.145  29.844  1.00  0.00    -0.014 A 
BRANCH  41  42
ATOM     42  C   UNL A   1      40.272  29.528  29.601  1.00  0.00     0.031 A 
ATOM     43  C   UNL A   1      41.499  30.388  29.710  1.00  0.00     0.074 A 
ATOM     44  C   UNL A   1      40.384  28.227  29.281  1.00  0.00     0.049 A 
ATOM     45  N   UNL A   1      42.748  30.092  29.459  1.00  0.00    -0.248 NA
ATOM     46  C   UNL A   1      41.285  31.774  30.157  1.00  0.00     0.031 C 
ATOM     47  C   UNL A   1      39.275  27.279  29.188  1.00  0.00     0.029 A 
ATOM     48  N   UNL A   1      41.493  27.484  28.960  1.00  0.00    -0.354 N 
ATOM     49  C   UNL A   1      43.467  31.254  29.707  1.00  0.00     0.074 A 
ATOM     50  C   UNL A   1      42.512  32.268  30.100  1.00  0.00     0.031 C 
ATOM     51  C   UNL A   1      39.759  26.082  28.815  1.00  0.00     0.029 A 
ATOM     52  C   UNL A   1      41.202  26.191  28.604  1.00  0.00     0.049 A 
ATOM     53  H   UNL A   1      42.409  27.845  28.983  1.00  0.00     0.167 HD
ATOM     54  C   UNL A   1      44.803  31.456  29.619  1.00  0.00     0.037 A 
ATOM     55  C   UNL A   1      42.006  25.217  28.130  1.00  0.00     0.037 A 
ATOM     56  C   UNL A   1      45.749  30.446  29.222  1.00  0.00     0.049 A 
ATOM     57  C   UNL A   1      43.477  25.490  27.957  1.00  0.00     0.074 A 
ATOM     58  C   UNL A   1      47.127  30.542  29.133  1.00  0.00     0.029 A 
ATOM     59  N   UNL A   1      45.412  29.158  28.834  1.00  0.00    -0.354 N 
ATOM     60  N   UNL A   1      44.156  26.580  28.227  1.00  0.00    -0.248 NA
ATOM     61  C   UNL A   1      44.297  24.398  27.411  1.00  0.00     0.031 C 
ATOM     62  C   UNL A   1      47.616  29.335  28.625  1.00  0.00     0.029 A 
ATOM     63  C   UNL A   1      46.551  28.464  28.462  1.00  0.00     0.049 A 
ATOM     64  H   UNL A   1      44.499  28.792  28.823  1.00  0.00     0.167 HD
ATOM     65  C   UNL A   1      45.480  26.298  27.907  1.00  0.00     0.074 A 
ATOM     66  C   UNL A   1      45.511  24.928  27.439  1.00  0.00     0.031 C 
ATOM     67  C   UNL A   1      46.570  27.100  27.993  1.00  0.00     0.037 A 
BRANCH  54  68
ATOM     68  C   UNL A   1      45.316  32.836  29.921  1.00  0.00     0.057 A 
ATOM     69  C   UNL A   1      45.410  33.828  28.936  1.00  0.00     0.134 A 
ATOM     70  C   UNL A   1      45.700  33.182  31.222  1.00  0.00     0.134 A 
ATOM     71  F   UNL A   1      45.072  33.560  27.664  1.00  0.00    -0.206 F 
ATOM     72  C   UNL A   1      45.893  35.105  29.229  1.00  0.00     0.040 A 
ATOM     73  C   UNL A   1      46.155  34.464  31.535  1.00  0.00     0.040 A 
ATOM     74  F   UNL A   1      45.631  32.282  32.215  1.00  0.00    -0.206 F 
ATOM     75  C   UNL A   1      46.261  35.427  30.534  1.00  0.00     0.006 A 
ENDBRANCH  54  68
BRANCH  55  76
ATOM     76  C   UNL A   1      41.431  23.898  27.759  1.00  0.00     0.057 A 
ATOM     77  C   UNL A   1      41.686  22.753  28.522  1.00  0.00     0.134 A 
ATOM     78  C   UNL A   1      40.625  23.748  26.623  1.00  0.00     0.134 A 
ATOM     79  F   UNL A   1      42.470  22.826  29.607  1.00  0.00    -0.206 F 
ATOM     80  C   UNL A   1      41.171  21.505  28.163  1.00  0.00     0.040 A 
ATOM     81  C   UNL A   1      40.082  22.513  26.268  1.00  0.00     0.040 A 
ATOM     82  F   UNL A   1      40.341  24.806  25.849  1.00  0.00    -0.206 F 
ATOM     83  C   UNL A   1      40.361  21.384  27.036  1.00  0.00     0.006 A 
ENDBRANCH  55  76
BRANCH  67  84
ATOM     84  C   UNL A   1      47.895  26.515  27.593  1.00  0.00     0.057 A 
ATOM     85  C   UNL A   1      48.715  25.843  28.508  1.00  0.00     0.134 A 
ATOM     86  C   UNL A   1      48.332  26.581  26.263  1.00  0.00     0.134 A 
ATOM     87  F   UNL A   1      48.362  25.753  29.799  1.00  0.00    -0.206 F 
ATOM     88  C   UNL A   1      49.931  25.276  28.120  1.00  0.00     0.040 A 
ATOM     89  C   UNL A   1      49.530  25.991  25.856  1.00  0.00     0.040 A 
ATOM     90  F   UNL A   1      47.591  27.199  25.331  1.00  0.00    -0.206 F 
ATOM     91  C   UNL A   1      50.337  25.342  26.788  1.00  0.00     0.006 A 
ENDBRANCH  67  84
ENDBRANCH  41  42
ENDBRANCH  34  36
ENDBRANCH  33  34
ENDBRANCH  32  33
ENDBRANCH  31  32
ENDBRANCH  30  31
ENDBRANCH  29  30
ENDBRANCH  28  29
ENDBRANCH   1  28
TORSDOF 23
ENDMDL
MODEL 2
REMARK VINA RESULT:      -9.8      2.033      3.575
REMARK SMILES COc1ccc(C(F)(F)F)cc1-c1cccnc1C(=O)OCCOCCOCCOCCOC(=O)c1ccc(-c2c3nc(c(-c4c(F)cccc4F)c4ccc([nH]4)c(-c4c(F)cccc4F)c4nc(c(-c5c(F)cccc5F)c5ccc2[nH]5)C=C4)C=C3)cc1
REMARK SMILES IDX 27 1 26 2 25 3 24 4 23 5 22 6 21 7 19 8 20 9 18 10 13 11
REMARK SMILES IDX 14 12 15 13 17 14 16 15 12 16 3 17 4 18 5 19 11 20 6 21 2 22
REMARK SMILES IDX 1 23 7 24 8 25 9 26 10 27 28 28 29 29 30 30 31 31 32 32
REMARK SMILES IDX 33 33 34 34 35 35 36 36 37 37 89 38 38 39 88 40 39 41 40 42
REMARK SMILES IDX 41 43 82 44 42 45 87 46 81 47 83 48 43 49 86 50 80 51 79 52
REMARK SMILES IDX 44 54 70 55 53 56 69 57 54 58 57 59 68 60 84 61 55 62 56 63
REMARK SMILES IDX 67 65 85 66 58 67 45 68 46 69 51 70 47 71 48 72 50 73 52 74
REMARK SMILES IDX 49 75 71 76 72 77 77 78 73 79 74 80 76 81 78 82 75 83 59 84
REMARK SMILES IDX 60 85 65 86 61 87 62 88 64 89 66 90 63 91
REMARK H PARENT 83 53 57 64
REMARK Flexibility Score: inf
ROOT
ATOM      1  O   UNL A   1      34.174  32.933  28.517  1.00  0.00    -0.377 OA
ENDROOT
BRANCH   1   2
ATOM      2  C   UNL A   1      35.265  32.227  27.947  1.00  0.00     0.188 C 
BRANCH   2   3
ATOM      3  C   UNL A   1      35.045  30.731  27.640  1.00  0.00     0.188 C 
BRANCH   3   4
ATOM      4  O   UNL A   1      33.688  30.336  27.617  1.00  0.00    -0.376 OA
BRANCH   4   5
ATOM      5  C   UNL A   1      33.314  29.002  27.325  1.00  0.00     0.202 C 
BRANCH   5   6
ATOM      6  C   UNL A   1      32.136  28.609  26.420  1.00  0.00     0.261 C 
BRANCH   6   7
ATOM      7  O   UNL A   1      31.786  29.535  25.394  1.00  0.00    -0.458 OA
BRANCH   7   8
ATOM      8  C   UNL A   1      31.725  29.082  24.122  1.00  0.00     0.357 C 
ATOM      9  O   UNL A   1      32.682  28.748  23.442  1.00  0.00    -0.244 OA
BRANCH   8  10
ATOM     10  C   UNL A   1      30.287  28.952  23.698  1.00  0.00     0.156 A 
ATOM     11  C   UNL A   1      29.604  27.722  23.563  1.00  0.00     0.019 A 
ATOM     12  C   UNL A   1      28.240  27.831  23.234  1.00  0.00     0.013 A 
ATOM     13  C   UNL A   1      27.656  29.066  22.955  1.00  0.00     0.021 A 
ATOM     14  N   UNL A   1      29.726  30.172  23.435  1.00  0.00    -0.249 NA
ATOM     15  C   UNL A   1      28.439  30.197  23.046  1.00  0.00     0.112 A 
BRANCH  11  16
ATOM     16  C   UNL A   1      30.250  26.385  23.652  1.00  0.00     0.027 A 
ATOM     17  C   UNL A   1      31.175  25.910  22.693  1.00  0.00     0.126 A 
ATOM     18  C   UNL A   1      31.914  24.739  22.910  1.00  0.00     0.048 A 
ATOM     19  C   UNL A   1      31.776  24.032  24.102  1.00  0.00     0.017 A 
ATOM     20  C   UNL A   1      30.043  25.572  24.785  1.00  0.00     0.025 A 
ATOM     21  C   UNL A   1      30.840  24.445  25.055  1.00  0.00     0.056 A 
BRANCH  17  22
ATOM     22  O   UNL A   1      31.300  26.480  21.449  1.00  0.00    -0.496 OA
ATOM     23  C   UNL A   1      32.316  25.863  20.661  1.00  0.00     0.278 C 
ENDBRANCH  17  22
BRANCH  21  24
ATOM     24  C   UNL A   1      30.721  23.727  26.376  1.00  0.00     0.416 C 
ATOM     25  F   UNL A   1      31.638  24.145  27.290  1.00  0.00    -0.166 F 
ATOM     26  F   UNL A   1      29.501  23.908  26.958  1.00  0.00    -0.166 F 
ATOM     27  F   UNL A   1      30.878  22.376  26.274  1.00  0.00    -0.166 F 
ENDBRANCH  21  24
ENDBRANCH  11  16
ENDBRANCH   8  10
ENDBRANCH   7   8
ENDBRANCH   6   7
ENDBRANCH   5   6
ENDBRANCH   4   5
ENDBRANCH   3   4
ENDBRANCH   2   3
ENDBRANCH   1   2
BRANCH   1  28
ATOM     28  C   UNL A   1      34.398  34.172  29.188  1.00  0.00     0.188 C 
BRANCH  28  29
ATOM     29  C   UNL A   1      33.269  34.952  29.902  1.00  0.00     0.188 C 
BRANCH  29  30
ATOM     30  O   UNL A   1      33.285  34.851  31.314  1.00  0.00    -0.376 OA
BRANCH  30  31
ATOM     31  C   UNL A   1      34.489  35.139  31.999  1.00  0.00     0.202 C 
BRANCH  31  32
ATOM     32  C   UNL A   1      34.932  34.136  33.073  1.00  0.00     0.261 C 
BRANCH  32  33
ATOM     33  O   UNL A   1      36.080  33.336  32.751  1.00  0.00    -0.460 OA
BRANCH  33  34
ATOM     34  C   UNL A   1      35.876  32.222  32.016  1.00  0.00     0.338 C 
ATOM     35  O   UNL A   1      34.806  31.726  31.706  1.00  0.00    -0.246 OA
BRANCH  34  36
ATOM     36  C   UNL A   1      37.188  31.790  31.497  1.00  0.00     0.060 A 
ATOM     37  C   UNL A   1      37.560  32.138  30.192  1.00  0.00     0.016 A 
ATOM     38  C   UNL A   1      38.053  31.055  32.309  1.00  0.00     0.016 A 
ATOM     39  C   UNL A   1      38.798  31.734  29.689  1.00  0.00     0.010 A 
ATOM     40  C   UNL A   1      39.283  30.636  31.798  1.00  0.00     0.010 A 
ATOM     41  C   UNL A   1      39.652  30.953  30.479  1.00  0.00    -0.014 A 
BRANCH  41  42
ATOM     42  C   UNL A   1      40.866  30.339  29.889  1.00  0.00     0.031 A 
ATOM     43  C   UNL A   1      42.080  31.200  29.676  1.00  0.00     0.074 A 
ATOM     44  C   UNL A   1      40.888  29.041  29.540  1.00  0.00     0.049 A 
ATOM     45  N   UNL A   1      43.217  30.907  29.102  1.00  0.00    -0.248 NA
ATOM     46  C   UNL A   1      41.992  32.581  30.176  1.00  0.00     0.031 C 
ATOM     47  C   UNL A   1      39.793  28.092  29.735  1.00  0.00     0.029 A 
ATOM     48  N   UNL A   1      41.872  28.302  28.931  1.00  0.00    -0.354 N 
ATOM     49  C   UNL A   1      43.977  32.068  29.159  1.00  0.00     0.074 A 
ATOM     50  C   UNL A   1      43.162  33.077  29.799  1.00  0.00     0.031 C 
ATOM     51  C   UNL A   1      40.160  26.899  29.238  1.00  0.00     0.029 A 
ATOM     52  C   UNL A   1      41.495  27.011  28.653  1.00  0.00     0.049 A 
ATOM     53  H   UNL A   1      42.761  28.663  28.713  1.00  0.00     0.167 HD
ATOM     54  C   UNL A   1      45.243  32.272  28.723  1.00  0.00     0.037 A 
ATOM     55  C   UNL A   1      42.144  26.042  27.976  1.00  0.00     0.037 A 
ATOM     56  C   UNL A   1      46.048  31.266  28.082  1.00  0.00     0.049 A 
ATOM     57  C   UNL A   1      43.517  26.318  27.422  1.00  0.00     0.074 A 
ATOM     58  C   UNL A   1      47.354  31.364  27.632  1.00  0.00     0.029 A 
ATOM     59  N   UNL A   1      45.620  29.981  27.786  1.00  0.00    -0.354 N 
ATOM     60  N   UNL A   1      44.245  27.407  27.512  1.00  0.00    -0.248 NA
ATOM     61  C   UNL A   1      44.162  25.232  26.669  1.00  0.00     0.031 C 
ATOM     62  C   UNL A   1      47.690  30.162  27.003  1.00  0.00     0.029 A 
ATOM     63  C   UNL A   1      46.619  29.291  27.120  1.00  0.00     0.049 A 
ATOM     64  H   UNL A   1      44.736  29.614  28.014  1.00  0.00     0.167 HD
ATOM     65  C   UNL A   1      45.436  27.128  26.850  1.00  0.00     0.074 A 
ATOM     66  C   UNL A   1      45.341  25.763  26.380  1.00  0.00     0.031 C 
ATOM     67  C   UNL A   1      46.511  27.931  26.652  1.00  0.00     0.037 A 
BRANCH  54  68
ATOM     68  C   UNL A   1      45.819  33.649  28.889  1.00  0.00     0.057 A 
ATOM     69  C   UNL A   1      46.549  34.020  30.026  1.00  0.00     0.134 A 
ATOM     70  C   UNL A   1      45.660  34.612  27.884  1.00  0.00     0.134 A 
ATOM     71  F   UNL A   1      46.728  33.151  31.034  1.00  0.00    -0.206 F 
ATOM     72  C   UNL A   1      47.076  35.305  30.170  1.00  0.00     0.040 A 
ATOM     73  C   UNL A   1      46.208  35.890  28.002  1.00  0.00     0.040 A 
ATOM     74  F   UNL A   1      44.977  34.323  26.766  1.00  0.00    -0.206 F 
ATOM     75  C   UNL A   1      46.911  36.242  29.151  1.00  0.00     0.006 A 
ENDBRANCH  54  68
BRANCH  55  76
ATOM     76  C   UNL A   1      41.489  24.726  27.759  1.00  0.00     0.057 A 
ATOM     77  C   UNL A   1      40.426  24.583  26.859  1.00  0.00     0.134 A 
ATOM     78  C   UNL A   1      41.901  23.583  28.456  1.00  0.00     0.134 A 
ATOM     79  F   UNL A   1      39.970  25.644  26.179  1.00  0.00    -0.206 F 
ATOM     80  C   UNL A   1      39.788  23.354  26.671  1.00  0.00     0.040 A 
ATOM     81  C   UNL A   1      41.290  22.344  28.257  1.00  0.00     0.040 A 
ATOM     82  F   UNL A   1      42.914  23.652  29.332  1.00  0.00    -0.206 F 
ATOM     83  C   UNL A   1      40.225  22.229  27.366  1.00  0.00     0.006 A 
ENDBRANCH  55  76
BRANCH  67  84
ATOM     84  C   UNL A   1      47.683  27.351  25.910  1.00  0.00     0.057 A 
ATOM     85  C   UNL A   1      47.842  27.517  24.529  1.00  0.00     0.134 A 
ATOM     86  C   UNL A   1      48.692  26.662  26.597  1.00  0.00     0.134 A 
ATOM     87  F   UNL A   1      46.908  28.156  23.809  1.00  0.00    -0.206 F 
ATOM     88  C   UNL A   1      48.950  27.000  23.854  1.00  0.00     0.040 A 
ATOM     89  C   UNL A   1      49.819  26.168  25.939  1.00  0.00     0.040 A 
ATOM     90  F   UNL A   1      48.610  26.477  27.923  1.00  0.00    -0.206 F 
ATOM     91  C   UNL A   1      49.947  26.331  24.561  1.00  0.00     0.006 A 
ENDBRANCH  67  84
ENDBRANCH  41  42
ENDBRANCH  34  36
ENDBRANCH  33  34
ENDBRANCH  32  33
ENDBRANCH  31  32
ENDBRANCH  30  31
ENDBRANCH  29  30
ENDBRANCH  28  29
ENDBRANCH   1  28
TORSDOF 23
ENDMDL
MODEL 3
REMARK VINA RESULT:      -9.7      5.198      7.210
REMARK SMILES COc1ccc(C(F)(F)F)cc1-c1cccnc1C(=O)OCCOCCOCCOCCOC(=O)c1ccc(-c2c3nc(c(-c4c(F)cccc4F)c4ccc([nH]4)c(-c4c(F)cccc4F)c4nc(c(-c5c(F)cccc5F)c5ccc2[nH]5)C=C4)C=C3)cc1
REMARK SMILES IDX 27 1 26 2 25 3 24 4 23 5 22 6 21 7 19 8 20 9 18 10 13 11
REMARK SMILES IDX 14 12 15 13 17 14 16 15 12 16 3 17 4 18 5 19 11 20 6 21 2 22
REMARK SMILES IDX 1 23 7 24 8 25 9 26 10 27 28 28 29 29 30 30 31 31 32 32
REMARK SMILES IDX 33 33 34 34 35 35 36 36 37 37 89 38 38 39 88 40 39 41 40 42
REMARK SMILES IDX 41 43 82 44 42 45 87 46 81 47 83 48 43 49 86 50 80 51 79 52
REMARK SMILES IDX 44 54 70 55 53 56 69 57 54 58 57 59 68 60 84 61 55 62 56 63
REMARK SMILES IDX 67 65 85 66 58 67 45 68 46 69 51 70 47 71 48 72 50 73 52 74
REMARK SMILES IDX 49 75 71 76 72 77 77 78 73 79 74 80 76 81 78 82 75 83 59 84
REMARK SMILES IDX 60 85 65 86 61 87 62 88 64 89 66 90 63 91
REMARK H PARENT 83 53 57 64
REMARK Flexibility Score: inf
ROOT
ATOM      1  O   UNL A   1      34.852  31.980  29.426  1.00  0.00    -0.377 OA
ENDROOT
BRANCH   1   2
ATOM      2  C   UNL A   1      35.645  31.417  28.392  1.00  0.00     0.188 C 
BRANCH   2   3
ATOM      3  C   UNL A   1      34.929  30.487  27.391  1.00  0.00     0.188 C 
BRANCH   3   4
ATOM      4  O   UNL A   1      33.541  30.725  27.267  1.00  0.00    -0.376 OA
BRANCH   4   5
ATOM      5  C   UNL A   1      32.611  29.658  27.232  1.00  0.00     0.202 C 
BRANCH   5   6
ATOM      6  C   UNL A   1      32.228  28.881  25.962  1.00  0.00     0.261 C 
BRANCH   6   7
ATOM      7  O   UNL A   1      32.413  27.468  26.001  1.00  0.00    -0.458 OA
BRANCH   7   8
ATOM      8  C   UNL A   1      31.339  26.694  26.271  1.00  0.00     0.357 C 
ATOM      9  O   UNL A   1      30.581  26.838  27.216  1.00  0.00    -0.244 OA
BRANCH   8  10
ATOM     10  C   UNL A   1      31.154  25.682  25.173  1.00  0.00     0.156 A 
ATOM     11  C   UNL A   1      30.930  26.010  23.816  1.00  0.00     0.019 A 
ATOM     12  C   UNL A   1      30.866  24.910  22.940  1.00  0.00     0.013 A 
ATOM     13  C   UNL A   1      30.909  23.599  23.414  1.00  0.00     0.021 A 
ATOM     14  N   UNL A   1      31.206  24.401  25.652  1.00  0.00    -0.249 NA
ATOM     15  C   UNL A   1      31.057  23.397  24.769  1.00  0.00     0.112 A 
BRANCH  11  16
ATOM     16  C   UNL A   1      30.674  27.387  23.313  1.00  0.00     0.027 A 
ATOM     17  C   UNL A   1      31.583  28.086  22.485  1.00  0.00     0.126 A 
ATOM     18  C   UNL A   1      31.226  29.293  21.868  1.00  0.00     0.048 A 
ATOM     19  C   UNL A   1      29.945  29.814  22.032  1.00  0.00     0.017 A 
ATOM     20  C   UNL A   1      29.435  28.012  23.559  1.00  0.00     0.025 A 
ATOM     21  C   UNL A   1      29.033  29.175  22.878  1.00  0.00     0.056 A 
BRANCH  17  22
ATOM     22  O   UNL A   1      32.896  27.706  22.351  1.00  0.00    -0.496 OA
ATOM     23  C   UNL A   1      33.803  28.655  22.908  1.00  0.00     0.278 C 
ENDBRANCH  17  22
BRANCH  21  24
ATOM     24  C   UNL A   1      27.623  29.691  23.018  1.00  0.00     0.416 C 
ATOM     25  F   UNL A   1      27.124  30.190  21.855  1.00  0.00    -0.166 F 
ATOM     26  F   UNL A   1      26.751  28.721  23.416  1.00  0.00    -0.166 F 
ATOM     27  F   UNL A   1      27.501  30.688  23.940  1.00  0.00    -0.166 F 
ENDBRANCH  21  24
ENDBRANCH  11  16
ENDBRANCH   8  10
ENDBRANCH   7   8
ENDBRANCH   6   7
ENDBRANCH   5   6
ENDBRANCH   4   5
ENDBRANCH   3   4
ENDBRANCH   2   3
ENDBRANCH   1   2
BRANCH   1  28
ATOM     28  C   UNL A   1      34.590  33.382  29.441  1.00  0.00     0.188 C 
BRANCH  28  29
ATOM     29  C   UNL A   1      33.622  34.062  28.445  1.00  0.00     0.188 C 
BRANCH  29  30
ATOM     30  O   UNL A   1      32.813  35.078  29.009  1.00  0.00    -0.376 OA
BRANCH  30  31
ATOM     31  C   UNL A   1      33.384  36.354  29.228  1.00  0.00     0.202 C 
BRANCH  31  32
ATOM     32  C   UNL A   1      32.848  37.156  30.422  1.00  0.00     0.261 C 
BRANCH  32  33
ATOM     33  O   UNL A   1      33.396  36.816  31.705  1.00  0.00    -0.460 OA
BRANCH  33  34
ATOM     34  C   UNL A   1      32.969  35.673  32.280  1.00  0.00     0.338 C 
ATOM     35  O   UNL A   1      31.829  35.239  32.308  1.00  0.00    -0.246 OA
BRANCH  34  36
ATOM     36  C   UNL A   1      34.163  34.934  32.734  1.00  0.00     0.060 A 
ATOM     37  C   UNL A   1      35.431  35.505  32.562  1.00  0.00     0.016 A 
ATOM     38  C   UNL A   1      34.024  33.686  33.343  1.00  0.00     0.016 A 
ATOM     39  C   UNL A   1      36.568  34.816  32.986  1.00  0.00     0.010 A 
ATOM     40  C   UNL A   1      35.164  32.990  33.749  1.00  0.00     0.010 A 
ATOM     41  C   UNL A   1      36.443  33.541  33.552  1.00  0.00    -0.014 A 
BRANCH  41  42
ATOM     42  C   UNL A   1      37.646  32.712  33.807  1.00  0.00     0.031 A 
ATOM     43  C   UNL A   1      38.453  32.974  35.048  1.00  0.00     0.074 A 
ATOM     44  C   UNL A   1      38.020  31.748  32.948  1.00  0.00     0.049 A 
ATOM     45  N   UNL A   1      39.582  32.440  35.434  1.00  0.00    -0.248 NA
ATOM     46  C   UNL A   1      37.913  33.982  35.974  1.00  0.00     0.031 C 
ATOM     47  C   UNL A   1      37.299  31.368  31.734  1.00  0.00     0.029 A 
ATOM     48  N   UNL A   1      39.117  30.923  32.963  1.00  0.00    -0.354 N 
ATOM     49  C   UNL A   1      39.895  33.052  36.641  1.00  0.00     0.074 A 
ATOM     50  C   UNL A   1      38.851  34.019  36.909  1.00  0.00     0.031 C 
ATOM     51  C   UNL A   1      37.983  30.394  31.111  1.00  0.00     0.029 A 
ATOM     52  C   UNL A   1      39.209  30.113  31.858  1.00  0.00     0.049 A 
ATOM     53  H   UNL A   1      39.775  30.913  33.695  1.00  0.00     0.167 HD
ATOM     54  C   UNL A   1      40.953  32.825  37.455  1.00  0.00     0.037 A 
ATOM     55  C   UNL A   1      40.187  29.266  31.479  1.00  0.00     0.037 A 
ATOM     56  C   UNL A   1      41.991  31.867  37.181  1.00  0.00     0.049 A 
ATOM     57  C   UNL A   1      41.399  29.093  32.357  1.00  0.00     0.074 A 
ATOM     58  C   UNL A   1      43.089  31.541  37.959  1.00  0.00     0.029 A 
ATOM     59  N   UNL A   1      42.069  31.091  36.035  1.00  0.00    -0.354 N 
ATOM     60  N   UNL A   1      41.671  29.649  33.514  1.00  0.00    -0.248 NA
ATOM     61  C   UNL A   1      42.444  28.177  31.876  1.00  0.00     0.031 C 
ATOM     62  C   UNL A   1      43.866  30.618  37.251  1.00  0.00     0.029 A 
ATOM     63  C   UNL A   1      43.218  30.320  36.063  1.00  0.00     0.049 A 
ATOM     64  H   UNL A   1      41.405  31.090  35.308  1.00  0.00     0.167 HD
ATOM     65  C   UNL A   1      42.900  29.134  33.909  1.00  0.00     0.074 A 
ATOM     66  C   UNL A   1      43.314  28.207  32.875  1.00  0.00     0.031 C 
ATOM     67  C   UNL A   1      43.622  29.403  35.025  1.00  0.00     0.037 A 
BRANCH  54  68
ATOM     68  C   UNL A   1      41.060  33.660  38.700  1.00  0.00     0.057 A 
ATOM     69  C   UNL A   1      41.867  34.804  38.764  1.00  0.00     0.134 A 
ATOM     70  C   UNL A   1      40.326  33.324  39.844  1.00  0.00     0.134 A 
ATOM     71  F   UNL A   1      42.608  35.174  37.707  1.00  0.00    -0.206 F 
ATOM     72  C   UNL A   1      41.961  35.568  39.929  1.00  0.00     0.040 A 
ATOM     73  C   UNL A   1      40.387  34.097  41.005  1.00  0.00     0.040 A 
ATOM     74  F   UNL A   1      39.530  32.245  39.852  1.00  0.00    -0.206 F 
ATOM     75  C   UNL A   1      41.213  35.218  41.052  1.00  0.00     0.006 A 
ENDBRANCH  54  68
BRANCH  55  76
ATOM     76  C   UNL A   1      40.074  28.535  30.190  1.00  0.00     0.057 A 
ATOM     77  C   UNL A   1      39.335  27.350  30.089  1.00  0.00     0.134 A 
ATOM     78  C   UNL A   1      40.715  28.994  29.033  1.00  0.00     0.134 A 
ATOM     79  F   UNL A   1      38.719  26.845  31.167  1.00  0.00    -0.206 F 
ATOM     80  C   UNL A   1      39.248  26.643  28.888  1.00  0.00     0.040 A 
ATOM     81  C   UNL A   1      40.613  28.312  27.819  1.00  0.00     0.040 A 
ATOM     82  F   UNL A   1      41.438  30.123  29.061  1.00  0.00    -0.206 F 
ATOM     83  C   UNL A   1      39.883  27.128  27.746  1.00  0.00     0.006 A 
ENDBRANCH  55  76
BRANCH  67  84
ATOM     84  C   UNL A   1      44.924  28.674  35.203  1.00  0.00     0.057 A 
ATOM     85  C   UNL A   1      46.140  29.212  34.765  1.00  0.00     0.134 A 
ATOM     86  C   UNL A   1      44.967  27.440  35.867  1.00  0.00     0.134 A 
ATOM     87  F   UNL A   1      46.170  30.383  34.112  1.00  0.00    -0.206 F 
ATOM     88  C   UNL A   1      47.349  28.541  34.962  1.00  0.00     0.040 A 
ATOM     89  C   UNL A   1      46.172  26.775  36.098  1.00  0.00     0.040 A 
ATOM     90  F   UNL A   1      43.841  26.872  36.324  1.00  0.00    -0.206 F 
ATOM     91  C   UNL A   1      47.367  27.322  35.638  1.00  0.00     0.006 A 
ENDBRANCH  67  84
ENDBRANCH  41  42
ENDBRANCH  34  36
ENDBRANCH  33  34
ENDBRANCH  32  33
ENDBRANCH  31  32
ENDBRANCH  30  31
ENDBRANCH  29  30
ENDBRANCH  28  29
ENDBRANCH   1  28
TORSDOF 23
ENDMDL
