MODEL 1
REMARK VINA RESULT:     -11.4      0.000      0.000
REMARK SMILES CCc1ccc(-c2cc(Cl)cc3c2O[C@@H](C(F)(F)F)C(C(=O)OCCOCCOCCOCCOC(=O)c2ccc(-c4c5nc(c(-c6c(F)cccc6F)c6ccc([nH]6)c(-c6c(F)cccc6F)c6nc(c(-c7c(F)cccc7F)c7ccc4[nH]7)C=C6)C=C5)cc2)=C3)cc1
REMARK SMILES IDX 29 1 28 2 27 3 26 4 25 5 24 6 23 7 21 8 22 9 20 10 7 11 8 12
REMARK SMILES IDX 13 13 9 14 12 15 14 16 10 17 11 18 92 19 15 20 6 21 3 22
REMARK SMILES IDX 4 23 94 24 5 25 93 26 2 27 1 28 16 29 17 30 18 31 19 32
REMARK SMILES IDX 30 33 31 34 32 35 33 36 34 37 35 38 36 39 37 40 38 41 39 42
REMARK SMILES IDX 91 43 40 44 90 45 41 46 42 47 43 48 84 49 44 50 89 51 83 52
REMARK SMILES IDX 85 53 45 54 88 55 82 56 81 57 46 59 72 60 55 61 71 62 56 63
REMARK SMILES IDX 59 64 70 65 86 66 57 67 58 68 69 70 87 71 60 72 47 73 48 74
REMARK SMILES IDX 53 75 49 76 50 77 52 78 54 79 51 80 73 81 74 82 79 83 75 84
REMARK SMILES IDX 76 85 78 86 80 87 77 88 61 89 62 90 67 91 63 92 64 93 66 94
REMARK SMILES IDX 68 95 65 96
REMARK H PARENT 85 58 59 69
REMARK Flexibility Score: inf
ROOT
ATOM      1  O   UNL A   1      33.918  35.200  28.489  1.00  0.00    -0.377 OA
ENDROOT
BRANCH   1   2
ATOM      2  C   UNL A   1      33.527  33.850  28.335  1.00  0.00     0.188 C 
BRANCH   2   3
ATOM      3  C   UNL A   1      34.708  32.928  28.002  1.00  0.00     0.188 C 
BRANCH   3   4
ATOM      4  O   UNL A   1      34.358  31.552  27.892  1.00  0.00    -0.376 OA
BRANCH   4   5
ATOM      5  C   UNL A   1      33.087  31.227  27.334  1.00  0.00     0.202 C 
BRANCH   5   6
ATOM      6  C   UNL A   1      33.039  30.147  26.245  1.00  0.00     0.261 C 
BRANCH   6   7
ATOM      7  O   UNL A   1      31.900  29.280  26.441  1.00  0.00    -0.460 OA
BRANCH   7   8
ATOM      8  C   UNL A   1      31.784  28.260  25.577  1.00  0.00     0.338 C 
ATOM      9  O   UNL A   1      30.755  27.959  24.987  1.00  0.00    -0.246 OA
BRANCH   8  10
ATOM     10  C   UNL A   1      33.090  27.631  25.263  1.00  0.00     0.087 C 
ATOM     11  C   UNL A   1      33.052  23.597  24.259  1.00  0.00     0.026 A 
ATOM     12  C   UNL A   1      31.891  23.048  24.848  1.00  0.00     0.033 A 
ATOM     13  C   UNL A   1      33.296  24.953  24.562  1.00  0.00     0.135 A 
ATOM     14  C   UNL A   1      31.292  23.664  25.948  1.00  0.00     0.042 A 
ATOM     15  C   UNL A   1      32.865  25.456  25.797  1.00  0.00     0.019 A 
ATOM     16  O   UNL A   1      33.657  25.848  23.556  1.00  0.00    -0.475 OA
ATOM     17  Cl  UNL A   1      29.916  22.943  26.683  1.00  0.00    -0.084 Cl
ATOM     18  C   UNL A   1      31.849  24.812  26.494  1.00  0.00     0.032 A 
ATOM     19  C   UNL A   1      33.397  26.760  26.242  1.00  0.00     0.027 C 
ATOM     20  C   UNL A   1      33.688  27.300  23.905  1.00  0.00     0.316 C 
BRANCH  11  21
ATOM     21  C   UNL A   1      34.163  22.589  24.084  1.00  0.00    -0.015 A 
ATOM     22  C   UNL A   1      36.573  21.103  24.594  1.00  0.00    -0.048 A 
ATOM     23  C   UNL A   1      35.327  20.610  24.987  1.00  0.00     0.004 A 
ATOM     24  C   UNL A   1      36.591  22.288  23.848  1.00  0.00     0.004 A 
ATOM     25  C   UNL A   1      34.143  21.335  24.727  1.00  0.00     0.009 A 
ATOM     26  C   UNL A   1      35.414  23.012  23.593  1.00  0.00     0.009 A 
BRANCH  22  27
ATOM     27  C   UNL A   1      37.900  20.454  24.937  1.00  0.00     0.032 C 
ATOM     28  C   UNL A   1      37.961  18.930  24.962  1.00  0.00     0.009 C 
ENDBRANCH  22  27
ENDBRANCH  11  21
BRANCH  20  29
ATOM     29  C   UNL A   1      33.408  28.271  22.730  1.00  0.00     0.430 C 
ATOM     30  F   UNL A   1      32.106  28.160  22.353  1.00  0.00    -0.167 F 
ATOM     31  F   UNL A   1      33.588  29.562  23.105  1.00  0.00    -0.167 F 
ATOM     32  F   UNL A   1      34.135  28.083  21.620  1.00  0.00    -0.167 F 
ENDBRANCH  20  29
ENDBRANCH   8  10
ENDBRANCH   7   8
ENDBRANCH   6   7
ENDBRANCH   5   6
ENDBRANCH   4   5
ENDBRANCH   3   4
ENDBRANCH   2   3
ENDBRANCH   1   2
BRANCH   1  33
ATOM     33  C   UNL A   1      32.982  36.084  29.098  1.00  0.00     0.188 C 
BRANCH  33  34
ATOM     34  C   UNL A   1      33.022  36.395  30.612  1.00  0.00     0.188 C 
BRANCH  34  35
ATOM     35  O   UNL A   1      32.541  35.342  31.443  1.00  0.00    -0.376 OA
BRANCH  35  36
ATOM     36  C   UNL A   1      33.451  34.783  32.379  1.00  0.00     0.202 C 
BRANCH  36  37
ATOM     37  C   UNL A   1      34.874  34.614  31.835  1.00  0.00     0.261 C 
BRANCH  37  38
ATOM     38  O   UNL A   1      35.257  33.261  31.553  1.00  0.00    -0.460 OA
BRANCH  38  39
ATOM     39  C   UNL A   1      35.915  32.589  32.522  1.00  0.00     0.338 C 
ATOM     40  O   UNL A   1      35.644  32.544  33.710  1.00  0.00    -0.246 OA
BRANCH  39  41
ATOM     41  C   UNL A   1      36.939  31.754  31.865  1.00  0.00     0.060 A 
ATOM     42  C   UNL A   1      37.723  30.895  32.647  1.00  0.00     0.016 A 
ATOM     43  C   UNL A   1      37.100  31.805  30.480  1.00  0.00     0.016 A 
ATOM     44  C   UNL A   1      38.707  30.112  32.043  1.00  0.00     0.010 A 
ATOM     45  C   UNL A   1      38.098  31.040  29.880  1.00  0.00     0.010 A 
ATOM     46  C   UNL A   1      38.931  30.223  30.664  1.00  0.00    -0.014 A 
BRANCH  46  47
ATOM     47  C   UNL A   1      40.183  29.713  30.064  1.00  0.00     0.031 A 
ATOM     48  C   UNL A   1      41.306  30.695  29.874  1.00  0.00     0.074 A 
ATOM     49  C   UNL A   1      40.313  28.438  29.661  1.00  0.00     0.049 A 
ATOM     50  N   UNL A   1      42.441  30.552  29.243  1.00  0.00    -0.248 NA
ATOM     51  C   UNL A   1      41.110  32.028  30.472  1.00  0.00     0.031 C 
ATOM     52  C   UNL A   1      39.315  27.386  29.833  1.00  0.00     0.029 A 
ATOM     53  N   UNL A   1      41.345  27.824  28.998  1.00  0.00    -0.354 N 
ATOM     54  C   UNL A   1      43.088  31.775  29.359  1.00  0.00     0.074 A 
ATOM     55  C   UNL A   1      42.212  32.658  30.096  1.00  0.00     0.031 C 
ATOM     56  C   UNL A   1      39.776  26.255  29.267  1.00  0.00     0.029 A 
ATOM     57  C   UNL A   1      41.081  26.519  28.661  1.00  0.00     0.049 A 
ATOM     58  H   UNL A   1      42.193  28.275  28.783  1.00  0.00     0.167 HD
ATOM     59  C   UNL A   1      44.306  32.133  28.893  1.00  0.00     0.037 A 
ATOM     60  C   UNL A   1      41.803  25.655  27.920  1.00  0.00     0.037 A 
ATOM     61  C   UNL A   1      45.167  31.259  28.146  1.00  0.00     0.049 A 
ATOM     62  C   UNL A   1      43.120  26.102  27.338  1.00  0.00     0.074 A 
ATOM     63  C   UNL A   1      46.416  31.526  27.615  1.00  0.00     0.029 A 
ATOM     64  N   UNL A   1      44.861  29.947  27.819  1.00  0.00    -0.354 N 
ATOM     65  N   UNL A   1      43.730  27.257  27.455  1.00  0.00    -0.248 NA
ATOM     66  C   UNL A   1      43.849  25.124  26.515  1.00  0.00     0.031 C 
ATOM     67  C   UNL A   1      46.849  30.385  26.931  1.00  0.00     0.029 A 
ATOM     68  C   UNL A   1      45.893  29.394  27.082  1.00  0.00     0.049 A 
ATOM     69  H   UNL A   1      44.032  29.480  28.073  1.00  0.00     0.167 HD
ATOM     70  C   UNL A   1      44.928  27.130  26.760  1.00  0.00     0.074 A 
ATOM     71  C   UNL A   1      44.959  25.787  26.222  1.00  0.00     0.031 C 
ATOM     72  C   UNL A   1      45.916  28.042  26.586  1.00  0.00     0.037 A 
BRANCH  59  73
ATOM     73  C   UNL A   1      44.758  33.537  29.159  1.00  0.00     0.057 A 
ATOM     74  C   UNL A   1      45.580  33.853  30.249  1.00  0.00     0.134 A 
ATOM     75  C   UNL A   1      44.375  34.583  28.312  1.00  0.00     0.134 A 
ATOM     76  F   UNL A   1      45.963  32.898  31.111  1.00  0.00    -0.206 F 
ATOM     77  C   UNL A   1      45.989  35.163  30.498  1.00  0.00     0.040 A 
ATOM     78  C   UNL A   1      44.798  35.894  28.536  1.00  0.00     0.040 A 
ATOM     79  F   UNL A   1      43.586  34.349  27.252  1.00  0.00    -0.206 F 
ATOM     80  C   UNL A   1      45.603  36.188  29.634  1.00  0.00     0.006 A 
ENDBRANCH  59  73
BRANCH  60  81
ATOM     81  C   UNL A   1      41.300  24.281  27.664  1.00  0.00     0.057 A 
ATOM     82  C   UNL A   1      40.276  24.045  26.738  1.00  0.00     0.134 A 
ATOM     83  C   UNL A   1      41.795  23.176  28.368  1.00  0.00     0.134 A 
ATOM     84  F   UNL A   1      39.740  25.067  26.052  1.00  0.00    -0.206 F 
ATOM     85  C   UNL A   1      39.748  22.770  26.537  1.00  0.00     0.040 A 
ATOM     86  C   UNL A   1      41.294  21.890  28.159  1.00  0.00     0.040 A 
ATOM     87  F   UNL A   1      42.773  23.333  29.273  1.00  0.00    -0.206 F 
ATOM     88  C   UNL A   1      40.260  21.686  27.247  1.00  0.00     0.006 A 
ENDBRANCH  60  81
BRANCH  72  89
ATOM     89  C   UNL A   1      47.147  27.602  25.848  1.00  0.00     0.057 A 
ATOM     90  C   UNL A   1      48.243  27.027  26.503  1.00  0.00     0.134 A 
ATOM     91  C   UNL A   1      47.200  27.693  24.451  1.00  0.00     0.134 A 
ATOM     92  F   UNL A   1      48.256  26.920  27.840  1.00  0.00    -0.206 F 
ATOM     93  C   UNL A   1      49.355  26.571  25.794  1.00  0.00     0.040 A 
ATOM     94  C   UNL A   1      48.295  27.217  23.730  1.00  0.00     0.040 A 
ATOM     95  F   UNL A   1      46.178  28.223  23.763  1.00  0.00    -0.206 F 
ATOM     96  C   UNL A   1      49.380  26.658  24.402  1.00  0.00     0.006 A 
ENDBRANCH  72  89
ENDBRANCH  46  47
ENDBRANCH  39  41
ENDBRANCH  38  39
ENDBRANCH  37  38
ENDBRANCH  36  37
ENDBRANCH  35  36
ENDBRANCH  34  35
ENDBRANCH  33  34
ENDBRANCH   1  33
TORSDOF 23
ENDMDL
MODEL 2
REMARK VINA RESULT:     -10.9      1.789      6.291
REMARK SMILES CCc1ccc(-c2cc(Cl)cc3c2O[C@@H](C(F)(F)F)C(C(=O)OCCOCCOCCOCCOC(=O)c2ccc(-c4c5nc(c(-c6c(F)cccc6F)c6ccc([nH]6)c(-c6c(F)cccc6F)c6nc(c(-c7c(F)cccc7F)c7ccc4[nH]7)C=C6)C=C5)cc2)=C3)cc1
REMARK SMILES IDX 29 1 28 2 27 3 26 4 25 5 24 6 23 7 21 8 22 9 20 10 7 11 8 12
REMARK SMILES IDX 13 13 9 14 12 15 14 16 10 17 11 18 92 19 15 20 6 21 3 22
REMARK SMILES IDX 4 23 94 24 5 25 93 26 2 27 1 28 16 29 17 30 18 31 19 32
REMARK SMILES IDX 30 33 31 34 32 35 33 36 34 37 35 38 36 39 37 40 38 41 39 42
REMARK SMILES IDX 91 43 40 44 90 45 41 46 42 47 43 48 84 49 44 50 89 51 83 52
REMARK SMILES IDX 85 53 45 54 88 55 82 56 81 57 46 59 72 60 55 61 71 62 56 63
REMARK SMILES IDX 59 64 70 65 86 66 57 67 58 68 69 70 87 71 60 72 47 73 48 74
REMARK SMILES IDX 53 75 49 76 50 77 52 78 54 79 51 80 73 81 74 82 79 83 75 84
REMARK SMILES IDX 76 85 78 86 80 87 77 88 61 89 62 90 67 91 63 92 64 93 66 94
REMARK SMILES IDX 68 95 65 96
REMARK H PARENT 85 58 59 69
REMARK Flexibility Score: inf
ROOT
ATOM      1  O   UNL A   1      34.672  33.229  28.238  1.00  0.00    -0.377 OA
ENDROOT
BRANCH   1   2
ATOM      2  C   UNL A   1      34.124  31.947  28.001  1.00  0.00     0.188 C 
BRANCH   2   3
ATOM      3  C   UNL A   1      35.191  30.910  27.626  1.00  0.00     0.188 C 
BRANCH   3   4
ATOM      4  O   UNL A   1      34.847  29.572  27.970  1.00  0.00    -0.376 OA
BRANCH   4   5
ATOM      5  C   UNL A   1      33.798  28.941  27.238  1.00  0.00     0.202 C 
BRANCH   5   6
ATOM      6  C   UNL A   1      33.918  28.902  25.709  1.00  0.00     0.261 C 
BRANCH   6   7
ATOM      7  O   UNL A   1      32.645  28.570  25.110  1.00  0.00    -0.460 OA
BRANCH   7   8
ATOM      8  C   UNL A   1      32.251  27.294  25.243  1.00  0.00     0.338 C 
ATOM      9  O   UNL A   1      31.139  26.943  25.616  1.00  0.00    -0.246 OA
BRANCH   8  10
ATOM     10  C   UNL A   1      33.249  26.332  24.714  1.00  0.00     0.087 C 
ATOM     11  C   UNL A   1      32.019  22.386  24.270  1.00  0.00     0.026 A 
ATOM     12  C   UNL A   1      30.955  22.192  25.181  1.00  0.00     0.033 A 
ATOM     13  C   UNL A   1      32.640  23.651  24.332  1.00  0.00     0.135 A 
ATOM     14  C   UNL A   1      30.820  23.011  26.302  1.00  0.00     0.042 A 
ATOM     15  C   UNL A   1      32.671  24.327  25.559  1.00  0.00     0.019 A 
ATOM     16  O   UNL A   1      32.925  24.356  23.164  1.00  0.00    -0.475 OA
ATOM     17  Cl  UNL A   1      29.553  22.717  27.424  1.00  0.00    -0.084 Cl
ATOM     18  C   UNL A   1      31.750  24.012  26.552  1.00  0.00     0.032 A 
ATOM     19  C   UNL A   1      33.588  25.478  25.697  1.00  0.00     0.027 C 
ATOM     20  C   UNL A   1      33.382  25.771  23.308  1.00  0.00     0.316 C 
BRANCH  11  21
ATOM     21  C   UNL A   1      32.782  21.118  23.971  1.00  0.00    -0.015 A 
ATOM     22  C   UNL A   1      33.799  18.441  24.251  1.00  0.00    -0.048 A 
ATOM     23  C   UNL A   1      32.676  18.706  23.463  1.00  0.00     0.004 A 
ATOM     24  C   UNL A   1      34.471  19.539  24.804  1.00  0.00     0.004 A 
ATOM     25  C   UNL A   1      32.184  20.021  23.317  1.00  0.00     0.009 A 
ATOM     26  C   UNL A   1      33.978  20.847  24.663  1.00  0.00     0.009 A 
BRANCH  22  27
ATOM     27  C   UNL A   1      34.322  17.053  24.560  1.00  0.00     0.032 C 
ATOM     28  C   UNL A   1      33.419  16.111  25.350  1.00  0.00     0.009 C 
ENDBRANCH  22  27
ENDBRANCH  11  21
BRANCH  20  29
ATOM     29  C   UNL A   1      33.040  26.703  22.117  1.00  0.00     0.430 C 
ATOM     30  F   UNL A   1      33.852  27.794  22.151  1.00  0.00    -0.167 F 
ATOM     31  F   UNL A   1      33.272  26.090  20.930  1.00  0.00    -0.167 F 
ATOM     32  F   UNL A   1      31.786  27.173  22.075  1.00  0.00    -0.167 F 
ENDBRANCH  20  29
ENDBRANCH   8  10
ENDBRANCH   7   8
ENDBRANCH   6   7
ENDBRANCH   5   6
ENDBRANCH   4   5
ENDBRANCH   3   4
ENDBRANCH   2   3
ENDBRANCH   1   2
BRANCH   1  33
ATOM     33  C   UNL A   1      33.882  34.147  28.988  1.00  0.00     0.188 C 
BRANCH  33  34
ATOM     34  C   UNL A   1      34.346  34.686  30.361  1.00  0.00     0.188 C 
BRANCH  34  35
ATOM     35  O   UNL A   1      33.858  33.949  31.480  1.00  0.00    -0.376 OA
BRANCH  35  36
ATOM     36  C   UNL A   1      34.477  32.703  31.759  1.00  0.00     0.202 C 
BRANCH  36  37
ATOM     37  C   UNL A   1      35.995  32.703  31.543  1.00  0.00     0.261 C 
BRANCH  37  38
ATOM     38  O   UNL A   1      36.499  31.591  30.790  1.00  0.00    -0.460 OA
BRANCH  38  39
ATOM     39  C   UNL A   1      36.861  30.488  31.480  1.00  0.00     0.338 C 
ATOM     40  O   UNL A   1      36.278  29.974  32.418  1.00  0.00    -0.246 OA
BRANCH  39  41
ATOM     41  C   UNL A   1      38.014  29.888  30.781  1.00  0.00     0.060 A 
ATOM     42  C   UNL A   1      38.957  29.162  31.521  1.00  0.00     0.016 A 
ATOM     43  C   UNL A   1      38.142  30.023  29.398  1.00  0.00     0.016 A 
ATOM     44  C   UNL A   1      40.063  28.604  30.878  1.00  0.00     0.010 A 
ATOM     45  C   UNL A   1      39.257  29.485  28.760  1.00  0.00     0.010 A 
ATOM     46  C   UNL A   1      40.241  28.809  29.504  1.00  0.00    -0.014 A 
BRANCH  46  47
ATOM     47  C   UNL A   1      41.558  28.569  28.874  1.00  0.00     0.031 A 
ATOM     48  C   UNL A   1      41.855  27.170  28.410  1.00  0.00     0.074 A 
ATOM     49  C   UNL A   1      42.478  29.540  28.753  1.00  0.00     0.049 A 
ATOM     50  N   UNL A   1      42.973  26.657  27.969  1.00  0.00    -0.248 NA
ATOM     51  C   UNL A   1      40.732  26.216  28.465  1.00  0.00     0.031 C 
ATOM     52  C   UNL A   1      42.290  30.940  29.122  1.00  0.00     0.029 A 
ATOM     53  N   UNL A   1      43.771  29.478  28.300  1.00  0.00    -0.354 N 
ATOM     54  C   UNL A   1      42.692  25.323  27.704  1.00  0.00     0.074 A 
ATOM     55  C   UNL A   1      41.308  25.096  28.057  1.00  0.00     0.031 C 
ATOM     56  C   UNL A   1      43.440  31.604  28.901  1.00  0.00     0.029 A 
ATOM     57  C   UNL A   1      44.451  30.666  28.413  1.00  0.00     0.049 A 
ATOM     58  H   UNL A   1      44.175  28.660  27.929  1.00  0.00     0.167 HD
ATOM     59  C   UNL A   1      43.513  24.370  27.209  1.00  0.00     0.037 A 
ATOM     60  C   UNL A   1      45.747  30.946  28.178  1.00  0.00     0.037 A 
ATOM     61  C   UNL A   1      44.892  24.594  26.875  1.00  0.00     0.049 A 
ATOM     62  C   UNL A   1      46.667  29.847  27.708  1.00  0.00     0.074 A 
ATOM     63  C   UNL A   1      45.817  23.693  26.379  1.00  0.00     0.029 A 
ATOM     64  N   UNL A   1      45.544  25.810  27.011  1.00  0.00    -0.354 N 
ATOM     65  N   UNL A   1      46.395  28.590  27.453  1.00  0.00    -0.248 NA
ATOM     66  C   UNL A   1      48.078  30.207  27.495  1.00  0.00     0.031 C 
ATOM     67  C   UNL A   1      47.042  24.356  26.253  1.00  0.00     0.029 A 
ATOM     68  C   UNL A   1      46.865  25.680  26.620  1.00  0.00     0.049 A 
ATOM     69  H   UNL A   1      45.129  26.641  27.338  1.00  0.00     0.167 HD
ATOM     70  C   UNL A   1      47.586  28.022  27.012  1.00  0.00     0.074 A 
ATOM     71  C   UNL A   1      48.582  29.071  27.035  1.00  0.00     0.031 C 
ATOM     72  C   UNL A   1      47.831  26.748  26.619  1.00  0.00     0.037 A 
BRANCH  59  73
ATOM     73  C   UNL A   1      42.941  22.997  27.028  1.00  0.00     0.057 A 
ATOM     74  C   UNL A   1      42.610  22.496  25.762  1.00  0.00     0.134 A 
ATOM     75  C   UNL A   1      42.727  22.162  28.131  1.00  0.00     0.134 A 
ATOM     76  F   UNL A   1      42.769  23.256  24.668  1.00  0.00    -0.206 F 
ATOM     77  C   UNL A   1      42.067  21.221  25.601  1.00  0.00     0.040 A 
ATOM     78  C   UNL A   1      42.209  20.874  27.980  1.00  0.00     0.040 A 
ATOM     79  F   UNL A   1      43.020  22.581  29.371  1.00  0.00    -0.206 F 
ATOM     80  C   UNL A   1      41.872  20.403  26.714  1.00  0.00     0.006 A 
ENDBRANCH  59  73
BRANCH  60  81
ATOM     81  C   UNL A   1      46.272  32.319  28.396  1.00  0.00     0.057 A 
ATOM     82  C   UNL A   1      46.763  32.716  29.646  1.00  0.00     0.134 A 
ATOM     83  C   UNL A   1      46.256  33.279  27.377  1.00  0.00     0.134 A 
ATOM     84  F   UNL A   1      46.779  31.849  30.670  1.00  0.00    -0.206 F 
ATOM     85  C   UNL A   1      47.195  34.021  29.883  1.00  0.00     0.040 A 
ATOM     86  C   UNL A   1      46.710  34.582  27.592  1.00  0.00     0.040 A 
ATOM     87  F   UNL A   1      45.795  32.965  26.158  1.00  0.00    -0.206 F 
ATOM     88  C   UNL A   1      47.173  34.958  28.852  1.00  0.00     0.006 A 
ENDBRANCH  60  81
BRANCH  72  89
ATOM     89  C   UNL A   1      49.207  26.429  26.111  1.00  0.00     0.057 A 
ATOM     90  C   UNL A   1      49.611  26.741  24.807  1.00  0.00     0.134 A 
ATOM     91  C   UNL A   1      50.161  25.866  26.968  1.00  0.00     0.134 A 
ATOM     92  F   UNL A   1      48.741  27.275  23.935  1.00  0.00    -0.206 F 
ATOM     93  C   UNL A   1      50.912  26.490  24.370  1.00  0.00     0.040 A 
ATOM     94  C   UNL A   1      51.471  25.634  26.550  1.00  0.00     0.040 A 
ATOM     95  F   UNL A   1      49.841  25.554  28.233  1.00  0.00    -0.206 F 
ATOM     96  C   UNL A   1      51.849  25.942  25.245  1.00  0.00     0.006 A 
ENDBRANCH  72  89
ENDBRANCH  46  47
ENDBRANCH  39  41
ENDBRANCH  38  39
ENDBRANCH  37  38
ENDBRANCH  36  37
ENDBRANCH  35  36
ENDBRANCH  34  35
ENDBRANCH  33  34
ENDBRANCH   1  33
TORSDOF 23
ENDMDL
MODEL 3
REMARK VINA RESULT:     -10.7      4.616     10.136
REMARK SMILES CCc1ccc(-c2cc(Cl)cc3c2O[C@@H](C(F)(F)F)C(C(=O)OCCOCCOCCOCCOC(=O)c2ccc(-c4c5nc(c(-c6c(F)cccc6F)c6ccc([nH]6)c(-c6c(F)cccc6F)c6nc(c(-c7c(F)cccc7F)c7ccc4[nH]7)C=C6)C=C5)cc2)=C3)cc1
REMARK SMILES IDX 29 1 28 2 27 3 26 4 25 5 24 6 23 7 21 8 22 9 20 10 7 11 8 12
REMARK SMILES IDX 13 13 9 14 12 15 14 16 10 17 11 18 92 19 15 20 6 21 3 22
REMARK SMILES IDX 4 23 94 24 5 25 93 26 2 27 1 28 16 29 17 30 18 31 19 32
REMARK SMILES IDX 30 33 31 34 32 35 33 36 34 37 35 38 36 39 37 40 38 41 39 42
REMARK SMILES IDX 91 43 40 44 90 45 41 46 42 47 43 48 84 49 44 50 89 51 83 52
REMARK SMILES IDX 85 53 45 54 88 55 82 56 81 57 46 59 72 60 55 61 71 62 56 63
REMARK SMILES IDX 59 64 70 65 86 66 57 67 58 68 69 70 87 71 60 72 47 73 48 74
REMARK SMILES IDX 53 75 49 76 50 77 52 78 54 79 51 80 73 81 74 82 79 83 75 84
REMARK SMILES IDX 76 85 78 86 80 87 77 88 61 89 62 90 67 91 63 92 64 93 66 94
REMARK SMILES IDX 68 95 65 96
REMARK H PARENT 85 58 59 69
REMARK Flexibility Score: inf
ROOT
ATOM      1  O   UNL A   1      39.794  21.029  26.177  1.00  0.00    -0.377 OA
ENDROOT
BRANCH   1   2
ATOM      2  C   UNL A   1      39.308  22.313  26.520  1.00  0.00     0.188 C 
BRANCH   2   3
ATOM      3  C   UNL A   1      37.939  22.611  25.895  1.00  0.00     0.188 C 
BRANCH   3   4
ATOM      4  O   UNL A   1      37.299  21.473  25.326  1.00  0.00    -0.376 OA
BRANCH   4   5
ATOM      5  C   UNL A   1      35.893  21.539  25.100  1.00  0.00     0.202 C 
BRANCH   5   6
ATOM      6  C   UNL A   1      35.018  22.136  26.211  1.00  0.00     0.261 C 
BRANCH   6   7
ATOM      7  O   UNL A   1      33.867  22.803  25.646  1.00  0.00    -0.460 OA
BRANCH   7   8
ATOM      8  C   UNL A   1      32.672  22.384  26.088  1.00  0.00     0.338 C 
ATOM      9  O   UNL A   1      32.479  21.841  27.169  1.00  0.00    -0.246 OA
BRANCH   8  10
ATOM     10  C   UNL A   1      31.558  22.809  25.206  1.00  0.00     0.087 C 
ATOM     11  C   UNL A   1      31.698  26.691  23.726  1.00  0.00     0.026 A 
ATOM     12  C   UNL A   1      32.482  27.439  24.633  1.00  0.00     0.033 A 
ATOM     13  C   UNL A   1      31.453  25.354  24.102  1.00  0.00     0.135 A 
ATOM     14  C   UNL A   1      32.635  27.019  25.954  1.00  0.00     0.042 A 
ATOM     15  C   UNL A   1      31.391  25.039  25.466  1.00  0.00     0.019 A 
ATOM     16  O   UNL A   1      31.592  24.322  23.176  1.00  0.00    -0.475 OA
ATOM     17  Cl  UNL A   1      33.545  27.977  27.052  1.00  0.00    -0.084 Cl
ATOM     18  C   UNL A   1      31.993  25.873  26.402  1.00  0.00     0.032 A 
ATOM     19  C   UNL A   1      30.822  23.731  25.854  1.00  0.00     0.027 C 
ATOM     20  C   UNL A   1      31.530  22.922  23.691  1.00  0.00     0.316 C 
BRANCH  11  21
ATOM     21  C   UNL A   1      30.678  27.529  22.992  1.00  0.00    -0.015 A 
ATOM     22  C   UNL A   1      28.813  29.648  22.433  1.00  0.00    -0.048 A 
ATOM     23  C   UNL A   1      30.131  29.711  21.976  1.00  0.00     0.004 A 
ATOM     24  C   UNL A   1      28.408  28.469  23.073  1.00  0.00     0.004 A 
ATOM     25  C   UNL A   1      31.043  28.666  22.242  1.00  0.00     0.009 A 
ATOM     26  C   UNL A   1      29.317  27.432  23.341  1.00  0.00     0.009 A 
BRANCH  22  27
ATOM     27  C   UNL A   1      27.804  30.772  22.301  1.00  0.00     0.032 C 
ATOM     28  C   UNL A   1      27.603  31.693  23.499  1.00  0.00     0.009 C 
ENDBRANCH  22  27
ENDBRANCH  11  21
BRANCH  20  29
ATOM     29  C   UNL A   1      32.327  21.877  22.869  1.00  0.00     0.430 C 
ATOM     30  F   UNL A   1      31.462  21.119  22.141  1.00  0.00    -0.167 F 
ATOM     31  F   UNL A   1      33.153  22.477  21.976  1.00  0.00    -0.167 F 
ATOM     32  F   UNL A   1      33.075  21.015  23.573  1.00  0.00    -0.167 F 
ENDBRANCH  20  29
ENDBRANCH   8  10
ENDBRANCH   7   8
ENDBRANCH   6   7
ENDBRANCH   5   6
ENDBRANCH   4   5
ENDBRANCH   3   4
ENDBRANCH   2   3
ENDBRANCH   1   2
BRANCH   1  33
ATOM     33  C   UNL A   1      41.150  20.738  26.499  1.00  0.00     0.188 C 
BRANCH  33  34
ATOM     34  C   UNL A   1      42.289  21.743  26.209  1.00  0.00     0.188 C 
BRANCH  34  35
ATOM     35  O   UNL A   1      43.594  21.172  26.211  1.00  0.00    -0.376 OA
BRANCH  35  36
ATOM     36  C   UNL A   1      44.318  21.196  24.989  1.00  0.00     0.202 C 
BRANCH  36  37
ATOM     37  C   UNL A   1      45.098  22.495  24.757  1.00  0.00     0.261 C 
BRANCH  37  38
ATOM     38  O   UNL A   1      44.329  23.697  24.903  1.00  0.00    -0.460 OA
BRANCH  38  39
ATOM     39  C   UNL A   1      45.007  24.841  25.133  1.00  0.00     0.338 C 
ATOM     40  O   UNL A   1      46.051  25.204  24.618  1.00  0.00    -0.246 OA
BRANCH  39  41
ATOM     41  C   UNL A   1      44.166  25.686  26.002  1.00  0.00     0.060 A 
ATOM     42  C   UNL A   1      44.083  27.062  25.743  1.00  0.00     0.016 A 
ATOM     43  C   UNL A   1      43.445  25.113  27.051  1.00  0.00     0.016 A 
ATOM     44  C   UNL A   1      43.306  27.878  26.566  1.00  0.00     0.010 A 
ATOM     45  C   UNL A   1      42.688  25.931  27.886  1.00  0.00     0.010 A 
ATOM     46  C   UNL A   1      42.649  27.320  27.671  1.00  0.00    -0.014 A 
BRANCH  46  47
ATOM     47  C   UNL A   1      42.144  28.186  28.758  1.00  0.00     0.031 A 
ATOM     48  C   UNL A   1      42.917  28.196  30.048  1.00  0.00     0.074 A 
ATOM     49  C   UNL A   1      41.018  28.908  28.631  1.00  0.00     0.049 A 
ATOM     50  N   UNL A   1      42.617  28.740  31.197  1.00  0.00    -0.248 NA
ATOM     51  C   UNL A   1      44.205  27.478  30.037  1.00  0.00     0.031 C 
ATOM     52  C   UNL A   1      40.210  29.016  27.419  1.00  0.00     0.029 A 
ATOM     53  N   UNL A   1      40.351  29.673  29.554  1.00  0.00    -0.354 N 
ATOM     54  C   UNL A   1      43.670  28.424  32.046  1.00  0.00     0.074 A 
ATOM     55  C   UNL A   1      44.605  27.619  31.291  1.00  0.00     0.031 C 
ATOM     56  C   UNL A   1      39.138  29.788  27.681  1.00  0.00     0.029 A 
ATOM     57  C   UNL A   1      39.169  30.192  29.086  1.00  0.00     0.049 A 
ATOM     58  H   UNL A   1      40.688  29.835  30.465  1.00  0.00     0.167 HD
ATOM     59  C   UNL A   1      43.845  28.773  33.340  1.00  0.00     0.037 A 
ATOM     60  C   UNL A   1      38.212  30.885  29.735  1.00  0.00     0.037 A 
ATOM     61  C   UNL A   1      42.906  29.558  34.093  1.00  0.00     0.049 A 
ATOM     62  C   UNL A   1      38.387  31.190  31.201  1.00  0.00     0.074 A 
ATOM     63  C   UNL A   1      42.979  29.957  35.415  1.00  0.00     0.029 A 
ATOM     64  N   UNL A   1      41.717  30.058  33.585  1.00  0.00    -0.354 N 
ATOM     65  N   UNL A   1      39.387  30.894  31.997  1.00  0.00    -0.248 NA
ATOM     66  C   UNL A   1      37.297  31.924  31.862  1.00  0.00     0.031 C 
ATOM     67  C   UNL A   1      41.813  30.667  35.719  1.00  0.00     0.029 A 
ATOM     68  C   UNL A   1      41.040  30.752  34.572  1.00  0.00     0.049 A 
ATOM     69  H   UNL A   1      41.401  29.936  32.660  1.00  0.00     0.167 HD
ATOM     70  C   UNL A   1      39.066  31.441  33.235  1.00  0.00     0.074 A 
ATOM     71  C   UNL A   1      37.778  32.085  33.086  1.00  0.00     0.031 C 
ATOM     72  C   UNL A   1      39.775  31.416  34.390  1.00  0.00     0.037 A 
BRANCH  59  73
ATOM     73  C   UNL A   1      45.085  28.281  34.023  1.00  0.00     0.057 A 
ATOM     74  C   UNL A   1      46.253  29.053  34.076  1.00  0.00     0.134 A 
ATOM     75  C   UNL A   1      45.109  27.026  34.642  1.00  0.00     0.134 A 
ATOM     76  F   UNL A   1      46.301  30.255  33.481  1.00  0.00    -0.206 F 
ATOM     77  C   UNL A   1      47.408  28.586  34.703  1.00  0.00     0.040 A 
ATOM     78  C   UNL A   1      46.250  26.559  35.295  1.00  0.00     0.040 A 
ATOM     79  F   UNL A   1      44.025  26.236  34.625  1.00  0.00    -0.206 F 
ATOM     80  C   UNL A   1      47.406  27.336  35.322  1.00  0.00     0.006 A 
ENDBRANCH  59  73
BRANCH  60  81
ATOM     81  C   UNL A   1      36.988  31.329  29.019  1.00  0.00     0.057 A 
ATOM     82  C   UNL A   1      36.850  32.648  28.572  1.00  0.00     0.134 A 
ATOM     83  C   UNL A   1      35.910  30.461  28.805  1.00  0.00     0.134 A 
ATOM     84  F   UNL A   1      37.838  33.535  28.772  1.00  0.00    -0.206 F 
ATOM     85  C   UNL A   1      35.679  33.096  27.959  1.00  0.00     0.040 A 
ATOM     86  C   UNL A   1      34.742  30.888  28.170  1.00  0.00     0.040 A 
ATOM     87  F   UNL A   1      35.976  29.185  29.213  1.00  0.00    -0.206 F 
ATOM     88  C   UNL A   1      34.621  32.213  27.754  1.00  0.00     0.006 A 
ENDBRANCH  60  81
BRANCH  72  89
ATOM     89  C   UNL A   1      39.217  32.164  35.566  1.00  0.00     0.057 A 
ATOM     90  C   UNL A   1      39.433  33.535  35.747  1.00  0.00     0.134 A 
ATOM     91  C   UNL A   1      38.391  31.510  36.490  1.00  0.00     0.134 A 
ATOM     92  F   UNL A   1      40.221  34.217  34.901  1.00  0.00    -0.206 F 
ATOM     93  C   UNL A   1      38.859  34.227  36.814  1.00  0.00     0.040 A 
ATOM     94  C   UNL A   1      37.791  32.195  37.545  1.00  0.00     0.040 A 
ATOM     95  F   UNL A   1      38.135  30.199  36.366  1.00  0.00    -0.206 F 
ATOM     96  C   UNL A   1      38.028  33.558  37.713  1.00  0.00     0.006 A 
ENDBRANCH  72  89
ENDBRANCH  46  47
ENDBRANCH  39  41
ENDBRANCH  38  39
ENDBRANCH  37  38
ENDBRANCH  36  37
ENDBRANCH  35  36
ENDBRANCH  34  35
ENDBRANCH  33  34
ENDBRANCH   1  33
TORSDOF 23
ENDMDL
