MODEL 1
REMARK VINA RESULT:      -7.0      0.000      0.000
REMARK SMILES CN(C)S(=O)(=O)c1ccc(-n2c(CCC(=O)OCCOCCOCCOCCOC(=O)c3ccc(-c4c5nc(c(-c6c(F)cccc6F)c6ccc([nH]6)c(-c6c(F)cccc6F)c6nc(c(-c7c(F)cccc7F)c7ccc4[nH]7)C=C6)C=C5)cc3)ccc2-c2ccc(F)cc2)cc1
REMARK SMILES IDX 21 1 20 2 19 3 18 4 17 5 15 6 16 7 14 8 13 9 12 10 11 11
REMARK SMILES IDX 88 12 86 13 87 14 10 15 7 16 8 17 97 18 9 19 96 20 4 21 5 22
REMARK SMILES IDX 6 23 2 24 1 25 3 26 89 27 90 28 95 29 91 30 94 31 92 32
REMARK SMILES IDX 93 33 22 34 23 35 24 36 25 37 26 38 27 39 28 40 29 41 30 42
REMARK SMILES IDX 31 43 32 44 33 45 85 46 34 47 84 48 35 49 36 50 37 51 78 52
REMARK SMILES IDX 38 53 83 54 77 55 79 56 39 57 82 58 76 59 75 60 40 62 66 63
REMARK SMILES IDX 49 64 65 65 50 66 53 67 64 68 80 69 51 70 52 71 63 73 81 74
REMARK SMILES IDX 54 75 41 76 42 77 47 78 43 79 44 80 46 81 48 82 45 83 67 84
REMARK SMILES IDX 68 85 73 86 69 87 70 88 72 89 74 90 71 91 55 92 56 93 61 94
REMARK SMILES IDX 57 95 58 96 60 97 62 98 59 99
REMARK H PARENT 79 61 53 72
REMARK Flexibility Score: inf
ROOT
ATOM      1  C   UNL A   1      50.949  27.032  29.347  1.00  0.00     0.188 C 
ENDROOT
BRANCH   1   2
ATOM      2  O   UNL A   1      51.504  27.307  27.936  1.00  0.00    -0.376 OA
BRANCH   2   3
ATOM      3  C   UNL A   1      51.222  28.023  26.093  1.00  0.00     0.202 C 
BRANCH   3   4
ATOM      4  C   UNL A   1      49.862  27.989  25.025  1.00  0.00     0.261 C 
BRANCH   4   5
ATOM      5  O   UNL A   1      48.647  27.292  25.426  1.00  0.00    -0.463 OA
BRANCH   5   6
ATOM      6  C   UNL A   1      47.494  27.671  24.807  1.00  0.00     0.306 C 
ATOM      7  O   UNL A   1      47.174  27.297  23.682  1.00  0.00    -0.252 OA
BRANCH   6   8
ATOM      8  C   UNL A   1      46.550  28.519  25.665  1.00  0.00     0.129 C 
BRANCH   8   9
ATOM      9  C   UNL A   1      46.855  29.997  25.958  1.00  0.00     0.066 C 
BRANCH   9  10
ATOM     10  C   UNL A   1      45.731  30.737  26.589  1.00  0.00     0.024 A 
ATOM     11  N   UNL A   1      45.722  32.099  26.878  1.00  0.00    -0.314 N 
ATOM     12  C   UNL A   1      44.399  32.426  27.255  1.00  0.00     0.053 A 
ATOM     13  C   UNL A   1      44.544  30.188  27.032  1.00  0.00     0.024 A 
ATOM     14  C   UNL A   1      43.717  31.237  27.452  1.00  0.00     0.029 A 
BRANCH  11  15
ATOM     15  C   UNL A   1      46.828  33.015  26.767  1.00  0.00     0.046 A 
ATOM     16  C   UNL A   1      49.657  35.267  26.770  1.00  0.00     0.082 A 
ATOM     17  C   UNL A   1      49.565  33.929  27.950  1.00  0.00     0.024 A 
ATOM     18  C   UNL A   1      48.332  35.555  25.594  1.00  0.00     0.024 A 
ATOM     19  C   UNL A   1      48.192  32.780  27.926  1.00  0.00     0.028 A 
ATOM     20  C   UNL A   1      46.913  34.413  25.563  1.00  0.00     0.028 A 
BRANCH  16  21
ATOM     21  S   UNL A   1      51.227  36.054  26.642  1.00  0.00     0.242 S 
ATOM     22  O   UNL A   1      51.270  36.699  25.335  1.00  0.00    -0.207 OA
ATOM     23  O   UNL A   1      52.202  35.067  27.015  1.00  0.00    -0.207 OA
BRANCH  21  24
ATOM     24  N   UNL A   1      51.248  37.309  27.811  1.00  0.00    -0.204 NA
ATOM     25  C   UNL A   1      49.979  37.352  28.587  1.00  0.00     0.124 C 
ATOM     26  C   UNL A   1      52.401  37.313  28.742  1.00  0.00     0.124 C 
ENDBRANCH  21  24
ENDBRANCH  16  21
ENDBRANCH  11  15
BRANCH  12  27
ATOM     27  C   UNL A   1      43.792  33.764  27.336  1.00  0.00    -0.001 A 
ATOM     28  C   UNL A   1      43.546  34.357  28.586  1.00  0.00     0.013 A 
ATOM     29  C   UNL A   1      43.447  34.468  26.172  1.00  0.00     0.013 A 
ATOM     30  C   UNL A   1      43.033  35.655  28.665  1.00  0.00     0.040 A 
ATOM     31  C   UNL A   1      42.949  35.771  26.252  1.00  0.00     0.040 A 
ATOM     32  C   UNL A   1      42.754  36.355  27.498  1.00  0.00     0.123 A 
ATOM     33  F   UNL A   1      42.292  37.610  27.573  1.00  0.00    -0.207 F 
ENDBRANCH  12  27
ENDBRANCH   9  10
ENDBRANCH   8   9
ENDBRANCH   6   8
ENDBRANCH   5   6
ENDBRANCH   4   5
ENDBRANCH   3   4
ENDBRANCH   2   3
ENDBRANCH   1   2
BRANCH   1  34
ATOM     34  C   UNL A   1      49.526  26.457  29.321  1.00  0.00     0.188 C 
BRANCH  34  35
ATOM     35  O   UNL A   1      49.021  25.980  28.077  1.00  0.00    -0.377 OA
BRANCH  35  36
ATOM     36  C   UNL A   1      48.281  24.773  28.049  1.00  0.00     0.188 C 
BRANCH  36  37
ATOM     37  C   UNL A   1      47.071  24.702  27.113  1.00  0.00     0.188 C 
BRANCH  37  38
ATOM     38  O   UNL A   1      47.185  24.166  25.804  1.00  0.00    -0.376 OA
BRANCH  38  39
ATOM     39  C   UNL A   1      46.331  23.132  25.334  1.00  0.00     0.202 C 
BRANCH  39  40
ATOM     40  C   UNL A   1      45.437  22.332  26.281  1.00  0.00     0.261 C 
BRANCH  40  41
ATOM     41  O   UNL A   1      44.282  23.048  26.687  1.00  0.00    -0.460 OA
BRANCH  41  42
ATOM     42  C   UNL A   1      43.260  22.940  25.820  1.00  0.00     0.338 C 
ATOM     43  O   UNL A   1      42.977  21.976  25.123  1.00  0.00    -0.246 OA
BRANCH  42  44
ATOM     44  C   UNL A   1      42.568  24.234  25.697  1.00  0.00     0.060 A 
ATOM     45  C   UNL A   1      43.468  25.308  25.646  1.00  0.00     0.016 A 
ATOM     46  C   UNL A   1      41.461  24.234  26.547  1.00  0.00     0.016 A 
ATOM     47  C   UNL A   1      43.505  26.152  26.732  1.00  0.00     0.010 A 
ATOM     48  C   UNL A   1      41.562  24.993  27.685  1.00  0.00     0.010 A 
ATOM     49  C   UNL A   1      42.612  25.915  27.783  1.00  0.00    -0.014 A 
BRANCH  49  50
ATOM     50  C   UNL A   1      42.682  26.799  28.944  1.00  0.00     0.031 A 
ATOM     51  C   UNL A   1      43.522  26.101  30.028  1.00  0.00     0.074 A 
ATOM     52  C   UNL A   1      41.955  27.956  28.845  1.00  0.00     0.049 A 
ATOM     53  N   UNL A   1      43.363  26.049  31.314  1.00  0.00    -0.248 NA
ATOM     54  C   UNL A   1      44.644  25.209  29.595  1.00  0.00     0.031 C 
ATOM     55  C   UNL A   1      41.223  28.426  27.637  1.00  0.00     0.029 A 
ATOM     56  N   UNL A   1      41.665  28.970  29.728  1.00  0.00    -0.354 N 
ATOM     57  C   UNL A   1      44.456  25.320  31.834  1.00  0.00     0.074 A 
ATOM     58  C   UNL A   1      45.102  24.688  30.731  1.00  0.00     0.031 C 
ATOM     59  C   UNL A   1      40.525  29.557  27.896  1.00  0.00     0.029 A 
ATOM     60  C   UNL A   1      40.718  29.935  29.281  1.00  0.00     0.049 A 
ATOM     61  H   UNL A   1      42.088  29.027  30.615  1.00  0.00     0.167 HD
ATOM     62  C   UNL A   1      44.888  25.439  33.119  1.00  0.00     0.037 A 
ATOM     63  C   UNL A   1      40.082  30.904  30.017  1.00  0.00     0.037 A 
ATOM     64  C   UNL A   1      44.058  26.351  33.824  1.00  0.00     0.049 A 
ATOM     65  C   UNL A   1      40.623  30.718  31.370  1.00  0.00     0.074 A 
ATOM     66  C   UNL A   1      42.854  26.254  34.462  1.00  0.00     0.029 A 
ATOM     67  N   UNL A   1      44.385  27.676  33.688  1.00  0.00    -0.354 N 
ATOM     68  N   UNL A   1      41.813  31.062  31.754  1.00  0.00    -0.248 NA
ATOM     69  C   UNL A   1      39.828  29.935  32.318  1.00  0.00     0.031 C 
ATOM     70  C   UNL A   1      42.320  27.562  34.410  1.00  0.00     0.029 A 
ATOM     71  C   UNL A   1      43.229  28.409  33.771  1.00  0.00     0.049 A 
ATOM     72  H   UNL A   1      45.291  28.036  33.554  1.00  0.00     0.167 HD
ATOM     73  C   UNL A   1      42.015  30.276  32.866  1.00  0.00     0.074 A 
ATOM     74  C   UNL A   1      40.707  29.848  33.309  1.00  0.00     0.031 C 
ATOM     75  C   UNL A   1      43.215  29.680  33.083  1.00  0.00     0.037 A 
BRANCH  62  76
ATOM     76  C   UNL A   1      46.195  25.074  33.772  1.00  0.00     0.057 A 
ATOM     77  C   UNL A   1      47.362  25.713  33.291  1.00  0.00     0.134 A 
ATOM     78  C   UNL A   1      46.406  23.907  34.515  1.00  0.00     0.134 A 
ATOM     79  F   UNL A   1      47.289  26.879  32.628  1.00  0.00    -0.206 F 
ATOM     80  C   UNL A   1      48.630  25.136  33.388  1.00  0.00     0.040 A 
ATOM     81  C   UNL A   1      47.682  23.350  34.669  1.00  0.00     0.040 A 
ATOM     82  F   UNL A   1      45.389  23.207  35.033  1.00  0.00    -0.206 F 
ATOM     83  C   UNL A   1      48.789  23.934  34.059  1.00  0.00     0.006 A 
ENDBRANCH  62  76
BRANCH  63  84
ATOM     84  C   UNL A   1      38.946  31.899  29.878  1.00  0.00     0.057 A 
ATOM     85  C   UNL A   1      39.040  33.287  30.003  1.00  0.00     0.134 A 
ATOM     86  C   UNL A   1      37.632  31.447  29.558  1.00  0.00     0.134 A 
ATOM     87  F   UNL A   1      40.165  33.868  30.436  1.00  0.00    -0.206 F 
ATOM     88  C   UNL A   1      37.956  34.149  29.713  1.00  0.00     0.040 A 
ATOM     89  C   UNL A   1      36.564  32.286  29.225  1.00  0.00     0.040 A 
ATOM     90  F   UNL A   1      37.309  30.146  29.555  1.00  0.00    -0.206 F 
ATOM     91  C   UNL A   1      36.728  33.654  29.282  1.00  0.00     0.006 A 
ENDBRANCH  63  84
BRANCH  75  92
ATOM     92  C   UNL A   1      44.339  30.240  32.215  1.00  0.00     0.057 A 
ATOM     93  C   UNL A   1      44.796  31.547  32.396  1.00  0.00     0.134 A 
ATOM     94  C   UNL A   1      44.884  29.564  31.109  1.00  0.00     0.134 A 
ATOM     95  F   UNL A   1      44.348  32.278  33.426  1.00  0.00    -0.206 F 
ATOM     96  C   UNL A   1      45.719  32.145  31.522  1.00  0.00     0.040 A 
ATOM     97  C   UNL A   1      45.806  30.140  30.225  1.00  0.00     0.040 A 
ATOM     98  F   UNL A   1      44.541  28.308  30.849  1.00  0.00    -0.206 F 
ATOM     99  C   UNL A   1      46.222  31.444  30.427  1.00  0.00     0.006 A 
ENDBRANCH  75  92
ENDBRANCH  49  50
ENDBRANCH  42  44
ENDBRANCH  41  42
ENDBRANCH  40  41
ENDBRANCH  39  40
ENDBRANCH  38  39
ENDBRANCH  37  38
ENDBRANCH  36  37
ENDBRANCH  35  36
ENDBRANCH  34  35
ENDBRANCH   1  34
TORSDOF 26
ENDMDL
MODEL 2
REMARK VINA RESULT:      -6.8      6.385     10.300
REMARK SMILES CN(C)S(=O)(=O)c1ccc(-n2c(CCC(=O)OCCOCCOCCOCCOC(=O)c3ccc(-c4c5nc(c(-c6c(F)cccc6F)c6ccc([nH]6)c(-c6c(F)cccc6F)c6nc(c(-c7c(F)cccc7F)c7ccc4[nH]7)C=C6)C=C5)cc3)ccc2-c2ccc(F)cc2)cc1
REMARK SMILES IDX 21 1 20 2 19 3 18 4 17 5 15 6 16 7 14 8 13 9 12 10 11 11
REMARK SMILES IDX 88 12 86 13 87 14 10 15 7 16 8 17 97 18 9 19 96 20 4 21 5 22
REMARK SMILES IDX 6 23 2 24 1 25 3 26 89 27 90 28 95 29 91 30 94 31 92 32
REMARK SMILES IDX 93 33 22 34 23 35 24 36 25 37 26 38 27 39 28 40 29 41 30 42
REMARK SMILES IDX 31 43 32 44 33 45 85 46 34 47 84 48 35 49 36 50 37 51 78 52
REMARK SMILES IDX 38 53 83 54 77 55 79 56 39 57 82 58 76 59 75 60 40 62 66 63
REMARK SMILES IDX 49 64 65 65 50 66 53 67 64 68 80 69 51 70 52 71 63 73 81 74
REMARK SMILES IDX 54 75 41 76 42 77 47 78 43 79 44 80 46 81 48 82 45 83 67 84
REMARK SMILES IDX 68 85 73 86 69 87 70 88 72 89 74 90 71 91 55 92 56 93 61 94
REMARK SMILES IDX 57 95 58 96 60 97 62 98 59 99
REMARK H PARENT 79 61 53 72
REMARK Flexibility Score: inf
ROOT
ATOM      1  C   UNL A   1      42.463  43.251  32.644  1.00  0.00     0.188 C 
ENDROOT
BRANCH   1   2
ATOM      2  O   UNL A   1      43.233  43.246  31.308  1.00  0.00    -0.376 OA
BRANCH   2   3
ATOM      3  C   UNL A   1      44.234  42.229  29.912  1.00  0.00     0.202 C 
BRANCH   3   4
ATOM      4  C   UNL A   1      44.821  42.668  28.346  1.00  0.00     0.261 C 
BRANCH   4   5
ATOM      5  O   UNL A   1      46.200  42.370  27.983  1.00  0.00    -0.463 OA
BRANCH   5   6
ATOM      6  C   UNL A   1      47.007  43.437  27.723  1.00  0.00     0.306 C 
ATOM      7  O   UNL A   1      47.902  43.810  28.476  1.00  0.00    -0.252 OA
BRANCH   6   8
ATOM      8  C   UNL A   1      46.795  44.085  26.351  1.00  0.00     0.129 C 
BRANCH   8   9
ATOM      9  C   UNL A   1      46.633  43.230  25.084  1.00  0.00     0.066 C 
BRANCH   9  10
ATOM     10  C   UNL A   1      45.497  43.635  24.217  1.00  0.00     0.024 A 
ATOM     11  N   UNL A   1      45.579  43.911  22.854  1.00  0.00    -0.314 N 
ATOM     12  C   UNL A   1      44.251  44.032  22.384  1.00  0.00     0.053 A 
ATOM     13  C   UNL A   1      44.197  43.850  24.630  1.00  0.00     0.024 A 
ATOM     14  C   UNL A   1      43.422  44.103  23.491  1.00  0.00     0.029 A 
BRANCH  11  15
ATOM     15  C   UNL A   1      46.776  44.005  22.060  1.00  0.00     0.046 A 
ATOM     16  C   UNL A   1      49.708  44.514  20.005  1.00  0.00     0.082 A 
ATOM     17  C   UNL A   1      48.903  45.901  20.792  1.00  0.00     0.024 A 
ATOM     18  C   UNL A   1      49.055  42.851  20.173  1.00  0.00     0.024 A 
ATOM     19  C   UNL A   1      47.480  45.655  21.850  1.00  0.00     0.028 A 
ATOM     20  C   UNL A   1      47.595  42.575  21.227  1.00  0.00     0.028 A 
BRANCH  16  21
ATOM     21  S   UNL A   1      51.304  44.845  19.341  1.00  0.00     0.242 S 
ATOM     22  O   UNL A   1      51.112  45.215  17.944  1.00  0.00    -0.207 OA
ATOM     23  O   UNL A   1      52.130  43.727  19.707  1.00  0.00    -0.207 OA
BRANCH  21  24
ATOM     24  N   UNL A   1      51.894  46.242  20.143  1.00  0.00    -0.204 NA
ATOM     25  C   UNL A   1      52.530  45.896  21.443  1.00  0.00     0.124 C 
ATOM     26  C   UNL A   1      52.804  47.108  19.358  1.00  0.00     0.124 C 
ENDBRANCH  21  24
ENDBRANCH  16  21
ENDBRANCH  11  15
BRANCH  12  27
ATOM     27  C   UNL A   1      43.785  43.992  20.989  1.00  0.00    -0.001 A 
ATOM     28  C   UNL A   1      42.716  43.157  20.621  1.00  0.00     0.013 A 
ATOM     29  C   UNL A   1      44.399  44.780  20.003  1.00  0.00     0.013 A 
ATOM     30  C   UNL A   1      42.227  43.167  19.311  1.00  0.00     0.040 A 
ATOM     31  C   UNL A   1      43.899  44.802  18.698  1.00  0.00     0.040 A 
ATOM     32  C   UNL A   1      42.814  44.001  18.367  1.00  0.00     0.123 A 
ATOM     33  F   UNL A   1      42.325  44.034  17.120  1.00  0.00    -0.207 F 
ENDBRANCH  12  27
ENDBRANCH   9  10
ENDBRANCH   8   9
ENDBRANCH   6   8
ENDBRANCH   5   6
ENDBRANCH   4   5
ENDBRANCH   3   4
ENDBRANCH   2   3
ENDBRANCH   1   2
BRANCH   1  34
ATOM     34  C   UNL A   1      42.538  41.904  33.375  1.00  0.00     0.188 C 
BRANCH  34  35
ATOM     35  O   UNL A   1      42.569  40.717  32.587  1.00  0.00    -0.377 OA
BRANCH  35  36
ATOM     36  C   UNL A   1      43.437  39.662  32.959  1.00  0.00     0.188 C 
BRANCH  36  37
ATOM     37  C   UNL A   1      44.442  39.167  31.916  1.00  0.00     0.188 C 
BRANCH  37  38
ATOM     38  O   UNL A   1      44.096  38.150  30.987  1.00  0.00    -0.376 OA
BRANCH  38  39
ATOM     39  C   UNL A   1      43.572  38.449  29.701  1.00  0.00     0.202 C 
BRANCH  39  40
ATOM     40  C   UNL A   1      43.628  37.439  28.554  1.00  0.00     0.261 C 
BRANCH  40  41
ATOM     41  O   UNL A   1      44.514  36.361  28.811  1.00  0.00    -0.460 OA
BRANCH  41  42
ATOM     42  C   UNL A   1      45.542  36.303  27.947  1.00  0.00     0.338 C 
ATOM     43  O   UNL A   1      46.082  37.236  27.371  1.00  0.00    -0.246 OA
BRANCH  42  44
ATOM     44  C   UNL A   1      45.867  34.897  27.651  1.00  0.00     0.060 A 
ATOM     45  C   UNL A   1      45.021  34.357  26.672  1.00  0.00     0.016 A 
ATOM     46  C   UNL A   1      46.131  34.235  28.851  1.00  0.00     0.016 A 
ATOM     47  C   UNL A   1      44.120  33.399  27.076  1.00  0.00     0.010 A 
ATOM     48  C   UNL A   1      45.166  33.368  29.296  1.00  0.00     0.010 A 
ATOM     49  C   UNL A   1      44.145  32.993  28.415  1.00  0.00    -0.014 A 
BRANCH  49  50
ATOM     50  C   UNL A   1      43.162  31.998  28.839  1.00  0.00     0.031 A 
ATOM     51  C   UNL A   1      43.596  30.630  28.285  1.00  0.00     0.074 A 
ATOM     52  C   UNL A   1      42.087  32.493  29.529  1.00  0.00     0.049 A 
ATOM     53  N   UNL A   1      42.893  29.664  27.779  1.00  0.00    -0.248 NA
ATOM     54  C   UNL A   1      45.060  30.346  28.153  1.00  0.00     0.031 C 
ATOM     55  C   UNL A   1      41.910  33.902  29.975  1.00  0.00     0.029 A 
ATOM     56  N   UNL A   1      40.919  31.932  29.990  1.00  0.00    -0.354 N 
ATOM     57  C   UNL A   1      43.791  28.615  27.481  1.00  0.00     0.074 A 
ATOM     58  C   UNL A   1      45.108  29.153  27.566  1.00  0.00     0.031 C 
ATOM     59  C   UNL A   1      40.696  34.086  30.547  1.00  0.00     0.029 A 
ATOM     60  C   UNL A   1      39.961  32.838  30.528  1.00  0.00     0.049 A 
ATOM     61  H   UNL A   1      40.755  30.962  29.952  1.00  0.00     0.167 HD
ATOM     62  C   UNL A   1      43.408  27.312  27.378  1.00  0.00     0.037 A 
ATOM     63  C   UNL A   1      38.647  32.596  30.844  1.00  0.00     0.037 A 
ATOM     64  C   UNL A   1      42.004  27.207  27.571  1.00  0.00     0.049 A 
ATOM     65  C   UNL A   1      38.470  31.176  30.511  1.00  0.00     0.074 A 
ATOM     66  C   UNL A   1      40.913  27.370  26.767  1.00  0.00     0.029 A 
ATOM     67  N   UNL A   1      41.590  27.129  28.876  1.00  0.00    -0.354 N 
ATOM     68  N   UNL A   1      38.928  30.181  31.205  1.00  0.00    -0.248 NA
ATOM     69  C   UNL A   1      37.878  30.853  29.211  1.00  0.00     0.031 C 
ATOM     70  C   UNL A   1      39.868  27.716  27.655  1.00  0.00     0.029 A 
ATOM     71  C   UNL A   1      40.356  27.721  28.965  1.00  0.00     0.049 A 
ATOM     72  H   UNL A   1      42.092  26.722  29.619  1.00  0.00     0.167 HD
ATOM     73  C   UNL A   1      38.953  29.154  30.289  1.00  0.00     0.074 A 
ATOM     74  C   UNL A   1      38.058  29.538  29.219  1.00  0.00     0.031 C 
ATOM     75  C   UNL A   1      39.999  28.291  30.244  1.00  0.00     0.037 A 
BRANCH  62  76
ATOM     76  C   UNL A   1      44.196  26.031  27.443  1.00  0.00     0.057 A 
ATOM     77  C   UNL A   1      44.057  25.127  26.364  1.00  0.00     0.134 A 
ATOM     78  C   UNL A   1      44.729  25.493  28.620  1.00  0.00     0.134 A 
ATOM     79  F   UNL A   1      43.626  25.545  25.163  1.00  0.00    -0.206 F 
ATOM     80  C   UNL A   1      44.262  23.753  26.503  1.00  0.00     0.040 A 
ATOM     81  C   UNL A   1      44.994  24.123  28.752  1.00  0.00     0.040 A 
ATOM     82  F   UNL A   1      44.919  26.239  29.715  1.00  0.00    -0.206 F 
ATOM     83  C   UNL A   1      44.708  23.243  27.712  1.00  0.00     0.006 A 
ENDBRANCH  62  76
BRANCH  63  84
ATOM     84  C   UNL A   1      37.394  33.357  31.231  1.00  0.00     0.057 A 
ATOM     85  C   UNL A   1      36.432  33.869  30.358  1.00  0.00     0.134 A 
ATOM     86  C   UNL A   1      37.088  33.581  32.606  1.00  0.00     0.134 A 
ATOM     87  F   UNL A   1      36.630  33.869  29.035  1.00  0.00    -0.206 F 
ATOM     88  C   UNL A   1      35.220  34.439  30.816  1.00  0.00     0.040 A 
ATOM     89  C   UNL A   1      35.877  34.102  33.075  1.00  0.00     0.040 A 
ATOM     90  F   UNL A   1      37.964  33.308  33.583  1.00  0.00    -0.206 F 
ATOM     91  C   UNL A   1      34.920  34.519  32.173  1.00  0.00     0.006 A 
ENDBRANCH  63  84
BRANCH  75  92
ATOM     92  C   UNL A   1      40.900  28.362  31.474  1.00  0.00     0.057 A 
ATOM     93  C   UNL A   1      40.439  27.933  32.721  1.00  0.00     0.134 A 
ATOM     94  C   UNL A   1      42.164  28.977  31.484  1.00  0.00     0.134 A 
ATOM     95  F   UNL A   1      39.249  27.325  32.823  1.00  0.00    -0.206 F 
ATOM     96  C   UNL A   1      41.181  28.122  33.899  1.00  0.00     0.040 A 
ATOM     97  C   UNL A   1      42.922  29.174  32.646  1.00  0.00     0.040 A 
ATOM     98  F   UNL A   1      42.716  29.405  30.355  1.00  0.00    -0.206 F 
ATOM     99  C   UNL A   1      42.424  28.751  33.865  1.00  0.00     0.006 A 
ENDBRANCH  75  92
ENDBRANCH  49  50
ENDBRANCH  42  44
ENDBRANCH  41  42
ENDBRANCH  40  41
ENDBRANCH  39  40
ENDBRANCH  38  39
ENDBRANCH  37  38
ENDBRANCH  36  37
ENDBRANCH  35  36
ENDBRANCH  34  35
ENDBRANCH   1  34
TORSDOF 26
ENDMDL
MODEL 3
REMARK VINA RESULT:      -6.6      4.376     10.150
REMARK SMILES CN(C)S(=O)(=O)c1ccc(-n2c(CCC(=O)OCCOCCOCCOCCOC(=O)c3ccc(-c4c5nc(c(-c6c(F)cccc6F)c6ccc([nH]6)c(-c6c(F)cccc6F)c6nc(c(-c7c(F)cccc7F)c7ccc4[nH]7)C=C6)C=C5)cc3)ccc2-c2ccc(F)cc2)cc1
REMARK SMILES IDX 21 1 20 2 19 3 18 4 17 5 15 6 16 7 14 8 13 9 12 10 11 11
REMARK SMILES IDX 88 12 86 13 87 14 10 15 7 16 8 17 97 18 9 19 96 20 4 21 5 22
REMARK SMILES IDX 6 23 2 24 1 25 3 26 89 27 90 28 95 29 91 30 94 31 92 32
REMARK SMILES IDX 93 33 22 34 23 35 24 36 25 37 26 38 27 39 28 40 29 41 30 42
REMARK SMILES IDX 31 43 32 44 33 45 85 46 34 47 84 48 35 49 36 50 37 51 78 52
REMARK SMILES IDX 38 53 83 54 77 55 79 56 39 57 82 58 76 59 75 60 40 62 66 63
REMARK SMILES IDX 49 64 65 65 50 66 53 67 64 68 80 69 51 70 52 71 63 73 81 74
REMARK SMILES IDX 54 75 41 76 42 77 47 78 43 79 44 80 46 81 48 82 45 83 67 84
REMARK SMILES IDX 68 85 73 86 69 87 70 88 72 89 74 90 71 91 55 92 56 93 61 94
REMARK SMILES IDX 57 95 58 96 60 97 62 98 59 99
REMARK H PARENT 79 61 53 72
REMARK Flexibility Score: inf
ROOT
ATOM      1  C   UNL A   1      32.429  24.496  26.087  1.00  0.00     0.188 C 
ENDROOT
BRANCH   1   2
ATOM      2  O   UNL A   1      33.668  24.397  25.174  1.00  0.00    -0.376 OA
BRANCH   2   3
ATOM      3  C   UNL A   1      35.642  24.166  24.986  1.00  0.00     0.202 C 
BRANCH   3   4
ATOM      4  C   UNL A   1      36.824  23.385  25.978  1.00  0.00     0.261 C 
BRANCH   4   5
ATOM      5  O   UNL A   1      38.230  23.432  25.596  1.00  0.00    -0.463 OA
BRANCH   5   6
ATOM      6  C   UNL A   1      39.139  23.408  26.611  1.00  0.00     0.306 C 
ATOM      7  O   UNL A   1      39.782  22.409  26.922  1.00  0.00    -0.252 OA
BRANCH   6   8
ATOM      8  C   UNL A   1      39.394  24.762  27.279  1.00  0.00     0.129 C 
BRANCH   8   9
ATOM      9  C   UNL A   1      40.687  25.029  28.067  1.00  0.00     0.066 C 
BRANCH   9  10
ATOM     10  C   UNL A   1      41.826  25.488  27.230  1.00  0.00     0.024 A 
ATOM     11  N   UNL A   1      43.135  25.665  27.674  1.00  0.00    -0.314 N 
ATOM     12  C   UNL A   1      43.927  25.886  26.524  1.00  0.00     0.053 A 
ATOM     13  C   UNL A   1      41.761  25.859  25.901  1.00  0.00     0.024 A 
ATOM     14  C   UNL A   1      43.067  26.112  25.463  1.00  0.00     0.029 A 
BRANCH  11  15
ATOM     15  C   UNL A   1      43.607  25.586  29.032  1.00  0.00     0.046 A 
ATOM     16  C   UNL A   1      44.638  25.145  32.470  1.00  0.00     0.082 A 
ATOM     17  C   UNL A   1      44.160  23.736  31.481  1.00  0.00     0.024 A 
ATOM     18  C   UNL A   1      44.571  26.809  31.800  1.00  0.00     0.024 A 
ATOM     19  C   UNL A   1      43.693  23.938  29.765  1.00  0.00     0.028 A 
ATOM     20  C   UNL A   1      44.079  27.044  30.062  1.00  0.00     0.028 A 
BRANCH  16  21
ATOM     21  S   UNL A   1      45.450  24.764  33.984  1.00  0.00     0.242 S 
ATOM     22  O   UNL A   1      46.078  25.996  34.448  1.00  0.00    -0.207 OA
ATOM     23  O   UNL A   1      46.229  23.582  33.736  1.00  0.00    -0.207 OA
BRANCH  21  24
ATOM     24  N   UNL A   1      44.224  24.378  35.120  1.00  0.00    -0.204 NA
ATOM     25  C   UNL A   1      43.758  22.974  34.962  1.00  0.00     0.124 C 
ATOM     26  C   UNL A   1      44.549  24.638  36.543  1.00  0.00     0.124 C 
ENDBRANCH  21  24
ENDBRANCH  16  21
ENDBRANCH  11  15
BRANCH  12  27
ATOM     27  C   UNL A   1      45.392  25.802  26.412  1.00  0.00    -0.001 A 
ATOM     28  C   UNL A   1      46.130  26.890  25.917  1.00  0.00     0.013 A 
ATOM     29  C   UNL A   1      46.075  24.636  26.792  1.00  0.00     0.013 A 
ATOM     30  C   UNL A   1      47.527  26.838  25.873  1.00  0.00     0.040 A 
ATOM     31  C   UNL A   1      47.472  24.590  26.763  1.00  0.00     0.040 A 
ATOM     32  C   UNL A   1      48.184  25.694  26.311  1.00  0.00     0.123 A 
ATOM     33  F   UNL A   1      49.523  25.656  26.299  1.00  0.00    -0.207 F 
ENDBRANCH  12  27
ENDBRANCH   9  10
ENDBRANCH   8   9
ENDBRANCH   6   8
ENDBRANCH   5   6
ENDBRANCH   4   5
ENDBRANCH   3   4
ENDBRANCH   2   3
ENDBRANCH   1   2
BRANCH   1  34
ATOM     34  C   UNL A   1      31.874  25.924  26.178  1.00  0.00     0.188 C 
BRANCH  34  35
ATOM     35  O   UNL A   1      32.795  26.984  26.422  1.00  0.00    -0.377 OA
BRANCH  35  36
ATOM     36  C   UNL A   1      32.298  28.271  26.743  1.00  0.00     0.188 C 
BRANCH  36  37
ATOM     37  C   UNL A   1      33.303  29.323  27.221  1.00  0.00     0.188 C 
BRANCH  37  38
ATOM     38  O   UNL A   1      32.911  30.670  27.435  1.00  0.00    -0.376 OA
BRANCH  38  39
ATOM     39  C   UNL A   1      33.857  31.723  27.558  1.00  0.00     0.202 C 
BRANCH  39  40
ATOM     40  C   UNL A   1      34.004  32.527  28.850  1.00  0.00     0.261 C 
BRANCH  40  41
ATOM     41  O   UNL A   1      34.739  31.838  29.848  1.00  0.00    -0.460 OA
BRANCH  41  42
ATOM     42  C   UNL A   1      35.216  32.648  30.809  1.00  0.00     0.338 C 
ATOM     43  O   UNL A   1      34.929  32.638  31.998  1.00  0.00    -0.246 OA
BRANCH  42  44
ATOM     44  C   UNL A   1      36.060  33.695  30.209  1.00  0.00     0.060 A 
ATOM     45  C   UNL A   1      36.782  33.219  29.106  1.00  0.00     0.016 A 
ATOM     46  C   UNL A   1      36.664  34.426  31.233  1.00  0.00     0.016 A 
ATOM     47  C   UNL A   1      38.145  33.094  29.250  1.00  0.00     0.010 A 
ATOM     48  C   UNL A   1      38.002  34.202  31.436  1.00  0.00     0.010 A 
ATOM     49  C   UNL A   1      38.719  33.499  30.460  1.00  0.00    -0.014 A 
BRANCH  49  50
ATOM     50  C   UNL A   1      40.163  33.333  30.613  1.00  0.00     0.031 A 
ATOM     51  C   UNL A   1      40.412  32.315  31.739  1.00  0.00     0.074 A 
ATOM     52  C   UNL A   1      40.934  34.140  29.817  1.00  0.00     0.049 A 
ATOM     53  N   UNL A   1      41.306  32.299  32.679  1.00  0.00    -0.248 NA
ATOM     54  C   UNL A   1      39.425  31.205  31.927  1.00  0.00     0.031 C 
ATOM     55  C   UNL A   1      40.432  35.054  28.755  1.00  0.00     0.029 A 
ATOM     56  N   UNL A   1      42.286  34.375  29.736  1.00  0.00    -0.354 N 
ATOM     57  C   UNL A   1      41.116  31.103  33.406  1.00  0.00     0.074 A 
ATOM     58  C   UNL A   1      39.854  30.569  33.014  1.00  0.00     0.031 C 
ATOM     59  C   UNL A   1      41.439  35.783  28.219  1.00  0.00     0.029 A 
ATOM     60  C   UNL A   1      42.685  35.433  28.870  1.00  0.00     0.049 A 
ATOM     61  H   UNL A   1      42.940  33.844  30.244  1.00  0.00     0.167 HD
ATOM     62  C   UNL A   1      42.099  30.513  34.142  1.00  0.00     0.037 A 
ATOM     63  C   UNL A   1      43.918  36.027  28.768  1.00  0.00     0.037 A 
ATOM     64  C   UNL A   1      43.280  31.301  34.086  1.00  0.00     0.049 A 
ATOM     65  C   UNL A   1      44.732  35.302  29.753  1.00  0.00     0.074 A 
ATOM     66  C   UNL A   1      43.730  32.401  34.758  1.00  0.00     0.029 A 
ATOM     67  N   UNL A   1      44.088  31.080  33.000  1.00  0.00    -0.354 N 
ATOM     68  N   UNL A   1      45.186  34.096  29.606  1.00  0.00    -0.248 NA
ATOM     69  C   UNL A   1      44.907  35.914  31.072  1.00  0.00     0.031 C 
ATOM     70  C   UNL A   1      44.629  33.021  33.860  1.00  0.00     0.029 A 
ATOM     71  C   UNL A   1      44.715  32.260  32.691  1.00  0.00     0.049 A 
ATOM     72  H   UNL A   1      44.197  30.224  32.525  1.00  0.00     0.167 HD
ATOM     73  C   UNL A   1      45.426  33.699  30.902  1.00  0.00     0.074 A 
ATOM     74  C   UNL A   1      45.511  34.908  31.692  1.00  0.00     0.031 C 
ATOM     75  C   UNL A   1      45.107  32.445  31.312  1.00  0.00     0.037 A 
BRANCH  62  76
ATOM     76  C   UNL A   1      42.247  29.111  34.669  1.00  0.00     0.057 A 
ATOM     77  C   UNL A   1      41.965  28.048  33.780  1.00  0.00     0.134 A 
ATOM     78  C   UNL A   1      42.253  28.778  36.029  1.00  0.00     0.134 A 
ATOM     79  F   UNL A   1      42.002  28.232  32.450  1.00  0.00    -0.206 F 
ATOM     80  C   UNL A   1      41.542  26.792  34.218  1.00  0.00     0.040 A 
ATOM     81  C   UNL A   1      41.888  27.502  36.478  1.00  0.00     0.040 A 
ATOM     82  F   UNL A   1      42.511  29.687  36.978  1.00  0.00    -0.206 F 
ATOM     83  C   UNL A   1      41.477  26.524  35.577  1.00  0.00     0.006 A 
ENDBRANCH  62  76
BRANCH  63  84
ATOM     84  C   UNL A   1      44.568  37.233  28.117  1.00  0.00     0.057 A 
ATOM     85  C   UNL A   1      45.789  37.252  27.440  1.00  0.00     0.134 A 
ATOM     86  C   UNL A   1      43.908  38.498  28.131  1.00  0.00     0.134 A 
ATOM     87  F   UNL A   1      46.602  36.189  27.450  1.00  0.00    -0.206 F 
ATOM     88  C   UNL A   1      46.248  38.392  26.737  1.00  0.00     0.040 A 
ATOM     89  C   UNL A   1      44.326  39.618  27.405  1.00  0.00     0.040 A 
ATOM     90  F   UNL A   1      42.809  38.718  28.865  1.00  0.00    -0.206 F 
ATOM     91  C   UNL A   1      45.499  39.563  26.683  1.00  0.00     0.006 A 
ENDBRANCH  63  84
BRANCH  75  92
ATOM     92  C   UNL A   1      44.817  31.484  30.163  1.00  0.00     0.057 A 
ATOM     93  C   UNL A   1      45.852  31.004  29.356  1.00  0.00     0.134 A 
ATOM     94  C   UNL A   1      43.522  31.132  29.744  1.00  0.00     0.134 A 
ATOM     95  F   UNL A   1      47.127  31.274  29.669  1.00  0.00    -0.206 F 
ATOM     96  C   UNL A   1      45.609  30.242  28.201  1.00  0.00     0.040 A 
ATOM     97  C   UNL A   1      43.256  30.371  28.598  1.00  0.00     0.040 A 
ATOM     98  F   UNL A   1      42.459  31.511  30.445  1.00  0.00    -0.206 F 
ATOM     99  C   UNL A   1      44.308  29.930  27.814  1.00  0.00     0.006 A 
ENDBRANCH  75  92
ENDBRANCH  49  50
ENDBRANCH  42  44
ENDBRANCH  41  42
ENDBRANCH  40  41
ENDBRANCH  39  40
ENDBRANCH  38  39
ENDBRANCH  37  38
ENDBRANCH  36  37
ENDBRANCH  35  36
ENDBRANCH  34  35
ENDBRANCH   1  34
TORSDOF 26
ENDMDL
