MODEL 1
REMARK VINA RESULT:      -9.0      0.000      0.000
REMARK SMILES CC(C)Cc1ccc([C@H](CF)C(=O)OCCOCCOCCOCCOC(=O)c2ccc(-c3c4nc(c(-c5c(F)cccc5F)c5ccc([nH]5)c(-c5c(F)cccc5F)c5nc(c(-c6c(F)cccc6F)c6ccc3[nH]6)C=C5)C=C4)cc2)cc1
REMARK SMILES IDX 19 1 18 2 17 3 16 4 15 5 14 6 12 7 13 8 9 9 8 10 5 11 6 12
REMARK SMILES IDX 84 13 7 14 83 15 4 16 2 17 1 18 3 19 10 20 11 21 20 22 21 23
REMARK SMILES IDX 22 24 23 25 24 26 25 27 26 28 27 29 28 30 29 31 30 32 82 33
REMARK SMILES IDX 31 34 81 35 32 36 33 37 34 38 75 39 35 40 80 41 74 42 76 43
REMARK SMILES IDX 36 44 79 45 73 46 72 47 37 49 63 50 46 51 62 52 47 53 50 54
REMARK SMILES IDX 61 55 77 56 48 57 49 58 60 60 78 61 51 62 38 63 39 64 44 65
REMARK SMILES IDX 40 66 41 67 43 68 45 69 42 70 64 71 65 72 70 73 66 74 67 75
REMARK SMILES IDX 69 76 71 77 68 78 52 79 53 80 58 81 54 82 55 83 57 84 59 85
REMARK SMILES IDX 56 86
REMARK H PARENT 76 48 50 59
REMARK Flexibility Score: inf
ROOT
ATOM      1  C   UNL A   1      40.537  22.049  26.971  1.00  0.00     0.188 C 
ENDROOT
BRANCH   1   2
ATOM      2  C   UNL A   1      39.179  22.254  26.291  1.00  0.00     0.188 C 
BRANCH   2   3
ATOM      3  O   UNL A   1      38.630  23.535  26.537  1.00  0.00    -0.376 OA
BRANCH   3   4
ATOM      4  C   UNL A   1      37.324  23.805  26.065  1.00  0.00     0.202 C 
BRANCH   4   5
ATOM      5  C   UNL A   1      36.591  22.812  25.140  1.00  0.00     0.261 C 
BRANCH   5   6
ATOM      6  O   UNL A   1      35.657  23.320  24.168  1.00  0.00    -0.463 OA
BRANCH   6   7
ATOM      7  C   UNL A   1      34.458  23.747  24.628  1.00  0.00     0.316 C 
ATOM      8  O   UNL A   1      34.324  24.394  25.664  1.00  0.00    -0.251 OA
BRANCH   7   9
ATOM      9  C   UNL A   1      33.267  23.233  23.811  1.00  0.00     0.160 C 
BRANCH   9  10
ATOM     10  C   UNL A   1      32.968  21.840  24.309  1.00  0.00    -0.031 A 
ATOM     11  C   UNL A   1      32.763  19.200  25.200  1.00  0.00    -0.048 A 
ATOM     12  C   UNL A   1      33.225  20.203  26.062  1.00  0.00     0.004 A 
ATOM     13  C   UNL A   1      32.335  19.550  23.917  1.00  0.00     0.004 A 
ATOM     14  C   UNL A   1      33.318  21.515  25.623  1.00  0.00     0.005 A 
ATOM     15  C   UNL A   1      32.474  20.849  23.458  1.00  0.00     0.005 A 
BRANCH  11  16
ATOM     16  C   UNL A   1      32.756  17.777  25.698  1.00  0.00     0.038 C 
BRANCH  16  17
ATOM     17  C   UNL A   1      33.093  16.688  24.661  1.00  0.00    -0.013 C 
ATOM     18  C   UNL A   1      34.559  16.738  24.216  1.00  0.00     0.008 C 
ATOM     19  C   UNL A   1      32.775  15.315  25.247  1.00  0.00     0.008 C 
ENDBRANCH  16  17
ENDBRANCH  11  16
ENDBRANCH   9  10
BRANCH   9  20
ATOM     20  C   UNL A   1      33.356  23.279  22.287  1.00  0.00     0.234 C 
ATOM     21  F   UNL A   1      33.422  24.580  21.879  1.00  0.00    -0.250 F 
ENDBRANCH   9  20
ENDBRANCH   7   9
ENDBRANCH   6   7
ENDBRANCH   5   6
ENDBRANCH   4   5
ENDBRANCH   3   4
ENDBRANCH   2   3
ENDBRANCH   1   2
BRANCH   1  22
ATOM     22  O   UNL A   1      40.952  20.733  27.298  1.00  0.00    -0.377 OA
BRANCH  22  23
ATOM     23  C   UNL A   1      41.344  19.852  26.254  1.00  0.00     0.188 C 
BRANCH  23  24
ATOM     24  C   UNL A   1      42.834  19.569  25.954  1.00  0.00     0.188 C 
BRANCH  24  25
ATOM     25  O   UNL A   1      43.403  20.331  24.904  1.00  0.00    -0.376 OA
BRANCH  25  26
ATOM     26  C   UNL A   1      44.143  21.494  25.231  1.00  0.00     0.202 C 
BRANCH  26  27
ATOM     27  C   UNL A   1      43.514  22.860  24.917  1.00  0.00     0.261 C 
BRANCH  27  28
ATOM     28  O   UNL A   1      43.517  23.814  25.988  1.00  0.00    -0.460 OA
BRANCH  28  29
ATOM     29  C   UNL A   1      42.960  25.021  25.731  1.00  0.00     0.338 C 
ATOM     30  O   UNL A   1      42.517  25.422  24.680  1.00  0.00    -0.246 OA
BRANCH  29  31
ATOM     31  C   UNL A   1      42.812  25.717  27.027  1.00  0.00     0.060 A 
ATOM     32  C   UNL A   1      41.802  25.301  27.905  1.00  0.00     0.016 A 
ATOM     33  C   UNL A   1      43.670  26.763  27.372  1.00  0.00     0.016 A 
ATOM     34  C   UNL A   1      41.627  25.954  29.123  1.00  0.00     0.010 A 
ATOM     35  C   UNL A   1      43.473  27.437  28.578  1.00  0.00     0.010 A 
ATOM     36  C   UNL A   1      42.429  27.056  29.440  1.00  0.00    -0.014 A 
BRANCH  36  37
ATOM     37  C   UNL A   1      42.029  27.942  30.557  1.00  0.00     0.031 A 
ATOM     38  C   UNL A   1      40.853  28.855  30.345  1.00  0.00     0.074 A 
ATOM     39  C   UNL A   1      42.673  27.922  31.737  1.00  0.00     0.049 A 
ATOM     40  N   UNL A   1      40.344  29.755  31.144  1.00  0.00    -0.248 NA
ATOM     41  C   UNL A   1      40.157  28.735  29.051  1.00  0.00     0.031 C 
ATOM     42  C   UNL A   1      43.796  27.050  32.074  1.00  0.00     0.029 A 
ATOM     43  N   UNL A   1      42.475  28.672  32.870  1.00  0.00    -0.354 N 
ATOM     44  C   UNL A   1      39.284  30.319  30.446  1.00  0.00     0.074 A 
ATOM     45  C   UNL A   1      39.230  29.675  29.153  1.00  0.00     0.031 C 
ATOM     46  C   UNL A   1      44.205  27.334  33.324  1.00  0.00     0.029 A 
ATOM     47  C   UNL A   1      43.395  28.427  33.858  1.00  0.00     0.049 A 
ATOM     48  H   UNL A   1      41.743  29.323  32.963  1.00  0.00     0.167 HD
ATOM     49  C   UNL A   1      38.429  31.287  30.850  1.00  0.00     0.037 A 
ATOM     50  C   UNL A   1      43.577  29.041  35.045  1.00  0.00     0.037 A 
ATOM     51  C   UNL A   1      38.482  31.918  32.141  1.00  0.00     0.049 A 
ATOM     52  C   UNL A   1      42.647  30.159  35.446  1.00  0.00     0.074 A 
ATOM     53  C   UNL A   1      37.637  32.883  32.660  1.00  0.00     0.029 A 
ATOM     54  N   UNL A   1      39.436  31.654  33.110  1.00  0.00    -0.354 N 
ATOM     55  N   UNL A   1      41.623  30.659  34.797  1.00  0.00    -0.248 NA
ATOM     56  C   UNL A   1      42.896  30.796  36.748  1.00  0.00     0.031 C 
ATOM     57  C   UNL A   1      38.122  33.252  33.919  1.00  0.00     0.029 A 
ATOM     58  C   UNL A   1      39.224  32.465  34.212  1.00  0.00     0.049 A 
ATOM     59  H   UNL A   1      40.158  30.990  33.028  1.00  0.00     0.167 HD
ATOM     60  C   UNL A   1      41.088  31.641  35.623  1.00  0.00     0.074 A 
ATOM     61  C   UNL A   1      41.892  31.656  36.826  1.00  0.00     0.031 C 
ATOM     62  C   UNL A   1      40.027  32.458  35.408  1.00  0.00     0.037 A 
BRANCH  49  63
ATOM     63  C   UNL A   1      37.388  31.754  29.876  1.00  0.00     0.057 A 
ATOM     64  C   UNL A   1      37.567  32.893  29.081  1.00  0.00     0.134 A 
ATOM     65  C   UNL A   1      36.211  31.016  29.694  1.00  0.00     0.134 A 
ATOM     66  F   UNL A   1      38.663  33.654  29.219  1.00  0.00    -0.206 F 
ATOM     67  C   UNL A   1      36.606  33.287  28.147  1.00  0.00     0.040 A 
ATOM     68  C   UNL A   1      35.258  31.383  28.745  1.00  0.00     0.040 A 
ATOM     69  F   UNL A   1      35.978  29.915  30.425  1.00  0.00    -0.206 F 
ATOM     70  C   UNL A   1      35.454  32.524  27.969  1.00  0.00     0.006 A 
ENDBRANCH  49  63
BRANCH  50  71
ATOM     71  C   UNL A   1      44.707  28.649  35.928  1.00  0.00     0.057 A 
ATOM     72  C   UNL A   1      45.975  29.230  35.798  1.00  0.00     0.134 A 
ATOM     73  C   UNL A   1      44.559  27.642  36.892  1.00  0.00     0.134 A 
ATOM     74  F   UNL A   1      46.190  30.182  34.879  1.00  0.00    -0.206 F 
ATOM     75  C   UNL A   1      47.058  28.804  36.569  1.00  0.00     0.040 A 
ATOM     76  C   UNL A   1      45.626  27.228  37.690  1.00  0.00     0.040 A 
ATOM     77  F   UNL A   1      43.372  27.043  37.069  1.00  0.00    -0.206 F 
ATOM     78  C   UNL A   1      46.884  27.801  37.521  1.00  0.00     0.006 A 
ENDBRANCH  50  71
BRANCH  62  79
ATOM     79  C   UNL A   1      39.641  33.401  36.512  1.00  0.00     0.057 A 
ATOM     80  C   UNL A   1      38.781  33.021  37.549  1.00  0.00     0.134 A 
ATOM     81  C   UNL A   1      40.180  34.693  36.561  1.00  0.00     0.134 A 
ATOM     82  F   UNL A   1      38.223  31.801  37.558  1.00  0.00    -0.206 F 
ATOM     83  C   UNL A   1      38.451  33.900  38.582  1.00  0.00     0.040 A 
ATOM     84  C   UNL A   1      39.884  35.570  37.605  1.00  0.00     0.040 A 
ATOM     85  F   UNL A   1      41.022  35.118  35.607  1.00  0.00    -0.206 F 
ATOM     86  C   UNL A   1      39.010  35.176  38.616  1.00  0.00     0.006 A 
ENDBRANCH  62  79
ENDBRANCH  36  37
ENDBRANCH  29  31
ENDBRANCH  28  29
ENDBRANCH  27  28
ENDBRANCH  26  27
ENDBRANCH  25  26
ENDBRANCH  24  25
ENDBRANCH  23  24
ENDBRANCH  22  23
ENDBRANCH   1  22
TORSDOF 24
ENDMDL
MODEL 2
REMARK VINA RESULT:      -8.5      5.500     10.592
REMARK SMILES CC(C)Cc1ccc([C@H](CF)C(=O)OCCOCCOCCOCCOC(=O)c2ccc(-c3c4nc(c(-c5c(F)cccc5F)c5ccc([nH]5)c(-c5c(F)cccc5F)c5nc(c(-c6c(F)cccc6F)c6ccc3[nH]6)C=C5)C=C4)cc2)cc1
REMARK SMILES IDX 19 1 18 2 17 3 16 4 15 5 14 6 12 7 13 8 9 9 8 10 5 11 6 12
REMARK SMILES IDX 84 13 7 14 83 15 4 16 2 17 1 18 3 19 10 20 11 21 20 22 21 23
REMARK SMILES IDX 22 24 23 25 24 26 25 27 26 28 27 29 28 30 29 31 30 32 82 33
REMARK SMILES IDX 31 34 81 35 32 36 33 37 34 38 75 39 35 40 80 41 74 42 76 43
REMARK SMILES IDX 36 44 79 45 73 46 72 47 37 49 63 50 46 51 62 52 47 53 50 54
REMARK SMILES IDX 61 55 77 56 48 57 49 58 60 60 78 61 51 62 38 63 39 64 44 65
REMARK SMILES IDX 40 66 41 67 43 68 45 69 42 70 64 71 65 72 70 73 66 74 67 75
REMARK SMILES IDX 69 76 71 77 68 78 52 79 53 80 58 81 54 82 55 83 57 84 59 85
REMARK SMILES IDX 56 86
REMARK H PARENT 76 48 50 59
REMARK Flexibility Score: inf
ROOT
ATOM      1  C   UNL A   1      46.006  24.086  24.562  1.00  0.00     0.188 C 
ENDROOT
BRANCH   1   2
ATOM      2  C   UNL A   1      46.787  22.792  24.312  1.00  0.00     0.188 C 
BRANCH   2   3
ATOM      3  O   UNL A   1      46.054  21.632  24.657  1.00  0.00    -0.376 OA
BRANCH   3   4
ATOM      4  C   UNL A   1      44.642  21.686  24.586  1.00  0.00     0.202 C 
BRANCH   4   5
ATOM      5  C   UNL A   1      43.766  20.745  25.437  1.00  0.00     0.261 C 
BRANCH   5   6
ATOM      6  O   UNL A   1      42.392  21.102  25.685  1.00  0.00    -0.463 OA
BRANCH   6   7
ATOM      7  C   UNL A   1      41.913  20.889  26.932  1.00  0.00     0.316 C 
ATOM      8  O   UNL A   1      41.836  19.774  27.444  1.00  0.00    -0.251 OA
BRANCH   7   9
ATOM      9  C   UNL A   1      41.348  22.148  27.598  1.00  0.00     0.160 C 
BRANCH   9  10
ATOM     10  C   UNL A   1      40.079  22.497  26.859  1.00  0.00    -0.031 A 
ATOM     11  C   UNL A   1      37.572  23.147  25.810  1.00  0.00    -0.048 A 
ATOM     12  C   UNL A   1      38.363  24.132  26.414  1.00  0.00     0.004 A 
ATOM     13  C   UNL A   1      38.086  21.854  25.671  1.00  0.00     0.004 A 
ATOM     14  C   UNL A   1      39.611  23.813  26.927  1.00  0.00     0.005 A 
ATOM     15  C   UNL A   1      39.308  21.519  26.226  1.00  0.00     0.005 A 
BRANCH  11  16
ATOM     16  C   UNL A   1      36.191  23.527  25.340  1.00  0.00     0.038 C 
BRANCH  16  17
ATOM     17  C   UNL A   1      35.691  22.836  24.057  1.00  0.00    -0.013 C 
ATOM     18  C   UNL A   1      34.346  23.396  23.578  1.00  0.00     0.008 C 
ATOM     19  C   UNL A   1      36.738  22.991  22.957  1.00  0.00     0.008 C 
ENDBRANCH  16  17
ENDBRANCH  11  16
ENDBRANCH   9  10
BRANCH   9  20
ATOM     20  C   UNL A   1      42.262  23.362  27.753  1.00  0.00     0.234 C 
ATOM     21  F   UNL A   1      42.044  23.938  28.971  1.00  0.00    -0.250 F 
ENDBRANCH   9  20
ENDBRANCH   7   9
ENDBRANCH   6   7
ENDBRANCH   5   6
ENDBRANCH   4   5
ENDBRANCH   3   4
ENDBRANCH   2   3
ENDBRANCH   1   2
BRANCH   1  22
ATOM     22  O   UNL A   1      46.665  25.331  24.403  1.00  0.00    -0.377 OA
BRANCH  22  23
ATOM     23  C   UNL A   1      48.010  25.347  23.942  1.00  0.00     0.188 C 
BRANCH  23  24
ATOM     24  C   UNL A   1      48.621  26.603  23.281  1.00  0.00     0.188 C 
BRANCH  24  25
ATOM     25  O   UNL A   1      48.657  26.594  21.865  1.00  0.00    -0.376 OA
BRANCH  25  26
ATOM     26  C   UNL A   1      49.894  26.828  21.214  1.00  0.00     0.202 C 
BRANCH  26  27
ATOM     27  C   UNL A   1      50.822  27.905  21.797  1.00  0.00     0.261 C 
BRANCH  27  28
ATOM     28  O   UNL A   1      52.167  27.494  22.074  1.00  0.00    -0.460 OA
BRANCH  28  29
ATOM     29  C   UNL A   1      52.834  28.188  23.025  1.00  0.00     0.338 C 
ATOM     30  O   UNL A   1      53.737  28.976  22.868  1.00  0.00    -0.246 OA
BRANCH  29  31
ATOM     31  C   UNL A   1      52.135  27.953  24.306  1.00  0.00     0.060 A 
ATOM     32  C   UNL A   1      51.876  26.634  24.702  1.00  0.00     0.016 A 
ATOM     33  C   UNL A   1      51.748  29.028  25.109  1.00  0.00     0.016 A 
ATOM     34  C   UNL A   1      51.199  26.386  25.894  1.00  0.00     0.010 A 
ATOM     35  C   UNL A   1      51.041  28.779  26.287  1.00  0.00     0.010 A 
ATOM     36  C   UNL A   1      50.735  27.459  26.664  1.00  0.00    -0.014 A 
BRANCH  36  37
ATOM     37  C   UNL A   1      49.742  27.204  27.733  1.00  0.00     0.031 A 
ATOM     38  C   UNL A   1      50.243  26.667  29.046  1.00  0.00     0.074 A 
ATOM     39  C   UNL A   1      48.435  27.465  27.556  1.00  0.00     0.049 A 
ATOM     40  N   UNL A   1      49.572  26.315  30.111  1.00  0.00    -0.248 NA
ATOM     41  C   UNL A   1      51.702  26.504  29.172  1.00  0.00     0.031 C 
ATOM     42  C   UNL A   1      47.840  28.026  26.345  1.00  0.00     0.029 A 
ATOM     43  N   UNL A   1      47.370  27.275  28.401  1.00  0.00    -0.354 N 
ATOM     44  C   UNL A   1      50.522  25.874  31.023  1.00  0.00     0.074 A 
ATOM     45  C   UNL A   1      51.814  25.985  30.385  1.00  0.00     0.031 C 
ATOM     46  C   UNL A   1      46.509  28.113  26.517  1.00  0.00     0.029 A 
ATOM     47  C   UNL A   1      46.158  27.583  27.834  1.00  0.00     0.049 A 
ATOM     48  H   UNL A   1      47.467  26.950  29.325  1.00  0.00     0.167 HD
ATOM     49  C   UNL A   1      50.332  25.420  32.283  1.00  0.00     0.037 A 
ATOM     50  C   UNL A   1      44.909  27.422  28.316  1.00  0.00     0.037 A 
ATOM     51  C   UNL A   1      49.044  25.320  32.916  1.00  0.00     0.049 A 
ATOM     52  C   UNL A   1      44.722  26.856  29.702  1.00  0.00     0.074 A 
ATOM     53  C   UNL A   1      48.750  24.907  34.203  1.00  0.00     0.029 A 
ATOM     54  N   UNL A   1      47.839  25.627  32.306  1.00  0.00    -0.354 N 
ATOM     55  N   UNL A   1      45.628  26.479  30.573  1.00  0.00    -0.248 NA
ATOM     56  C   UNL A   1      43.338  26.697  30.174  1.00  0.00     0.031 C 
ATOM     57  C   UNL A   1      47.360  24.900  34.350  1.00  0.00     0.029 A 
ATOM     58  C   UNL A   1      46.794  25.377  33.178  1.00  0.00     0.049 A 
ATOM     59  H   UNL A   1      47.740  25.970  31.388  1.00  0.00     0.167 HD
ATOM     60  C   UNL A   1      44.926  26.072  31.703  1.00  0.00     0.074 A 
ATOM     61  C   UNL A   1      43.522  26.262  31.412  1.00  0.00     0.031 C 
ATOM     62  C   UNL A   1      45.400  25.585  32.877  1.00  0.00     0.037 A 
BRANCH  49  63
ATOM     63  C   UNL A   1      51.535  24.958  33.050  1.00  0.00     0.057 A 
ATOM     64  C   UNL A   1      51.991  23.635  32.998  1.00  0.00     0.134 A 
ATOM     65  C   UNL A   1      52.281  25.869  33.809  1.00  0.00     0.134 A 
ATOM     66  F   UNL A   1      51.313  22.708  32.304  1.00  0.00    -0.206 F 
ATOM     67  C   UNL A   1      53.140  23.233  33.683  1.00  0.00     0.040 A 
ATOM     68  C   UNL A   1      53.445  25.487  34.474  1.00  0.00     0.040 A 
ATOM     69  F   UNL A   1      51.897  27.152  33.901  1.00  0.00    -0.206 F 
ATOM     70  C   UNL A   1      53.876  24.163  34.414  1.00  0.00     0.006 A 
ENDBRANCH  49  63
BRANCH  50  71
ATOM     71  C   UNL A   1      43.730  27.758  27.476  1.00  0.00     0.057 A 
ATOM     72  C   UNL A   1      43.223  26.858  26.531  1.00  0.00     0.134 A 
ATOM     73  C   UNL A   1      43.113  29.014  27.561  1.00  0.00     0.134 A 
ATOM     74  F   UNL A   1      43.783  25.649  26.382  1.00  0.00    -0.206 F 
ATOM     75  C   UNL A   1      42.169  27.203  25.682  1.00  0.00     0.040 A 
ATOM     76  C   UNL A   1      42.039  29.361  26.740  1.00  0.00     0.040 A 
ATOM     77  F   UNL A   1      43.549  29.924  28.444  1.00  0.00    -0.206 F 
ATOM     78  C   UNL A   1      41.572  28.458  25.788  1.00  0.00     0.006 A 
ENDBRANCH  50  71
BRANCH  62  79
ATOM     79  C   UNL A   1      44.400  25.271  33.953  1.00  0.00     0.057 A 
ATOM     80  C   UNL A   1      43.973  26.233  34.876  1.00  0.00     0.134 A 
ATOM     81  C   UNL A   1      43.821  23.998  34.032  1.00  0.00     0.134 A 
ATOM     82  F   UNL A   1      44.494  27.469  34.861  1.00  0.00    -0.206 F 
ATOM     83  C   UNL A   1      43.024  25.933  35.855  1.00  0.00     0.040 A 
ATOM     84  C   UNL A   1      42.848  23.694  34.985  1.00  0.00     0.040 A 
ATOM     85  F   UNL A   1      44.174  23.032  33.170  1.00  0.00    -0.206 F 
ATOM     86  C   UNL A   1      42.452  24.663  35.905  1.00  0.00     0.006 A 
ENDBRANCH  62  79
ENDBRANCH  36  37
ENDBRANCH  29  31
ENDBRANCH  28  29
ENDBRANCH  27  28
ENDBRANCH  26  27
ENDBRANCH  25  26
ENDBRANCH  24  25
ENDBRANCH  23  24
ENDBRANCH  22  23
ENDBRANCH   1  22
TORSDOF 24
ENDMDL
MODEL 3
REMARK VINA RESULT:      -8.4      4.717     10.570
REMARK SMILES CC(C)Cc1ccc([C@H](CF)C(=O)OCCOCCOCCOCCOC(=O)c2ccc(-c3c4nc(c(-c5c(F)cccc5F)c5ccc([nH]5)c(-c5c(F)cccc5F)c5nc(c(-c6c(F)cccc6F)c6ccc3[nH]6)C=C5)C=C4)cc2)cc1
REMARK SMILES IDX 19 1 18 2 17 3 16 4 15 5 14 6 12 7 13 8 9 9 8 10 5 11 6 12
REMARK SMILES IDX 84 13 7 14 83 15 4 16 2 17 1 18 3 19 10 20 11 21 20 22 21 23
REMARK SMILES IDX 22 24 23 25 24 26 25 27 26 28 27 29 28 30 29 31 30 32 82 33
REMARK SMILES IDX 31 34 81 35 32 36 33 37 34 38 75 39 35 40 80 41 74 42 76 43
REMARK SMILES IDX 36 44 79 45 73 46 72 47 37 49 63 50 46 51 62 52 47 53 50 54
REMARK SMILES IDX 61 55 77 56 48 57 49 58 60 60 78 61 51 62 38 63 39 64 44 65
REMARK SMILES IDX 40 66 41 67 43 68 45 69 42 70 64 71 65 72 70 73 66 74 67 75
REMARK SMILES IDX 69 76 71 77 68 78 52 79 53 80 58 81 54 82 55 83 57 84 59 85
REMARK SMILES IDX 56 86
REMARK H PARENT 76 48 50 59
REMARK Flexibility Score: inf
ROOT
ATOM      1  C   UNL A   1      47.513  28.408  26.308  1.00  0.00     0.188 C 
ENDROOT
BRANCH   1   2
ATOM      2  C   UNL A   1      48.014  29.514  27.242  1.00  0.00     0.188 C 
BRANCH   2   3
ATOM      3  O   UNL A   1      48.796  30.486  26.575  1.00  0.00    -0.376 OA
BRANCH   3   4
ATOM      4  C   UNL A   1      48.907  31.771  27.156  1.00  0.00     0.202 C 
BRANCH   4   5
ATOM      5  C   UNL A   1      47.694  32.723  27.219  1.00  0.00     0.261 C 
BRANCH   5   6
ATOM      6  O   UNL A   1      46.773  32.755  26.112  1.00  0.00    -0.463 OA
BRANCH   6   7
ATOM      7  C   UNL A   1      45.459  32.598  26.396  1.00  0.00     0.316 C 
ATOM      8  O   UNL A   1      44.874  31.521  26.304  1.00  0.00    -0.251 OA
BRANCH   7   9
ATOM      9  C   UNL A   1      44.736  33.912  26.710  1.00  0.00     0.160 C 
BRANCH   9  10
ATOM     10  C   UNL A   1      44.289  33.827  28.149  1.00  0.00    -0.031 A 
ATOM     11  C   UNL A   1      43.659  33.377  30.834  1.00  0.00    -0.048 A 
ATOM     12  C   UNL A   1      44.893  33.939  30.481  1.00  0.00     0.004 A 
ATOM     13  C   UNL A   1      42.720  33.117  29.832  1.00  0.00     0.004 A 
ATOM     14  C   UNL A   1      45.202  34.171  29.150  1.00  0.00     0.005 A 
ATOM     15  C   UNL A   1      43.044  33.300  28.499  1.00  0.00     0.005 A 
BRANCH  11  16
ATOM     16  C   UNL A   1      43.403  33.070  32.287  1.00  0.00     0.038 C 
BRANCH  16  17
ATOM     17  C   UNL A   1      44.647  32.911  33.182  1.00  0.00    -0.013 C 
ATOM     18  C   UNL A   1      44.339  33.166  34.663  1.00  0.00     0.008 C 
ATOM     19  C   UNL A   1      45.223  31.509  33.006  1.00  0.00     0.008 C 
ENDBRANCH  16  17
ENDBRANCH  11  16
ENDBRANCH   9  10
BRANCH   9  20
ATOM     20  C   UNL A   1      43.598  34.354  25.792  1.00  0.00     0.234 C 
ATOM     21  F   UNL A   1      42.764  35.189  26.477  1.00  0.00    -0.250 F 
ENDBRANCH   9  20
ENDBRANCH   7   9
ENDBRANCH   6   7
ENDBRANCH   5   6
ENDBRANCH   4   5
ENDBRANCH   3   4
ENDBRANCH   2   3
ENDBRANCH   1   2
BRANCH   1  22
ATOM     22  O   UNL A   1      48.088  28.283  25.018  1.00  0.00    -0.377 OA
BRANCH  22  23
ATOM     23  C   UNL A   1      48.895  27.148  24.728  1.00  0.00     0.188 C 
BRANCH  23  24
ATOM     24  C   UNL A   1      48.365  25.982  23.863  1.00  0.00     0.188 C 
BRANCH  24  25
ATOM     25  O   UNL A   1      47.184  25.357  24.334  1.00  0.00    -0.376 OA
BRANCH  25  26
ATOM     26  C   UNL A   1      47.125  23.941  24.351  1.00  0.00     0.202 C 
BRANCH  26  27
ATOM     27  C   UNL A   1      45.740  23.277  24.287  1.00  0.00     0.261 C 
BRANCH  27  28
ATOM     28  O   UNL A   1      44.615  24.163  24.353  1.00  0.00    -0.460 OA
BRANCH  28  29
ATOM     29  C   UNL A   1      43.460  23.648  24.837  1.00  0.00     0.338 C 
ATOM     30  O   UNL A   1      43.041  22.523  24.703  1.00  0.00    -0.246 OA
BRANCH  29  31
ATOM     31  C   UNL A   1      42.872  24.665  25.734  1.00  0.00     0.060 A 
ATOM     32  C   UNL A   1      43.456  25.938  25.787  1.00  0.00     0.016 A 
ATOM     33  C   UNL A   1      41.749  24.364  26.507  1.00  0.00     0.016 A 
ATOM     34  C   UNL A   1      42.934  26.907  26.639  1.00  0.00     0.010 A 
ATOM     35  C   UNL A   1      41.247  25.326  27.385  1.00  0.00     0.010 A 
ATOM     36  C   UNL A   1      41.860  26.588  27.478  1.00  0.00    -0.014 A 
BRANCH  36  37
ATOM     37  C   UNL A   1      41.529  27.492  28.604  1.00  0.00     0.031 A 
ATOM     38  C   UNL A   1      42.353  27.385  29.858  1.00  0.00     0.074 A 
ATOM     39  C   UNL A   1      40.544  28.401  28.511  1.00  0.00     0.049 A 
ATOM     40  N   UNL A   1      42.229  28.023  30.991  1.00  0.00    -0.248 NA
ATOM     41  C   UNL A   1      43.470  26.424  29.826  1.00  0.00     0.031 C 
ATOM     42  C   UNL A   1      39.708  28.626  27.333  1.00  0.00     0.029 A 
ATOM     43  N   UNL A   1      40.072  29.298  29.437  1.00  0.00    -0.354 N 
ATOM     44  C   UNL A   1      43.237  27.530  31.811  1.00  0.00     0.074 A 
ATOM     45  C   UNL A   1      43.953  26.528  31.055  1.00  0.00     0.031 C 
ATOM     46  C   UNL A   1      38.808  29.584  27.618  1.00  0.00     0.029 A 
ATOM     47  C   UNL A   1      38.984  30.013  29.005  1.00  0.00     0.049 A 
ATOM     48  H   UNL A   1      40.478  29.416  30.326  1.00  0.00     0.167 HD
ATOM     49  C   UNL A   1      43.538  27.885  33.082  1.00  0.00     0.037 A 
ATOM     50  C   UNL A   1      38.202  30.888  29.668  1.00  0.00     0.037 A 
ATOM     51  C   UNL A   1      42.826  28.888  33.826  1.00  0.00     0.049 A 
ATOM     52  C   UNL A   1      38.523  31.221  31.104  1.00  0.00     0.074 A 
ATOM     53  C   UNL A   1      43.078  29.347  35.107  1.00  0.00     0.029 A 
ATOM     54  N   UNL A   1      41.720  29.580  33.360  1.00  0.00    -0.354 N 
ATOM     55  N   UNL A   1      39.501  30.780  31.858  1.00  0.00    -0.248 NA
ATOM     56  C   UNL A   1      37.633  32.177  31.780  1.00  0.00     0.031 C 
ATOM     57  C   UNL A   1      42.082  30.268  35.441  1.00  0.00     0.029 A 
ATOM     58  C   UNL A   1      41.254  30.436  34.343  1.00  0.00     0.049 A 
ATOM     59  H   UNL A   1      41.324  29.478  32.465  1.00  0.00     0.167 HD
ATOM     60  C   UNL A   1      39.364  31.428  33.081  1.00  0.00     0.074 A 
ATOM     61  C   UNL A   1      38.218  32.303  32.962  1.00  0.00     0.031 C 
ATOM     62  C   UNL A   1      40.118  31.312  34.202  1.00  0.00     0.037 A 
BRANCH  49  63
ATOM     63  C   UNL A   1      44.658  27.158  33.765  1.00  0.00     0.057 A 
ATOM     64  C   UNL A   1      45.997  27.542  33.618  1.00  0.00     0.134 A 
ATOM     65  C   UNL A   1      44.383  26.089  34.628  1.00  0.00     0.134 A 
ATOM     66  F   UNL A   1      46.330  28.546  32.792  1.00  0.00    -0.206 F 
ATOM     67  C   UNL A   1      47.023  26.882  34.298  1.00  0.00     0.040 A 
ATOM     68  C   UNL A   1      45.396  25.440  35.333  1.00  0.00     0.040 A 
ATOM     69  F   UNL A   1      43.121  25.670  34.812  1.00  0.00    -0.206 F 
ATOM     70  C   UNL A   1      46.721  25.836  35.167  1.00  0.00     0.006 A 
ENDBRANCH  49  63
BRANCH  50  71
ATOM     71  C   UNL A   1      37.012  31.486  29.005  1.00  0.00     0.057 A 
ATOM     72  C   UNL A   1      37.001  32.822  28.586  1.00  0.00     0.134 A 
ATOM     73  C   UNL A   1      35.836  30.746  28.823  1.00  0.00     0.134 A 
ATOM     74  F   UNL A   1      38.086  33.591  28.754  1.00  0.00    -0.206 F 
ATOM     75  C   UNL A   1      35.857  33.408  28.040  1.00  0.00     0.040 A 
ATOM     76  C   UNL A   1      34.695  31.310  28.251  1.00  0.00     0.040 A 
ATOM     77  F   UNL A   1      35.778  29.461  29.203  1.00  0.00    -0.206 F 
ATOM     78  C   UNL A   1      34.700  32.650  27.868  1.00  0.00     0.006 A 
ENDBRANCH  50  71
BRANCH  62  79
ATOM     79  C   UNL A   1      39.762  32.184  35.373  1.00  0.00     0.057 A 
ATOM     80  C   UNL A   1      38.876  31.764  36.372  1.00  0.00     0.134 A 
ATOM     81  C   UNL A   1      40.358  33.443  35.525  1.00  0.00     0.134 A 
ATOM     82  F   UNL A   1      38.265  30.574  36.284  1.00  0.00    -0.206 F 
ATOM     83  C   UNL A   1      38.575  32.576  37.467  1.00  0.00     0.040 A 
ATOM     84  C   UNL A   1      40.090  34.251  36.631  1.00  0.00     0.040 A 
ATOM     85  F   UNL A   1      41.227  33.902  34.612  1.00  0.00    -0.206 F 
ATOM     86  C   UNL A   1      39.189  33.820  37.603  1.00  0.00     0.006 A 
ENDBRANCH  62  79
ENDBRANCH  36  37
ENDBRANCH  29  31
ENDBRANCH  28  29
ENDBRANCH  27  28
ENDBRANCH  26  27
ENDBRANCH  25  26
ENDBRANCH  24  25
ENDBRANCH  23  24
ENDBRANCH  22  23
ENDBRANCH   1  22
TORSDOF 24
ENDMDL
