MODEL 1
REMARK VINA RESULT:     -10.7      0.000      0.000
REMARK SMILES Cc1nsc(NC(=O)c2ccc(N)cc2)c1C(=O)OCCOCCOCCOCCOC(=O)c1ccc(-c2c3nc(c(-c4c(F)cccc4F)c4ccc([nH]4)c(-c4c(F)cccc4F)c4nc(c(-c5c(F)cccc5F)c5ccc2[nH]5)C=C4)C=C3)cc1
REMARK SMILES IDX 24 1 23 2 22 3 21 4 20 5 19 6 17 7 18 8 16 9 1 10 2 11 3 12
REMARK SMILES IDX 4 13 5 14 6 15 7 16 8 18 9 19 10 20 15 21 11 22 14 23 12 24
REMARK SMILES IDX 13 25 25 28 26 29 27 30 28 31 29 32 30 33 31 34 32 35 33 36
REMARK SMILES IDX 34 37 35 38 87 39 36 40 86 41 37 42 38 43 39 44 80 45 40 46
REMARK SMILES IDX 85 47 79 48 81 49 41 50 84 51 78 52 77 53 42 55 68 56 51 57
REMARK SMILES IDX 67 58 52 59 55 60 66 61 82 62 53 63 54 64 65 66 83 67 56 68
REMARK SMILES IDX 43 69 44 70 49 71 45 72 46 73 48 74 50 75 47 76 69 77 70 78
REMARK SMILES IDX 75 79 71 80 72 81 74 82 76 83 73 84 57 85 58 86 63 87 59 88
REMARK SMILES IDX 60 89 62 90 64 91 61 92
REMARK H PARENT 6 17 13 26 13 27 81 54 55 65
REMARK Flexibility Score: inf
ROOT
ATOM      1  C   UNL A   1      34.055  31.197  27.993  1.00  0.00     0.188 C 
ENDROOT
BRANCH   1   2
ATOM      2  C   UNL A   1      33.307  30.358  26.938  1.00  0.00     0.188 C 
BRANCH   2   3
ATOM      3  O   UNL A   1      32.210  29.568  27.348  1.00  0.00    -0.376 OA
BRANCH   3   4
ATOM      4  C   UNL A   1      32.126  28.169  27.166  1.00  0.00     0.202 C 
BRANCH   4   5
ATOM      5  C   UNL A   1      31.567  27.426  25.939  1.00  0.00     0.261 C 
BRANCH   5   6
ATOM      6  O   UNL A   1      32.072  26.127  25.653  1.00  0.00    -0.460 OA
BRANCH   6   7
ATOM      7  C   UNL A   1      33.337  26.051  25.168  1.00  0.00     0.343 C 
ATOM      8  O   UNL A   1      34.326  25.763  25.838  1.00  0.00    -0.246 OA
BRANCH   7   9
ATOM      9  C   UNL A   1      33.343  26.097  23.717  1.00  0.00     0.117 A 
ATOM     10  C   UNL A   1      34.018  28.615  23.340  1.00  0.00     0.069 C 
ATOM     11  C   UNL A   1      33.616  27.251  22.890  1.00  0.00     0.068 A 
ATOM     12  N   UNL A   1      33.420  27.086  21.582  1.00  0.00    -0.195 NA
ATOM     13  S   UNL A   1      32.786  25.591  21.320  1.00  0.00    -0.017 S 
ATOM     14  C   UNL A   1      32.877  25.046  22.932  1.00  0.00     0.131 A 
BRANCH  14  15
ATOM     15  N   UNL A   1      32.355  23.829  23.359  1.00  0.00    -0.312 N 
ATOM     16  C   UNL A   1      32.976  22.620  23.595  1.00  0.00     0.256 C 
ATOM     17  H   UNL A   1      31.382  23.830  23.517  1.00  0.00     0.171 HD
ATOM     18  O   UNL A   1      32.346  21.570  23.486  1.00  0.00    -0.269 OA
BRANCH  16  19
ATOM     19  C   UNL A   1      34.371  22.567  24.066  1.00  0.00     0.040 A 
ATOM     20  C   UNL A   1      35.404  22.992  23.226  1.00  0.00     0.016 A 
ATOM     21  C   UNL A   1      34.656  22.089  25.346  1.00  0.00     0.016 A 
ATOM     22  C   UNL A   1      36.728  22.796  23.611  1.00  0.00     0.026 A 
ATOM     23  C   UNL A   1      35.989  21.929  25.734  1.00  0.00     0.026 A 
ATOM     24  C   UNL A   1      37.030  22.218  24.846  1.00  0.00     0.031 A 
BRANCH  24  25
ATOM     25  N   UNL A   1      38.351  22.052  25.226  1.00  0.00    -0.399 N 
ATOM     26  H   UNL A   1      38.919  21.396  24.758  1.00  0.00     0.156 HD
ATOM     27  H   UNL A   1      38.724  22.587  25.962  1.00  0.00     0.156 HD
ENDBRANCH  24  25
ENDBRANCH  16  19
ENDBRANCH  14  15
ENDBRANCH   7   9
ENDBRANCH   6   7
ENDBRANCH   5   6
ENDBRANCH   4   5
ENDBRANCH   3   4
ENDBRANCH   2   3
ENDBRANCH   1   2
BRANCH   1  28
ATOM     28  O   UNL A   1      35.072  32.033  27.483  1.00  0.00    -0.377 OA
BRANCH  28  29
ATOM     29  C   UNL A   1      35.080  33.398  27.892  1.00  0.00     0.188 C 
BRANCH  29  30
ATOM     30  C   UNL A   1      33.792  34.182  28.293  1.00  0.00     0.188 C 
BRANCH  30  31
ATOM     31  O   UNL A   1      33.913  35.069  29.391  1.00  0.00    -0.376 OA
BRANCH  31  32
ATOM     32  C   UNL A   1      32.906  35.953  29.847  1.00  0.00     0.202 C 
BRANCH  32  33
ATOM     33  C   UNL A   1      32.676  36.077  31.351  1.00  0.00     0.261 C 
BRANCH  33  34
ATOM     34  O   UNL A   1      33.171  34.965  32.061  1.00  0.00    -0.460 OA
BRANCH  34  35
ATOM     35  C   UNL A   1      34.149  35.275  32.932  1.00  0.00     0.338 C 
ATOM     36  O   UNL A   1      34.615  36.377  33.160  1.00  0.00    -0.246 OA
BRANCH  35  37
ATOM     37  C   UNL A   1      34.619  34.025  33.540  1.00  0.00     0.060 A 
ATOM     38  C   UNL A   1      35.634  34.199  34.479  1.00  0.00     0.016 A 
ATOM     39  C   UNL A   1      34.482  32.868  32.762  1.00  0.00     0.016 A 
ATOM     40  C   UNL A   1      36.760  33.448  34.293  1.00  0.00     0.010 A 
ATOM     41  C   UNL A   1      35.615  32.146  32.550  1.00  0.00     0.010 A 
ATOM     42  C   UNL A   1      36.764  32.550  33.224  1.00  0.00    -0.014 A 
BRANCH  42  43
ATOM     43  C   UNL A   1      38.028  32.027  32.786  1.00  0.00     0.031 A 
ATOM     44  C   UNL A   1      38.976  31.918  33.904  1.00  0.00     0.074 A 
ATOM     45  C   UNL A   1      38.205  31.604  31.523  1.00  0.00     0.049 A 
ATOM     46  N   UNL A   1      39.968  32.701  34.166  1.00  0.00    -0.248 NA
ATOM     47  C   UNL A   1      38.610  31.010  35.003  1.00  0.00     0.031 C 
ATOM     48  C   UNL A   1      37.212  31.422  30.460  1.00  0.00     0.029 A 
ATOM     49  N   UNL A   1      39.347  31.135  30.962  1.00  0.00    -0.354 N 
ATOM     50  C   UNL A   1      40.485  32.218  35.362  1.00  0.00     0.074 A 
ATOM     51  C   UNL A   1      39.454  31.414  35.949  1.00  0.00     0.031 C 
ATOM     52  C   UNL A   1      37.751  30.664  29.475  1.00  0.00     0.029 A 
ATOM     53  C   UNL A   1      39.148  30.423  29.783  1.00  0.00     0.049 A 
ATOM     54  H   UNL A   1      40.237  31.285  31.354  1.00  0.00     0.167 HD
ATOM     55  C   UNL A   1      41.822  32.243  35.603  1.00  0.00     0.037 A 
ATOM     56  C   UNL A   1      40.081  29.609  29.228  1.00  0.00     0.037 A 
ATOM     57  C   UNL A   1      42.485  33.146  34.693  1.00  0.00     0.049 A 
ATOM     58  C   UNL A   1      41.396  29.990  29.823  1.00  0.00     0.074 A 
ATOM     59  C   UNL A   1      42.405  34.503  34.444  1.00  0.00     0.029 A 
ATOM     60  N   UNL A   1      43.102  32.594  33.594  1.00  0.00    -0.354 N 
ATOM     61  N   UNL A   1      41.981  31.139  29.606  1.00  0.00    -0.248 NA
ATOM     62  C   UNL A   1      41.794  29.314  31.053  1.00  0.00     0.031 C 
ATOM     63  C   UNL A   1      42.555  34.630  33.032  1.00  0.00     0.029 A 
ATOM     64  C   UNL A   1      42.785  33.359  32.502  1.00  0.00     0.049 A 
ATOM     65  H   UNL A   1      43.671  31.790  33.592  1.00  0.00     0.167 HD
ATOM     66  C   UNL A   1      42.494  31.521  30.840  1.00  0.00     0.074 A 
ATOM     67  C   UNL A   1      42.395  30.330  31.682  1.00  0.00     0.031 C 
ATOM     68  C   UNL A   1      42.671  32.838  31.159  1.00  0.00     0.037 A 
BRANCH  55  69
ATOM     69  C   UNL A   1      42.563  31.156  36.347  1.00  0.00     0.057 A 
ATOM     70  C   UNL A   1      43.404  31.537  37.407  1.00  0.00     0.134 A 
ATOM     71  C   UNL A   1      42.721  29.820  35.917  1.00  0.00     0.134 A 
ATOM     72  F   UNL A   1      43.345  32.774  37.923  1.00  0.00    -0.206 F 
ATOM     73  C   UNL A   1      44.394  30.693  37.920  1.00  0.00     0.040 A 
ATOM     74  C   UNL A   1      43.672  28.954  36.457  1.00  0.00     0.040 A 
ATOM     75  F   UNL A   1      42.044  29.288  34.895  1.00  0.00    -0.206 F 
ATOM     76  C   UNL A   1      44.541  29.401  37.435  1.00  0.00     0.006 A 
ENDBRANCH  55  69
BRANCH  56  77
ATOM     77  C   UNL A   1      39.858  28.308  28.556  1.00  0.00     0.057 A 
ATOM     78  C   UNL A   1      40.327  28.071  27.257  1.00  0.00     0.134 A 
ATOM     79  C   UNL A   1      39.414  27.179  29.266  1.00  0.00     0.134 A 
ATOM     80  F   UNL A   1      40.817  29.077  26.518  1.00  0.00    -0.206 F 
ATOM     81  C   UNL A   1      40.365  26.783  26.702  1.00  0.00     0.040 A 
ATOM     82  C   UNL A   1      39.440  25.890  28.722  1.00  0.00     0.040 A 
ATOM     83  F   UNL A   1      39.022  27.272  30.545  1.00  0.00    -0.206 F 
ATOM     84  C   UNL A   1      39.929  25.687  27.439  1.00  0.00     0.006 A 
ENDBRANCH  56  77
BRANCH  68  85
ATOM     85  C   UNL A   1      42.500  33.859  30.068  1.00  0.00     0.057 A 
ATOM     86  C   UNL A   1      41.273  34.460  29.750  1.00  0.00     0.134 A 
ATOM     87  C   UNL A   1      43.643  34.395  29.469  1.00  0.00     0.134 A 
ATOM     88  F   UNL A   1      40.138  34.075  30.347  1.00  0.00    -0.206 F 
ATOM     89  C   UNL A   1      41.188  35.534  28.857  1.00  0.00     0.040 A 
ATOM     90  C   UNL A   1      43.577  35.487  28.602  1.00  0.00     0.040 A 
ATOM     91  F   UNL A   1      44.856  33.906  29.774  1.00  0.00    -0.206 F 
ATOM     92  C   UNL A   1      42.346  36.058  28.289  1.00  0.00     0.006 A 
ENDBRANCH  68  85
ENDBRANCH  42  43
ENDBRANCH  35  37
ENDBRANCH  34  35
ENDBRANCH  33  34
ENDBRANCH  32  33
ENDBRANCH  31  32
ENDBRANCH  30  31
ENDBRANCH  29  30
ENDBRANCH  28  29
ENDBRANCH   1  28
TORSDOF 23
ENDMDL
MODEL 2
REMARK VINA RESULT:     -10.4      1.544      2.375
REMARK SMILES Cc1nsc(NC(=O)c2ccc(N)cc2)c1C(=O)OCCOCCOCCOCCOC(=O)c1ccc(-c2c3nc(c(-c4c(F)cccc4F)c4ccc([nH]4)c(-c4c(F)cccc4F)c4nc(c(-c5c(F)cccc5F)c5ccc2[nH]5)C=C4)C=C3)cc1
REMARK SMILES IDX 24 1 23 2 22 3 21 4 20 5 19 6 17 7 18 8 16 9 1 10 2 11 3 12
REMARK SMILES IDX 4 13 5 14 6 15 7 16 8 18 9 19 10 20 15 21 11 22 14 23 12 24
REMARK SMILES IDX 13 25 25 28 26 29 27 30 28 31 29 32 30 33 31 34 32 35 33 36
REMARK SMILES IDX 34 37 35 38 87 39 36 40 86 41 37 42 38 43 39 44 80 45 40 46
REMARK SMILES IDX 85 47 79 48 81 49 41 50 84 51 78 52 77 53 42 55 68 56 51 57
REMARK SMILES IDX 67 58 52 59 55 60 66 61 82 62 53 63 54 64 65 66 83 67 56 68
REMARK SMILES IDX 43 69 44 70 49 71 45 72 46 73 48 74 50 75 47 76 69 77 70 78
REMARK SMILES IDX 75 79 71 80 72 81 74 82 76 83 73 84 57 85 58 86 63 87 59 88
REMARK SMILES IDX 60 89 62 90 64 91 61 92
REMARK H PARENT 6 17 13 26 13 27 81 54 55 65
REMARK Flexibility Score: inf
ROOT
ATOM      1  C   UNL A   1      32.666  29.534  26.456  1.00  0.00     0.188 C 
ENDROOT
BRANCH   1   2
ATOM      2  C   UNL A   1      33.646  29.318  25.286  1.00  0.00     0.188 C 
BRANCH   2   3
ATOM      3  O   UNL A   1      33.145  28.831  24.059  1.00  0.00    -0.376 OA
BRANCH   3   4
ATOM      4  C   UNL A   1      33.910  28.720  22.876  1.00  0.00     0.202 C 
BRANCH   4   5
ATOM      5  C   UNL A   1      33.766  27.654  21.775  1.00  0.00     0.261 C 
BRANCH   5   6
ATOM      6  O   UNL A   1      34.086  26.306  22.099  1.00  0.00    -0.460 OA
BRANCH   6   7
ATOM      7  C   UNL A   1      33.047  25.461  22.318  1.00  0.00     0.343 C 
ATOM      8  O   UNL A   1      32.663  24.605  21.525  1.00  0.00    -0.246 OA
BRANCH   7   9
ATOM      9  C   UNL A   1      32.611  25.519  23.702  1.00  0.00     0.117 A 
ATOM     10  C   UNL A   1      30.172  26.457  23.378  1.00  0.00     0.069 C 
ATOM     11  C   UNL A   1      31.335  25.995  24.188  1.00  0.00     0.068 A 
ATOM     12  N   UNL A   1      31.218  26.089  25.513  1.00  0.00    -0.195 NA
ATOM     13  S   UNL A   1      32.667  25.732  26.205  1.00  0.00    -0.017 S 
ATOM     14  C   UNL A   1      33.477  25.299  24.770  1.00  0.00     0.131 A 
BRANCH  14  15
ATOM     15  N   UNL A   1      34.835  24.998  24.719  1.00  0.00    -0.312 N 
ATOM     16  C   UNL A   1      35.553  23.990  25.327  1.00  0.00     0.256 C 
ATOM     17  H   UNL A   1      35.371  25.606  24.159  1.00  0.00     0.171 HD
ATOM     18  O   UNL A   1      36.747  24.145  25.578  1.00  0.00    -0.269 OA
BRANCH  16  19
ATOM     19  C   UNL A   1      34.932  22.682  25.606  1.00  0.00     0.040 A 
ATOM     20  C   UNL A   1      34.864  21.717  24.598  1.00  0.00     0.016 A 
ATOM     21  C   UNL A   1      34.413  22.416  26.874  1.00  0.00     0.016 A 
ATOM     22  C   UNL A   1      34.141  20.547  24.815  1.00  0.00     0.026 A 
ATOM     23  C   UNL A   1      33.719  21.221  27.089  1.00  0.00     0.026 A 
ATOM     24  C   UNL A   1      33.522  20.312  26.044  1.00  0.00     0.031 A 
BRANCH  24  25
ATOM     25  N   UNL A   1      32.827  19.133  26.254  1.00  0.00    -0.399 N 
ATOM     26  H   UNL A   1      31.848  19.112  26.145  1.00  0.00     0.156 HD
ATOM     27  H   UNL A   1      33.311  18.315  26.512  1.00  0.00     0.156 HD
ENDBRANCH  24  25
ENDBRANCH  16  19
ENDBRANCH  14  15
ENDBRANCH   7   9
ENDBRANCH   6   7
ENDBRANCH   5   6
ENDBRANCH   4   5
ENDBRANCH   3   4
ENDBRANCH   2   3
ENDBRANCH   1   2
BRANCH   1  28
ATOM     28  O   UNL A   1      32.003  30.781  26.461  1.00  0.00    -0.377 OA
BRANCH  28  29
ATOM     29  C   UNL A   1      32.556  31.825  27.257  1.00  0.00     0.188 C 
BRANCH  29  30
ATOM     30  C   UNL A   1      33.937  31.719  27.975  1.00  0.00     0.188 C 
BRANCH  30  31
ATOM     31  O   UNL A   1      34.638  32.936  28.171  1.00  0.00    -0.376 OA
BRANCH  31  32
ATOM     32  C   UNL A   1      34.075  34.231  28.080  1.00  0.00     0.202 C 
BRANCH  32  33
ATOM     33  C   UNL A   1      33.305  34.773  29.282  1.00  0.00     0.261 C 
BRANCH  33  34
ATOM     34  O   UNL A   1      33.750  34.216  30.497  1.00  0.00    -0.460 OA
BRANCH  34  35
ATOM     35  C   UNL A   1      33.484  34.984  31.569  1.00  0.00     0.338 C 
ATOM     36  O   UNL A   1      32.726  35.935  31.629  1.00  0.00    -0.246 OA
BRANCH  35  37
ATOM     37  C   UNL A   1      34.327  34.514  32.675  1.00  0.00     0.060 A 
ATOM     38  C   UNL A   1      35.410  35.345  32.954  1.00  0.00     0.016 A 
ATOM     39  C   UNL A   1      34.342  33.131  32.899  1.00  0.00     0.016 A 
ATOM     40  C   UNL A   1      36.636  34.744  32.990  1.00  0.00     0.010 A 
ATOM     41  C   UNL A   1      35.564  32.533  32.895  1.00  0.00     0.010 A 
ATOM     42  C   UNL A   1      36.678  33.361  32.800  1.00  0.00    -0.014 A 
BRANCH  42  43
ATOM     43  C   UNL A   1      37.942  32.763  32.471  1.00  0.00     0.031 A 
ATOM     44  C   UNL A   1      38.829  32.711  33.642  1.00  0.00     0.074 A 
ATOM     45  C   UNL A   1      38.166  32.236  31.255  1.00  0.00     0.049 A 
ATOM     46  N   UNL A   1      39.835  33.479  33.895  1.00  0.00    -0.248 NA
ATOM     47  C   UNL A   1      38.374  31.905  34.787  1.00  0.00     0.031 C 
ATOM     48  C   UNL A   1      37.221  32.004  30.158  1.00  0.00     0.029 A 
ATOM     49  N   UNL A   1      39.316  31.687  30.793  1.00  0.00    -0.354 N 
ATOM     50  C   UNL A   1      40.274  33.075  35.150  1.00  0.00     0.074 A 
ATOM     51  C   UNL A   1      39.184  32.355  35.743  1.00  0.00     0.031 C 
ATOM     52  C   UNL A   1      37.780  31.153  29.265  1.00  0.00     0.029 A 
ATOM     53  C   UNL A   1      39.150  30.890  29.664  1.00  0.00     0.049 A 
ATOM     54  H   UNL A   1      40.191  31.837  31.218  1.00  0.00     0.167 HD
ATOM     55  C   UNL A   1      41.597  33.074  35.458  1.00  0.00     0.037 A 
ATOM     56  C   UNL A   1      40.078  30.005  29.223  1.00  0.00     0.037 A 
ATOM     57  C   UNL A   1      42.338  33.880  34.518  1.00  0.00     0.049 A 
ATOM     58  C   UNL A   1      41.375  30.387  29.856  1.00  0.00     0.074 A 
ATOM     59  C   UNL A   1      42.320  35.215  34.160  1.00  0.00     0.029 A 
ATOM     60  N   UNL A   1      42.988  33.223  33.498  1.00  0.00    -0.354 N 
ATOM     61  N   UNL A   1      42.013  31.495  29.582  1.00  0.00    -0.248 NA
ATOM     62  C   UNL A   1      41.686  29.798  31.154  1.00  0.00     0.031 C 
ATOM     63  C   UNL A   1      42.546  35.225  32.753  1.00  0.00     0.029 A 
ATOM     64  C   UNL A   1      42.753  33.910  32.336  1.00  0.00     0.049 A 
ATOM     65  H   UNL A   1      43.525  32.403  33.589  1.00  0.00     0.167 HD
ATOM     66  C   UNL A   1      42.478  31.956  30.808  1.00  0.00     0.074 A 
ATOM     67  C   UNL A   1      42.292  30.840  31.732  1.00  0.00     0.031 C 
ATOM     68  C   UNL A   1      42.688  33.287  31.033  1.00  0.00     0.037 A 
BRANCH  55  69
ATOM     69  C   UNL A   1      42.259  32.026  36.322  1.00  0.00     0.057 A 
ATOM     70  C   UNL A   1      43.037  32.460  37.408  1.00  0.00     0.134 A 
ATOM     71  C   UNL A   1      42.409  30.660  35.995  1.00  0.00     0.134 A 
ATOM     72  F   UNL A   1      42.977  33.732  37.835  1.00  0.00    -0.206 F 
ATOM     73  C   UNL A   1      43.970  31.633  38.042  1.00  0.00     0.040 A 
ATOM     74  C   UNL A   1      43.300  29.813  36.655  1.00  0.00     0.040 A 
ATOM     75  F   UNL A   1      41.787  30.074  34.968  1.00  0.00    -0.206 F 
ATOM     76  C   UNL A   1      44.114  30.307  37.656  1.00  0.00     0.006 A 
ENDBRANCH  55  69
BRANCH  56  77
ATOM     77  C   UNL A   1      39.841  28.663  28.643  1.00  0.00     0.057 A 
ATOM     78  C   UNL A   1      40.361  28.310  27.391  1.00  0.00     0.134 A 
ATOM     79  C   UNL A   1      39.324  27.607  29.415  1.00  0.00     0.134 A 
ATOM     80  F   UNL A   1      40.920  29.238  26.601  1.00  0.00    -0.206 F 
ATOM     81  C   UNL A   1      40.379  26.982  26.938  1.00  0.00     0.040 A 
ATOM     82  C   UNL A   1      39.330  26.279  28.974  1.00  0.00     0.040 A 
ATOM     83  F   UNL A   1      38.877  27.813  30.662  1.00  0.00    -0.206 F 
ATOM     84  C   UNL A   1      39.870  25.961  27.735  1.00  0.00     0.006 A 
ENDBRANCH  56  77
BRANCH  68  85
ATOM     85  C   UNL A   1      42.609  34.224  29.859  1.00  0.00     0.057 A 
ATOM     86  C   UNL A   1      43.650  34.404  28.935  1.00  0.00     0.134 A 
ATOM     87  C   UNL A   1      41.374  34.797  29.542  1.00  0.00     0.134 A 
ATOM     88  F   UNL A   1      44.839  33.813  29.108  1.00  0.00    -0.206 F 
ATOM     89  C   UNL A   1      43.473  35.142  27.759  1.00  0.00     0.040 A 
ATOM     90  C   UNL A   1      41.175  35.508  28.358  1.00  0.00     0.040 A 
ATOM     91  F   UNL A   1      40.320  34.616  30.353  1.00  0.00    -0.206 F 
ATOM     92  C   UNL A   1      42.226  35.686  27.463  1.00  0.00     0.006 A 
ENDBRANCH  68  85
ENDBRANCH  42  43
ENDBRANCH  35  37
ENDBRANCH  34  35
ENDBRANCH  33  34
ENDBRANCH  32  33
ENDBRANCH  31  32
ENDBRANCH  30  31
ENDBRANCH  29  30
ENDBRANCH  28  29
ENDBRANCH   1  28
TORSDOF 23
ENDMDL
MODEL 3
REMARK VINA RESULT:     -10.3      3.602      7.572
REMARK SMILES Cc1nsc(NC(=O)c2ccc(N)cc2)c1C(=O)OCCOCCOCCOCCOC(=O)c1ccc(-c2c3nc(c(-c4c(F)cccc4F)c4ccc([nH]4)c(-c4c(F)cccc4F)c4nc(c(-c5c(F)cccc5F)c5ccc2[nH]5)C=C4)C=C3)cc1
REMARK SMILES IDX 24 1 23 2 22 3 21 4 20 5 19 6 17 7 18 8 16 9 1 10 2 11 3 12
REMARK SMILES IDX 4 13 5 14 6 15 7 16 8 18 9 19 10 20 15 21 11 22 14 23 12 24
REMARK SMILES IDX 13 25 25 28 26 29 27 30 28 31 29 32 30 33 31 34 32 35 33 36
REMARK SMILES IDX 34 37 35 38 87 39 36 40 86 41 37 42 38 43 39 44 80 45 40 46
REMARK SMILES IDX 85 47 79 48 81 49 41 50 84 51 78 52 77 53 42 55 68 56 51 57
REMARK SMILES IDX 67 58 52 59 55 60 66 61 82 62 53 63 54 64 65 66 83 67 56 68
REMARK SMILES IDX 43 69 44 70 49 71 45 72 46 73 48 74 50 75 47 76 69 77 70 78
REMARK SMILES IDX 75 79 71 80 72 81 74 82 76 83 73 84 57 85 58 86 63 87 59 88
REMARK SMILES IDX 60 89 62 90 64 91 61 92
REMARK H PARENT 6 17 13 26 13 27 81 54 55 65
REMARK Flexibility Score: inf
ROOT
ATOM      1  C   UNL A   1      33.282  31.383  27.635  1.00  0.00     0.188 C 
ENDROOT
BRANCH   1   2
ATOM      2  C   UNL A   1      32.132  31.130  26.640  1.00  0.00     0.188 C 
BRANCH   2   3
ATOM      3  O   UNL A   1      31.836  29.802  26.263  1.00  0.00    -0.376 OA
BRANCH   3   4
ATOM      4  C   UNL A   1      31.678  28.734  27.174  1.00  0.00     0.202 C 
BRANCH   4   5
ATOM      5  C   UNL A   1      31.821  27.231  26.875  1.00  0.00     0.261 C 
BRANCH   5   6
ATOM      6  O   UNL A   1      31.999  26.829  25.522  1.00  0.00    -0.460 OA
BRANCH   6   7
ATOM      7  C   UNL A   1      33.275  26.665  25.090  1.00  0.00     0.343 C 
ATOM      8  O   UNL A   1      34.252  26.551  25.826  1.00  0.00    -0.246 OA
BRANCH   7   9
ATOM      9  C   UNL A   1      33.312  26.382  23.666  1.00  0.00     0.117 A 
ATOM     10  C   UNL A   1      33.839  28.788  22.733  1.00  0.00     0.069 C 
ATOM     11  C   UNL A   1      33.532  27.335  22.601  1.00  0.00     0.068 A 
ATOM     12  N   UNL A   1      33.376  26.865  21.363  1.00  0.00    -0.195 NA
ATOM     13  S   UNL A   1      32.842  25.312  21.443  1.00  0.00    -0.017 S 
ATOM     14  C   UNL A   1      32.930  25.153  23.136  1.00  0.00     0.131 A 
BRANCH  14  15
ATOM     15  N   UNL A   1      32.474  24.032  23.824  1.00  0.00    -0.312 N 
ATOM     16  C   UNL A   1      33.136  22.884  24.208  1.00  0.00     0.256 C 
ATOM     17  H   UNL A   1      31.522  24.062  24.077  1.00  0.00     0.171 HD
ATOM     18  O   UNL A   1      32.517  21.832  24.353  1.00  0.00    -0.269 OA
BRANCH  16  19
ATOM     19  C   UNL A   1      34.572  22.915  24.536  1.00  0.00     0.040 A 
ATOM     20  C   UNL A   1      35.518  22.655  23.541  1.00  0.00     0.016 A 
ATOM     21  C   UNL A   1      34.982  23.201  25.840  1.00  0.00     0.016 A 
ATOM     22  C   UNL A   1      36.861  22.530  23.885  1.00  0.00     0.026 A 
ATOM     23  C   UNL A   1      36.338  23.105  26.165  1.00  0.00     0.026 A 
ATOM     24  C   UNL A   1      37.275  22.706  25.207  1.00  0.00     0.031 A 
BRANCH  24  25
ATOM     25  N   UNL A   1      38.618  22.603  25.530  1.00  0.00    -0.399 N 
ATOM     26  H   UNL A   1      38.954  22.993  26.370  1.00  0.00     0.156 HD
ATOM     27  H   UNL A   1      39.237  22.140  24.922  1.00  0.00     0.156 HD
ENDBRANCH  24  25
ENDBRANCH  16  19
ENDBRANCH  14  15
ENDBRANCH   7   9
ENDBRANCH   6   7
ENDBRANCH   5   6
ENDBRANCH   4   5
ENDBRANCH   3   4
ENDBRANCH   2   3
ENDBRANCH   1   2
BRANCH   1  28
ATOM     28  O   UNL A   1      33.949  32.618  27.479  1.00  0.00    -0.377 OA
BRANCH  28  29
ATOM     29  C   UNL A   1      33.455  33.738  28.207  1.00  0.00     0.188 C 
BRANCH  29  30
ATOM     30  C   UNL A   1      34.258  34.448  29.341  1.00  0.00     0.188 C 
BRANCH  30  31
ATOM     31  O   UNL A   1      34.229  33.828  30.615  1.00  0.00    -0.376 OA
BRANCH  31  32
ATOM     32  C   UNL A   1      34.758  32.550  30.917  1.00  0.00     0.202 C 
BRANCH  32  33
ATOM     33  C   UNL A   1      36.107  32.163  30.317  1.00  0.00     0.261 C 
BRANCH  33  34
ATOM     34  O   UNL A   1      36.194  30.784  30.042  1.00  0.00    -0.460 OA
BRANCH  34  35
ATOM     35  C   UNL A   1      37.115  30.144  30.786  1.00  0.00     0.338 C 
ATOM     36  O   UNL A   1      37.580  30.499  31.854  1.00  0.00    -0.246 OA
BRANCH  35  37
ATOM     37  C   UNL A   1      37.527  28.942  30.051  1.00  0.00     0.060 A 
ATOM     38  C   UNL A   1      38.136  27.974  30.846  1.00  0.00     0.016 A 
ATOM     39  C   UNL A   1      37.819  29.117  28.692  1.00  0.00     0.016 A 
ATOM     40  C   UNL A   1      39.353  27.524  30.418  1.00  0.00     0.010 A 
ATOM     41  C   UNL A   1      39.048  28.702  28.282  1.00  0.00     0.010 A 
ATOM     42  C   UNL A   1      39.838  28.033  29.211  1.00  0.00    -0.014 A 
BRANCH  42  43
ATOM     43  C   UNL A   1      41.236  27.871  28.924  1.00  0.00     0.031 A 
ATOM     44  C   UNL A   1      41.495  26.597  28.238  1.00  0.00     0.074 A 
ATOM     45  C   UNL A   1      42.116  28.855  29.175  1.00  0.00     0.049 A 
ATOM     46  N   UNL A   1      41.997  25.523  28.748  1.00  0.00    -0.248 NA
ATOM     47  C   UNL A   1      40.866  26.409  26.921  1.00  0.00     0.031 C 
ATOM     48  C   UNL A   1      41.864  30.240  29.583  1.00  0.00     0.029 A 
ATOM     49  N   UNL A   1      43.460  28.825  29.000  1.00  0.00    -0.354 N 
ATOM     50  C   UNL A   1      41.951  24.593  27.717  1.00  0.00     0.074 A 
ATOM     51  C   UNL A   1      40.997  25.093  26.770  1.00  0.00     0.031 C 
ATOM     52  C   UNL A   1      42.988  30.971  29.391  1.00  0.00     0.029 A 
ATOM     53  C   UNL A   1      44.057  30.082  28.973  1.00  0.00     0.049 A 
ATOM     54  H   UNL A   1      43.969  27.988  28.901  1.00  0.00     0.167 HD
ATOM     55  C   UNL A   1      42.937  23.671  27.566  1.00  0.00     0.037 A 
ATOM     56  C   UNL A   1      45.309  30.311  28.504  1.00  0.00     0.037 A 
ATOM     57  C   UNL A   1      43.719  23.562  28.773  1.00  0.00     0.049 A 
ATOM     58  C   UNL A   1      46.013  28.995  28.487  1.00  0.00     0.074 A 
ATOM     59  C   UNL A   1      43.443  23.199  30.078  1.00  0.00     0.029 A 
ATOM     60  N   UNL A   1      44.915  24.241  28.814  1.00  0.00    -0.354 N 
ATOM     61  N   UNL A   1      46.325  28.330  29.569  1.00  0.00    -0.248 NA
ATOM     62  C   UNL A   1      45.898  28.190  27.276  1.00  0.00     0.031 C 
ATOM     63  C   UNL A   1      44.240  24.066  30.882  1.00  0.00     0.029 A 
ATOM     64  C   UNL A   1      45.006  24.864  30.031  1.00  0.00     0.049 A 
ATOM     65  H   UNL A   1      45.587  24.274  28.094  1.00  0.00     0.167 HD
ATOM     66  C   UNL A   1      46.044  27.002  29.269  1.00  0.00     0.074 A 
ATOM     67  C   UNL A   1      45.835  26.972  27.823  1.00  0.00     0.031 C 
ATOM     68  C   UNL A   1      45.709  26.109  30.247  1.00  0.00     0.037 A 
BRANCH  55  69
ATOM     69  C   UNL A   1      43.450  23.199  26.225  1.00  0.00     0.057 A 
ATOM     70  C   UNL A   1      43.493  21.816  25.983  1.00  0.00     0.134 A 
ATOM     71  C   UNL A   1      44.153  23.986  25.286  1.00  0.00     0.134 A 
ATOM     72  F   UNL A   1      42.853  20.955  26.790  1.00  0.00    -0.206 F 
ATOM     73  C   UNL A   1      44.264  21.256  24.959  1.00  0.00     0.040 A 
ATOM     74  C   UNL A   1      44.883  23.440  24.230  1.00  0.00     0.040 A 
ATOM     75  F   UNL A   1      44.263  25.315  25.371  1.00  0.00    -0.206 F 
ATOM     76  C   UNL A   1      44.974  22.068  24.087  1.00  0.00     0.006 A 
ENDBRANCH  55  69
BRANCH  56  77
ATOM     77  C   UNL A   1      45.777  31.475  27.717  1.00  0.00     0.057 A 
ATOM     78  C   UNL A   1      44.994  32.024  26.693  1.00  0.00     0.134 A 
ATOM     79  C   UNL A   1      46.884  32.242  28.123  1.00  0.00     0.134 A 
ATOM     80  F   UNL A   1      43.890  31.391  26.270  1.00  0.00    -0.206 F 
ATOM     81  C   UNL A   1      45.286  33.269  26.116  1.00  0.00     0.040 A 
ATOM     82  C   UNL A   1      47.190  33.482  27.553  1.00  0.00     0.040 A 
ATOM     83  F   UNL A   1      47.656  31.857  29.150  1.00  0.00    -0.206 F 
ATOM     84  C   UNL A   1      46.383  34.005  26.552  1.00  0.00     0.006 A 
ENDBRANCH  56  77
BRANCH  68  85
ATOM     85  C   UNL A   1      45.859  26.540  31.681  1.00  0.00     0.057 A 
ATOM     86  C   UNL A   1      44.826  27.124  32.431  1.00  0.00     0.134 A 
ATOM     87  C   UNL A   1      47.012  26.163  32.375  1.00  0.00     0.134 A 
ATOM     88  F   UNL A   1      43.650  27.430  31.868  1.00  0.00    -0.206 F 
ATOM     89  C   UNL A   1      44.948  27.342  33.807  1.00  0.00     0.040 A 
ATOM     90  C   UNL A   1      47.133  26.345  33.753  1.00  0.00     0.040 A 
ATOM     91  F   UNL A   1      48.015  25.546  31.730  1.00  0.00    -0.206 F 
ATOM     92  C   UNL A   1      46.102  26.939  34.474  1.00  0.00     0.006 A 
ENDBRANCH  68  85
ENDBRANCH  42  43
ENDBRANCH  35  37
ENDBRANCH  34  35
ENDBRANCH  33  34
ENDBRANCH  32  33
ENDBRANCH  31  32
ENDBRANCH  30  31
ENDBRANCH  29  30
ENDBRANCH  28  29
ENDBRANCH   1  28
TORSDOF 23
ENDMDL
