MODEL 1
REMARK VINA RESULT:      -9.9      0.000      0.000
REMARK SMILES [NH3+][C@@H](Cc1c[nH]c2ccccc12)C(=O)N[C@@H](CS)C(=O)N[C@@H](CO)C(=O)OCCOCCOCCOCCOC(=O)c1ccc(-c2c3nc(c(-c4c(F)cccc4F)c4ccc([nH]4)c(-c4c(F)cccc4F)c4nc(c(-c5c(F)cccc5F)c5ccc2[nH]5)C=C4)C=C3)cc1
REMARK SMILES IDX 31 1 30 2 29 3 28 4 27 5 25 6 26 7 22 8 21 9 19 10 20 11
REMARK SMILES IDX 16 13 15 14 13 15 14 16 2 18 1 19 3 23 4 24 5 25 12 26 6 27
REMARK SMILES IDX 7 28 11 29 8 31 10 32 9 33 17 34 18 35 23 37 24 38 32 40
REMARK SMILES IDX 33 41 34 42 35 43 36 44 37 45 38 46 39 47 40 48 41 49 42 50
REMARK SMILES IDX 43 51 95 52 44 53 94 54 45 55 46 56 47 57 88 58 48 59 93 60
REMARK SMILES IDX 87 61 89 62 49 63 92 64 86 65 85 66 50 68 76 69 59 70 75 71
REMARK SMILES IDX 60 72 63 73 74 74 90 75 61 76 62 77 73 79 91 80 64 81 51 82
REMARK SMILES IDX 52 83 57 84 53 85 54 86 56 87 58 88 55 89 77 90 78 91 83 92
REMARK SMILES IDX 79 93 80 94 82 95 84 96 81 97 65 98 66 99 71 100 67 101
REMARK SMILES IDX 68 102 70 103 72 104 69 105
REMARK H PARENT 21 12 15 17 1 20 1 21 1 22 6 30 18 36 24 39 89 67 63 78
REMARK Flexibility Score: inf
ROOT
ATOM      1  C   UNL A   1      34.014  30.906  27.244  1.00  0.00     0.188 C 
ENDROOT
BRANCH   1   2
ATOM      2  O   UNL A   1      32.719  30.532  26.806  1.00  0.00    -0.376 OA
BRANCH   2   3
ATOM      3  C   UNL A   1      31.668  31.486  26.738  1.00  0.00     0.202 C 
BRANCH   3   4
ATOM      4  C   UNL A   1      30.589  31.498  25.635  1.00  0.00     0.261 C 
BRANCH   4   5
ATOM      5  O   UNL A   1      30.625  30.420  24.695  1.00  0.00    -0.462 OA
BRANCH   5   6
ATOM      6  C   UNL A   1      29.641  30.387  23.757  1.00  0.00     0.331 C 
ATOM      7  O   UNL A   1      28.510  30.832  23.911  1.00  0.00    -0.250 OA
BRANCH   6   8
ATOM      8  C   UNL A   1      30.097  29.690  22.466  1.00  0.00     0.218 C 
BRANCH   8   9
ATOM      9  N   UNL A   1      29.810  28.256  22.396  1.00  0.00    -0.339 N 
ATOM     10  C   UNL A   1      30.662  27.249  22.708  1.00  0.00     0.244 C 
ATOM     11  O   UNL A   1      30.946  26.473  21.792  1.00  0.00    -0.273 OA
ATOM     12  H   UNL A   1      28.909  27.998  22.093  1.00  0.00     0.164 HD
BRANCH  10  13
ATOM     13  C   UNL A   1      31.321  27.113  24.103  1.00  0.00     0.181 C 
BRANCH  13  14
ATOM     14  N   UNL A   1      30.454  26.441  25.046  1.00  0.00    -0.338 N 
ATOM     15  C   UNL A   1      30.499  25.139  25.456  1.00  0.00     0.279 C 
ATOM     16  O   UNL A   1      29.904  24.894  26.513  1.00  0.00    -0.268 OA
ATOM     17  H   UNL A   1      29.740  26.992  25.442  1.00  0.00     0.164 HD
BRANCH  15  18
ATOM     18  C   UNL A   1      31.164  23.979  24.644  1.00  0.00     0.275 C 
BRANCH  18  19
ATOM     19  N   UNL A   1      30.748  24.027  23.225  1.00  0.00    -0.347 N 
ATOM     20  H   UNL A   1      31.217  24.804  22.759  1.00  0.00     0.345 HD
ATOM     21  H   UNL A   1      29.738  24.157  23.170  1.00  0.00     0.345 HD
ATOM     22  H   UNL A   1      31.003  23.152  22.766  1.00  0.00     0.345 HD
ENDBRANCH  18  19
BRANCH  18  23
ATOM     23  C   UNL A   1      32.645  23.611  24.923  1.00  0.00     0.113 C 
BRANCH  23  24
ATOM     24  C   UNL A   1      33.011  22.229  25.415  1.00  0.00    -0.016 A 
ATOM     25  C   UNL A   1      33.587  21.843  26.614  1.00  0.00     0.087 A 
ATOM     26  C   UNL A   1      32.816  21.011  24.669  1.00  0.00     0.003 A 
ATOM     27  N   UNL A   1      33.518  20.476  26.707  1.00  0.00    -0.361 N 
ATOM     28  C   UNL A   1      33.034  19.942  25.538  1.00  0.00     0.046 A 
ATOM     29  C   UNL A   1      32.412  20.724  23.347  1.00  0.00     0.010 A 
ATOM     30  H   UNL A   1      33.777  19.951  27.498  1.00  0.00     0.166 HD
ATOM     31  C   UNL A   1      32.776  18.611  25.182  1.00  0.00     0.026 A 
ATOM     32  C   UNL A   1      32.207  19.395  22.958  1.00  0.00     0.001 A 
ATOM     33  C   UNL A   1      32.359  18.358  23.873  1.00  0.00     0.002 A 
ENDBRANCH  23  24
ENDBRANCH  18  23
ENDBRANCH  15  18
ENDBRANCH  13  14
BRANCH  13  34
ATOM     34  C   UNL A   1      32.820  26.839  24.254  1.00  0.00     0.101 C 
BRANCH  34  35
ATOM     35  S   UNL A   1      33.594  27.138  25.868  1.00  0.00    -0.177 SA
ATOM     36  H   UNL A   1      32.721  26.810  26.858  1.00  0.00     0.102 HD
ENDBRANCH  34  35
ENDBRANCH  13  34
ENDBRANCH  10  13
ENDBRANCH   8   9
BRANCH   8  37
ATOM     37  C   UNL A   1      29.407  30.384  21.287  1.00  0.00     0.193 C 
BRANCH  37  38
ATOM     38  O   UNL A   1      28.058  29.931  21.144  1.00  0.00    -0.394 OA
ATOM     39  H   UNL A   1      27.716  29.656  22.009  1.00  0.00     0.210 HD
ENDBRANCH  37  38
ENDBRANCH   8  37
ENDBRANCH   6   8
ENDBRANCH   5   6
ENDBRANCH   4   5
ENDBRANCH   3   4
ENDBRANCH   2   3
ENDBRANCH   1   2
BRANCH   1  40
ATOM     40  C   UNL A   1      34.183  31.934  28.375  1.00  0.00     0.188 C 
BRANCH  40  41
ATOM     41  O   UNL A   1      34.387  33.249  27.909  1.00  0.00    -0.377 OA
BRANCH  41  42
ATOM     42  C   UNL A   1      33.391  34.186  28.303  1.00  0.00     0.188 C 
BRANCH  42  43
ATOM     43  C   UNL A   1      33.821  35.375  29.196  1.00  0.00     0.188 C 
BRANCH  43  44
ATOM     44  O   UNL A   1      33.072  35.486  30.402  1.00  0.00    -0.376 OA
BRANCH  44  45
ATOM     45  C   UNL A   1      33.687  35.142  31.631  1.00  0.00     0.202 C 
BRANCH  45  46
ATOM     46  C   UNL A   1      34.249  33.721  31.786  1.00  0.00     0.261 C 
BRANCH  46  47
ATOM     47  O   UNL A   1      35.674  33.582  31.728  1.00  0.00    -0.460 OA
BRANCH  47  48
ATOM     48  C   UNL A   1      36.241  32.715  32.592  1.00  0.00     0.338 C 
ATOM     49  O   UNL A   1      35.842  32.433  33.710  1.00  0.00    -0.246 OA
BRANCH  48  50
ATOM     50  C   UNL A   1      37.309  31.990  31.868  1.00  0.00     0.060 A 
ATOM     51  C   UNL A   1      38.264  31.286  32.615  1.00  0.00     0.016 A 
ATOM     52  C   UNL A   1      37.350  31.967  30.472  1.00  0.00     0.016 A 
ATOM     53  C   UNL A   1      39.269  30.569  31.968  1.00  0.00     0.010 A 
ATOM     54  C   UNL A   1      38.380  31.276  29.825  1.00  0.00     0.010 A 
ATOM     55  C   UNL A   1      39.357  30.592  30.572  1.00  0.00    -0.014 A 
BRANCH  55  56
ATOM     56  C   UNL A   1      40.562  30.044  29.904  1.00  0.00     0.031 A 
ATOM     57  C   UNL A   1      41.736  30.957  29.684  1.00  0.00     0.074 A 
ATOM     58  C   UNL A   1      40.624  28.757  29.522  1.00  0.00     0.049 A 
ATOM     59  N   UNL A   1      42.870  30.722  29.076  1.00  0.00    -0.248 NA
ATOM     60  C   UNL A   1      41.613  32.320  30.225  1.00  0.00     0.031 C 
ATOM     61  C   UNL A   1      39.574  27.763  29.725  1.00  0.00     0.029 A 
ATOM     62  N   UNL A   1      41.617  28.071  28.867  1.00  0.00    -0.354 N 
ATOM     63  C   UNL A   1      43.592  31.907  29.156  1.00  0.00     0.074 A 
ATOM     64  C   UNL A   1      42.758  32.867  29.847  1.00  0.00     0.031 C 
ATOM     65  C   UNL A   1      39.971  26.595  29.189  1.00  0.00     0.029 A 
ATOM     66  C   UNL A   1      41.285  26.772  28.572  1.00  0.00     0.049 A 
ATOM     67  H   UNL A   1      42.485  28.473  28.633  1.00  0.00     0.167 HD
ATOM     68  C   UNL A   1      44.838  32.168  28.697  1.00  0.00     0.037 A 
ATOM     69  C   UNL A   1      41.952  25.845  27.858  1.00  0.00     0.037 A 
ATOM     70  C   UNL A   1      45.659  31.213  28.001  1.00  0.00     0.049 A 
ATOM     71  C   UNL A   1      43.300  26.191  27.274  1.00  0.00     0.074 A 
ATOM     72  C   UNL A   1      46.944  31.376  27.512  1.00  0.00     0.029 A 
ATOM     73  N   UNL A   1      45.271  29.920  27.682  1.00  0.00    -0.354 N 
ATOM     74  N   UNL A   1      43.987  27.303  27.377  1.00  0.00    -0.248 NA
ATOM     75  C   UNL A   1      43.962  25.152  26.473  1.00  0.00     0.031 C 
ATOM     76  C   UNL A   1      47.308  30.204  26.842  1.00  0.00     0.029 A 
ATOM     77  C   UNL A   1      46.276  29.288  26.970  1.00  0.00     0.049 A 
ATOM     78  H   UNL A   1      44.409  29.513  27.927  1.00  0.00     0.167 HD
ATOM     79  C   UNL A   1      45.169  27.088  26.679  1.00  0.00     0.074 A 
ATOM     80  C   UNL A   1      45.115  25.733  26.173  1.00  0.00     0.031 C 
ATOM     81  C   UNL A   1      46.208  27.936  26.473  1.00  0.00     0.037 A 
BRANCH  68  82
ATOM     82  C   UNL A   1      45.376  33.555  28.902  1.00  0.00     0.057 A 
ATOM     83  C   UNL A   1      45.168  34.579  27.971  1.00  0.00     0.134 A 
ATOM     84  C   UNL A   1      46.082  33.876  30.069  1.00  0.00     0.134 A 
ATOM     85  F   UNL A   1      44.515  34.335  26.824  1.00  0.00    -0.206 F 
ATOM     86  C   UNL A   1      45.660  35.869  28.182  1.00  0.00     0.040 A 
ATOM     87  C   UNL A   1      46.554  35.169  30.304  1.00  0.00     0.040 A 
ATOM     88  F   UNL A   1      46.316  32.942  31.004  1.00  0.00    -0.206 F 
ATOM     89  C   UNL A   1      46.348  36.168  29.357  1.00  0.00     0.006 A 
ENDBRANCH  68  82
BRANCH  69  90
ATOM     90  C   UNL A   1      41.351  24.507  27.620  1.00  0.00     0.057 A 
ATOM     91  C   UNL A   1      40.311  24.328  26.700  1.00  0.00     0.134 A 
ATOM     92  C   UNL A   1      41.777  23.379  28.333  1.00  0.00     0.134 A 
ATOM     93  F   UNL A   1      39.839  25.373  26.005  1.00  0.00    -0.206 F 
ATOM     94  C   UNL A   1      39.703  23.085  26.513  1.00  0.00     0.040 A 
ATOM     95  C   UNL A   1      41.200  22.124  28.135  1.00  0.00     0.040 A 
ATOM     96  F   UNL A   1      42.767  23.481  29.233  1.00  0.00    -0.206 F 
ATOM     97  C   UNL A   1      40.153  21.977  27.229  1.00  0.00     0.006 A 
ENDBRANCH  69  90
BRANCH  81  98
ATOM     98  C   UNL A   1      47.383  27.415  25.694  1.00  0.00     0.057 A 
ATOM     99  C   UNL A   1      48.436  26.726  26.312  1.00  0.00     0.134 A 
ATOM    100  C   UNL A   1      47.443  27.569  24.302  1.00  0.00     0.134 A 
ATOM    101  F   UNL A   1      48.447  26.553  27.642  1.00  0.00    -0.206 F 
ATOM    102  C   UNL A   1      49.516  26.234  25.577  1.00  0.00     0.040 A 
ATOM    103  C   UNL A   1      48.501  27.053  23.554  1.00  0.00     0.040 A 
ATOM    104  F   UNL A   1      46.463  28.207  23.644  1.00  0.00    -0.206 F 
ATOM    105  C   UNL A   1      49.547  26.390  24.193  1.00  0.00     0.006 A 
ENDBRANCH  81  98
ENDBRANCH  55  56
ENDBRANCH  48  50
ENDBRANCH  47  48
ENDBRANCH  46  47
ENDBRANCH  45  46
ENDBRANCH  44  45
ENDBRANCH  43  44
ENDBRANCH  42  43
ENDBRANCH  41  42
ENDBRANCH  40  41
ENDBRANCH   1  40
TORSDOF 31
ENDMDL
MODEL 2
REMARK VINA RESULT:      -9.3      1.125      5.942
REMARK SMILES [NH3+][C@@H](Cc1c[nH]c2ccccc12)C(=O)N[C@@H](CS)C(=O)N[C@@H](CO)C(=O)OCCOCCOCCOCCOC(=O)c1ccc(-c2c3nc(c(-c4c(F)cccc4F)c4ccc([nH]4)c(-c4c(F)cccc4F)c4nc(c(-c5c(F)cccc5F)c5ccc2[nH]5)C=C4)C=C3)cc1
REMARK SMILES IDX 31 1 30 2 29 3 28 4 27 5 25 6 26 7 22 8 21 9 19 10 20 11
REMARK SMILES IDX 16 13 15 14 13 15 14 16 2 18 1 19 3 23 4 24 5 25 12 26 6 27
REMARK SMILES IDX 7 28 11 29 8 31 10 32 9 33 17 34 18 35 23 37 24 38 32 40
REMARK SMILES IDX 33 41 34 42 35 43 36 44 37 45 38 46 39 47 40 48 41 49 42 50
REMARK SMILES IDX 43 51 95 52 44 53 94 54 45 55 46 56 47 57 88 58 48 59 93 60
REMARK SMILES IDX 87 61 89 62 49 63 92 64 86 65 85 66 50 68 76 69 59 70 75 71
REMARK SMILES IDX 60 72 63 73 74 74 90 75 61 76 62 77 73 79 91 80 64 81 51 82
REMARK SMILES IDX 52 83 57 84 53 85 54 86 56 87 58 88 55 89 77 90 78 91 83 92
REMARK SMILES IDX 79 93 80 94 82 95 84 96 81 97 65 98 66 99 71 100 67 101
REMARK SMILES IDX 68 102 70 103 72 104 69 105
REMARK H PARENT 21 12 15 17 1 20 1 21 1 22 6 30 18 36 24 39 89 67 63 78
REMARK Flexibility Score: inf
ROOT
ATOM      1  C   UNL A   1      33.914  30.638  27.270  1.00  0.00     0.188 C 
ENDROOT
BRANCH   1   2
ATOM      2  O   UNL A   1      32.618  30.448  26.729  1.00  0.00    -0.376 OA
BRANCH   2   3
ATOM      3  C   UNL A   1      31.688  31.520  26.668  1.00  0.00     0.202 C 
BRANCH   3   4
ATOM      4  C   UNL A   1      30.590  31.644  25.592  1.00  0.00     0.261 C 
BRANCH   4   5
ATOM      5  O   UNL A   1      30.525  30.595  24.621  1.00  0.00    -0.462 OA
BRANCH   5   6
ATOM      6  C   UNL A   1      29.500  30.642  23.729  1.00  0.00     0.331 C 
ATOM      7  O   UNL A   1      28.414  31.173  23.935  1.00  0.00    -0.250 OA
BRANCH   6   8
ATOM      8  C   UNL A   1      29.841  29.917  22.418  1.00  0.00     0.218 C 
BRANCH   8   9
ATOM      9  N   UNL A   1      29.712  28.459  22.460  1.00  0.00    -0.339 N 
ATOM     10  C   UNL A   1      30.722  27.567  22.602  1.00  0.00     0.244 C 
ATOM     11  O   UNL A   1      30.885  26.775  21.671  1.00  0.00    -0.273 OA
ATOM     12  H   UNL A   1      28.802  28.092  22.375  1.00  0.00     0.164 HD
BRANCH  10  13
ATOM     13  C   UNL A   1      31.683  27.579  23.818  1.00  0.00     0.181 C 
BRANCH  13  14
ATOM     14  N   UNL A   1      31.071  27.005  24.995  1.00  0.00    -0.338 N 
ATOM     15  C   UNL A   1      31.005  25.690  25.358  1.00  0.00     0.279 C 
ATOM     16  O   UNL A   1      30.763  25.479  26.553  1.00  0.00    -0.268 OA
ATOM     17  H   UNL A   1      30.648  27.643  25.615  1.00  0.00     0.164 HD
BRANCH  15  18
ATOM     18  C   UNL A   1      31.132  24.491  24.360  1.00  0.00     0.275 C 
BRANCH  18  19
ATOM     19  N   UNL A   1      29.991  24.470  23.418  1.00  0.00    -0.347 N 
ATOM     20  H   UNL A   1      29.240  23.899  23.805  1.00  0.00     0.345 HD
ATOM     21  H   UNL A   1      30.293  24.077  22.526  1.00  0.00     0.345 HD
ATOM     22  H   UNL A   1      29.653  25.422  23.273  1.00  0.00     0.345 HD
ENDBRANCH  18  19
BRANCH  18  23
ATOM     23  C   UNL A   1      32.524  24.135  23.776  1.00  0.00     0.113 C 
BRANCH  23  24
ATOM     24  C   UNL A   1      33.241  22.879  24.218  1.00  0.00    -0.016 A 
ATOM     25  C   UNL A   1      32.742  21.602  24.418  1.00  0.00     0.087 A 
ATOM     26  C   UNL A   1      34.645  22.800  24.532  1.00  0.00     0.003 A 
ATOM     27  N   UNL A   1      33.801  20.747  24.592  1.00  0.00    -0.361 N 
ATOM     28  C   UNL A   1      34.978  21.451  24.649  1.00  0.00     0.046 A 
ATOM     29  C   UNL A   1      35.677  23.754  24.665  1.00  0.00     0.010 A 
ATOM     30  H   UNL A   1      33.727  19.768  24.666  1.00  0.00     0.166 HD
ATOM     31  C   UNL A   1      36.299  21.005  24.794  1.00  0.00     0.026 A 
ATOM     32  C   UNL A   1      36.994  23.328  24.870  1.00  0.00     0.001 A 
ATOM     33  C   UNL A   1      37.302  21.972  24.904  1.00  0.00     0.002 A 
ENDBRANCH  23  24
ENDBRANCH  18  23
ENDBRANCH  15  18
ENDBRANCH  13  14
BRANCH  13  34
ATOM     34  C   UNL A   1      33.184  27.329  23.650  1.00  0.00     0.101 C 
BRANCH  34  35
ATOM     35  S   UNL A   1      34.148  28.497  22.648  1.00  0.00    -0.177 SA
ATOM     36  H   UNL A   1      33.307  29.388  22.058  1.00  0.00     0.102 HD
ENDBRANCH  34  35
ENDBRANCH  13  34
ENDBRANCH  10  13
ENDBRANCH   8   9
BRANCH   8  37
ATOM     37  C   UNL A   1      28.913  30.459  21.326  1.00  0.00     0.193 C 
BRANCH  37  38
ATOM     38  O   UNL A   1      27.568  30.015  21.530  1.00  0.00    -0.394 OA
ATOM     39  H   UNL A   1      26.952  30.674  21.173  1.00  0.00     0.210 HD
ENDBRANCH  37  38
ENDBRANCH   8  37
ENDBRANCH   6   8
ENDBRANCH   5   6
ENDBRANCH   4   5
ENDBRANCH   3   4
ENDBRANCH   2   3
ENDBRANCH   1   2
BRANCH   1  40
ATOM     40  C   UNL A   1      34.126  31.595  28.455  1.00  0.00     0.188 C 
BRANCH  40  41
ATOM     41  O   UNL A   1      34.383  32.925  28.061  1.00  0.00    -0.377 OA
BRANCH  41  42
ATOM     42  C   UNL A   1      33.677  33.916  28.799  1.00  0.00     0.188 C 
BRANCH  42  43
ATOM     43  C   UNL A   1      34.408  34.607  29.976  1.00  0.00     0.188 C 
BRANCH  43  44
ATOM     44  O   UNL A   1      33.639  34.663  31.173  1.00  0.00    -0.376 OA
BRANCH  44  45
ATOM     45  C   UNL A   1      33.898  33.726  32.204  1.00  0.00     0.202 C 
BRANCH  45  46
ATOM     46  C   UNL A   1      35.040  32.721  31.997  1.00  0.00     0.261 C 
BRANCH  46  47
ATOM     47  O   UNL A   1      36.357  33.160  32.352  1.00  0.00    -0.460 OA
BRANCH  47  48
ATOM     48  C   UNL A   1      37.097  32.328  33.113  1.00  0.00     0.338 C 
ATOM     49  O   UNL A   1      36.846  31.961  34.250  1.00  0.00    -0.246 OA
BRANCH  48  50
ATOM     50  C   UNL A   1      38.156  31.751  32.255  1.00  0.00     0.060 A 
ATOM     51  C   UNL A   1      39.163  30.986  32.857  1.00  0.00     0.016 A 
ATOM     52  C   UNL A   1      38.137  31.925  30.868  1.00  0.00     0.016 A 
ATOM     53  C   UNL A   1      40.163  30.405  32.078  1.00  0.00     0.010 A 
ATOM     54  C   UNL A   1      39.159  31.370  30.092  1.00  0.00     0.010 A 
ATOM     55  C   UNL A   1      40.190  30.626  30.696  1.00  0.00    -0.014 A 
BRANCH  55  56
ATOM     56  C   UNL A   1      41.381  30.223  29.913  1.00  0.00     0.031 A 
ATOM     57  C   UNL A   1      41.446  28.820  29.377  1.00  0.00     0.074 A 
ATOM     58  C   UNL A   1      42.377  31.091  29.660  1.00  0.00     0.049 A 
ATOM     59  N   UNL A   1      42.405  28.225  28.717  1.00  0.00    -0.248 NA
ATOM     60  C   UNL A   1      40.266  27.975  29.619  1.00  0.00     0.031 C 
ATOM     61  C   UNL A   1      42.407  32.489  30.081  1.00  0.00     0.029 A 
ATOM     62  N   UNL A   1      43.565  30.911  28.995  1.00  0.00    -0.354 N 
ATOM     63  C   UNL A   1      41.948  26.936  28.471  1.00  0.00     0.074 A 
ATOM     64  C   UNL A   1      40.637  26.827  29.074  1.00  0.00     0.031 C 
ATOM     65  C   UNL A   1      43.566  33.039  29.678  1.00  0.00     0.029 A 
ATOM     66  C   UNL A   1      44.374  32.021  29.008  1.00  0.00     0.049 A 
ATOM     67  H   UNL A   1      43.812  30.068  28.552  1.00  0.00     0.167 HD
ATOM     68  C   UNL A   1      42.565  25.936  27.798  1.00  0.00     0.037 A 
ATOM     69  C   UNL A   1      45.633  32.183  28.557  1.00  0.00     0.037 A 
ATOM     70  C   UNL A   1      43.872  26.047  27.207  1.00  0.00     0.049 A 
ATOM     71  C   UNL A   1      46.337  31.024  27.896  1.00  0.00     0.074 A 
ATOM     72  C   UNL A   1      44.576  25.095  26.489  1.00  0.00     0.029 A 
ATOM     73  N   UNL A   1      44.680  27.172  27.278  1.00  0.00    -0.354 N 
ATOM     74  N   UNL A   1      45.888  29.818  27.642  1.00  0.00    -0.248 NA
ATOM     75  C   UNL A   1      47.722  31.249  27.460  1.00  0.00     0.031 C 
ATOM     76  C   UNL A   1      45.834  25.623  26.182  1.00  0.00     0.029 A 
ATOM     77  C   UNL A   1      45.889  26.925  26.651  1.00  0.00     0.049 A 
ATOM     78  H   UNL A   1      44.429  28.020  27.711  1.00  0.00     0.167 HD
ATOM     79  C   UNL A   1      46.923  29.152  26.996  1.00  0.00     0.074 A 
ATOM     80  C   UNL A   1      48.016  30.094  26.879  1.00  0.00     0.031 C 
ATOM     81  C   UNL A   1      46.969  27.875  26.541  1.00  0.00     0.037 A 
BRANCH  68  82
ATOM     82  C   UNL A   1      41.845  24.622  27.696  1.00  0.00     0.057 A 
ATOM     83  C   UNL A   1      42.150  23.540  28.530  1.00  0.00     0.134 A 
ATOM     84  C   UNL A   1      40.806  24.452  26.770  1.00  0.00     0.134 A 
ATOM     85  F   UNL A   1      43.145  23.631  29.427  1.00  0.00    -0.206 F 
ATOM     86  C   UNL A   1      41.461  22.329  28.436  1.00  0.00     0.040 A 
ATOM     87  C   UNL A   1      40.092  23.256  26.686  1.00  0.00     0.040 A 
ATOM     88  F   UNL A   1      40.462  25.449  25.941  1.00  0.00    -0.206 F 
ATOM     89  C   UNL A   1      40.422  22.188  27.516  1.00  0.00     0.006 A 
ENDBRANCH  68  82
BRANCH  69  90
ATOM     90  C   UNL A   1      46.334  33.481  28.742  1.00  0.00     0.057 A 
ATOM     91  C   UNL A   1      47.066  33.755  29.904  1.00  0.00     0.134 A 
ATOM     92  C   UNL A   1      46.259  34.492  27.777  1.00  0.00     0.134 A 
ATOM     93  F   UNL A   1      47.153  32.838  30.878  1.00  0.00    -0.206 F 
ATOM     94  C   UNL A   1      47.678  34.993  30.108  1.00  0.00     0.040 A 
ATOM     95  C   UNL A   1      46.891  35.724  27.954  1.00  0.00     0.040 A 
ATOM     96  F   UNL A   1      45.571  34.296  26.642  1.00  0.00    -0.206 F 
ATOM     97  C   UNL A   1      47.596  35.980  29.128  1.00  0.00     0.006 A 
ENDBRANCH  69  90
BRANCH  81  98
ATOM     98  C   UNL A   1      48.225  27.431  25.847  1.00  0.00     0.057 A 
ATOM     99  C   UNL A   1      49.315  26.904  26.553  1.00  0.00     0.134 A 
ATOM    100  C   UNL A   1      48.330  27.492  24.451  1.00  0.00     0.134 A 
ATOM    101  F   UNL A   1      49.285  26.827  27.892  1.00  0.00    -0.206 F 
ATOM    102  C   UNL A   1      50.473  26.480  25.897  1.00  0.00     0.040 A 
ATOM    103  C   UNL A   1      49.469  27.041  23.783  1.00  0.00     0.040 A 
ATOM    104  F   UNL A   1      47.320  27.973  23.711  1.00  0.00    -0.206 F 
ATOM    105  C   UNL A   1      50.549  26.541  24.507  1.00  0.00     0.006 A 
ENDBRANCH  81  98
ENDBRANCH  55  56
ENDBRANCH  48  50
ENDBRANCH  47  48
ENDBRANCH  46  47
ENDBRANCH  45  46
ENDBRANCH  44  45
ENDBRANCH  43  44
ENDBRANCH  42  43
ENDBRANCH  41  42
ENDBRANCH  40  41
ENDBRANCH   1  40
TORSDOF 31
ENDMDL
MODEL 3
REMARK VINA RESULT:      -8.9      4.112      7.631
REMARK SMILES [NH3+][C@@H](Cc1c[nH]c2ccccc12)C(=O)N[C@@H](CS)C(=O)N[C@@H](CO)C(=O)OCCOCCOCCOCCOC(=O)c1ccc(-c2c3nc(c(-c4c(F)cccc4F)c4ccc([nH]4)c(-c4c(F)cccc4F)c4nc(c(-c5c(F)cccc5F)c5ccc2[nH]5)C=C4)C=C3)cc1
REMARK SMILES IDX 31 1 30 2 29 3 28 4 27 5 25 6 26 7 22 8 21 9 19 10 20 11
REMARK SMILES IDX 16 13 15 14 13 15 14 16 2 18 1 19 3 23 4 24 5 25 12 26 6 27
REMARK SMILES IDX 7 28 11 29 8 31 10 32 9 33 17 34 18 35 23 37 24 38 32 40
REMARK SMILES IDX 33 41 34 42 35 43 36 44 37 45 38 46 39 47 40 48 41 49 42 50
REMARK SMILES IDX 43 51 95 52 44 53 94 54 45 55 46 56 47 57 88 58 48 59 93 60
REMARK SMILES IDX 87 61 89 62 49 63 92 64 86 65 85 66 50 68 76 69 59 70 75 71
REMARK SMILES IDX 60 72 63 73 74 74 90 75 61 76 62 77 73 79 91 80 64 81 51 82
REMARK SMILES IDX 52 83 57 84 53 85 54 86 56 87 58 88 55 89 77 90 78 91 83 92
REMARK SMILES IDX 79 93 80 94 82 95 84 96 81 97 65 98 66 99 71 100 67 101
REMARK SMILES IDX 68 102 70 103 72 104 69 105
REMARK H PARENT 21 12 15 17 1 20 1 21 1 22 6 30 18 36 24 39 89 67 63 78
REMARK Flexibility Score: inf
ROOT
ATOM      1  C   UNL A   1      32.256  25.180  26.890  1.00  0.00     0.188 C 
ENDROOT
BRANCH   1   2
ATOM      2  O   UNL A   1      32.787  23.987  26.340  1.00  0.00    -0.376 OA
BRANCH   2   3
ATOM      3  C   UNL A   1      34.062  23.504  26.737  1.00  0.00     0.202 C 
BRANCH   3   4
ATOM      4  C   UNL A   1      35.365  23.778  25.957  1.00  0.00     0.261 C 
BRANCH   4   5
ATOM      5  O   UNL A   1      35.940  22.666  25.264  1.00  0.00    -0.462 OA
BRANCH   5   6
ATOM      6  C   UNL A   1      35.078  21.769  24.716  1.00  0.00     0.331 C 
ATOM      7  O   UNL A   1      35.201  20.551  24.775  1.00  0.00    -0.250 OA
BRANCH   6   8
ATOM      8  C   UNL A   1      33.924  22.457  23.970  1.00  0.00     0.218 C 
BRANCH   8   9
ATOM      9  N   UNL A   1      34.281  23.052  22.681  1.00  0.00    -0.339 N 
ATOM     10  C   UNL A   1      33.508  23.880  21.936  1.00  0.00     0.244 C 
ATOM     11  O   UNL A   1      33.199  23.473  20.814  1.00  0.00    -0.273 OA
ATOM     12  H   UNL A   1      35.170  22.829  22.320  1.00  0.00     0.164 HD
BRANCH  10  13
ATOM     13  C   UNL A   1      32.962  25.226  22.477  1.00  0.00     0.181 C 
BRANCH  13  14
ATOM     14  N   UNL A   1      33.527  26.357  21.776  1.00  0.00    -0.338 N 
ATOM     15  C   UNL A   1      33.557  27.665  22.168  1.00  0.00     0.279 C 
ATOM     16  O   UNL A   1      34.394  28.373  21.594  1.00  0.00    -0.268 OA
ATOM     17  H   UNL A   1      33.943  26.160  20.905  1.00  0.00     0.164 HD
BRANCH  15  18
ATOM     18  C   UNL A   1      32.570  28.300  23.202  1.00  0.00     0.275 C 
BRANCH  18  19
ATOM     19  N   UNL A   1      33.230  29.386  23.959  1.00  0.00    -0.347 N 
ATOM     20  H   UNL A   1      33.103  30.270  23.467  1.00  0.00     0.345 HD
ATOM     21  H   UNL A   1      34.227  29.185  24.045  1.00  0.00     0.345 HD
ATOM     22  H   UNL A   1      32.816  29.453  24.889  1.00  0.00     0.345 HD
ENDBRANCH  18  19
BRANCH  18  23
ATOM     23  C   UNL A   1      31.092  28.536  22.792  1.00  0.00     0.113 C 
BRANCH  23  24
ATOM     24  C   UNL A   1      30.351  29.764  23.272  1.00  0.00    -0.016 A 
ATOM     25  C   UNL A   1      30.372  30.377  24.513  1.00  0.00     0.087 A 
ATOM     26  C   UNL A   1      29.438  30.540  22.470  1.00  0.00     0.003 A 
ATOM     27  N   UNL A   1      29.723  31.582  24.410  1.00  0.00    -0.361 N 
ATOM     28  C   UNL A   1      29.158  31.715  23.166  1.00  0.00     0.046 A 
ATOM     29  C   UNL A   1      28.874  30.375  21.187  1.00  0.00     0.010 A 
ATOM     30  H   UNL A   1      29.671  32.256  25.126  1.00  0.00     0.166 HD
ATOM     31  C   UNL A   1      28.426  32.771  22.607  1.00  0.00     0.026 A 
ATOM     32  C   UNL A   1      28.091  31.396  20.637  1.00  0.00     0.001 A 
ATOM     33  C   UNL A   1      27.896  32.588  21.326  1.00  0.00     0.002 A 
ENDBRANCH  23  24
ENDBRANCH  18  23
ENDBRANCH  15  18
ENDBRANCH  13  14
BRANCH  13  34
ATOM     34  C   UNL A   1      31.506  25.371  22.929  1.00  0.00     0.101 C 
BRANCH  34  35
ATOM     35  S   UNL A   1      30.621  23.888  23.485  1.00  0.00    -0.177 SA
ATOM     36  H   UNL A   1      30.586  22.977  22.475  1.00  0.00     0.102 HD
ENDBRANCH  34  35
ENDBRANCH  13  34
ENDBRANCH  10  13
ENDBRANCH   8   9
BRANCH   8  37
ATOM     37  C   UNL A   1      32.824  21.415  23.740  1.00  0.00     0.193 C 
BRANCH  37  38
ATOM     38  O   UNL A   1      32.175  21.077  24.969  1.00  0.00    -0.394 OA
ATOM     39  H   UNL A   1      31.967  20.129  24.975  1.00  0.00     0.210 HD
ENDBRANCH  37  38
ENDBRANCH   8  37
ENDBRANCH   6   8
ENDBRANCH   5   6
ENDBRANCH   4   5
ENDBRANCH   3   4
ENDBRANCH   2   3
ENDBRANCH   1   2
BRANCH   1  40
ATOM     40  C   UNL A   1      32.306  26.491  26.088  1.00  0.00     0.188 C 
BRANCH  40  41
ATOM     41  O   UNL A   1      31.290  27.403  26.444  1.00  0.00    -0.377 OA
BRANCH  41  42
ATOM     42  C   UNL A   1      31.578  28.207  27.582  1.00  0.00     0.188 C 
BRANCH  42  43
ATOM     43  C   UNL A   1      32.812  29.139  27.523  1.00  0.00     0.188 C 
BRANCH  43  44
ATOM     44  O   UNL A   1      32.559  30.386  26.884  1.00  0.00    -0.376 OA
BRANCH  44  45
ATOM     45  C   UNL A   1      33.295  31.529  27.285  1.00  0.00     0.202 C 
BRANCH  45  46
ATOM     46  C   UNL A   1      32.609  32.900  27.187  1.00  0.00     0.261 C 
BRANCH  46  47
ATOM     47  O   UNL A   1      32.451  33.630  28.410  1.00  0.00    -0.460 OA
BRANCH  47  48
ATOM     48  C   UNL A   1      33.374  34.574  28.685  1.00  0.00     0.338 C 
ATOM     49  O   UNL A   1      33.237  35.782  28.576  1.00  0.00    -0.246 OA
BRANCH  48  50
ATOM     50  C   UNL A   1      34.513  33.911  29.357  1.00  0.00     0.060 A 
ATOM     51  C   UNL A   1      35.804  34.126  28.856  1.00  0.00     0.016 A 
ATOM     52  C   UNL A   1      34.321  33.119  30.493  1.00  0.00     0.016 A 
ATOM     53  C   UNL A   1      36.905  33.539  29.479  1.00  0.00     0.010 A 
ATOM     54  C   UNL A   1      35.423  32.503  31.096  1.00  0.00     0.010 A 
ATOM     55  C   UNL A   1      36.717  32.693  30.577  1.00  0.00    -0.014 A 
BRANCH  55  56
ATOM     56  C   UNL A   1      37.850  31.878  31.076  1.00  0.00     0.031 A 
ATOM     57  C   UNL A   1      38.413  32.188  32.435  1.00  0.00     0.074 A 
ATOM     58  C   UNL A   1      38.356  30.867  30.349  1.00  0.00     0.049 A 
ATOM     59  N   UNL A   1      39.432  31.652  33.055  1.00  0.00    -0.248 NA
ATOM     60  C   UNL A   1      37.730  33.245  33.198  1.00  0.00     0.031 C 
ATOM     61  C   UNL A   1      37.865  30.437  29.041  1.00  0.00     0.029 A 
ATOM     62  N   UNL A   1      39.410  30.025  30.608  1.00  0.00    -0.354 N 
ATOM     63  C   UNL A   1      39.517  32.311  34.276  1.00  0.00     0.074 A 
ATOM     64  C   UNL A   1      38.463  33.302  34.299  1.00  0.00     0.031 C 
ATOM     65  C   UNL A   1      38.629  29.420  28.604  1.00  0.00     0.029 A 
ATOM     66  C   UNL A   1      39.684  29.156  29.580  1.00  0.00     0.049 A 
ATOM     67  H   UNL A   1      39.919  30.043  31.450  1.00  0.00     0.167 HD
ATOM     68  C   UNL A   1      40.392  32.104  35.288  1.00  0.00     0.037 A 
ATOM     69  C   UNL A   1      40.691  28.273  29.435  1.00  0.00     0.037 A 
ATOM     70  C   UNL A   1      41.445  31.122  35.256  1.00  0.00     0.049 A 
ATOM     71  C   UNL A   1      41.711  28.128  30.537  1.00  0.00     0.074 A 
ATOM     72  C   UNL A   1      42.373  30.824  36.240  1.00  0.00     0.029 A 
ATOM     73  N   UNL A   1      41.719  30.291  34.181  1.00  0.00    -0.354 N 
ATOM     74  N   UNL A   1      41.769  28.733  31.698  1.00  0.00    -0.248 NA
ATOM     75  C   UNL A   1      42.808  27.176  30.304  1.00  0.00     0.031 C 
ATOM     76  C   UNL A   1      43.247  29.857  35.734  1.00  0.00     0.029 A 
ATOM     77  C   UNL A   1      42.825  29.506  34.462  1.00  0.00     0.049 A 
ATOM     78  H   UNL A   1      41.203  30.263  33.343  1.00  0.00     0.167 HD
ATOM     79  C   UNL A   1      42.888  28.219  32.343  1.00  0.00     0.074 A 
ATOM     80  C   UNL A   1      43.469  27.238  31.452  1.00  0.00     0.031 C 
ATOM     81  C   UNL A   1      43.392  28.531  33.563  1.00  0.00     0.037 A 
BRANCH  68  82
ATOM     82  C   UNL A   1      40.271  32.980  36.501  1.00  0.00     0.057 A 
ATOM     83  C   UNL A   1      39.329  32.732  37.506  1.00  0.00     0.134 A 
ATOM     84  C   UNL A   1      41.136  34.068  36.680  1.00  0.00     0.134 A 
ATOM     85  F   UNL A   1      38.459  31.717  37.389  1.00  0.00    -0.206 F 
ATOM     86  C   UNL A   1      39.238  33.546  38.638  1.00  0.00     0.040 A 
ATOM     87  C   UNL A   1      41.073  34.871  37.820  1.00  0.00     0.040 A 
ATOM     88  F   UNL A   1      42.064  34.360  35.755  1.00  0.00    -0.206 F 
ATOM     89  C   UNL A   1      40.119  34.614  38.800  1.00  0.00     0.006 A 
ENDBRANCH  68  82
BRANCH  69  90
ATOM     90  C   UNL A   1      40.813  27.475  28.187  1.00  0.00     0.057 A 
ATOM     91  C   UNL A   1      41.479  27.978  27.063  1.00  0.00     0.134 A 
ATOM     92  C   UNL A   1      40.236  26.203  28.076  1.00  0.00     0.134 A 
ATOM     93  F   UNL A   1      42.029  29.200  27.096  1.00  0.00    -0.206 F 
ATOM     94  C   UNL A   1      41.547  27.257  25.869  1.00  0.00     0.040 A 
ATOM     95  C   UNL A   1      40.323  25.459  26.899  1.00  0.00     0.040 A 
ATOM     96  F   UNL A   1      39.581  25.664  29.115  1.00  0.00    -0.206 F 
ATOM     97  C   UNL A   1      40.973  25.990  25.787  1.00  0.00     0.006 A 
ENDBRANCH  69  90
BRANCH  81  98
ATOM     98  C   UNL A   1      44.613  27.783  34.021  1.00  0.00     0.057 A 
ATOM     99  C   UNL A   1      44.523  26.552  34.685  1.00  0.00     0.134 A 
ATOM    100  C   UNL A   1      45.896  28.281  33.756  1.00  0.00     0.134 A 
ATOM    101  F   UNL A   1      43.325  26.024  34.980  1.00  0.00    -0.206 F 
ATOM    102  C   UNL A   1      45.664  25.859  35.093  1.00  0.00     0.040 A 
ATOM    103  C   UNL A   1      47.043  27.580  34.129  1.00  0.00     0.040 A 
ATOM    104  F   UNL A   1      46.056  29.446  33.112  1.00  0.00    -0.206 F 
ATOM    105  C   UNL A   1      46.929  26.369  34.808  1.00  0.00     0.006 A 
ENDBRANCH  81  98
ENDBRANCH  55  56
ENDBRANCH  48  50
ENDBRANCH  47  48
ENDBRANCH  46  47
ENDBRANCH  45  46
ENDBRANCH  44  45
ENDBRANCH  43  44
ENDBRANCH  42  43
ENDBRANCH  41  42
ENDBRANCH  40  41
ENDBRANCH   1  40
TORSDOF 31
ENDMDL
