MODEL 1
REMARK VINA RESULT:     -10.4      0.000      0.000
REMARK SMILES COc1ccc([C@H]2[C@H](C(=O)OCCOCCOCCOCCOC(=O)c3ccc(-c4c5nc(c(-c6c(F)cccc6F)c6ccc([nH]6)c(-c6c(F)cccc6F)c6nc(c(-c7c(F)cccc7F)c7ccc4[nH]7)C=C6)C=C5)cc3)CCN2c2ccc(F)cc2)cc1
REMARK SMILES IDX 17 1 16 2 15 3 14 4 13 5 12 6 11 7 9 8 10 9 8 10 7 11 82 12
REMARK SMILES IDX 80 13 81 14 6 15 3 16 4 17 91 18 5 19 90 20 2 21 1 22 83 23
REMARK SMILES IDX 84 24 89 25 85 26 88 27 86 28 87 29 18 30 19 31 20 32 21 33
REMARK SMILES IDX 22 34 23 35 24 36 25 37 26 38 27 39 79 40 28 41 78 42 29 43
REMARK SMILES IDX 30 44 31 45 72 46 32 47 77 48 71 49 73 50 33 51 76 52 70 53
REMARK SMILES IDX 69 54 34 56 60 57 43 58 59 59 44 60 47 61 58 62 74 63 45 64
REMARK SMILES IDX 46 65 57 67 75 68 48 69 35 70 36 71 41 72 37 73 38 74 40 75
REMARK SMILES IDX 42 76 39 77 61 78 62 79 67 80 63 81 64 82 66 83 68 84 65 85
REMARK SMILES IDX 49 86 50 87 55 88 51 89 52 90 54 91 56 92 53 93
REMARK H PARENT 73 55 47 66
REMARK Flexibility Score: inf
ROOT
ATOM      1  O   UNL A   1      32.905  28.994  25.775  1.00  0.00    -0.377 OA
ENDROOT
BRANCH   1   2
ATOM      2  C   UNL A   1      32.594  27.622  25.693  1.00  0.00     0.188 C 
BRANCH   2   3
ATOM      3  C   UNL A   1      33.700  26.577  25.677  1.00  0.00     0.188 C 
BRANCH   3   4
ATOM      4  O   UNL A   1      33.455  25.512  24.789  1.00  0.00    -0.376 OA
BRANCH   4   5
ATOM      5  C   UNL A   1      33.122  25.653  23.423  1.00  0.00     0.202 C 
BRANCH   5   6
ATOM      6  C   UNL A   1      33.117  24.585  22.303  1.00  0.00     0.261 C 
BRANCH   6   7
ATOM      7  O   UNL A   1      33.166  23.183  22.608  1.00  0.00    -0.463 OA
BRANCH   7   8
ATOM      8  C   UNL A   1      32.078  22.678  23.240  1.00  0.00     0.311 C 
ATOM      9  O   UNL A   1      30.950  23.144  23.104  1.00  0.00    -0.252 OA
BRANCH   8  10
ATOM     10  C   UNL A   1      32.333  21.513  24.188  1.00  0.00     0.128 C 
ATOM     11  C   UNL A   1      33.754  20.947  24.396  1.00  0.00     0.127 C 
ATOM     12  N   UNL A   1      34.261  21.684  25.559  1.00  0.00    -0.364 N 
ATOM     13  C   UNL A   1      31.913  21.900  25.604  1.00  0.00     0.039 C 
ATOM     14  C   UNL A   1      33.203  22.413  26.247  1.00  0.00     0.118 C 
BRANCH  11  15
ATOM     15  C   UNL A   1      33.699  19.432  24.657  1.00  0.00    -0.024 A 
ATOM     16  C   UNL A   1      33.619  16.624  25.004  1.00  0.00     0.118 A 
ATOM     17  C   UNL A   1      34.754  17.238  24.477  1.00  0.00     0.047 A 
ATOM     18  C   UNL A   1      32.546  17.413  25.406  1.00  0.00     0.047 A 
ATOM     19  C   UNL A   1      34.796  18.627  24.305  1.00  0.00     0.010 A 
ATOM     20  C   UNL A   1      32.588  18.801  25.233  1.00  0.00     0.010 A 
BRANCH  16  21
ATOM     21  O   UNL A   1      33.681  15.261  25.109  1.00  0.00    -0.497 OA
ATOM     22  C   UNL A   1      32.538  14.639  25.690  1.00  0.00     0.278 C 
ENDBRANCH  16  21
ENDBRANCH  11  15
BRANCH  12  23
ATOM     23  C   UNL A   1      35.570  22.107  25.664  1.00  0.00     0.037 A 
ATOM     24  C   UNL A   1      35.853  23.425  26.050  1.00  0.00     0.029 A 
ATOM     25  C   UNL A   1      36.658  21.260  25.407  1.00  0.00     0.029 A 
ATOM     26  C   UNL A   1      37.169  23.867  26.222  1.00  0.00     0.041 A 
ATOM     27  C   UNL A   1      37.977  21.698  25.560  1.00  0.00     0.041 A 
ATOM     28  C   UNL A   1      38.221  22.996  25.978  1.00  0.00     0.123 A 
ATOM     29  F   UNL A   1      39.482  23.410  26.152  1.00  0.00    -0.207 F 
ENDBRANCH  12  23
ENDBRANCH   8  10
ENDBRANCH   7   8
ENDBRANCH   6   7
ENDBRANCH   5   6
ENDBRANCH   4   5
ENDBRANCH   3   4
ENDBRANCH   2   3
ENDBRANCH   1   2
BRANCH   1  30
ATOM     30  C   UNL A   1      33.588  29.410  26.939  1.00  0.00     0.188 C 
BRANCH  30  31
ATOM     31  C   UNL A   1      33.611  30.937  27.080  1.00  0.00     0.188 C 
BRANCH  31  32
ATOM     32  O   UNL A   1      33.727  31.569  28.352  1.00  0.00    -0.376 OA
BRANCH  32  33
ATOM     33  C   UNL A   1      34.932  32.191  28.763  1.00  0.00     0.202 C 
BRANCH  33  34
ATOM     34  C   UNL A   1      35.262  32.304  30.265  1.00  0.00     0.261 C 
BRANCH  34  35
ATOM     35  O   UNL A   1      36.589  31.956  30.682  1.00  0.00    -0.460 OA
BRANCH  35  36
ATOM     36  C   UNL A   1      36.773  30.695  31.134  1.00  0.00     0.338 C 
ATOM     37  O   UNL A   1      36.023  30.038  31.834  1.00  0.00    -0.246 OA
BRANCH  36  38
ATOM     38  C   UNL A   1      38.016  30.165  30.529  1.00  0.00     0.060 A 
ATOM     39  C   UNL A   1      39.042  29.704  31.364  1.00  0.00     0.016 A 
ATOM     40  C   UNL A   1      38.171  30.125  29.141  1.00  0.00     0.016 A 
ATOM     41  C   UNL A   1      40.217  29.187  30.817  1.00  0.00     0.010 A 
ATOM     42  C   UNL A   1      39.365  29.642  28.594  1.00  0.00     0.010 A 
ATOM     43  C   UNL A   1      40.399  29.180  29.429  1.00  0.00    -0.014 A 
BRANCH  43  44
ATOM     44  C   UNL A   1      41.717  28.823  28.852  1.00  0.00     0.031 A 
ATOM     45  C   UNL A   1      41.960  27.404  28.422  1.00  0.00     0.074 A 
ATOM     46  C   UNL A   1      42.686  29.746  28.710  1.00  0.00     0.049 A 
ATOM     47  N   UNL A   1      43.060  26.843  27.991  1.00  0.00    -0.248 NA
ATOM     48  C   UNL A   1      40.803  26.496  28.484  1.00  0.00     0.031 C 
ATOM     49  C   UNL A   1      42.557  31.165  29.030  1.00  0.00     0.029 A 
ATOM     50  N   UNL A   1      43.981  29.616  28.272  1.00  0.00    -0.354 N 
ATOM     51  C   UNL A   1      42.732  25.519  27.734  1.00  0.00     0.074 A 
ATOM     52  C   UNL A   1      41.335  25.353  28.077  1.00  0.00     0.031 C 
ATOM     53  C   UNL A   1      43.737  31.771  28.809  1.00  0.00     0.029 A 
ATOM     54  C   UNL A   1      44.713  30.774  28.367  1.00  0.00     0.049 A 
ATOM     55  H   UNL A   1      44.350  28.772  27.923  1.00  0.00     0.167 HD
ATOM     56  C   UNL A   1      43.522  24.530  27.252  1.00  0.00     0.037 A 
ATOM     57  C   UNL A   1      46.026  30.994  28.161  1.00  0.00     0.037 A 
ATOM     58  C   UNL A   1      44.914  24.693  26.924  1.00  0.00     0.049 A 
ATOM     59  C   UNL A   1      46.912  29.847  27.740  1.00  0.00     0.074 A 
ATOM     60  C   UNL A   1      45.795  23.753  26.419  1.00  0.00     0.029 A 
ATOM     61  N   UNL A   1      45.629  25.870  27.081  1.00  0.00    -0.354 N 
ATOM     62  N   UNL A   1      46.590  28.604  27.475  1.00  0.00    -0.248 NA
ATOM     63  C   UNL A   1      48.348  30.134  27.601  1.00  0.00     0.031 C 
ATOM     64  C   UNL A   1      47.057  24.345  26.323  1.00  0.00     0.029 A 
ATOM     65  C   UNL A   1      46.951  25.669  26.717  1.00  0.00     0.049 A 
ATOM     66  H   UNL A   1      45.254  26.721  27.402  1.00  0.00     0.167 HD
ATOM     67  C   UNL A   1      47.774  27.970  27.117  1.00  0.00     0.074 A 
ATOM     68  C   UNL A   1      48.819  28.969  27.177  1.00  0.00     0.031 C 
ATOM     69  C   UNL A   1      47.980  26.675  26.776  1.00  0.00     0.037 A 
BRANCH  56  70
ATOM     70  C   UNL A   1      42.909  23.174  27.074  1.00  0.00     0.057 A 
ATOM     71  C   UNL A   1      42.609  22.659  25.805  1.00  0.00     0.134 A 
ATOM     72  C   UNL A   1      42.668  22.350  28.180  1.00  0.00     0.134 A 
ATOM     73  F   UNL A   1      42.805  23.404  24.707  1.00  0.00    -0.206 F 
ATOM     74  C   UNL A   1      42.079  21.377  25.646  1.00  0.00     0.040 A 
ATOM     75  C   UNL A   1      42.163  21.057  28.031  1.00  0.00     0.040 A 
ATOM     76  F   UNL A   1      42.938  22.779  29.421  1.00  0.00    -0.206 F 
ATOM     77  C   UNL A   1      41.863  20.570  26.761  1.00  0.00     0.006 A 
ENDBRANCH  56  70
BRANCH  57  78
ATOM     78  C   UNL A   1      46.612  32.341  28.392  1.00  0.00     0.057 A 
ATOM     79  C   UNL A   1      47.198  32.677  29.619  1.00  0.00     0.134 A 
ATOM     80  C   UNL A   1      46.547  33.342  27.416  1.00  0.00     0.134 A 
ATOM     81  F   UNL A   1      47.265  31.771  30.605  1.00  0.00    -0.206 F 
ATOM     82  C   UNL A   1      47.674  33.965  29.875  1.00  0.00     0.040 A 
ATOM     83  C   UNL A   1      47.046  34.625  27.646  1.00  0.00     0.040 A 
ATOM     84  F   UNL A   1      45.994  33.090  26.220  1.00  0.00    -0.206 F 
ATOM     85  C   UNL A   1      47.602  34.942  28.884  1.00  0.00     0.006 A 
ENDBRANCH  57  78
BRANCH  69  86
ATOM     86  C   UNL A   1      49.380  26.265  26.419  1.00  0.00     0.057 A 
ATOM     87  C   UNL A   1      49.914  26.496  25.145  1.00  0.00     0.134 A 
ATOM     88  C   UNL A   1      50.223  25.683  27.376  1.00  0.00     0.134 A 
ATOM     89  F   UNL A   1      49.157  27.038  24.179  1.00  0.00    -0.206 F 
ATOM     90  C   UNL A   1      51.229  26.148  24.830  1.00  0.00     0.040 A 
ATOM     91  C   UNL A   1      51.547  25.356  27.081  1.00  0.00     0.040 A 
ATOM     92  F   UNL A   1      49.779  25.443  28.619  1.00  0.00    -0.206 F 
ATOM     93  C   UNL A   1      52.052  25.584  25.803  1.00  0.00     0.006 A 
ENDBRANCH  69  86
ENDBRANCH  43  44
ENDBRANCH  36  38
ENDBRANCH  35  36
ENDBRANCH  34  35
ENDBRANCH  33  34
ENDBRANCH  32  33
ENDBRANCH  31  32
ENDBRANCH  30  31
ENDBRANCH   1  30
TORSDOF 23
ENDMDL
MODEL 2
REMARK VINA RESULT:     -10.4      2.712      7.616
REMARK SMILES COc1ccc([C@H]2[C@H](C(=O)OCCOCCOCCOCCOC(=O)c3ccc(-c4c5nc(c(-c6c(F)cccc6F)c6ccc([nH]6)c(-c6c(F)cccc6F)c6nc(c(-c7c(F)cccc7F)c7ccc4[nH]7)C=C6)C=C5)cc3)CCN2c2ccc(F)cc2)cc1
REMARK SMILES IDX 17 1 16 2 15 3 14 4 13 5 12 6 11 7 9 8 10 9 8 10 7 11 82 12
REMARK SMILES IDX 80 13 81 14 6 15 3 16 4 17 91 18 5 19 90 20 2 21 1 22 83 23
REMARK SMILES IDX 84 24 89 25 85 26 88 27 86 28 87 29 18 30 19 31 20 32 21 33
REMARK SMILES IDX 22 34 23 35 24 36 25 37 26 38 27 39 79 40 28 41 78 42 29 43
REMARK SMILES IDX 30 44 31 45 72 46 32 47 77 48 71 49 73 50 33 51 76 52 70 53
REMARK SMILES IDX 69 54 34 56 60 57 43 58 59 59 44 60 47 61 58 62 74 63 45 64
REMARK SMILES IDX 46 65 57 67 75 68 48 69 35 70 36 71 41 72 37 73 38 74 40 75
REMARK SMILES IDX 42 76 39 77 61 78 62 79 67 80 63 81 64 82 66 83 68 84 65 85
REMARK SMILES IDX 49 86 50 87 55 88 51 89 52 90 54 91 56 92 53 93
REMARK H PARENT 73 55 47 66
REMARK Flexibility Score: inf
ROOT
ATOM      1  O   UNL A   1      32.652  34.560  29.104  1.00  0.00    -0.377 OA
ENDROOT
BRANCH   1   2
ATOM      2  C   UNL A   1      33.198  33.714  28.119  1.00  0.00     0.188 C 
BRANCH   2   3
ATOM      3  C   UNL A   1      32.292  32.879  27.226  1.00  0.00     0.188 C 
BRANCH   3   4
ATOM      4  O   UNL A   1      32.526  31.494  27.324  1.00  0.00    -0.376 OA
BRANCH   4   5
ATOM      5  C   UNL A   1      31.928  30.510  26.504  1.00  0.00     0.202 C 
BRANCH   5   6
ATOM      6  C   UNL A   1      31.600  29.033  26.832  1.00  0.00     0.261 C 
BRANCH   6   7
ATOM      7  O   UNL A   1      32.628  28.107  27.215  1.00  0.00    -0.463 OA
BRANCH   7   8
ATOM      8  C   UNL A   1      33.639  27.945  26.327  1.00  0.00     0.311 C 
ATOM      9  O   UNL A   1      34.611  28.695  26.278  1.00  0.00    -0.252 OA
BRANCH   8  10
ATOM     10  C   UNL A   1      33.487  26.797  25.338  1.00  0.00     0.128 C 
ATOM     11  C   UNL A   1      32.103  26.195  25.018  1.00  0.00     0.127 C 
ATOM     12  N   UNL A   1      31.654  26.946  23.839  1.00  0.00    -0.364 N 
ATOM     13  C   UNL A   1      33.992  27.231  23.963  1.00  0.00     0.039 C 
ATOM     14  C   UNL A   1      32.734  27.722  23.244  1.00  0.00     0.118 C 
BRANCH  11  15
ATOM     15  C   UNL A   1      32.224  24.690  24.727  1.00  0.00    -0.024 A 
ATOM     16  C   UNL A   1      32.541  21.910  24.289  1.00  0.00     0.118 A 
ATOM     17  C   UNL A   1      32.154  22.388  25.540  1.00  0.00     0.047 A 
ATOM     18  C   UNL A   1      32.718  22.812  23.244  1.00  0.00     0.047 A 
ATOM     19  C   UNL A   1      31.996  23.762  25.759  1.00  0.00     0.010 A 
ATOM     20  C   UNL A   1      32.561  24.185  23.463  1.00  0.00     0.010 A 
BRANCH  16  21
ATOM     21  O   UNL A   1      32.683  20.553  24.194  1.00  0.00    -0.497 OA
ATOM     22  C   UNL A   1      33.624  19.972  25.092  1.00  0.00     0.278 C 
ENDBRANCH  16  21
ENDBRANCH  11  15
BRANCH  12  23
ATOM     23  C   UNL A   1      30.344  27.331  23.652  1.00  0.00     0.037 A 
ATOM     24  C   UNL A   1      29.300  26.453  23.978  1.00  0.00     0.029 A 
ATOM     25  C   UNL A   1      29.995  28.594  23.149  1.00  0.00     0.029 A 
ATOM     26  C   UNL A   1      27.960  26.837  23.856  1.00  0.00     0.041 A 
ATOM     27  C   UNL A   1      28.658  28.979  23.008  1.00  0.00     0.041 A 
ATOM     28  C   UNL A   1      27.652  28.100  23.373  1.00  0.00     0.123 A 
ATOM     29  F   UNL A   1      26.371  28.476  23.265  1.00  0.00    -0.207 F 
ENDBRANCH  12  23
ENDBRANCH   8  10
ENDBRANCH   7   8
ENDBRANCH   6   7
ENDBRANCH   5   6
ENDBRANCH   4   5
ENDBRANCH   3   4
ENDBRANCH   2   3
ENDBRANCH   1   2
BRANCH   1  30
ATOM     30  C   UNL A   1      33.215  35.852  29.200  1.00  0.00     0.188 C 
BRANCH  30  31
ATOM     31  C   UNL A   1      33.300  36.339  30.652  1.00  0.00     0.188 C 
BRANCH  31  32
ATOM     32  O   UNL A   1      32.987  35.483  31.747  1.00  0.00    -0.376 OA
BRANCH  32  33
ATOM     33  C   UNL A   1      33.944  35.182  32.748  1.00  0.00     0.202 C 
BRANCH  33  34
ATOM     34  C   UNL A   1      35.365  34.744  32.342  1.00  0.00     0.261 C 
BRANCH  34  35
ATOM     35  O   UNL A   1      35.751  33.393  32.624  1.00  0.00    -0.460 OA
BRANCH  35  36
ATOM     36  C   UNL A   1      35.341  32.449  31.746  1.00  0.00     0.338 C 
ATOM     37  O   UNL A   1      34.209  32.245  31.346  1.00  0.00    -0.246 OA
BRANCH  36  38
ATOM     38  C   UNL A   1      36.539  31.747  31.232  1.00  0.00     0.060 A 
ATOM     39  C   UNL A   1      37.495  31.271  32.138  1.00  0.00     0.016 A 
ATOM     40  C   UNL A   1      36.719  31.560  29.860  1.00  0.00     0.016 A 
ATOM     41  C   UNL A   1      38.626  30.594  31.679  1.00  0.00     0.010 A 
ATOM     42  C   UNL A   1      37.872  30.914  29.397  1.00  0.00     0.010 A 
ATOM     43  C   UNL A   1      38.836  30.437  30.303  1.00  0.00    -0.014 A 
BRANCH  43  44
ATOM     44  C   UNL A   1      40.125  29.901  29.803  1.00  0.00     0.031 A 
ATOM     45  C   UNL A   1      41.303  30.828  29.697  1.00  0.00     0.074 A 
ATOM     46  C   UNL A   1      40.249  28.609  29.447  1.00  0.00     0.049 A 
ATOM     47  N   UNL A   1      42.490  30.609  29.193  1.00  0.00    -0.248 NA
ATOM     48  C   UNL A   1      41.117  32.184  30.236  1.00  0.00     0.031 C 
ATOM     49  C   UNL A   1      39.203  27.596  29.558  1.00  0.00     0.029 A 
ATOM     50  N   UNL A   1      41.314  27.935  28.900  1.00  0.00    -0.354 N 
ATOM     51  C   UNL A   1      43.190  31.797  29.350  1.00  0.00     0.074 A 
ATOM     52  C   UNL A   1      42.291  32.741  29.977  1.00  0.00     0.031 C 
ATOM     53  C   UNL A   1      39.667  26.434  29.064  1.00  0.00     0.029 A 
ATOM     54  C   UNL A   1      41.029  26.633  28.568  1.00  0.00     0.049 A 
ATOM     55  H   UNL A   1      42.198  28.347  28.759  1.00  0.00     0.167 HD
ATOM     56  C   UNL A   1      44.471  32.075  29.006  1.00  0.00     0.037 A 
ATOM     57  C   UNL A   1      41.768  25.722  27.905  1.00  0.00     0.037 A 
ATOM     58  C   UNL A   1      45.360  31.139  28.371  1.00  0.00     0.049 A 
ATOM     59  C   UNL A   1      43.148  26.096  27.424  1.00  0.00     0.074 A 
ATOM     60  C   UNL A   1      46.679  31.326  27.993  1.00  0.00     0.029 A 
ATOM     61  N   UNL A   1      45.017  29.846  28.007  1.00  0.00    -0.354 N 
ATOM     62  N   UNL A   1      43.813  27.212  27.599  1.00  0.00    -0.248 NA
ATOM     63  C   UNL A   1      43.876  25.084  26.644  1.00  0.00     0.031 C 
ATOM     64  C   UNL A   1      47.117  30.164  27.350  1.00  0.00     0.029 A 
ATOM     65  C   UNL A   1      46.089  29.235  27.375  1.00  0.00     0.049 A 
ATOM     66  H   UNL A   1      44.143  29.425  28.173  1.00  0.00     0.167 HD
ATOM     67  C   UNL A   1      45.041  27.028  26.972  1.00  0.00     0.074 A 
ATOM     68  C   UNL A   1      45.038  25.686  26.433  1.00  0.00     0.031 C 
ATOM     69  C   UNL A   1      46.075  27.896  26.848  1.00  0.00     0.037 A 
BRANCH  56  70
ATOM     70  C   UNL A   1      44.981  33.457  29.285  1.00  0.00     0.057 A 
ATOM     71  C   UNL A   1      45.651  33.771  30.475  1.00  0.00     0.134 A 
ATOM     72  C   UNL A   1      44.852  34.471  28.327  1.00  0.00     0.134 A 
ATOM     73  F   UNL A   1      45.796  32.846  31.437  1.00  0.00    -0.206 F 
ATOM     74  C   UNL A   1      46.162  35.049  30.708  1.00  0.00     0.040 A 
ATOM     75  C   UNL A   1      45.382  35.745  28.538  1.00  0.00     0.040 A 
ATOM     76  F   UNL A   1      44.227  34.235  27.165  1.00  0.00    -0.206 F 
ATOM     77  C   UNL A   1      46.035  36.037  29.733  1.00  0.00     0.006 A 
ENDBRANCH  56  70
BRANCH  57  78
ATOM     78  C   UNL A   1      41.213  24.376  27.603  1.00  0.00     0.057 A 
ATOM     79  C   UNL A   1      40.203  24.204  26.648  1.00  0.00     0.134 A 
ATOM     80  C   UNL A   1      41.636  23.239  28.302  1.00  0.00     0.134 A 
ATOM     81  F   UNL A   1      39.734  25.258  25.965  1.00  0.00    -0.206 F 
ATOM     82  C   UNL A   1      39.618  22.957  26.419  1.00  0.00     0.040 A 
ATOM     83  C   UNL A   1      41.082  21.982  28.062  1.00  0.00     0.040 A 
ATOM     84  F   UNL A   1      42.596  23.334  29.234  1.00  0.00    -0.206 F 
ATOM     85  C   UNL A   1      40.060  21.840  27.125  1.00  0.00     0.006 A 
ENDBRANCH  57  78
BRANCH  69  86
ATOM     86  C   UNL A   1      47.300  27.416  26.122  1.00  0.00     0.057 A 
ATOM     87  C   UNL A   1      48.365  26.808  26.796  1.00  0.00     0.134 A 
ATOM     88  C   UNL A   1      47.390  27.515  24.727  1.00  0.00     0.134 A 
ATOM     89  F   UNL A   1      48.348  26.694  28.133  1.00  0.00    -0.206 F 
ATOM     90  C   UNL A   1      49.485  26.329  26.111  1.00  0.00     0.040 A 
ATOM     91  C   UNL A   1      48.491  27.016  24.029  1.00  0.00     0.040 A 
ATOM     92  F   UNL A   1      46.400  28.078  24.018  1.00  0.00    -0.206 F 
ATOM     93  C   UNL A   1      49.544  26.425  24.723  1.00  0.00     0.006 A 
ENDBRANCH  69  86
ENDBRANCH  43  44
ENDBRANCH  36  38
ENDBRANCH  35  36
ENDBRANCH  34  35
ENDBRANCH  33  34
ENDBRANCH  32  33
ENDBRANCH  31  32
ENDBRANCH  30  31
ENDBRANCH   1  30
TORSDOF 23
ENDMDL
MODEL 3
REMARK VINA RESULT:     -10.2      2.208      6.983
REMARK SMILES COc1ccc([C@H]2[C@H](C(=O)OCCOCCOCCOCCOC(=O)c3ccc(-c4c5nc(c(-c6c(F)cccc6F)c6ccc([nH]6)c(-c6c(F)cccc6F)c6nc(c(-c7c(F)cccc7F)c7ccc4[nH]7)C=C6)C=C5)cc3)CCN2c2ccc(F)cc2)cc1
REMARK SMILES IDX 17 1 16 2 15 3 14 4 13 5 12 6 11 7 9 8 10 9 8 10 7 11 82 12
REMARK SMILES IDX 80 13 81 14 6 15 3 16 4 17 91 18 5 19 90 20 2 21 1 22 83 23
REMARK SMILES IDX 84 24 89 25 85 26 88 27 86 28 87 29 18 30 19 31 20 32 21 33
REMARK SMILES IDX 22 34 23 35 24 36 25 37 26 38 27 39 79 40 28 41 78 42 29 43
REMARK SMILES IDX 30 44 31 45 72 46 32 47 77 48 71 49 73 50 33 51 76 52 70 53
REMARK SMILES IDX 69 54 34 56 60 57 43 58 59 59 44 60 47 61 58 62 74 63 45 64
REMARK SMILES IDX 46 65 57 67 75 68 48 69 35 70 36 71 41 72 37 73 38 74 40 75
REMARK SMILES IDX 42 76 39 77 61 78 62 79 67 80 63 81 64 82 66 83 68 84 65 85
REMARK SMILES IDX 49 86 50 87 55 88 51 89 52 90 54 91 56 92 53 93
REMARK H PARENT 73 55 47 66
REMARK Flexibility Score: inf
ROOT
ATOM      1  O   UNL A   1      33.888  31.178  27.012  1.00  0.00    -0.377 OA
ENDROOT
BRANCH   1   2
ATOM      2  C   UNL A   1      32.861  30.214  27.000  1.00  0.00     0.188 C 
BRANCH   2   3
ATOM      3  C   UNL A   1      31.740  30.290  25.972  1.00  0.00     0.188 C 
BRANCH   3   4
ATOM      4  O   UNL A   1      31.663  29.157  25.138  1.00  0.00    -0.376 OA
BRANCH   4   5
ATOM      5  C   UNL A   1      32.054  27.850  25.506  1.00  0.00     0.202 C 
BRANCH   5   6
ATOM      6  C   UNL A   1      31.245  26.764  26.257  1.00  0.00     0.261 C 
BRANCH   6   7
ATOM      7  O   UNL A   1      31.901  25.724  26.997  1.00  0.00    -0.463 OA
BRANCH   7   8
ATOM      8  C   UNL A   1      31.586  24.454  26.640  1.00  0.00     0.311 C 
ATOM      9  O   UNL A   1      31.320  23.577  27.458  1.00  0.00    -0.252 OA
BRANCH   8  10
ATOM     10  C   UNL A   1      31.628  24.145  25.149  1.00  0.00     0.128 C 
ATOM     11  C   UNL A   1      32.969  23.975  24.405  1.00  0.00     0.127 C 
ATOM     12  N   UNL A   1      33.224  22.530  24.461  1.00  0.00    -0.364 N 
ATOM     13  C   UNL A   1      30.921  22.820  24.877  1.00  0.00     0.039 C 
ATOM     14  C   UNL A   1      32.049  21.786  24.895  1.00  0.00     0.118 C 
BRANCH  11  15
ATOM     15  C   UNL A   1      32.852  24.480  22.957  1.00  0.00    -0.024 A 
ATOM     16  C   UNL A   1      32.765  25.370  20.271  1.00  0.00     0.118 A 
ATOM     17  C   UNL A   1      33.033  24.034  20.564  1.00  0.00     0.047 A 
ATOM     18  C   UNL A   1      32.489  26.250  21.313  1.00  0.00     0.047 A 
ATOM     19  C   UNL A   1      33.077  23.591  21.891  1.00  0.00     0.010 A 
ATOM     20  C   UNL A   1      32.533  25.807  22.640  1.00  0.00     0.010 A 
BRANCH  16  21
ATOM     21  O   UNL A   1      32.768  25.694  18.942  1.00  0.00    -0.497 OA
ATOM     22  C   UNL A   1      31.614  25.290  18.211  1.00  0.00     0.278 C 
ENDBRANCH  16  21
ENDBRANCH  11  15
BRANCH  12  23
ATOM     23  C   UNL A   1      34.483  21.999  24.647  1.00  0.00     0.037 A 
ATOM     24  C   UNL A   1      34.639  20.623  24.869  1.00  0.00     0.029 A 
ATOM     25  C   UNL A   1      35.644  22.786  24.613  1.00  0.00     0.029 A 
ATOM     26  C   UNL A   1      35.907  20.046  25.001  1.00  0.00     0.041 A 
ATOM     27  C   UNL A   1      36.914  22.219  24.762  1.00  0.00     0.041 A 
ATOM     28  C   UNL A   1      37.034  20.851  24.944  1.00  0.00     0.123 A 
ATOM     29  F   UNL A   1      38.250  20.302  25.059  1.00  0.00    -0.207 F 
ENDBRANCH  12  23
ENDBRANCH   8  10
ENDBRANCH   7   8
ENDBRANCH   6   7
ENDBRANCH   5   6
ENDBRANCH   4   5
ENDBRANCH   3   4
ENDBRANCH   2   3
ENDBRANCH   1   2
BRANCH   1  30
ATOM     30  C   UNL A   1      34.060  31.891  28.219  1.00  0.00     0.188 C 
BRANCH  30  31
ATOM     31  C   UNL A   1      35.049  33.053  28.068  1.00  0.00     0.188 C 
BRANCH  31  32
ATOM     32  O   UNL A   1      34.832  34.309  28.705  1.00  0.00    -0.376 OA
BRANCH  32  33
ATOM     33  C   UNL A   1      34.035  34.418  29.872  1.00  0.00     0.202 C 
BRANCH  33  34
ATOM     34  C   UNL A   1      34.603  33.970  31.233  1.00  0.00     0.261 C 
BRANCH  34  35
ATOM     35  O   UNL A   1      34.871  32.573  31.414  1.00  0.00    -0.460 OA
BRANCH  35  36
ATOM     36  C   UNL A   1      35.754  32.245  32.384  1.00  0.00     0.338 C 
ATOM     37  O   UNL A   1      35.616  32.365  33.589  1.00  0.00    -0.246 OA
BRANCH  36  38
ATOM     38  C   UNL A   1      36.912  31.578  31.747  1.00  0.00     0.060 A 
ATOM     39  C   UNL A   1      37.871  30.953  32.553  1.00  0.00     0.016 A 
ATOM     40  C   UNL A   1      37.052  31.571  30.357  1.00  0.00     0.016 A 
ATOM     41  C   UNL A   1      38.965  30.306  31.976  1.00  0.00     0.010 A 
ATOM     42  C   UNL A   1      38.168  30.955  29.780  1.00  0.00     0.010 A 
ATOM     43  C   UNL A   1      39.135  30.328  30.586  1.00  0.00    -0.014 A 
BRANCH  43  44
ATOM     44  C   UNL A   1      40.391  29.821  29.982  1.00  0.00     0.031 A 
ATOM     45  C   UNL A   1      41.537  30.773  29.785  1.00  0.00     0.074 A 
ATOM     46  C   UNL A   1      40.513  28.533  29.611  1.00  0.00     0.049 A 
ATOM     47  N   UNL A   1      42.684  30.580  29.188  1.00  0.00    -0.248 NA
ATOM     48  C   UNL A   1      41.366  32.124  30.344  1.00  0.00     0.031 C 
ATOM     49  C   UNL A   1      39.501  27.497  29.802  1.00  0.00     0.029 A 
ATOM     50  N   UNL A   1      41.545  27.883  28.979  1.00  0.00    -0.354 N 
ATOM     51  C   UNL A   1      43.370  31.783  29.293  1.00  0.00     0.074 A 
ATOM     52  C   UNL A   1      42.503  32.706  29.993  1.00  0.00     0.031 C 
ATOM     53  C   UNL A   1      39.949  26.347  29.268  1.00  0.00     0.029 A 
ATOM     54  C   UNL A   1      41.262  26.577  28.665  1.00  0.00     0.049 A 
ATOM     55  H   UNL A   1      42.406  28.314  28.769  1.00  0.00     0.167 HD
ATOM     56  C   UNL A   1      44.612  32.089  28.848  1.00  0.00     0.037 A 
ATOM     57  C   UNL A   1      41.964  25.683  27.941  1.00  0.00     0.037 A 
ATOM     58  C   UNL A   1      45.467  31.174  28.140  1.00  0.00     0.049 A 
ATOM     59  C   UNL A   1      43.293  26.087  27.353  1.00  0.00     0.074 A 
ATOM     60  C   UNL A   1      46.747  31.389  27.659  1.00  0.00     0.029 A 
ATOM     61  N   UNL A   1      45.124  29.875  27.800  1.00  0.00    -0.354 N 
ATOM     62  N   UNL A   1      43.946  27.217  27.478  1.00  0.00    -0.248 NA
ATOM     63  C   UNL A   1      43.978  25.092  26.513  1.00  0.00     0.031 C 
ATOM     64  C   UNL A   1      47.156  30.239  26.979  1.00  0.00     0.029 A 
ATOM     65  C   UNL A   1      46.154  29.289  27.082  1.00  0.00     0.049 A 
ATOM     66  H   UNL A   1      44.275  29.435  28.033  1.00  0.00     0.167 HD
ATOM     67  C   UNL A   1      45.124  27.061  26.755  1.00  0.00     0.074 A 
ATOM     68  C   UNL A   1      45.106  25.720  26.212  1.00  0.00     0.031 C 
ATOM     69  C   UNL A   1      46.126  27.950  26.552  1.00  0.00     0.037 A 
BRANCH  56  70
ATOM     70  C   UNL A   1      45.114  33.481  29.091  1.00  0.00     0.057 A 
ATOM     71  C   UNL A   1      45.874  33.805  30.223  1.00  0.00     0.134 A 
ATOM     72  C   UNL A   1      44.884  34.495  28.153  1.00  0.00     0.134 A 
ATOM     73  F   UNL A   1      46.118  32.881  31.165  1.00  0.00    -0.206 F 
ATOM     74  C   UNL A   1      46.375  35.093  30.420  1.00  0.00     0.040 A 
ATOM     75  C   UNL A   1      45.401  35.780  28.326  1.00  0.00     0.040 A 
ATOM     76  F   UNL A   1      44.169  34.250  27.046  1.00  0.00    -0.206 F 
ATOM     77  C   UNL A   1      46.146  36.082  29.465  1.00  0.00     0.006 A 
ENDBRANCH  56  70
BRANCH  57  78
ATOM     78  C   UNL A   1      41.416  24.326  27.679  1.00  0.00     0.057 A 
ATOM     79  C   UNL A   1      40.400  24.122  26.737  1.00  0.00     0.134 A 
ATOM     80  C   UNL A   1      41.851  23.210  28.405  1.00  0.00     0.134 A 
ATOM     81  F   UNL A   1      39.919  25.155  26.029  1.00  0.00    -0.206 F 
ATOM     82  C   UNL A   1      39.820  22.867  26.544  1.00  0.00     0.040 A 
ATOM     83  C   UNL A   1      41.302  21.944  28.202  1.00  0.00     0.040 A 
ATOM     84  F   UNL A   1      42.817  23.335  29.327  1.00  0.00    -0.206 F 
ATOM     85  C   UNL A   1      40.274  21.771  27.276  1.00  0.00     0.006 A 
ENDBRANCH  57  78
BRANCH  69  86
ATOM     86  C   UNL A   1      47.298  27.499  25.728  1.00  0.00     0.057 A 
ATOM     87  C   UNL A   1      48.400  26.856  26.305  1.00  0.00     0.134 A 
ATOM     88  C   UNL A   1      47.300  27.660  24.336  1.00  0.00     0.134 A 
ATOM     89  F   UNL A   1      48.467  26.681  27.633  1.00  0.00    -0.206 F 
ATOM     90  C   UNL A   1      49.470  26.404  25.529  1.00  0.00     0.040 A 
ATOM     91  C   UNL A   1      48.351  27.188  23.547  1.00  0.00     0.040 A 
ATOM     92  F   UNL A   1      46.271  28.259  23.718  1.00  0.00    -0.206 F 
ATOM     93  C   UNL A   1      49.442  26.562  24.145  1.00  0.00     0.006 A 
ENDBRANCH  69  86
ENDBRANCH  43  44
ENDBRANCH  36  38
ENDBRANCH  35  36
ENDBRANCH  34  35
ENDBRANCH  33  34
ENDBRANCH  32  33
ENDBRANCH  31  32
ENDBRANCH  30  31
ENDBRANCH   1  30
TORSDOF 23
ENDMDL
