MODEL 1
REMARK VINA RESULT:      -9.6      0.000      0.000
REMARK SMILES COCc1nc2ccccc2n1CC(=O)OCCOCCOCCOCCOC(=O)c1ccc(-c2c3nc(c(-c4c(F)cccc4F)c4ccc([nH]4)c(-c4c(F)cccc4F)c4nc(c(-c5c(F)cccc5F)c5ccc2[nH]5)C=C4)C=C3)cc1
REMARK SMILES IDX 21 1 20 2 19 3 18 4 17 5 16 6 14 7 15 8 13 9 12 10 4 11 5 12
REMARK SMILES IDX 6 13 11 14 7 15 10 16 8 17 9 18 3 19 2 20 1 21 22 22 23 23
REMARK SMILES IDX 24 24 25 25 26 26 27 27 28 28 29 29 30 30 31 31 32 32 84 33
REMARK SMILES IDX 33 34 83 35 34 36 35 37 36 38 77 39 37 40 82 41 76 42 78 43
REMARK SMILES IDX 38 44 81 45 75 46 74 47 39 49 65 50 48 51 64 52 49 53 52 54
REMARK SMILES IDX 63 55 79 56 50 57 51 58 62 60 80 61 53 62 40 63 41 64 46 65
REMARK SMILES IDX 42 66 43 67 45 68 47 69 44 70 66 71 67 72 72 73 68 74 69 75
REMARK SMILES IDX 71 76 73 77 70 78 54 79 55 80 60 81 56 82 57 83 59 84 61 85
REMARK SMILES IDX 58 86
REMARK H PARENT 78 48 52 59
REMARK Flexibility Score: inf
ROOT
ATOM      1  C   UNL A   1      32.668  28.331  22.834  1.00  0.00     0.188 C 
ENDROOT
BRANCH   1   2
ATOM      2  C   UNL A   1      32.538  26.967  22.155  1.00  0.00     0.188 C 
BRANCH   2   3
ATOM      3  O   UNL A   1      33.698  26.156  21.940  1.00  0.00    -0.376 OA
BRANCH   3   4
ATOM      4  C   UNL A   1      33.933  25.059  22.815  1.00  0.00     0.202 C 
BRANCH   4   5
ATOM      5  C   UNL A   1      32.690  24.665  23.653  1.00  0.00     0.261 C 
BRANCH   5   6
ATOM      6  O   UNL A   1      32.879  24.696  25.099  1.00  0.00    -0.462 OA
BRANCH   6   7
ATOM      7  C   UNL A   1      33.018  23.505  25.728  1.00  0.00     0.326 C 
ATOM      8  O   UNL A   1      32.818  23.359  26.934  1.00  0.00    -0.250 OA
BRANCH   7   9
ATOM      9  C   UNL A   1      33.354  22.293  24.867  1.00  0.00     0.246 C 
BRANCH   9  10
ATOM     10  N   UNL A   1      34.685  21.666  24.871  1.00  0.00    -0.315 N 
ATOM     11  C   UNL A   1      34.985  20.295  24.869  1.00  0.00     0.136 A 
ATOM     12  N   UNL A   1      36.291  20.118  24.966  1.00  0.00    -0.231 NA
ATOM     13  C   UNL A   1      36.818  21.329  25.289  1.00  0.00     0.089 A 
ATOM     14  C   UNL A   1      35.849  22.326  25.239  1.00  0.00     0.069 A 
ATOM     15  C   UNL A   1      38.127  21.632  25.688  1.00  0.00     0.030 A 
ATOM     16  C   UNL A   1      36.139  23.654  25.576  1.00  0.00     0.028 A 
ATOM     17  C   UNL A   1      38.424  22.942  26.066  1.00  0.00     0.002 A 
ATOM     18  C   UNL A   1      37.444  23.934  26.009  1.00  0.00     0.002 A 
BRANCH  11  19
ATOM     19  C   UNL A   1      34.011  19.158  24.711  1.00  0.00     0.235 C 
BRANCH  19  20
ATOM     20  O   UNL A   1      34.672  17.988  24.213  1.00  0.00    -0.377 OA
ATOM     21  C   UNL A   1      33.792  17.103  23.519  1.00  0.00     0.195 C 
ENDBRANCH  19  20
ENDBRANCH  11  19
ENDBRANCH   9  10
ENDBRANCH   7   9
ENDBRANCH   6   7
ENDBRANCH   5   6
ENDBRANCH   4   5
ENDBRANCH   3   4
ENDBRANCH   2   3
ENDBRANCH   1   2
BRANCH   1  22
ATOM     22  O   UNL A   1      32.362  28.306  24.197  1.00  0.00    -0.377 OA
BRANCH  22  23
ATOM     23  C   UNL A   1      31.787  29.471  24.714  1.00  0.00     0.188 C 
BRANCH  23  24
ATOM     24  C   UNL A   1      31.976  29.727  26.208  1.00  0.00     0.188 C 
BRANCH  24  25
ATOM     25  O   UNL A   1      32.514  28.598  26.889  1.00  0.00    -0.376 OA
BRANCH  25  26
ATOM     26  C   UNL A   1      33.889  28.670  27.266  1.00  0.00     0.202 C 
BRANCH  26  27
ATOM     27  C   UNL A   1      34.487  30.057  27.585  1.00  0.00     0.261 C 
BRANCH  27  28
ATOM     28  O   UNL A   1      35.909  30.164  27.407  1.00  0.00    -0.460 OA
BRANCH  28  29
ATOM     29  C   UNL A   1      36.630  31.012  28.185  1.00  0.00     0.338 C 
ATOM     30  O   UNL A   1      36.267  32.063  28.640  1.00  0.00    -0.246 OA
BRANCH  29  31
ATOM     31  C   UNL A   1      37.768  30.185  28.689  1.00  0.00     0.060 A 
ATOM     32  C   UNL A   1      39.016  30.741  29.004  1.00  0.00     0.016 A 
ATOM     33  C   UNL A   1      37.641  28.804  28.479  1.00  0.00     0.016 A 
ATOM     34  C   UNL A   1      40.151  29.928  28.970  1.00  0.00     0.010 A 
ATOM     35  C   UNL A   1      38.780  28.006  28.392  1.00  0.00     0.010 A 
ATOM     36  C   UNL A   1      40.042  28.575  28.587  1.00  0.00    -0.014 A 
BRANCH  36  37
ATOM     37  C   UNL A   1      41.237  27.716  28.641  1.00  0.00     0.031 A 
ATOM     38  C   UNL A   1      41.993  27.962  29.892  1.00  0.00     0.074 A 
ATOM     39  C   UNL A   1      41.558  26.708  27.795  1.00  0.00     0.049 A 
ATOM     40  N   UNL A   1      43.234  28.290  30.017  1.00  0.00    -0.248 NA
ATOM     41  C   UNL A   1      41.221  28.016  31.149  1.00  0.00     0.031 C 
ATOM     42  C   UNL A   1      40.798  26.257  26.632  1.00  0.00     0.029 A 
ATOM     43  N   UNL A   1      42.588  25.796  27.842  1.00  0.00    -0.354 N 
ATOM     44  C   UNL A   1      43.443  28.385  31.387  1.00  0.00     0.074 A 
ATOM     45  C   UNL A   1      42.150  28.413  32.013  1.00  0.00     0.031 C 
ATOM     46  C   UNL A   1      41.269  25.064  26.210  1.00  0.00     0.029 A 
ATOM     47  C   UNL A   1      42.389  24.665  27.044  1.00  0.00     0.049 A 
ATOM     48  H   UNL A   1      43.396  25.928  28.390  1.00  0.00     0.167 HD
ATOM     49  C   UNL A   1      44.657  28.109  31.925  1.00  0.00     0.037 A 
ATOM     50  C   UNL A   1      43.029  23.462  27.090  1.00  0.00     0.037 A 
ATOM     51  C   UNL A   1      45.715  28.265  30.963  1.00  0.00     0.049 A 
ATOM     52  C   UNL A   1      44.307  23.660  27.813  1.00  0.00     0.074 A 
ATOM     53  C   UNL A   1      46.151  29.304  30.164  1.00  0.00     0.029 A 
ATOM     54  N   UNL A   1      46.304  27.132  30.462  1.00  0.00    -0.354 N 
ATOM     55  N   UNL A   1      45.330  24.289  27.313  1.00  0.00    -0.248 NA
ATOM     56  C   UNL A   1      44.299  23.533  29.263  1.00  0.00     0.031 C 
ATOM     57  C   UNL A   1      46.615  28.691  28.967  1.00  0.00     0.029 A 
ATOM     58  C   UNL A   1      46.481  27.311  29.116  1.00  0.00     0.049 A 
ATOM     59  H   UNL A   1      46.555  26.332  30.979  1.00  0.00     0.167 HD
ATOM     60  C   UNL A   1      45.817  25.039  28.371  1.00  0.00     0.074 A 
ATOM     61  C   UNL A   1      45.218  24.453  29.566  1.00  0.00     0.031 C 
ATOM     62  C   UNL A   1      46.419  26.243  28.149  1.00  0.00     0.037 A 
BRANCH  49  63
ATOM     63  C   UNL A   1      44.796  27.292  33.181  1.00  0.00     0.057 A 
ATOM     64  C   UNL A   1      45.107  27.835  34.449  1.00  0.00     0.134 A 
ATOM     65  C   UNL A   1      44.313  25.977  33.194  1.00  0.00     0.134 A 
ATOM     66  F   UNL A   1      45.482  29.109  34.619  1.00  0.00    -0.206 F 
ATOM     67  C   UNL A   1      44.945  27.125  35.638  1.00  0.00     0.040 A 
ATOM     68  C   UNL A   1      44.090  25.278  34.385  1.00  0.00     0.040 A 
ATOM     69  F   UNL A   1      43.958  25.366  32.053  1.00  0.00    -0.206 F 
ATOM     70  C   UNL A   1      44.403  25.853  35.612  1.00  0.00     0.006 A 
ENDBRANCH  49  63
BRANCH  50  71
ATOM     71  C   UNL A   1      42.543  22.099  26.726  1.00  0.00     0.057 A 
ATOM     72  C   UNL A   1      41.505  21.463  27.432  1.00  0.00     0.134 A 
ATOM     73  C   UNL A   1      43.244  21.272  25.827  1.00  0.00     0.134 A 
ATOM     74  F   UNL A   1      40.812  22.109  28.379  1.00  0.00    -0.206 F 
ATOM     75  C   UNL A   1      41.184  20.110  27.264  1.00  0.00     0.040 A 
ATOM     76  C   UNL A   1      42.942  19.908  25.660  1.00  0.00     0.040 A 
ATOM     77  F   UNL A   1      44.284  21.747  25.128  1.00  0.00    -0.206 F 
ATOM     78  C   UNL A   1      41.913  19.321  26.386  1.00  0.00     0.006 A 
ENDBRANCH  50  71
BRANCH  62  79
ATOM     79  C   UNL A   1      46.817  26.574  26.738  1.00  0.00     0.057 A 
ATOM     80  C   UNL A   1      48.145  26.362  26.352  1.00  0.00     0.134 A 
ATOM     81  C   UNL A   1      45.975  27.204  25.806  1.00  0.00     0.134 A 
ATOM     82  F   UNL A   1      49.018  25.813  27.211  1.00  0.00    -0.206 F 
ATOM     83  C   UNL A   1      48.618  26.746  25.097  1.00  0.00     0.040 A 
ATOM     84  C   UNL A   1      46.430  27.561  24.532  1.00  0.00     0.040 A 
ATOM     85  F   UNL A   1      44.715  27.535  26.117  1.00  0.00    -0.206 F 
ATOM     86  C   UNL A   1      47.757  27.338  24.177  1.00  0.00     0.006 A 
ENDBRANCH  62  79
ENDBRANCH  36  37
ENDBRANCH  29  31
ENDBRANCH  28  29
ENDBRANCH  27  28
ENDBRANCH  26  27
ENDBRANCH  25  26
ENDBRANCH  24  25
ENDBRANCH  23  24
ENDBRANCH  22  23
ENDBRANCH   1  22
TORSDOF 23
ENDMDL
MODEL 2
REMARK VINA RESULT:      -9.3      3.551      7.653
REMARK SMILES COCc1nc2ccccc2n1CC(=O)OCCOCCOCCOCCOC(=O)c1ccc(-c2c3nc(c(-c4c(F)cccc4F)c4ccc([nH]4)c(-c4c(F)cccc4F)c4nc(c(-c5c(F)cccc5F)c5ccc2[nH]5)C=C4)C=C3)cc1
REMARK SMILES IDX 21 1 20 2 19 3 18 4 17 5 16 6 14 7 15 8 13 9 12 10 4 11 5 12
REMARK SMILES IDX 6 13 11 14 7 15 10 16 8 17 9 18 3 19 2 20 1 21 22 22 23 23
REMARK SMILES IDX 24 24 25 25 26 26 27 27 28 28 29 29 30 30 31 31 32 32 84 33
REMARK SMILES IDX 33 34 83 35 34 36 35 37 36 38 77 39 37 40 82 41 76 42 78 43
REMARK SMILES IDX 38 44 81 45 75 46 74 47 39 49 65 50 48 51 64 52 49 53 52 54
REMARK SMILES IDX 63 55 79 56 50 57 51 58 62 60 80 61 53 62 40 63 41 64 46 65
REMARK SMILES IDX 42 66 43 67 45 68 47 69 44 70 66 71 67 72 72 73 68 74 69 75
REMARK SMILES IDX 71 76 73 77 70 78 54 79 55 80 60 81 56 82 57 83 59 84 61 85
REMARK SMILES IDX 58 86
REMARK H PARENT 78 48 52 59
REMARK Flexibility Score: inf
ROOT
ATOM      1  C   UNL A   1      31.645  28.928  22.911  1.00  0.00     0.188 C 
ENDROOT
BRANCH   1   2
ATOM      2  C   UNL A   1      32.376  27.591  23.040  1.00  0.00     0.188 C 
BRANCH   2   3
ATOM      3  O   UNL A   1      33.493  27.463  23.927  1.00  0.00    -0.376 OA
BRANCH   3   4
ATOM      4  C   UNL A   1      33.662  26.241  24.637  1.00  0.00     0.202 C 
BRANCH   4   5
ATOM      5  C   UNL A   1      32.344  25.444  24.808  1.00  0.00     0.261 C 
BRANCH   5   6
ATOM      6  O   UNL A   1      32.118  24.893  26.140  1.00  0.00    -0.462 OA
BRANCH   6   7
ATOM      7  C   UNL A   1      32.369  23.573  26.311  1.00  0.00     0.326 C 
ATOM      8  O   UNL A   1      32.386  23.034  27.418  1.00  0.00    -0.250 OA
BRANCH   7   9
ATOM      9  C   UNL A   1      32.551  22.725  25.057  1.00  0.00     0.246 C 
BRANCH   9  10
ATOM     10  N   UNL A   1      33.666  21.781  24.898  1.00  0.00    -0.315 N 
ATOM     11  C   UNL A   1      33.619  20.380  24.974  1.00  0.00     0.136 A 
ATOM     12  N   UNL A   1      34.837  19.880  24.868  1.00  0.00    -0.231 NA
ATOM     13  C   UNL A   1      35.693  20.930  24.984  1.00  0.00     0.089 A 
ATOM     14  C   UNL A   1      35.003  22.138  25.003  1.00  0.00     0.069 A 
ATOM     15  C   UNL A   1      37.087  20.908  25.128  1.00  0.00     0.030 A 
ATOM     16  C   UNL A   1      35.664  23.362  25.161  1.00  0.00     0.028 A 
ATOM     17  C   UNL A   1      37.758  22.115  25.327  1.00  0.00     0.002 A 
ATOM     18  C   UNL A   1      37.055  23.320  25.342  1.00  0.00     0.002 A 
BRANCH  11  19
ATOM     19  C   UNL A   1      32.386  19.523  25.088  1.00  0.00     0.235 C 
BRANCH  19  20
ATOM     20  O   UNL A   1      32.641  18.372  25.903  1.00  0.00    -0.377 OA
ATOM     21  C   UNL A   1      32.495  17.142  25.193  1.00  0.00     0.195 C 
ENDBRANCH  19  20
ENDBRANCH  11  19
ENDBRANCH   9  10
ENDBRANCH   7   9
ENDBRANCH   6   7
ENDBRANCH   5   6
ENDBRANCH   4   5
ENDBRANCH   3   4
ENDBRANCH   2   3
ENDBRANCH   1   2
BRANCH   1  22
ATOM     22  O   UNL A   1      30.691  29.139  23.910  1.00  0.00    -0.377 OA
BRANCH  22  23
ATOM     23  C   UNL A   1      31.023  30.091  24.878  1.00  0.00     0.188 C 
BRANCH  23  24
ATOM     24  C   UNL A   1      31.842  29.603  26.072  1.00  0.00     0.188 C 
BRANCH  24  25
ATOM     25  O   UNL A   1      32.131  30.648  26.995  1.00  0.00    -0.376 OA
BRANCH  25  26
ATOM     26  C   UNL A   1      31.445  31.885  26.801  1.00  0.00     0.202 C 
BRANCH  26  27
ATOM     27  C   UNL A   1      32.218  33.196  27.055  1.00  0.00     0.261 C 
BRANCH  27  28
ATOM     28  O   UNL A   1      32.504  33.479  28.435  1.00  0.00    -0.460 OA
BRANCH  28  29
ATOM     29  C   UNL A   1      32.984  34.698  28.794  1.00  0.00     0.338 C 
ATOM     30  O   UNL A   1      32.346  35.691  29.018  1.00  0.00    -0.246 OA
BRANCH  29  31
ATOM     31  C   UNL A   1      34.380  34.430  29.254  1.00  0.00     0.060 A 
ATOM     32  C   UNL A   1      35.502  34.844  28.521  1.00  0.00     0.016 A 
ATOM     33  C   UNL A   1      34.504  33.442  30.242  1.00  0.00     0.016 A 
ATOM     34  C   UNL A   1      36.712  34.165  28.688  1.00  0.00     0.010 A 
ATOM     35  C   UNL A   1      35.696  32.731  30.368  1.00  0.00     0.010 A 
ATOM     36  C   UNL A   1      36.788  33.057  29.557  1.00  0.00    -0.014 A 
BRANCH  36  37
ATOM     37  C   UNL A   1      38.091  32.410  29.783  1.00  0.00     0.031 A 
ATOM     38  C   UNL A   1      38.062  31.008  29.302  1.00  0.00     0.074 A 
ATOM     39  C   UNL A   1      39.236  33.002  30.199  1.00  0.00     0.049 A 
ATOM     40  N   UNL A   1      38.342  29.937  29.963  1.00  0.00    -0.248 NA
ATOM     41  C   UNL A   1      37.481  30.765  27.967  1.00  0.00     0.031 C 
ATOM     42  C   UNL A   1      39.431  34.411  30.531  1.00  0.00     0.029 A 
ATOM     43  N   UNL A   1      40.509  32.493  30.327  1.00  0.00    -0.354 N 
ATOM     44  C   UNL A   1      38.170  28.900  29.053  1.00  0.00     0.074 A 
ATOM     45  C   UNL A   1      37.453  29.436  27.930  1.00  0.00     0.031 C 
ATOM     46  C   UNL A   1      40.751  34.683  30.624  1.00  0.00     0.029 A 
ATOM     47  C   UNL A   1      41.511  33.467  30.395  1.00  0.00     0.049 A 
ATOM     48  H   UNL A   1      40.699  31.528  30.366  1.00  0.00     0.167 HD
ATOM     49  C   UNL A   1      38.908  27.767  29.147  1.00  0.00     0.037 A 
ATOM     50  C   UNL A   1      42.855  33.326  30.210  1.00  0.00     0.037 A 
ATOM     51  C   UNL A   1      39.400  27.558  30.482  1.00  0.00     0.049 A 
ATOM     52  C   UNL A   1      43.184  31.892  30.381  1.00  0.00     0.074 A 
ATOM     53  C   UNL A   1      38.807  27.440  31.724  1.00  0.00     0.029 A 
ATOM     54  N   UNL A   1      40.734  27.776  30.720  1.00  0.00    -0.354 N 
ATOM     55  N   UNL A   1      43.184  31.281  31.529  1.00  0.00    -0.248 NA
ATOM     56  C   UNL A   1      43.094  31.027  29.213  1.00  0.00     0.031 C 
ATOM     57  C   UNL A   1      39.723  28.033  32.638  1.00  0.00     0.029 A 
ATOM     58  C   UNL A   1      40.843  28.439  31.914  1.00  0.00     0.049 A 
ATOM     59  H   UNL A   1      41.479  27.505  30.136  1.00  0.00     0.167 HD
ATOM     60  C   UNL A   1      42.614  30.048  31.257  1.00  0.00     0.074 A 
ATOM     61  C   UNL A   1      42.681  29.904  29.807  1.00  0.00     0.031 C 
ATOM     62  C   UNL A   1      41.878  29.401  32.206  1.00  0.00     0.037 A 
BRANCH  49  63
ATOM     63  C   UNL A   1      39.515  27.118  27.932  1.00  0.00     0.057 A 
ATOM     64  C   UNL A   1      40.441  27.755  27.073  1.00  0.00     0.134 A 
ATOM     65  C   UNL A   1      39.412  25.729  27.780  1.00  0.00     0.134 A 
ATOM     66  F   UNL A   1      40.731  29.059  27.160  1.00  0.00    -0.206 F 
ATOM     67  C   UNL A   1      41.209  27.061  26.139  1.00  0.00     0.040 A 
ATOM     68  C   UNL A   1      40.221  25.017  26.889  1.00  0.00     0.040 A 
ATOM     69  F   UNL A   1      38.588  25.014  28.560  1.00  0.00    -0.206 F 
ATOM     70  C   UNL A   1      41.126  25.682  26.067  1.00  0.00     0.006 A 
ENDBRANCH  49  63
BRANCH  50  71
ATOM     71  C   UNL A   1      43.865  34.304  29.709  1.00  0.00     0.057 A 
ATOM     72  C   UNL A   1      43.859  34.768  28.381  1.00  0.00     0.134 A 
ATOM     73  C   UNL A   1      45.018  34.631  30.448  1.00  0.00     0.134 A 
ATOM     74  F   UNL A   1      42.863  34.457  27.540  1.00  0.00    -0.206 F 
ATOM     75  C   UNL A   1      44.915  35.499  27.822  1.00  0.00     0.040 A 
ATOM     76  C   UNL A   1      46.093  35.351  29.896  1.00  0.00     0.040 A 
ATOM     77  F   UNL A   1      45.165  34.208  31.711  1.00  0.00    -0.206 F 
ATOM     78  C   UNL A   1      46.046  35.781  28.575  1.00  0.00     0.006 A 
ENDBRANCH  50  71
BRANCH  62  79
ATOM     79  C   UNL A   1      41.968  29.900  33.621  1.00  0.00     0.057 A 
ATOM     80  C   UNL A   1      42.803  29.221  34.514  1.00  0.00     0.134 A 
ATOM     81  C   UNL A   1      41.173  30.931  34.148  1.00  0.00     0.134 A 
ATOM     82  F   UNL A   1      43.551  28.190  34.091  1.00  0.00    -0.206 F 
ATOM     83  C   UNL A   1      42.857  29.553  35.869  1.00  0.00     0.040 A 
ATOM     84  C   UNL A   1      41.245  31.295  35.496  1.00  0.00     0.040 A 
ATOM     85  F   UNL A   1      40.274  31.574  33.391  1.00  0.00    -0.206 F 
ATOM     86  C   UNL A   1      42.085  30.601  36.362  1.00  0.00     0.006 A 
ENDBRANCH  62  79
ENDBRANCH  36  37
ENDBRANCH  29  31
ENDBRANCH  28  29
ENDBRANCH  27  28
ENDBRANCH  26  27
ENDBRANCH  25  26
ENDBRANCH  24  25
ENDBRANCH  23  24
ENDBRANCH  22  23
ENDBRANCH   1  22
TORSDOF 23
ENDMDL
MODEL 3
REMARK VINA RESULT:      -9.2      4.764      9.951
REMARK SMILES COCc1nc2ccccc2n1CC(=O)OCCOCCOCCOCCOC(=O)c1ccc(-c2c3nc(c(-c4c(F)cccc4F)c4ccc([nH]4)c(-c4c(F)cccc4F)c4nc(c(-c5c(F)cccc5F)c5ccc2[nH]5)C=C4)C=C3)cc1
REMARK SMILES IDX 21 1 20 2 19 3 18 4 17 5 16 6 14 7 15 8 13 9 12 10 4 11 5 12
REMARK SMILES IDX 6 13 11 14 7 15 10 16 8 17 9 18 3 19 2 20 1 21 22 22 23 23
REMARK SMILES IDX 24 24 25 25 26 26 27 27 28 28 29 29 30 30 31 31 32 32 84 33
REMARK SMILES IDX 33 34 83 35 34 36 35 37 36 38 77 39 37 40 82 41 76 42 78 43
REMARK SMILES IDX 38 44 81 45 75 46 74 47 39 49 65 50 48 51 64 52 49 53 52 54
REMARK SMILES IDX 63 55 79 56 50 57 51 58 62 60 80 61 53 62 40 63 41 64 46 65
REMARK SMILES IDX 42 66 43 67 45 68 47 69 44 70 66 71 67 72 72 73 68 74 69 75
REMARK SMILES IDX 71 76 73 77 70 78 54 79 55 80 60 81 56 82 57 83 59 84 61 85
REMARK SMILES IDX 58 86
REMARK H PARENT 78 48 52 59
REMARK Flexibility Score: inf
ROOT
ATOM      1  C   UNL A   1      37.474  21.101  24.868  1.00  0.00     0.188 C 
ENDROOT
BRANCH   1   2
ATOM      2  C   UNL A   1      36.011  21.402  24.544  1.00  0.00     0.188 C 
BRANCH   2   3
ATOM      3  O   UNL A   1      35.136  21.906  25.559  1.00  0.00    -0.376 OA
BRANCH   3   4
ATOM      4  C   UNL A   1      34.601  23.216  25.408  1.00  0.00     0.202 C 
BRANCH   4   5
ATOM      5  C   UNL A   1      33.213  23.392  26.075  1.00  0.00     0.261 C 
BRANCH   5   6
ATOM      6  O   UNL A   1      32.639  24.730  25.974  1.00  0.00    -0.462 OA
BRANCH   6   7
ATOM      7  C   UNL A   1      31.964  25.026  24.839  1.00  0.00     0.326 C 
ATOM      8  O   UNL A   1      31.041  24.334  24.411  1.00  0.00    -0.250 OA
BRANCH   7   9
ATOM      9  C   UNL A   1      32.326  26.324  24.126  1.00  0.00     0.246 C 
BRANCH   9  10
ATOM     10  N   UNL A   1      31.943  27.644  24.646  1.00  0.00    -0.315 N 
ATOM     11  C   UNL A   1      31.081  28.581  24.054  1.00  0.00     0.136 A 
ATOM     12  N   UNL A   1      31.053  29.688  24.773  1.00  0.00    -0.231 NA
ATOM     13  C   UNL A   1      32.068  29.587  25.671  1.00  0.00     0.089 A 
ATOM     14  C   UNL A   1      32.650  28.323  25.628  1.00  0.00     0.069 A 
ATOM     15  C   UNL A   1      32.576  30.572  26.529  1.00  0.00     0.030 A 
ATOM     16  C   UNL A   1      33.749  27.990  26.430  1.00  0.00     0.028 A 
ATOM     17  C   UNL A   1      33.695  30.270  27.306  1.00  0.00     0.002 A 
ATOM     18  C   UNL A   1      34.268  28.999  27.255  1.00  0.00     0.002 A 
BRANCH  11  19
ATOM     19  C   UNL A   1      30.238  28.379  22.822  1.00  0.00     0.235 C 
BRANCH  19  20
ATOM     20  O   UNL A   1      28.858  28.218  23.172  1.00  0.00    -0.377 OA
ATOM     21  C   UNL A   1      28.059  29.349  22.826  1.00  0.00     0.195 C 
ENDBRANCH  19  20
ENDBRANCH  11  19
ENDBRANCH   9  10
ENDBRANCH   7   9
ENDBRANCH   6   7
ENDBRANCH   5   6
ENDBRANCH   4   5
ENDBRANCH   3   4
ENDBRANCH   2   3
ENDBRANCH   1   2
BRANCH   1  22
ATOM     22  O   UNL A   1      37.962  21.821  25.962  1.00  0.00    -0.377 OA
BRANCH  22  23
ATOM     23  C   UNL A   1      39.352  21.839  26.109  1.00  0.00     0.188 C 
BRANCH  23  24
ATOM     24  C   UNL A   1      40.051  20.485  26.218  1.00  0.00     0.188 C 
BRANCH  24  25
ATOM     25  O   UNL A   1      41.449  20.613  26.457  1.00  0.00    -0.376 OA
BRANCH  25  26
ATOM     26  C   UNL A   1      42.054  21.851  26.082  1.00  0.00     0.202 C 
BRANCH  26  27
ATOM     27  C   UNL A   1      42.572  22.780  27.201  1.00  0.00     0.261 C 
BRANCH  27  28
ATOM     28  O   UNL A   1      41.761  23.938  27.458  1.00  0.00    -0.460 OA
BRANCH  28  29
ATOM     29  C   UNL A   1      41.951  25.074  26.739  1.00  0.00     0.338 C 
ATOM     30  O   UNL A   1      42.323  25.158  25.600  1.00  0.00    -0.246 OA
BRANCH  29  31
ATOM     31  C   UNL A   1      41.211  26.128  27.499  1.00  0.00     0.060 A 
ATOM     32  C   UNL A   1      40.460  27.123  26.859  1.00  0.00     0.016 A 
ATOM     33  C   UNL A   1      41.605  26.286  28.836  1.00  0.00     0.016 A 
ATOM     34  C   UNL A   1      40.228  28.332  27.522  1.00  0.00     0.010 A 
ATOM     35  C   UNL A   1      41.419  27.510  29.475  1.00  0.00     0.010 A 
ATOM     36  C   UNL A   1      40.774  28.553  28.802  1.00  0.00    -0.014 A 
BRANCH  36  37
ATOM     37  C   UNL A   1      40.445  29.798  29.517  1.00  0.00     0.031 A 
ATOM     38  C   UNL A   1      41.648  30.655  29.641  1.00  0.00     0.074 A 
ATOM     39  C   UNL A   1      39.214  30.234  29.877  1.00  0.00     0.049 A 
ATOM     40  N   UNL A   1      42.166  31.144  30.717  1.00  0.00    -0.248 NA
ATOM     41  C   UNL A   1      42.470  30.844  28.430  1.00  0.00     0.031 C 
ATOM     42  C   UNL A   1      37.938  29.559  29.648  1.00  0.00     0.029 A 
ATOM     43  N   UNL A   1      38.818  31.425  30.443  1.00  0.00    -0.354 N 
ATOM     44  C   UNL A   1      43.264  31.877  30.283  1.00  0.00     0.074 A 
ATOM     45  C   UNL A   1      43.521  31.493  28.923  1.00  0.00     0.031 C 
ATOM     46  C   UNL A   1      36.919  30.414  29.880  1.00  0.00     0.029 A 
ATOM     47  C   UNL A   1      37.452  31.696  30.309  1.00  0.00     0.049 A 
ATOM     48  H   UNL A   1      39.441  32.033  30.901  1.00  0.00     0.167 HD
ATOM     49  C   UNL A   1      43.678  32.974  30.964  1.00  0.00     0.037 A 
ATOM     50  C   UNL A   1      36.796  32.882  30.462  1.00  0.00     0.037 A 
ATOM     51  C   UNL A   1      43.258  32.939  32.339  1.00  0.00     0.049 A 
ATOM     52  C   UNL A   1      37.671  33.779  31.253  1.00  0.00     0.074 A 
ATOM     53  C   UNL A   1      43.438  32.053  33.384  1.00  0.00     0.029 A 
ATOM     54  N   UNL A   1      42.241  33.775  32.725  1.00  0.00    -0.354 N 
ATOM     55  N   UNL A   1      37.896  33.634  32.525  1.00  0.00    -0.248 NA
ATOM     56  C   UNL A   1      38.643  34.591  30.535  1.00  0.00     0.031 C 
ATOM     57  C   UNL A   1      42.236  32.116  34.143  1.00  0.00     0.029 A 
ATOM     58  C   UNL A   1      41.408  33.068  33.551  1.00  0.00     0.049 A 
ATOM     59  H   UNL A   1      42.130  34.716  32.456  1.00  0.00     0.167 HD
ATOM     60  C   UNL A   1      39.247  33.906  32.664  1.00  0.00     0.074 A 
ATOM     61  C   UNL A   1      39.629  34.594  31.436  1.00  0.00     0.031 C 
ATOM     62  C   UNL A   1      39.984  33.283  33.629  1.00  0.00     0.037 A 
BRANCH  49  63
ATOM     63  C   UNL A   1      44.077  34.240  30.254  1.00  0.00     0.057 A 
ATOM     64  C   UNL A   1      43.194  35.021  29.473  1.00  0.00     0.134 A 
ATOM     65  C   UNL A   1      45.284  34.861  30.598  1.00  0.00     0.134 A 
ATOM     66  F   UNL A   1      41.961  34.613  29.147  1.00  0.00    -0.206 F 
ATOM     67  C   UNL A   1      43.489  36.323  29.070  1.00  0.00     0.040 A 
ATOM     68  C   UNL A   1      45.564  36.187  30.250  1.00  0.00     0.040 A 
ATOM     69  F   UNL A   1      46.188  34.227  31.360  1.00  0.00    -0.206 F 
ATOM     70  C   UNL A   1      44.663  36.923  29.488  1.00  0.00     0.006 A 
ENDBRANCH  49  63
BRANCH  50  71
ATOM     71  C   UNL A   1      35.545  33.379  29.819  1.00  0.00     0.057 A 
ATOM     72  C   UNL A   1      35.410  33.471  28.422  1.00  0.00     0.134 A 
ATOM     73  C   UNL A   1      34.527  34.013  30.558  1.00  0.00     0.134 A 
ATOM     74  F   UNL A   1      36.350  32.987  27.599  1.00  0.00    -0.206 F 
ATOM     75  C   UNL A   1      34.349  34.141  27.799  1.00  0.00     0.040 A 
ATOM     76  C   UNL A   1      33.464  34.701  29.946  1.00  0.00     0.040 A 
ATOM     77  F   UNL A   1      34.566  34.036  31.897  1.00  0.00    -0.206 F 
ATOM     78  C   UNL A   1      33.377  34.773  28.561  1.00  0.00     0.006 A 
ENDBRANCH  50  71
BRANCH  62  79
ATOM     79  C   UNL A   1      39.241  32.556  34.714  1.00  0.00     0.057 A 
ATOM     80  C   UNL A   1      38.948  33.243  35.897  1.00  0.00     0.134 A 
ATOM     81  C   UNL A   1      38.926  31.187  34.677  1.00  0.00     0.134 A 
ATOM     82  F   UNL A   1      39.269  34.540  36.023  1.00  0.00    -0.206 F 
ATOM     83  C   UNL A   1      38.360  32.607  36.992  1.00  0.00     0.040 A 
ATOM     84  C   UNL A   1      38.305  30.548  35.755  1.00  0.00     0.040 A 
ATOM     85  F   UNL A   1      39.255  30.425  33.625  1.00  0.00    -0.206 F 
ATOM     86  C   UNL A   1      38.026  31.257  36.919  1.00  0.00     0.006 A 
ENDBRANCH  62  79
ENDBRANCH  36  37
ENDBRANCH  29  31
ENDBRANCH  28  29
ENDBRANCH  27  28
ENDBRANCH  26  27
ENDBRANCH  25  26
ENDBRANCH  24  25
ENDBRANCH  23  24
ENDBRANCH  22  23
ENDBRANCH   1  22
TORSDOF 23
ENDMDL
