MODEL 1
REMARK VINA RESULT:     -10.9      0.000      0.000
REMARK SMILES O=C(OCCOCCOCCOCCOC(=O)c1nn(Cc2ccc(F)cc2)c2c1CN(C(=O)[C@H]1CC1(F)F)CC2)c1ccc(-c2c3nc(c(-c4c(F)cccc4F)c4ccc([nH]4)c(-c4c(F)cccc4F)c4nc(c(-c5c(F)cccc5F)c5ccc2[nH]5)C=C4)C=C3)cc1
REMARK SMILES IDX 9 1 8 2 7 3 6 4 5 5 4 6 3 7 2 8 1 9 42 10 43 11 95 12 44 13
REMARK SMILES IDX 94 14 45 15 46 16 47 17 88 18 48 19 93 20 87 21 89 22 49 23
REMARK SMILES IDX 92 24 86 25 85 26 50 28 76 29 59 30 75 31 60 32 63 33 74 34
REMARK SMILES IDX 90 35 61 36 62 37 73 39 91 40 64 41 51 42 52 43 57 44 53 45
REMARK SMILES IDX 54 46 56 47 58 48 55 49 77 50 78 51 83 52 79 53 80 54 82 55
REMARK SMILES IDX 84 56 81 57 65 58 66 59 71 60 67 61 68 62 70 63 72 64 69 65
REMARK SMILES IDX 10 66 11 67 12 68 13 69 14 70 15 71 16 72 17 73 18 74 19 75
REMARK SMILES IDX 30 76 20 77 29 78 31 79 41 80 32 81 40 82 21 83 22 84 23 85
REMARK SMILES IDX 28 86 24 87 27 88 25 89 26 90 33 91 34 92 35 93 36 94 37 95
REMARK SMILES IDX 38 96 39 97
REMARK H PARENT 89 27 63 38
REMARK Flexibility Score: inf
ROOT
ATOM      1  O   UNL A   1      30.340  25.231  26.496  1.00  0.00    -0.377 OA
ENDROOT
BRANCH   1   2
ATOM      2  C   UNL A   1      30.649  26.521  26.009  1.00  0.00     0.188 C 
BRANCH   2   3
ATOM      3  C   UNL A   1      31.994  27.152  26.419  1.00  0.00     0.188 C 
BRANCH   3   4
ATOM      4  O   UNL A   1      32.217  28.454  26.941  1.00  0.00    -0.376 OA
BRANCH   4   5
ATOM      5  C   UNL A   1      33.337  29.308  26.887  1.00  0.00     0.202 C 
BRANCH   5   6
ATOM      6  C   UNL A   1      33.306  30.816  27.121  1.00  0.00     0.261 C 
BRANCH   6   7
ATOM      7  O   UNL A   1      34.052  31.279  28.231  1.00  0.00    -0.460 OA
BRANCH   7   8
ATOM      8  C   UNL A   1      35.284  31.820  28.237  1.00  0.00     0.338 C 
ATOM      9  O   UNL A   1      35.449  32.877  27.629  1.00  0.00    -0.246 OA
BRANCH   8  10
ATOM     10  C   UNL A   1      36.474  31.206  28.884  1.00  0.00     0.060 A 
ATOM     11  C   UNL A   1      37.667  31.847  29.228  1.00  0.00     0.016 A 
ATOM     12  C   UNL A   1      36.367  29.818  29.091  1.00  0.00     0.016 A 
ATOM     13  C   UNL A   1      38.791  31.102  29.516  1.00  0.00     0.010 A 
ATOM     14  C   UNL A   1      37.475  29.068  29.415  1.00  0.00     0.010 A 
ATOM     15  C   UNL A   1      38.696  29.715  29.516  1.00  0.00    -0.014 A 
BRANCH  15  16
ATOM     16  C   UNL A   1      39.926  28.972  29.656  1.00  0.00     0.031 A 
ATOM     17  C   UNL A   1      40.379  28.827  31.056  1.00  0.00     0.074 A 
ATOM     18  C   UNL A   1      40.537  28.452  28.575  1.00  0.00     0.049 A 
ATOM     19  N   UNL A   1      41.451  29.305  31.595  1.00  0.00    -0.248 NA
ATOM     20  C   UNL A   1      39.444  28.214  32.015  1.00  0.00     0.031 C 
ATOM     21  C   UNL A   1      40.024  28.365  27.204  1.00  0.00     0.029 A 
ATOM     22  N   UNL A   1      41.723  27.797  28.496  1.00  0.00    -0.354 N 
ATOM     23  C   UNL A   1      41.434  28.856  32.912  1.00  0.00     0.074 A 
ATOM     24  C   UNL A   1      40.109  28.356  33.161  1.00  0.00     0.031 C 
ATOM     25  C   UNL A   1      40.776  27.486  26.504  1.00  0.00     0.029 A 
ATOM     26  C   UNL A   1      41.891  27.063  27.329  1.00  0.00     0.049 A 
ATOM     27  H   UNL A   1      42.405  27.838  29.205  1.00  0.00     0.167 HD
ATOM     28  C   UNL A   1      42.595  28.672  33.596  1.00  0.00     0.037 A 
ATOM     29  C   UNL A   1      42.838  26.115  27.119  1.00  0.00     0.037 A 
ATOM     30  C   UNL A   1      43.667  29.446  33.027  1.00  0.00     0.049 A 
ATOM     31  C   UNL A   1      43.913  26.339  28.120  1.00  0.00     0.074 A 
ATOM     32  C   UNL A   1      43.875  30.794  32.804  1.00  0.00     0.029 A 
ATOM     33  N   UNL A   1      44.584  28.792  32.242  1.00  0.00    -0.354 N 
ATOM     34  N   UNL A   1      44.708  27.371  28.114  1.00  0.00    -0.248 NA
ATOM     35  C   UNL A   1      43.798  25.647  29.397  1.00  0.00     0.031 C 
ATOM     36  C   UNL A   1      44.562  30.862  31.558  1.00  0.00     0.029 A 
ATOM     37  C   UNL A   1      44.794  29.556  31.124  1.00  0.00     0.049 A 
ATOM     38  H   UNL A   1      45.014  27.930  32.447  1.00  0.00     0.167 HD
ATOM     39  C   UNL A   1      44.848  27.718  29.450  1.00  0.00     0.074 A 
ATOM     40  C   UNL A   1      44.334  26.572  30.197  1.00  0.00     0.031 C 
ATOM     41  C   UNL A   1      45.090  29.009  29.821  1.00  0.00     0.037 A 
BRANCH  28  42
ATOM     42  C   UNL A   1      42.836  27.486  34.497  1.00  0.00     0.057 A 
ATOM     43  C   UNL A   1      43.331  26.241  34.053  1.00  0.00     0.134 A 
ATOM     44  C   UNL A   1      42.864  27.676  35.888  1.00  0.00     0.134 A 
ATOM     45  F   UNL A   1      43.465  25.936  32.757  1.00  0.00    -0.206 F 
ATOM     46  C   UNL A   1      43.827  25.266  34.921  1.00  0.00     0.040 A 
ATOM     47  C   UNL A   1      43.408  26.728  36.763  1.00  0.00     0.040 A 
ATOM     48  F   UNL A   1      42.446  28.828  36.434  1.00  0.00    -0.206 F 
ATOM     49  C   UNL A   1      43.897  25.520  36.279  1.00  0.00     0.006 A 
ENDBRANCH  28  42
BRANCH  29  50
ATOM     50  C   UNL A   1      42.698  24.829  26.392  1.00  0.00     0.057 A 
ATOM     51  C   UNL A   1      41.922  23.768  26.891  1.00  0.00     0.134 A 
ATOM     52  C   UNL A   1      43.565  24.510  25.335  1.00  0.00     0.134 A 
ATOM     53  F   UNL A   1      41.104  23.935  27.940  1.00  0.00    -0.206 F 
ATOM     54  C   UNL A   1      42.023  22.465  26.394  1.00  0.00     0.040 A 
ATOM     55  C   UNL A   1      43.683  23.206  24.835  1.00  0.00     0.040 A 
ATOM     56  F   UNL A   1      44.372  25.444  24.811  1.00  0.00    -0.206 F 
ATOM     57  C   UNL A   1      42.921  22.175  25.375  1.00  0.00     0.006 A 
ENDBRANCH  29  50
BRANCH  41  58
ATOM     58  C   UNL A   1      45.460  29.997  28.749  1.00  0.00     0.057 A 
ATOM     59  C   UNL A   1      44.430  30.660  28.071  1.00  0.00     0.134 A 
ATOM     60  C   UNL A   1      46.762  30.179  28.256  1.00  0.00     0.134 A 
ATOM     61  F   UNL A   1      43.155  30.491  28.452  1.00  0.00    -0.206 F 
ATOM     62  C   UNL A   1      44.677  31.462  26.955  1.00  0.00     0.040 A 
ATOM     63  C   UNL A   1      47.027  31.007  27.161  1.00  0.00     0.040 A 
ATOM     64  F   UNL A   1      47.801  29.512  28.777  1.00  0.00    -0.206 F 
ATOM     65  C   UNL A   1      45.981  31.644  26.501  1.00  0.00     0.006 A 
ENDBRANCH  41  58
ENDBRANCH  15  16
ENDBRANCH   8  10
ENDBRANCH   7   8
ENDBRANCH   6   7
ENDBRANCH   5   6
ENDBRANCH   4   5
ENDBRANCH   3   4
ENDBRANCH   2   3
ENDBRANCH   1   2
BRANCH   1  66
ATOM     66  C   UNL A   1      30.975  24.189  25.797  1.00  0.00     0.188 C 
BRANCH  66  67
ATOM     67  C   UNL A   1      31.148  22.920  26.654  1.00  0.00     0.188 C 
BRANCH  67  68
ATOM     68  O   UNL A   1      32.002  22.911  27.782  1.00  0.00    -0.376 OA
BRANCH  68  69
ATOM     69  C   UNL A   1      33.351  22.498  27.664  1.00  0.00     0.202 C 
BRANCH  69  70
ATOM     70  C   UNL A   1      34.410  23.328  26.910  1.00  0.00     0.261 C 
BRANCH  70  71
ATOM     71  O   UNL A   1      35.655  22.704  26.570  1.00  0.00    -0.458 OA
BRANCH  71  72
ATOM     72  C   UNL A   1      36.114  22.886  25.294  1.00  0.00     0.359 C 
ATOM     73  O   UNL A   1      37.282  22.767  24.954  1.00  0.00    -0.244 OA
BRANCH  72  74
ATOM     74  C   UNL A   1      35.011  23.104  24.340  1.00  0.00     0.175 A 
ATOM     75  N   UNL A   1      34.906  24.266  23.665  1.00  0.00    -0.165 NA
ATOM     76  C   UNL A   1      33.948  22.216  23.978  1.00  0.00     0.028 A 
ATOM     77  N   UNL A   1      33.842  24.106  22.850  1.00  0.00    -0.264 N 
ATOM     78  C   UNL A   1      33.231  22.900  23.017  1.00  0.00     0.046 A 
ATOM     79  C   UNL A   1      33.571  20.851  24.456  1.00  0.00     0.159 C 
ATOM     80  C   UNL A   1      32.073  22.347  22.268  1.00  0.00     0.078 C 
ATOM     81  N   UNL A   1      32.585  20.251  23.541  1.00  0.00    -0.337 N 
ATOM     82  C   UNL A   1      31.514  21.132  23.034  1.00  0.00     0.126 C 
BRANCH  77  83
ATOM     83  C   UNL A   1      33.593  25.090  21.803  1.00  0.00     0.180 C 
BRANCH  83  84
ATOM     84  C   UNL A   1      32.803  26.284  22.280  1.00  0.00    -0.026 A 
ATOM     85  C   UNL A   1      33.463  27.423  22.774  1.00  0.00     0.008 A 
ATOM     86  C   UNL A   1      31.403  26.305  22.170  1.00  0.00     0.008 A 
ATOM     87  C   UNL A   1      32.743  28.565  23.126  1.00  0.00     0.039 A 
ATOM     88  C   UNL A   1      30.685  27.449  22.521  1.00  0.00     0.039 A 
ATOM     89  C   UNL A   1      31.361  28.571  22.988  1.00  0.00     0.123 A 
ATOM     90  F   UNL A   1      30.670  29.674  23.301  1.00  0.00    -0.207 F 
ENDBRANCH  83  84
ENDBRANCH  77  83
BRANCH  81  91
ATOM     91  C   UNL A   1      32.618  18.869  23.384  1.00  0.00     0.232 C 
ATOM     92  O   UNL A   1      32.154  18.296  22.416  1.00  0.00    -0.274 OA
BRANCH  91  93
ATOM     93  C   UNL A   1      33.293  18.085  24.439  1.00  0.00     0.154 C 
ATOM     94  C   UNL A   1      32.906  16.636  24.693  1.00  0.00     0.097 C 
ATOM     95  C   UNL A   1      34.197  16.974  24.050  1.00  0.00     0.260 C 
ATOM     96  F   UNL A   1      34.409  16.588  22.749  1.00  0.00    -0.206 F 
ATOM     97  F   UNL A   1      35.365  16.744  24.743  1.00  0.00    -0.206 F 
ENDBRANCH  91  93
ENDBRANCH  81  91
ENDBRANCH  72  74
ENDBRANCH  71  72
ENDBRANCH  70  71
ENDBRANCH  69  70
ENDBRANCH  68  69
ENDBRANCH  67  68
ENDBRANCH  66  67
ENDBRANCH   1  66
TORSDOF 24
ENDMDL
MODEL 2
REMARK VINA RESULT:     -10.6      2.765      7.450
REMARK SMILES O=C(OCCOCCOCCOCCOC(=O)c1nn(Cc2ccc(F)cc2)c2c1CN(C(=O)[C@H]1CC1(F)F)CC2)c1ccc(-c2c3nc(c(-c4c(F)cccc4F)c4ccc([nH]4)c(-c4c(F)cccc4F)c4nc(c(-c5c(F)cccc5F)c5ccc2[nH]5)C=C4)C=C3)cc1
REMARK SMILES IDX 9 1 8 2 7 3 6 4 5 5 4 6 3 7 2 8 1 9 42 10 43 11 95 12 44 13
REMARK SMILES IDX 94 14 45 15 46 16 47 17 88 18 48 19 93 20 87 21 89 22 49 23
REMARK SMILES IDX 92 24 86 25 85 26 50 28 76 29 59 30 75 31 60 32 63 33 74 34
REMARK SMILES IDX 90 35 61 36 62 37 73 39 91 40 64 41 51 42 52 43 57 44 53 45
REMARK SMILES IDX 54 46 56 47 58 48 55 49 77 50 78 51 83 52 79 53 80 54 82 55
REMARK SMILES IDX 84 56 81 57 65 58 66 59 71 60 67 61 68 62 70 63 72 64 69 65
REMARK SMILES IDX 10 66 11 67 12 68 13 69 14 70 15 71 16 72 17 73 18 74 19 75
REMARK SMILES IDX 30 76 20 77 29 78 31 79 41 80 32 81 40 82 21 83 22 84 23 85
REMARK SMILES IDX 28 86 24 87 27 88 25 89 26 90 33 91 34 92 35 93 36 94 37 95
REMARK SMILES IDX 38 96 39 97
REMARK H PARENT 89 27 63 38
REMARK Flexibility Score: inf
ROOT
ATOM      1  O   UNL A   1      30.934  23.815  27.022  1.00  0.00    -0.377 OA
ENDROOT
BRANCH   1   2
ATOM      2  C   UNL A   1      31.817  22.715  26.924  1.00  0.00     0.188 C 
BRANCH   2   3
ATOM      3  C   UNL A   1      33.317  22.960  27.179  1.00  0.00     0.188 C 
BRANCH   3   4
ATOM      4  O   UNL A   1      34.313  23.306  26.227  1.00  0.00    -0.376 OA
BRANCH   4   5
ATOM      5  C   UNL A   1      35.710  23.451  26.340  1.00  0.00     0.202 C 
BRANCH   5   6
ATOM      6  C   UNL A   1      36.730  22.334  26.135  1.00  0.00     0.261 C 
BRANCH   6   7
ATOM      7  O   UNL A   1      38.033  22.754  25.773  1.00  0.00    -0.460 OA
BRANCH   7   8
ATOM      8  C   UNL A   1      39.152  22.727  26.520  1.00  0.00     0.338 C 
ATOM      9  O   UNL A   1      39.564  21.630  26.897  1.00  0.00    -0.246 OA
BRANCH   8  10
ATOM     10  C   UNL A   1      39.901  23.933  26.965  1.00  0.00     0.060 A 
ATOM     11  C   UNL A   1      41.075  23.960  27.722  1.00  0.00     0.016 A 
ATOM     12  C   UNL A   1      39.287  25.153  26.623  1.00  0.00     0.016 A 
ATOM     13  C   UNL A   1      41.473  25.130  28.332  1.00  0.00     0.010 A 
ATOM     14  C   UNL A   1      39.700  26.333  27.197  1.00  0.00     0.010 A 
ATOM     15  C   UNL A   1      40.724  26.283  28.130  1.00  0.00    -0.014 A 
BRANCH  15  16
ATOM     16  C   UNL A   1      41.075  27.442  28.916  1.00  0.00     0.031 A 
ATOM     17  C   UNL A   1      42.185  28.236  28.345  1.00  0.00     0.074 A 
ATOM     18  C   UNL A   1      40.393  27.739  30.038  1.00  0.00     0.049 A 
ATOM     19  N   UNL A   1      43.357  28.435  28.848  1.00  0.00    -0.248 NA
ATOM     20  C   UNL A   1      42.027  28.733  26.968  1.00  0.00     0.031 C 
ATOM     21  C   UNL A   1      39.152  27.130  30.527  1.00  0.00     0.029 A 
ATOM     22  N   UNL A   1      40.619  28.729  30.939  1.00  0.00    -0.354 N 
ATOM     23  C   UNL A   1      44.006  29.276  27.950  1.00  0.00     0.074 A 
ATOM     24  C   UNL A   1      43.224  29.276  26.744  1.00  0.00     0.031 C 
ATOM     25  C   UNL A   1      38.615  27.923  31.482  1.00  0.00     0.029 A 
ATOM     26  C   UNL A   1      39.537  29.007  31.763  1.00  0.00     0.049 A 
ATOM     27  H   UNL A   1      41.476  29.209  31.002  1.00  0.00     0.167 HD
ATOM     28  C   UNL A   1      44.980  30.125  28.375  1.00  0.00     0.037 A 
ATOM     29  C   UNL A   1      39.397  30.107  32.544  1.00  0.00     0.037 A 
ATOM     30  C   UNL A   1      45.557  29.680  29.618  1.00  0.00     0.049 A 
ATOM     31  C   UNL A   1      40.752  30.687  32.732  1.00  0.00     0.074 A 
ATOM     32  C   UNL A   1      46.214  28.535  30.025  1.00  0.00     0.029 A 
ATOM     33  N   UNL A   1      45.165  30.315  30.770  1.00  0.00    -0.354 N 
ATOM     34  N   UNL A   1      41.699  30.114  33.420  1.00  0.00    -0.248 NA
ATOM     35  C   UNL A   1      41.198  31.682  31.766  1.00  0.00     0.031 C 
ATOM     36  C   UNL A   1      45.764  28.302  31.356  1.00  0.00     0.029 A 
ATOM     37  C   UNL A   1      44.914  29.351  31.711  1.00  0.00     0.049 A 
ATOM     38  H   UNL A   1      45.081  31.288  30.898  1.00  0.00     0.167 HD
ATOM     39  C   UNL A   1      42.856  30.345  32.690  1.00  0.00     0.074 A 
ATOM     40  C   UNL A   1      42.499  31.385  31.728  1.00  0.00     0.031 C 
ATOM     41  C   UNL A   1      43.904  29.471  32.735  1.00  0.00     0.037 A 
BRANCH  28  42
ATOM     42  C   UNL A   1      45.100  31.546  27.885  1.00  0.00     0.057 A 
ATOM     43  C   UNL A   1      46.062  31.983  26.949  1.00  0.00     0.134 A 
ATOM     44  C   UNL A   1      44.044  32.443  28.116  1.00  0.00     0.134 A 
ATOM     45  F   UNL A   1      47.077  31.213  26.541  1.00  0.00    -0.206 F 
ATOM     46  C   UNL A   1      45.976  33.209  26.285  1.00  0.00     0.040 A 
ATOM     47  C   UNL A   1      43.919  33.650  27.417  1.00  0.00     0.040 A 
ATOM     48  F   UNL A   1      43.051  32.133  28.964  1.00  0.00    -0.206 F 
ATOM     49  C   UNL A   1      44.885  34.033  26.494  1.00  0.00     0.006 A 
ENDBRANCH  28  42
BRANCH  29  50
ATOM     50  C   UNL A   1      38.165  30.890  32.808  1.00  0.00     0.057 A 
ATOM     51  C   UNL A   1      37.377  31.417  31.769  1.00  0.00     0.134 A 
ATOM     52  C   UNL A   1      37.898  31.388  34.092  1.00  0.00     0.134 A 
ATOM     53  F   UNL A   1      37.581  31.065  30.491  1.00  0.00    -0.206 F 
ATOM     54  C   UNL A   1      36.408  32.401  31.986  1.00  0.00     0.040 A 
ATOM     55  C   UNL A   1      36.937  32.382  34.322  1.00  0.00     0.040 A 
ATOM     56  F   UNL A   1      38.617  30.975  35.145  1.00  0.00    -0.206 F 
ATOM     57  C   UNL A   1      36.197  32.902  33.264  1.00  0.00     0.006 A 
ENDBRANCH  29  50
BRANCH  41  58
ATOM     58  C   UNL A   1      43.884  28.394  33.786  1.00  0.00     0.057 A 
ATOM     59  C   UNL A   1      43.255  27.181  33.482  1.00  0.00     0.134 A 
ATOM     60  C   UNL A   1      44.300  28.577  35.113  1.00  0.00     0.134 A 
ATOM     61  F   UNL A   1      42.782  26.957  32.247  1.00  0.00    -0.206 F 
ATOM     62  C   UNL A   1      43.044  26.196  34.450  1.00  0.00     0.040 A 
ATOM     63  C   UNL A   1      44.127  27.586  36.084  1.00  0.00     0.040 A 
ATOM     64  F   UNL A   1      44.825  29.740  35.523  1.00  0.00    -0.206 F 
ATOM     65  C   UNL A   1      43.488  26.394  35.755  1.00  0.00     0.006 A 
ENDBRANCH  41  58
ENDBRANCH  15  16
ENDBRANCH   8  10
ENDBRANCH   7   8
ENDBRANCH   6   7
ENDBRANCH   5   6
ENDBRANCH   4   5
ENDBRANCH   3   4
ENDBRANCH   2   3
ENDBRANCH   1   2
BRANCH   1  66
ATOM     66  C   UNL A   1      31.098  24.771  26.004  1.00  0.00     0.188 C 
BRANCH  66  67
ATOM     67  C   UNL A   1      29.802  25.552  25.711  1.00  0.00     0.188 C 
BRANCH  67  68
ATOM     68  O   UNL A   1      29.479  25.964  24.397  1.00  0.00    -0.376 OA
BRANCH  68  69
ATOM     69  C   UNL A   1      28.300  26.705  24.140  1.00  0.00     0.202 C 
BRANCH  69  70
ATOM     70  C   UNL A   1      28.238  27.825  23.081  1.00  0.00     0.261 C 
BRANCH  70  71
ATOM     71  O   UNL A   1      28.948  29.044  23.330  1.00  0.00    -0.458 OA
BRANCH  71  72
ATOM     72  C   UNL A   1      30.207  29.150  22.803  1.00  0.00     0.359 C 
ATOM     73  O   UNL A   1      30.467  29.674  21.730  1.00  0.00    -0.244 OA
BRANCH  72  74
ATOM     74  C   UNL A   1      31.238  28.683  23.747  1.00  0.00     0.175 A 
ATOM     75  N   UNL A   1      31.402  29.287  24.941  1.00  0.00    -0.165 NA
ATOM     76  C   UNL A   1      32.170  27.606  23.599  1.00  0.00     0.028 A 
ATOM     77  N   UNL A   1      32.368  28.581  25.565  1.00  0.00    -0.264 N 
ATOM     78  C   UNL A   1      32.866  27.576  24.791  1.00  0.00     0.046 A 
ATOM     79  C   UNL A   1      32.448  26.664  22.472  1.00  0.00     0.159 C 
ATOM     80  C   UNL A   1      33.892  26.564  25.151  1.00  0.00     0.078 C 
ATOM     81  N   UNL A   1      33.283  25.546  22.944  1.00  0.00    -0.337 N 
ATOM     82  C   UNL A   1      34.390  25.876  23.865  1.00  0.00     0.126 C 
BRANCH  77  83
ATOM     83  C   UNL A   1      32.623  28.820  26.981  1.00  0.00     0.180 C 
BRANCH  83  84
ATOM     84  C   UNL A   1      33.735  29.808  27.230  1.00  0.00    -0.026 A 
ATOM     85  C   UNL A   1      33.443  31.156  27.503  1.00  0.00     0.008 A 
ATOM     86  C   UNL A   1      35.074  29.383  27.265  1.00  0.00     0.008 A 
ATOM     87  C   UNL A   1      34.462  32.052  27.828  1.00  0.00     0.039 A 
ATOM     88  C   UNL A   1      36.091  30.281  27.593  1.00  0.00     0.039 A 
ATOM     89  C   UNL A   1      35.775  31.604  27.880  1.00  0.00     0.123 A 
ATOM     90  F   UNL A   1      36.752  32.456  28.217  1.00  0.00    -0.207 F 
ENDBRANCH  83  84
ENDBRANCH  77  83
BRANCH  81  91
ATOM     91  C   UNL A   1      33.097  24.309  22.336  1.00  0.00     0.232 C 
ATOM     92  O   UNL A   1      33.295  24.110  21.152  1.00  0.00    -0.274 OA
BRANCH  91  93
ATOM     93  C   UNL A   1      32.680  23.187  23.203  1.00  0.00     0.154 C 
ATOM     94  C   UNL A   1      31.248  22.677  23.172  1.00  0.00     0.097 C 
ATOM     95  C   UNL A   1      32.349  21.879  22.587  1.00  0.00     0.260 C 
ATOM     96  F   UNL A   1      32.357  21.655  21.231  1.00  0.00    -0.206 F 
ATOM     97  F   UNL A   1      32.715  20.701  23.200  1.00  0.00    -0.206 F 
ENDBRANCH  91  93
ENDBRANCH  81  91
ENDBRANCH  72  74
ENDBRANCH  71  72
ENDBRANCH  70  71
ENDBRANCH  69  70
ENDBRANCH  68  69
ENDBRANCH  67  68
ENDBRANCH  66  67
ENDBRANCH   1  66
TORSDOF 24
ENDMDL
MODEL 3
REMARK VINA RESULT:     -10.4      3.356      8.110
REMARK SMILES O=C(OCCOCCOCCOCCOC(=O)c1nn(Cc2ccc(F)cc2)c2c1CN(C(=O)[C@H]1CC1(F)F)CC2)c1ccc(-c2c3nc(c(-c4c(F)cccc4F)c4ccc([nH]4)c(-c4c(F)cccc4F)c4nc(c(-c5c(F)cccc5F)c5ccc2[nH]5)C=C4)C=C3)cc1
REMARK SMILES IDX 9 1 8 2 7 3 6 4 5 5 4 6 3 7 2 8 1 9 42 10 43 11 95 12 44 13
REMARK SMILES IDX 94 14 45 15 46 16 47 17 88 18 48 19 93 20 87 21 89 22 49 23
REMARK SMILES IDX 92 24 86 25 85 26 50 28 76 29 59 30 75 31 60 32 63 33 74 34
REMARK SMILES IDX 90 35 61 36 62 37 73 39 91 40 64 41 51 42 52 43 57 44 53 45
REMARK SMILES IDX 54 46 56 47 58 48 55 49 77 50 78 51 83 52 79 53 80 54 82 55
REMARK SMILES IDX 84 56 81 57 65 58 66 59 71 60 67 61 68 62 70 63 72 64 69 65
REMARK SMILES IDX 10 66 11 67 12 68 13 69 14 70 15 71 16 72 17 73 18 74 19 75
REMARK SMILES IDX 30 76 20 77 29 78 31 79 41 80 32 81 40 82 21 83 22 84 23 85
REMARK SMILES IDX 28 86 24 87 27 88 25 89 26 90 33 91 34 92 35 93 36 94 37 95
REMARK SMILES IDX 38 96 39 97
REMARK H PARENT 89 27 63 38
REMARK Flexibility Score: inf
ROOT
ATOM      1  O   UNL A   1      31.649  24.064  27.216  1.00  0.00    -0.377 OA
ENDROOT
BRANCH   1   2
ATOM      2  C   UNL A   1      32.543  23.121  26.660  1.00  0.00     0.188 C 
BRANCH   2   3
ATOM      3  C   UNL A   1      33.946  22.988  27.286  1.00  0.00     0.188 C 
BRANCH   3   4
ATOM      4  O   UNL A   1      35.197  22.974  26.615  1.00  0.00    -0.376 OA
BRANCH   4   5
ATOM      5  C   UNL A   1      36.173  23.974  26.427  1.00  0.00     0.202 C 
BRANCH   5   6
ATOM      6  C   UNL A   1      37.626  23.721  26.034  1.00  0.00     0.261 C 
BRANCH   6   7
ATOM      7  O   UNL A   1      38.588  24.001  27.034  1.00  0.00    -0.460 OA
BRANCH   7   8
ATOM      8  C   UNL A   1      39.549  24.943  27.023  1.00  0.00     0.338 C 
ATOM      9  O   UNL A   1      40.585  24.699  26.406  1.00  0.00    -0.246 OA
BRANCH   8  10
ATOM     10  C   UNL A   1      39.469  26.240  27.746  1.00  0.00     0.060 A 
ATOM     11  C   UNL A   1      39.790  27.504  27.243  1.00  0.00     0.016 A 
ATOM     12  C   UNL A   1      39.090  26.126  29.097  1.00  0.00     0.016 A 
ATOM     13  C   UNL A   1      39.981  28.561  28.107  1.00  0.00     0.010 A 
ATOM     14  C   UNL A   1      39.241  27.187  29.962  1.00  0.00     0.010 A 
ATOM     15  C   UNL A   1      39.789  28.360  29.468  1.00  0.00    -0.014 A 
BRANCH  15  16
ATOM     16  C   UNL A   1      40.161  29.440  30.351  1.00  0.00     0.031 A 
ATOM     17  C   UNL A   1      39.058  30.385  30.633  1.00  0.00     0.074 A 
ATOM     18  C   UNL A   1      41.402  29.505  30.868  1.00  0.00     0.049 A 
ATOM     19  N   UNL A   1      38.985  31.634  30.312  1.00  0.00    -0.248 NA
ATOM     20  C   UNL A   1      37.815  29.833  31.196  1.00  0.00     0.031 C 
ATOM     21  C   UNL A   1      42.457  28.488  30.812  1.00  0.00     0.029 A 
ATOM     22  N   UNL A   1      41.955  30.471  31.645  1.00  0.00    -0.354 N 
ATOM     23  C   UNL A   1      37.776  32.080  30.837  1.00  0.00     0.074 A 
ATOM     24  C   UNL A   1      37.026  30.907  31.200  1.00  0.00     0.031 C 
ATOM     25  C   UNL A   1      43.410  28.786  31.723  1.00  0.00     0.029 A 
ATOM     26  C   UNL A   1      43.102  30.072  32.319  1.00  0.00     0.049 A 
ATOM     27  H   UNL A   1      41.576  31.376  31.725  1.00  0.00     0.167 HD
ATOM     28  C   UNL A   1      37.613  33.382  31.192  1.00  0.00     0.037 A 
ATOM     29  C   UNL A   1      43.683  30.730  33.352  1.00  0.00     0.037 A 
ATOM     30  C   UNL A   1      38.552  34.233  30.508  1.00  0.00     0.049 A 
ATOM     31  C   UNL A   1      43.190  32.132  33.312  1.00  0.00     0.074 A 
ATOM     32  C   UNL A   1      38.821  34.507  29.181  1.00  0.00     0.029 A 
ATOM     33  N   UNL A   1      39.645  34.676  31.211  1.00  0.00    -0.354 N 
ATOM     34  N   UNL A   1      43.499  32.985  32.376  1.00  0.00    -0.248 NA
ATOM     35  C   UNL A   1      41.982  32.441  34.065  1.00  0.00     0.031 C 
ATOM     36  C   UNL A   1      40.237  34.650  29.113  1.00  0.00     0.029 A 
ATOM     37  C   UNL A   1      40.744  34.524  30.407  1.00  0.00     0.049 A 
ATOM     38  H   UNL A   1      39.640  35.039  32.126  1.00  0.00     0.167 HD
ATOM     39  C   UNL A   1      42.324  33.682  32.131  1.00  0.00     0.074 A 
ATOM     40  C   UNL A   1      41.449  33.362  33.257  1.00  0.00     0.031 C 
ATOM     41  C   UNL A   1      42.064  34.212  30.901  1.00  0.00     0.037 A 
BRANCH  28  42
ATOM     42  C   UNL A   1      36.898  33.805  32.452  1.00  0.00     0.057 A 
ATOM     43  C   UNL A   1      35.628  34.420  32.473  1.00  0.00     0.134 A 
ATOM     44  C   UNL A   1      37.345  33.316  33.691  1.00  0.00     0.134 A 
ATOM     45  F   UNL A   1      35.013  34.851  31.366  1.00  0.00    -0.206 F 
ATOM     46  C   UNL A   1      34.856  34.531  33.632  1.00  0.00     0.040 A 
ATOM     47  C   UNL A   1      36.557  33.374  34.847  1.00  0.00     0.040 A 
ATOM     48  F   UNL A   1      38.524  32.686  33.797  1.00  0.00    -0.206 F 
ATOM     49  C   UNL A   1      35.306  33.979  34.818  1.00  0.00     0.006 A 
ENDBRANCH  28  42
BRANCH  29  50
ATOM     50  C   UNL A   1      44.312  30.154  34.566  1.00  0.00     0.057 A 
ATOM     51  C   UNL A   1      45.699  30.213  34.788  1.00  0.00     0.134 A 
ATOM     52  C   UNL A   1      43.596  29.273  35.390  1.00  0.00     0.134 A 
ATOM     53  F   UNL A   1      46.498  30.970  34.023  1.00  0.00    -0.206 F 
ATOM     54  C   UNL A   1      46.340  29.421  35.747  1.00  0.00     0.040 A 
ATOM     55  C   UNL A   1      44.227  28.466  36.347  1.00  0.00     0.040 A 
ATOM     56  F   UNL A   1      42.273  29.119  35.235  1.00  0.00    -0.206 F 
ATOM     57  C   UNL A   1      45.607  28.529  36.518  1.00  0.00     0.006 A 
ENDBRANCH  29  50
BRANCH  41  58
ATOM     58  C   UNL A   1      43.183  34.253  29.896  1.00  0.00     0.057 A 
ATOM     59  C   UNL A   1      43.843  35.469  29.685  1.00  0.00     0.134 A 
ATOM     60  C   UNL A   1      43.502  33.199  29.026  1.00  0.00     0.134 A 
ATOM     61  F   UNL A   1      43.550  36.537  30.443  1.00  0.00    -0.206 F 
ATOM     62  C   UNL A   1      44.773  35.635  28.656  1.00  0.00     0.040 A 
ATOM     63  C   UNL A   1      44.457  33.342  28.014  1.00  0.00     0.040 A 
ATOM     64  F   UNL A   1      42.855  32.027  29.087  1.00  0.00    -0.206 F 
ATOM     65  C   UNL A   1      45.089  34.567  27.821  1.00  0.00     0.006 A 
ENDBRANCH  41  58
ENDBRANCH  15  16
ENDBRANCH   8  10
ENDBRANCH   7   8
ENDBRANCH   6   7
ENDBRANCH   5   6
ENDBRANCH   4   5
ENDBRANCH   3   4
ENDBRANCH   2   3
ENDBRANCH   1   2
BRANCH   1  66
ATOM     66  C   UNL A   1      31.467  25.213  26.426  1.00  0.00     0.188 C 
BRANCH  66  67
ATOM     67  C   UNL A   1      30.133  25.194  25.655  1.00  0.00     0.188 C 
BRANCH  67  68
ATOM     68  O   UNL A   1      29.577  26.384  25.128  1.00  0.00    -0.376 OA
BRANCH  68  69
ATOM     69  C   UNL A   1      28.691  26.343  24.025  1.00  0.00     0.202 C 
BRANCH  69  70
ATOM     70  C   UNL A   1      28.083  27.615  23.400  1.00  0.00     0.261 C 
BRANCH  70  71
ATOM     71  O   UNL A   1      28.840  28.830  23.446  1.00  0.00    -0.458 OA
BRANCH  71  72
ATOM     72  C   UNL A   1      29.890  28.942  22.575  1.00  0.00     0.359 C 
ATOM     73  O   UNL A   1      29.862  29.582  21.534  1.00  0.00    -0.244 OA
BRANCH  72  74
ATOM     74  C   UNL A   1      31.114  28.315  23.107  1.00  0.00     0.175 A 
ATOM     75  N   UNL A   1      31.748  27.348  22.415  1.00  0.00    -0.165 NA
ATOM     76  C   UNL A   1      31.800  28.584  24.334  1.00  0.00     0.028 A 
ATOM     77  N   UNL A   1      32.841  27.047  23.147  1.00  0.00    -0.264 N 
ATOM     78  C   UNL A   1      32.902  27.753  24.310  1.00  0.00     0.046 A 
ATOM     79  C   UNL A   1      31.502  29.506  25.472  1.00  0.00     0.159 C 
ATOM     80  C   UNL A   1      33.974  27.734  25.339  1.00  0.00     0.078 C 
ATOM     81  N   UNL A   1      32.684  29.634  26.341  1.00  0.00    -0.337 N 
ATOM     82  C   UNL A   1      33.447  28.402  26.624  1.00  0.00     0.126 C 
BRANCH  77  83
ATOM     83  C   UNL A   1      33.879  26.205  22.564  1.00  0.00     0.180 C 
BRANCH  83  84
ATOM     84  C   UNL A   1      33.644  24.730  22.781  1.00  0.00    -0.026 A 
ATOM     85  C   UNL A   1      34.710  23.884  23.133  1.00  0.00     0.008 A 
ATOM     86  C   UNL A   1      32.348  24.195  22.706  1.00  0.00     0.008 A 
ATOM     87  C   UNL A   1      34.482  22.539  23.428  1.00  0.00     0.039 A 
ATOM     88  C   UNL A   1      32.123  22.850  23.003  1.00  0.00     0.039 A 
ATOM     89  C   UNL A   1      33.189  22.037  23.369  1.00  0.00     0.123 A 
ATOM     90  F   UNL A   1      32.964  20.753  23.677  1.00  0.00    -0.207 F 
ENDBRANCH  83  84
ENDBRANCH  77  83
BRANCH  81  91
ATOM     91  C   UNL A   1      32.875  30.853  26.985  1.00  0.00     0.232 C 
ATOM     92  O   UNL A   1      32.201  31.840  26.759  1.00  0.00    -0.274 OA
BRANCH  91  93
ATOM     93  C   UNL A   1      33.929  30.911  28.021  1.00  0.00     0.154 C 
ATOM     94  C   UNL A   1      35.266  31.571  27.726  1.00  0.00     0.097 C 
ATOM     95  C   UNL A   1      34.282  32.221  28.621  1.00  0.00     0.260 C 
ATOM     96  F   UNL A   1      33.718  33.412  28.232  1.00  0.00    -0.206 F 
ATOM     97  F   UNL A   1      34.570  32.323  29.964  1.00  0.00    -0.206 F 
ENDBRANCH  91  93
ENDBRANCH  81  91
ENDBRANCH  72  74
ENDBRANCH  71  72
ENDBRANCH  70  71
ENDBRANCH  69  70
ENDBRANCH  68  69
ENDBRANCH  67  68
ENDBRANCH  66  67
ENDBRANCH   1  66
TORSDOF 24
ENDMDL
