MODEL 1
REMARK VINA RESULT:      -8.5      0.000      0.000
REMARK SMILES Cc1nc2sc3c(c2c2nc(CCC(=O)OCCOCCOCCOCCOC(=O)c4ccc(-c5c6nc(c(-c7c(F)cccc7F)c7ccc([nH]7)c(-c7c(F)cccc7F)c7nc(c(-c8c(F)cccc8F)c8ccc5[nH]8)C=C7)C=C6)cc4)nn12)[C@@H](C)CCC3
REMARK SMILES IDX 22 1 21 2 20 3 19 4 18 5 17 6 16 7 14 8 15 9 13 10 12 11
REMARK SMILES IDX 11 12 1 13 2 14 3 15 86 16 4 17 9 18 85 19 5 20 8 21 10 22
REMARK SMILES IDX 6 23 7 24 91 25 87 26 90 27 88 28 89 29 23 30 24 31 25 32
REMARK SMILES IDX 26 33 27 34 28 35 29 36 30 37 31 38 32 39 84 40 33 41 83 42
REMARK SMILES IDX 34 43 35 44 36 45 77 46 37 47 82 48 76 49 78 50 38 51 81 52
REMARK SMILES IDX 75 53 74 54 39 56 65 57 48 58 64 59 49 60 52 61 63 62 79 63
REMARK SMILES IDX 50 64 51 65 62 67 80 68 53 69 40 70 41 71 46 72 42 73 43 74
REMARK SMILES IDX 45 75 47 76 44 77 66 78 67 79 72 80 68 81 69 82 71 83 73 84
REMARK SMILES IDX 70 85 54 86 55 87 60 88 56 89 57 90 59 91 61 92 58 93
REMARK H PARENT 78 55 52 66
REMARK Flexibility Score: inf
ROOT
ATOM      1  O   UNL A   1      36.594  31.993  32.704  1.00  0.00    -0.377 OA
ENDROOT
BRANCH   1   2
ATOM      2  C   UNL A   1      36.566  32.576  33.989  1.00  0.00     0.188 C 
BRANCH   2   3
ATOM      3  C   UNL A   1      36.362  34.065  34.311  1.00  0.00     0.188 C 
BRANCH   3   4
ATOM      4  O   UNL A   1      37.413  34.971  34.070  1.00  0.00    -0.376 OA
BRANCH   4   5
ATOM      5  C   UNL A   1      38.673  34.495  33.596  1.00  0.00     0.202 C 
BRANCH   5   6
ATOM      6  C   UNL A   1      39.063  34.640  32.119  1.00  0.00     0.261 C 
BRANCH   6   7
ATOM      7  O   UNL A   1      39.764  33.480  31.600  1.00  0.00    -0.463 OA
BRANCH   7   8
ATOM      8  C   UNL A   1      41.087  33.438  31.887  1.00  0.00     0.306 C 
ATOM      9  O   UNL A   1      41.532  33.338  33.029  1.00  0.00    -0.252 OA
BRANCH   8  10
ATOM     10  C   UNL A   1      42.033  33.542  30.713  1.00  0.00     0.131 C 
BRANCH  10  11
ATOM     11  C   UNL A   1      41.713  34.393  29.496  1.00  0.00     0.091 C 
BRANCH  11  12
ATOM     12  C   UNL A   1      42.791  35.277  28.984  1.00  0.00     0.152 A 
ATOM     13  C   UNL A   1      46.922  35.012  28.773  1.00  0.00     0.090 C 
ATOM     14  C   UNL A   1      46.058  36.102  28.219  1.00  0.00     0.131 A 
ATOM     15  N   UNL A   1      46.556  37.120  27.565  1.00  0.00    -0.222 NA
ATOM     16  N   UNL A   1      44.683  35.936  28.414  1.00  0.00    -0.199 N 
ATOM     17  C   UNL A   1      45.647  38.050  27.119  1.00  0.00     0.129 A 
ATOM     18  C   UNL A   1      43.756  36.828  27.947  1.00  0.00     0.168 A 
ATOM     19  N   UNL A   1      44.086  34.933  29.091  1.00  0.00    -0.150 NA
ATOM     20  S   UNL A   1      46.157  39.468  26.317  1.00  0.00    -0.120 S 
ATOM     21  C   UNL A   1      44.262  38.031  27.244  1.00  0.00     0.060 A 
ATOM     22  N   UNL A   1      42.550  36.420  28.261  1.00  0.00    -0.211 NA
ATOM     23  C   UNL A   1      44.560  40.045  26.178  1.00  0.00     0.011 A 
ATOM     24  C   UNL A   1      43.613  39.190  26.722  1.00  0.00    -0.018 A 
ATOM     25  C   UNL A   1      44.265  41.377  25.561  1.00  0.00     0.047 C 
ATOM     26  C   UNL A   1      42.142  39.538  26.711  1.00  0.00     0.018 C 
ATOM     27  C   UNL A   1      42.807  41.427  25.097  1.00  0.00     0.006 C 
ATOM     28  C   UNL A   1      41.505  39.404  28.088  1.00  0.00     0.013 C 
ATOM     29  C   UNL A   1      41.870  40.981  26.218  1.00  0.00     0.008 C 
ENDBRANCH  11  12
ENDBRANCH  10  11
ENDBRANCH   8  10
ENDBRANCH   7   8
ENDBRANCH   6   7
ENDBRANCH   5   6
ENDBRANCH   4   5
ENDBRANCH   3   4
ENDBRANCH   2   3
ENDBRANCH   1   2
BRANCH   1  30
ATOM     30  C   UNL A   1      35.410  31.729  31.995  1.00  0.00     0.188 C 
BRANCH  30  31
ATOM     31  C   UNL A   1      34.484  32.885  31.562  1.00  0.00     0.188 C 
BRANCH  31  32
ATOM     32  O   UNL A   1      34.890  33.969  30.753  1.00  0.00    -0.376 OA
BRANCH  32  33
ATOM     33  C   UNL A   1      34.291  34.324  29.527  1.00  0.00     0.202 C 
BRANCH  33  34
ATOM     34  C   UNL A   1      34.927  34.080  28.158  1.00  0.00     0.261 C 
BRANCH  34  35
ATOM     35  O   UNL A   1      36.049  33.224  28.118  1.00  0.00    -0.460 OA
BRANCH  35  36
ATOM     36  C   UNL A   1      35.732  31.923  28.001  1.00  0.00     0.338 C 
ATOM     37  O   UNL A   1      34.730  31.443  27.507  1.00  0.00    -0.246 OA
BRANCH  36  38
ATOM     38  C   UNL A   1      36.717  31.151  28.763  1.00  0.00     0.060 A 
ATOM     39  C   UNL A   1      37.874  31.837  29.122  1.00  0.00     0.016 A 
ATOM     40  C   UNL A   1      36.630  29.748  28.821  1.00  0.00     0.016 A 
ATOM     41  C   UNL A   1      39.016  31.103  29.328  1.00  0.00     0.010 A 
ATOM     42  C   UNL A   1      37.776  29.015  29.029  1.00  0.00     0.010 A 
ATOM     43  C   UNL A   1      38.970  29.706  29.197  1.00  0.00    -0.014 A 
BRANCH  43  44
ATOM     44  C   UNL A   1      40.218  29.001  29.398  1.00  0.00     0.031 A 
ATOM     45  C   UNL A   1      40.579  28.966  30.826  1.00  0.00     0.074 A 
ATOM     46  C   UNL A   1      40.944  28.443  28.411  1.00  0.00     0.049 A 
ATOM     47  N   UNL A   1      41.494  29.666  31.404  1.00  0.00    -0.248 NA
ATOM     48  C   UNL A   1      39.698  28.238  31.754  1.00  0.00     0.031 C 
ATOM     49  C   UNL A   1      40.514  28.185  27.035  1.00  0.00     0.029 A 
ATOM     50  N   UNL A   1      42.199  27.902  28.452  1.00  0.00    -0.354 N 
ATOM     51  C   UNL A   1      41.493  29.233  32.723  1.00  0.00     0.074 A 
ATOM     52  C   UNL A   1      40.247  28.546  32.931  1.00  0.00     0.031 C 
ATOM     53  C   UNL A   1      41.386  27.332  26.449  1.00  0.00     0.029 A 
ATOM     54  C   UNL A   1      42.509  27.113  27.347  1.00  0.00     0.049 A 
ATOM     55  H   UNL A   1      42.826  28.056  29.193  1.00  0.00     0.167 HD
ATOM     56  C   UNL A   1      42.679  29.134  33.378  1.00  0.00     0.037 A 
ATOM     57  C   UNL A   1      43.589  26.305  27.212  1.00  0.00     0.037 A 
ATOM     58  C   UNL A   1      43.697  29.915  32.725  1.00  0.00     0.049 A 
ATOM     59  C   UNL A   1      44.640  26.792  28.134  1.00  0.00     0.074 A 
ATOM     60  C   UNL A   1      44.066  31.239  32.642  1.00  0.00     0.029 A 
ATOM     61  N   UNL A   1      44.290  29.263  31.681  1.00  0.00    -0.354 N 
ATOM     62  N   UNL A   1      45.270  27.924  27.978  1.00  0.00    -0.248 NA
ATOM     63  C   UNL A   1      44.794  26.158  29.440  1.00  0.00     0.031 C 
ATOM     64  C   UNL A   1      44.879  31.362  31.475  1.00  0.00     0.029 A 
ATOM     65  C   UNL A   1      45.013  30.108  30.888  1.00  0.00     0.049 A 
ATOM     66  H   UNL A   1      44.207  28.295  31.518  1.00  0.00     0.167 HD
ATOM     67  C   UNL A   1      45.539  28.335  29.265  1.00  0.00     0.074 A 
ATOM     68  C   UNL A   1      45.392  27.151  30.101  1.00  0.00     0.031 C 
ATOM     69  C   UNL A   1      45.489  29.652  29.604  1.00  0.00     0.037 A 
BRANCH  56  70
ATOM     70  C   UNL A   1      43.061  27.933  34.215  1.00  0.00     0.057 A 
ATOM     71  C   UNL A   1      43.403  28.134  35.563  1.00  0.00     0.134 A 
ATOM     72  C   UNL A   1      43.416  26.671  33.691  1.00  0.00     0.134 A 
ATOM     73  F   UNL A   1      43.160  29.307  36.167  1.00  0.00    -0.206 F 
ATOM     74  C   UNL A   1      44.084  27.169  36.317  1.00  0.00     0.040 A 
ATOM     75  C   UNL A   1      44.046  25.682  34.449  1.00  0.00     0.040 A 
ATOM     76  F   UNL A   1      43.278  26.359  32.398  1.00  0.00    -0.206 F 
ATOM     77  C   UNL A   1      44.406  25.938  35.761  1.00  0.00     0.006 A 
ENDBRANCH  56  70
BRANCH  57  78
ATOM     78  C   UNL A   1      43.701  24.981  26.552  1.00  0.00     0.057 A 
ATOM     79  C   UNL A   1      42.851  23.925  26.919  1.00  0.00     0.134 A 
ATOM     80  C   UNL A   1      44.405  24.813  25.349  1.00  0.00     0.134 A 
ATOM     81  F   UNL A   1      42.117  23.998  28.040  1.00  0.00    -0.206 F 
ATOM     82  C   UNL A   1      42.664  22.798  26.108  1.00  0.00     0.040 A 
ATOM     83  C   UNL A   1      44.233  23.690  24.533  1.00  0.00     0.040 A 
ATOM     84  F   UNL A   1      45.209  25.776  24.875  1.00  0.00    -0.206 F 
ATOM     85  C   UNL A   1      43.342  22.688  24.899  1.00  0.00     0.006 A 
ENDBRANCH  57  78
BRANCH  69  86
ATOM     86  C   UNL A   1      45.783  30.673  28.559  1.00  0.00     0.057 A 
ATOM     87  C   UNL A   1      47.061  30.996  28.092  1.00  0.00     0.134 A 
ATOM     88  C   UNL A   1      44.690  31.257  27.907  1.00  0.00     0.134 A 
ATOM     89  F   UNL A   1      48.158  30.442  28.630  1.00  0.00    -0.206 F 
ATOM     90  C   UNL A   1      47.237  31.868  27.011  1.00  0.00     0.040 A 
ATOM     91  C   UNL A   1      44.851  32.101  26.812  1.00  0.00     0.040 A 
ATOM     92  F   UNL A   1      43.437  30.968  28.298  1.00  0.00    -0.206 F 
ATOM     93  C   UNL A   1      46.130  32.409  26.359  1.00  0.00     0.006 A 
ENDBRANCH  69  86
ENDBRANCH  43  44
ENDBRANCH  36  38
ENDBRANCH  35  36
ENDBRANCH  34  35
ENDBRANCH  33  34
ENDBRANCH  32  33
ENDBRANCH  31  32
ENDBRANCH  30  31
ENDBRANCH   1  30
TORSDOF 22
ENDMDL
MODEL 2
REMARK VINA RESULT:      -8.5      6.497     12.611
REMARK SMILES Cc1nc2sc3c(c2c2nc(CCC(=O)OCCOCCOCCOCCOC(=O)c4ccc(-c5c6nc(c(-c7c(F)cccc7F)c7ccc([nH]7)c(-c7c(F)cccc7F)c7nc(c(-c8c(F)cccc8F)c8ccc5[nH]8)C=C7)C=C6)cc4)nn12)[C@@H](C)CCC3
REMARK SMILES IDX 22 1 21 2 20 3 19 4 18 5 17 6 16 7 14 8 15 9 13 10 12 11
REMARK SMILES IDX 11 12 1 13 2 14 3 15 86 16 4 17 9 18 85 19 5 20 8 21 10 22
REMARK SMILES IDX 6 23 7 24 91 25 87 26 90 27 88 28 89 29 23 30 24 31 25 32
REMARK SMILES IDX 26 33 27 34 28 35 29 36 30 37 31 38 32 39 84 40 33 41 83 42
REMARK SMILES IDX 34 43 35 44 36 45 77 46 37 47 82 48 76 49 78 50 38 51 81 52
REMARK SMILES IDX 75 53 74 54 39 56 65 57 48 58 64 59 49 60 52 61 63 62 79 63
REMARK SMILES IDX 50 64 51 65 62 67 80 68 53 69 40 70 41 71 46 72 42 73 43 74
REMARK SMILES IDX 45 75 47 76 44 77 66 78 67 79 72 80 68 81 69 82 71 83 73 84
REMARK SMILES IDX 70 85 54 86 55 87 60 88 56 89 57 90 59 91 61 92 58 93
REMARK H PARENT 78 55 52 66
REMARK Flexibility Score: inf
ROOT
ATOM      1  O   UNL A   1      37.342  21.684  25.524  1.00  0.00    -0.377 OA
ENDROOT
BRANCH   1   2
ATOM      2  C   UNL A   1      36.287  20.823  25.153  1.00  0.00     0.188 C 
BRANCH   2   3
ATOM      3  C   UNL A   1      36.408  19.336  24.787  1.00  0.00     0.188 C 
BRANCH   3   4
ATOM      4  O   UNL A   1      35.293  18.492  24.956  1.00  0.00    -0.376 OA
BRANCH   4   5
ATOM      5  C   UNL A   1      35.258  17.217  24.315  1.00  0.00     0.202 C 
BRANCH   5   6
ATOM      6  C   UNL A   1      33.932  16.465  24.134  1.00  0.00     0.261 C 
BRANCH   6   7
ATOM      7  O   UNL A   1      32.953  17.218  23.371  1.00  0.00    -0.463 OA
BRANCH   7   8
ATOM      8  C   UNL A   1      32.317  18.192  24.064  1.00  0.00     0.306 C 
ATOM      9  O   UNL A   1      31.883  18.042  25.205  1.00  0.00    -0.252 OA
BRANCH   8  10
ATOM     10  C   UNL A   1      32.131  19.512  23.352  1.00  0.00     0.131 C 
BRANCH  10  11
ATOM     11  C   UNL A   1      33.064  20.689  23.586  1.00  0.00     0.091 C 
BRANCH  11  12
ATOM     12  C   UNL A   1      32.467  21.924  24.155  1.00  0.00     0.152 A 
ATOM     13  C   UNL A   1      29.783  22.721  27.211  1.00  0.00     0.090 C 
ATOM     14  C   UNL A   1      30.528  23.720  26.380  1.00  0.00     0.131 A 
ATOM     15  N   UNL A   1      30.403  25.009  26.565  1.00  0.00    -0.222 NA
ATOM     16  N   UNL A   1      31.391  23.179  25.422  1.00  0.00    -0.199 N 
ATOM     17  C   UNL A   1      31.140  25.810  25.724  1.00  0.00     0.129 A 
ATOM     18  C   UNL A   1      32.163  23.954  24.599  1.00  0.00     0.168 A 
ATOM     19  N   UNL A   1      31.565  21.869  25.150  1.00  0.00    -0.150 NA
ATOM     20  S   UNL A   1      31.023  27.511  25.799  1.00  0.00    -0.120 S 
ATOM     21  C   UNL A   1      32.026  25.425  24.724  1.00  0.00     0.060 A 
ATOM     22  N   UNL A   1      32.880  23.189  23.813  1.00  0.00    -0.211 NA
ATOM     23  C   UNL A   1      32.107  27.710  24.500  1.00  0.00     0.011 A 
ATOM     24  C   UNL A   1      32.583  26.513  23.988  1.00  0.00    -0.018 A 
ATOM     25  C   UNL A   1      32.444  29.069  23.970  1.00  0.00     0.047 C 
ATOM     26  C   UNL A   1      33.543  26.485  22.820  1.00  0.00     0.018 C 
ATOM     27  C   UNL A   1      33.768  29.018  23.202  1.00  0.00     0.006 C 
ATOM     28  C   UNL A   1      33.078  25.549  21.711  1.00  0.00     0.013 C 
ATOM     29  C   UNL A   1      33.755  27.881  22.183  1.00  0.00     0.008 C 
ENDBRANCH  11  12
ENDBRANCH  10  11
ENDBRANCH   8  10
ENDBRANCH   7   8
ENDBRANCH   6   7
ENDBRANCH   5   6
ENDBRANCH   4   5
ENDBRANCH   3   4
ENDBRANCH   2   3
ENDBRANCH   1   2
BRANCH   1  30
ATOM     30  C   UNL A   1      37.152  23.073  25.623  1.00  0.00     0.188 C 
BRANCH  30  31
ATOM     31  C   UNL A   1      38.096  23.932  26.489  1.00  0.00     0.188 C 
BRANCH  31  32
ATOM     32  O   UNL A   1      39.504  23.930  26.373  1.00  0.00    -0.376 OA
BRANCH  32  33
ATOM     33  C   UNL A   1      40.335  22.838  26.694  1.00  0.00     0.202 C 
BRANCH  33  34
ATOM     34  C   UNL A   1      41.850  22.821  26.489  1.00  0.00     0.261 C 
BRANCH  34  35
ATOM     35  O   UNL A   1      42.394  23.822  25.655  1.00  0.00    -0.460 OA
BRANCH  35  36
ATOM     36  C   UNL A   1      43.331  24.575  26.255  1.00  0.00     0.338 C 
ATOM     37  O   UNL A   1      44.532  24.386  26.281  1.00  0.00    -0.246 OA
BRANCH  36  38
ATOM     38  C   UNL A   1      42.644  25.583  27.068  1.00  0.00     0.060 A 
ATOM     39  C   UNL A   1      41.832  26.470  26.369  1.00  0.00     0.016 A 
ATOM     40  C   UNL A   1      43.053  25.825  28.393  1.00  0.00     0.016 A 
ATOM     41  C   UNL A   1      41.610  27.707  26.923  1.00  0.00     0.010 A 
ATOM     42  C   UNL A   1      42.828  27.065  28.946  1.00  0.00     0.010 A 
ATOM     43  C   UNL A   1      42.181  28.017  28.167  1.00  0.00    -0.014 A 
BRANCH  43  44
ATOM     44  C   UNL A   1      41.929  29.349  28.675  1.00  0.00     0.031 A 
ATOM     45  C   UNL A   1      43.043  30.257  28.348  1.00  0.00     0.074 A 
ATOM     46  C   UNL A   1      40.820  29.710  29.347  1.00  0.00     0.049 A 
ATOM     47  N   UNL A   1      43.944  30.691  29.162  1.00  0.00    -0.248 NA
ATOM     48  C   UNL A   1      43.317  30.549  26.931  1.00  0.00     0.031 C 
ATOM     49  C   UNL A   1      39.567  28.960  29.452  1.00  0.00     0.029 A 
ATOM     50  N   UNL A   1      40.542  30.874  30.009  1.00  0.00    -0.354 N 
ATOM     51  C   UNL A   1      44.721  31.555  28.403  1.00  0.00     0.074 A 
ATOM     52  C   UNL A   1      44.444  31.257  27.024  1.00  0.00     0.031 C 
ATOM     53  C   UNL A   1      38.596  29.777  29.922  1.00  0.00     0.029 A 
ATOM     54  C   UNL A   1      39.191  31.051  30.296  1.00  0.00     0.049 A 
ATOM     55  H   UNL A   1      41.233  31.527  30.261  1.00  0.00     0.167 HD
ATOM     56  C   UNL A   1      45.199  32.685  28.986  1.00  0.00     0.037 A 
ATOM     57  C   UNL A   1      38.608  32.182  30.762  1.00  0.00     0.037 A 
ATOM     58  C   UNL A   1      45.178  32.575  30.422  1.00  0.00     0.049 A 
ATOM     59  C   UNL A   1      39.653  32.990  31.431  1.00  0.00     0.074 A 
ATOM     60  C   UNL A   1      45.929  31.974  31.406  1.00  0.00     0.029 A 
ATOM     61  N   UNL A   1      43.964  32.881  30.968  1.00  0.00    -0.354 N 
ATOM     62  N   UNL A   1      40.233  32.642  32.546  1.00  0.00    -0.248 NA
ATOM     63  C   UNL A   1      40.300  34.071  30.693  1.00  0.00     0.031 C 
ATOM     64  C   UNL A   1      45.096  31.895  32.562  1.00  0.00     0.029 A 
ATOM     65  C   UNL A   1      43.866  32.476  32.269  1.00  0.00     0.049 A 
ATOM     66  H   UNL A   1      43.242  33.340  30.481  1.00  0.00     0.167 HD
ATOM     67  C   UNL A   1      41.507  33.154  32.433  1.00  0.00     0.074 A 
ATOM     68  C   UNL A   1      41.441  34.159  31.380  1.00  0.00     0.031 C 
ATOM     69  C   UNL A   1      42.581  32.477  32.924  1.00  0.00     0.037 A 
BRANCH  56  70
ATOM     70  C   UNL A   1      45.132  34.045  28.326  1.00  0.00     0.057 A 
ATOM     71  C   UNL A   1      46.315  34.794  28.207  1.00  0.00     0.134 A 
ATOM     72  C   UNL A   1      43.941  34.770  28.103  1.00  0.00     0.134 A 
ATOM     73  F   UNL A   1      47.511  34.232  28.438  1.00  0.00    -0.206 F 
ATOM     74  C   UNL A   1      46.310  36.168  27.932  1.00  0.00     0.040 A 
ATOM     75  C   UNL A   1      43.927  36.127  27.775  1.00  0.00     0.040 A 
ATOM     76  F   UNL A   1      42.727  34.245  28.298  1.00  0.00    -0.206 F 
ATOM     77  C   UNL A   1      45.113  36.838  27.713  1.00  0.00     0.006 A 
ENDBRANCH  56  70
BRANCH  57  78
ATOM     78  C   UNL A   1      37.278  32.758  30.447  1.00  0.00     0.057 A 
ATOM     79  C   UNL A   1      37.045  33.385  29.210  1.00  0.00     0.134 A 
ATOM     80  C   UNL A   1      36.135  32.431  31.194  1.00  0.00     0.134 A 
ATOM     81  F   UNL A   1      38.070  33.717  28.411  1.00  0.00    -0.206 F 
ATOM     82  C   UNL A   1      35.754  33.615  28.721  1.00  0.00     0.040 A 
ATOM     83  C   UNL A   1      34.840  32.663  30.720  1.00  0.00     0.040 A 
ATOM     84  F   UNL A   1      36.234  31.788  32.366  1.00  0.00    -0.206 F 
ATOM     85  C   UNL A   1      34.644  33.235  29.468  1.00  0.00     0.006 A 
ENDBRANCH  57  78
BRANCH  69  86
ATOM     86  C   UNL A   1      42.384  31.571  34.091  1.00  0.00     0.057 A 
ATOM     87  C   UNL A   1      42.338  31.984  35.426  1.00  0.00     0.134 A 
ATOM     88  C   UNL A   1      42.096  30.228  33.819  1.00  0.00     0.134 A 
ATOM     89  F   UNL A   1      42.553  33.264  35.765  1.00  0.00    -0.206 F 
ATOM     90  C   UNL A   1      42.012  31.087  36.450  1.00  0.00     0.040 A 
ATOM     91  C   UNL A   1      41.741  29.333  34.825  1.00  0.00     0.040 A 
ATOM     92  F   UNL A   1      42.104  29.778  32.553  1.00  0.00    -0.206 F 
ATOM     93  C   UNL A   1      41.697  29.763  36.148  1.00  0.00     0.006 A 
ENDBRANCH  69  86
ENDBRANCH  43  44
ENDBRANCH  36  38
ENDBRANCH  35  36
ENDBRANCH  34  35
ENDBRANCH  33  34
ENDBRANCH  32  33
ENDBRANCH  31  32
ENDBRANCH  30  31
ENDBRANCH   1  30
TORSDOF 22
ENDMDL
MODEL 3
REMARK VINA RESULT:      -8.5      4.873      9.776
REMARK SMILES Cc1nc2sc3c(c2c2nc(CCC(=O)OCCOCCOCCOCCOC(=O)c4ccc(-c5c6nc(c(-c7c(F)cccc7F)c7ccc([nH]7)c(-c7c(F)cccc7F)c7nc(c(-c8c(F)cccc8F)c8ccc5[nH]8)C=C7)C=C6)cc4)nn12)[C@@H](C)CCC3
REMARK SMILES IDX 22 1 21 2 20 3 19 4 18 5 17 6 16 7 14 8 15 9 13 10 12 11
REMARK SMILES IDX 11 12 1 13 2 14 3 15 86 16 4 17 9 18 85 19 5 20 8 21 10 22
REMARK SMILES IDX 6 23 7 24 91 25 87 26 90 27 88 28 89 29 23 30 24 31 25 32
REMARK SMILES IDX 26 33 27 34 28 35 29 36 30 37 31 38 32 39 84 40 33 41 83 42
REMARK SMILES IDX 34 43 35 44 36 45 77 46 37 47 82 48 76 49 78 50 38 51 81 52
REMARK SMILES IDX 75 53 74 54 39 56 65 57 48 58 64 59 49 60 52 61 63 62 79 63
REMARK SMILES IDX 50 64 51 65 62 67 80 68 53 69 40 70 41 71 46 72 42 73 43 74
REMARK SMILES IDX 45 75 47 76 44 77 66 78 67 79 72 80 68 81 69 82 71 83 73 84
REMARK SMILES IDX 70 85 54 86 55 87 60 88 56 89 57 90 59 91 61 92 58 93
REMARK H PARENT 78 55 52 66
REMARK Flexibility Score: inf
ROOT
ATOM      1  O   UNL A   1      33.266  20.317  25.677  1.00  0.00    -0.377 OA
ENDROOT
BRANCH   1   2
ATOM      2  C   UNL A   1      32.207  20.860  24.917  1.00  0.00     0.188 C 
BRANCH   2   3
ATOM      3  C   UNL A   1      31.511  22.209  25.155  1.00  0.00     0.188 C 
BRANCH   3   4
ATOM      4  O   UNL A   1      31.644  22.840  26.407  1.00  0.00    -0.376 OA
BRANCH   4   5
ATOM      5  C   UNL A   1      31.326  24.225  26.546  1.00  0.00     0.202 C 
BRANCH   5   6
ATOM      6  C   UNL A   1      30.659  24.998  25.400  1.00  0.00     0.261 C 
BRANCH   6   7
ATOM      7  O   UNL A   1      31.193  26.337  25.233  1.00  0.00    -0.463 OA
BRANCH   7   8
ATOM      8  C   UNL A   1      32.135  26.460  24.268  1.00  0.00     0.306 C 
ATOM      9  O   UNL A   1      31.930  26.207  23.082  1.00  0.00    -0.252 OA
BRANCH   8  10
ATOM     10  C   UNL A   1      33.504  26.916  24.718  1.00  0.00     0.131 C 
BRANCH  10  11
ATOM     11  C   UNL A   1      33.830  27.154  26.183  1.00  0.00     0.091 C 
BRANCH  11  12
ATOM     12  C   UNL A   1      33.973  28.565  26.625  1.00  0.00     0.152 A 
ATOM     13  C   UNL A   1      31.494  31.886  26.615  1.00  0.00     0.090 C 
ATOM     14  C   UNL A   1      32.868  31.787  27.202  1.00  0.00     0.131 A 
ATOM     15  N   UNL A   1      33.437  32.793  27.815  1.00  0.00    -0.222 NA
ATOM     16  N   UNL A   1      33.482  30.536  27.084  1.00  0.00    -0.199 N 
ATOM     17  C   UNL A   1      34.704  32.563  28.298  1.00  0.00     0.129 A 
ATOM     18  C   UNL A   1      34.727  30.271  27.590  1.00  0.00     0.168 A 
ATOM     19  N   UNL A   1      32.981  29.455  26.452  1.00  0.00    -0.150 NA
ATOM     20  S   UNL A   1      35.598  33.805  29.055  1.00  0.00    -0.120 S 
ATOM     21  C   UNL A   1      35.445  31.388  28.249  1.00  0.00     0.060 A 
ATOM     22  N   UNL A   1      35.048  29.024  27.346  1.00  0.00    -0.211 NA
ATOM     23  C   UNL A   1      36.950  32.791  29.273  1.00  0.00     0.011 A 
ATOM     24  C   UNL A   1      36.760  31.505  28.791  1.00  0.00    -0.018 A 
ATOM     25  C   UNL A   1      38.215  33.303  29.888  1.00  0.00     0.047 C 
ATOM     26  C   UNL A   1      37.854  30.465  28.878  1.00  0.00     0.018 C 
ATOM     27  C   UNL A   1      39.043  32.135  30.430  1.00  0.00     0.006 C 
ATOM     28  C   UNL A   1      38.115  29.787  27.538  1.00  0.00     0.013 C 
ATOM     29  C   UNL A   1      39.202  31.049  29.367  1.00  0.00     0.008 C 
ENDBRANCH  11  12
ENDBRANCH  10  11
ENDBRANCH   8  10
ENDBRANCH   7   8
ENDBRANCH   6   7
ENDBRANCH   5   6
ENDBRANCH   4   5
ENDBRANCH   3   4
ENDBRANCH   2   3
ENDBRANCH   1   2
BRANCH   1  30
ATOM     30  C   UNL A   1      34.524  20.068  25.102  1.00  0.00     0.188 C 
BRANCH  30  31
ATOM     31  C   UNL A   1      35.633  21.138  25.153  1.00  0.00     0.188 C 
BRANCH  31  32
ATOM     32  O   UNL A   1      37.017  20.851  25.163  1.00  0.00    -0.376 OA
BRANCH  32  33
ATOM     33  C   UNL A   1      38.036  21.819  25.270  1.00  0.00     0.202 C 
BRANCH  33  34
ATOM     34  C   UNL A   1      39.407  21.557  25.895  1.00  0.00     0.261 C 
BRANCH  34  35
ATOM     35  O   UNL A   1      40.151  22.686  26.301  1.00  0.00    -0.460 OA
BRANCH  35  36
ATOM     36  C   UNL A   1      41.480  22.530  26.179  1.00  0.00     0.338 C 
ATOM     37  O   UNL A   1      42.075  21.799  25.409  1.00  0.00    -0.246 OA
BRANCH  36  38
ATOM     38  C   UNL A   1      42.120  23.248  27.285  1.00  0.00     0.060 A 
ATOM     39  C   UNL A   1      41.259  23.748  28.257  1.00  0.00     0.016 A 
ATOM     40  C   UNL A   1      43.456  23.674  27.175  1.00  0.00     0.016 A 
ATOM     41  C   UNL A   1      41.675  24.838  28.980  1.00  0.00     0.010 A 
ATOM     42  C   UNL A   1      43.870  24.767  27.902  1.00  0.00     0.010 A 
ATOM     43  C   UNL A   1      42.944  25.385  28.734  1.00  0.00    -0.014 A 
BRANCH  43  44
ATOM     44  C   UNL A   1      43.303  26.551  29.512  1.00  0.00     0.031 A 
ATOM     45  C   UNL A   1      44.156  26.181  30.655  1.00  0.00     0.074 A 
ATOM     46  C   UNL A   1      42.916  27.808  29.222  1.00  0.00     0.049 A 
ATOM     47  N   UNL A   1      43.798  26.121  31.893  1.00  0.00    -0.248 NA
ATOM     48  C   UNL A   1      45.486  25.612  30.382  1.00  0.00     0.031 C 
ATOM     49  C   UNL A   1      42.328  28.284  27.968  1.00  0.00     0.029 A 
ATOM     50  N   UNL A   1      43.050  28.953  29.957  1.00  0.00    -0.354 N 
ATOM     51  C   UNL A   1      44.958  25.793  32.582  1.00  0.00     0.074 A 
ATOM     52  C   UNL A   1      45.883  25.276  31.611  1.00  0.00     0.031 C 
ATOM     53  C   UNL A   1      42.380  29.636  27.937  1.00  0.00     0.029 A 
ATOM     54  C   UNL A   1      42.855  30.120  29.224  1.00  0.00     0.049 A 
ATOM     55  H   UNL A   1      43.265  28.953  30.917  1.00  0.00     0.167 HD
ATOM     56  C   UNL A   1      45.174  26.356  33.799  1.00  0.00     0.037 A 
ATOM     57  C   UNL A   1      43.113  31.385  29.638  1.00  0.00     0.037 A 
ATOM     58  C   UNL A   1      43.949  26.863  34.360  1.00  0.00     0.049 A 
ATOM     59  C   UNL A   1      43.099  31.390  31.119  1.00  0.00     0.074 A 
ATOM     60  C   UNL A   1      42.838  26.359  34.998  1.00  0.00     0.029 A 
ATOM     61  N   UNL A   1      43.626  28.112  33.908  1.00  0.00    -0.354 N 
ATOM     62  N   UNL A   1      42.023  31.207  31.832  1.00  0.00    -0.248 NA
ATOM     63  C   UNL A   1      44.363  31.291  31.844  1.00  0.00     0.031 C 
ATOM     64  C   UNL A   1      41.816  27.348  34.876  1.00  0.00     0.029 A 
ATOM     65  C   UNL A   1      42.332  28.445  34.194  1.00  0.00     0.049 A 
ATOM     66  H   UNL A   1      44.252  28.704  33.433  1.00  0.00     0.167 HD
ATOM     67  C   UNL A   1      42.479  30.572  32.967  1.00  0.00     0.074 A 
ATOM     68  C   UNL A   1      43.916  30.808  33.005  1.00  0.00     0.031 C 
ATOM     69  C   UNL A   1      41.739  29.604  33.573  1.00  0.00     0.037 A 
BRANCH  56  70
ATOM     70  C   UNL A   1      46.503  26.956  34.206  1.00  0.00     0.057 A 
ATOM     71  C   UNL A   1      47.066  27.956  33.396  1.00  0.00     0.134 A 
ATOM     72  C   UNL A   1      47.385  26.385  35.149  1.00  0.00     0.134 A 
ATOM     73  F   UNL A   1      46.345  28.546  32.430  1.00  0.00    -0.206 F 
ATOM     74  C   UNL A   1      48.414  28.327  33.488  1.00  0.00     0.040 A 
ATOM     75  C   UNL A   1      48.715  26.785  35.286  1.00  0.00     0.040 A 
ATOM     76  F   UNL A   1      47.051  25.337  35.911  1.00  0.00    -0.206 F 
ATOM     77  C   UNL A   1      49.242  27.742  34.437  1.00  0.00     0.006 A 
ENDBRANCH  56  70
BRANCH  57  78
ATOM     78  C   UNL A   1      43.639  32.541  28.872  1.00  0.00     0.057 A 
ATOM     79  C   UNL A   1      44.639  32.360  27.902  1.00  0.00     0.134 A 
ATOM     80  C   UNL A   1      42.964  33.772  28.837  1.00  0.00     0.134 A 
ATOM     81  F   UNL A   1      45.326  31.209  27.837  1.00  0.00    -0.206 F 
ATOM     82  C   UNL A   1      44.909  33.319  26.918  1.00  0.00     0.040 A 
ATOM     83  C   UNL A   1      43.230  34.742  27.864  1.00  0.00     0.040 A 
ATOM     84  F   UNL A   1      41.959  34.037  29.683  1.00  0.00    -0.206 F 
ATOM     85  C   UNL A   1      44.188  34.508  26.884  1.00  0.00     0.006 A 
ENDBRANCH  57  78
BRANCH  69  86
ATOM     86  C   UNL A   1      40.254  29.657  33.453  1.00  0.00     0.057 A 
ATOM     87  C   UNL A   1      39.424  30.533  34.161  1.00  0.00     0.134 A 
ATOM     88  C   UNL A   1      39.661  28.861  32.466  1.00  0.00     0.134 A 
ATOM     89  F   UNL A   1      39.922  31.365  35.087  1.00  0.00    -0.206 F 
ATOM     90  C   UNL A   1      38.054  30.611  33.887  1.00  0.00     0.040 A 
ATOM     91  C   UNL A   1      38.305  28.950  32.164  1.00  0.00     0.040 A 
ATOM     92  F   UNL A   1      40.412  28.015  31.740  1.00  0.00    -0.206 F 
ATOM     93  C   UNL A   1      37.495  29.830  32.875  1.00  0.00     0.006 A 
ENDBRANCH  69  86
ENDBRANCH  43  44
ENDBRANCH  36  38
ENDBRANCH  35  36
ENDBRANCH  34  35
ENDBRANCH  33  34
ENDBRANCH  32  33
ENDBRANCH  31  32
ENDBRANCH  30  31
ENDBRANCH   1  30
TORSDOF 22
ENDMDL
