MODEL 1
REMARK VINA RESULT:      -9.6      0.000      0.000
REMARK SMILES CC(C)(C)c1ccc(C(=O)Oc2ccc([C@H]3[NH2+][C@@H](C(=O)OCCOCCOCCOCCOC(=O)c4ccc(-c5c6nc(c(-c7c(F)cccc7F)c7ccc([nH]7)c(-c7c(F)cccc7F)c7nc(c(-c8c(F)cccc8F)c8ccc5[nH]8)C=C7)C=C6)cc4)CS3)cc2)cc1
REMARK SMILES IDX 25 1 24 2 23 3 22 4 21 5 19 6 20 7 18 8 16 9 17 10 91 11
REMARK SMILES IDX 90 14 15 15 12 16 13 17 93 18 14 19 92 20 11 21 9 22 10 23
REMARK SMILES IDX 8 24 5 25 6 26 95 27 7 28 94 29 2 30 1 31 3 32 4 33 26 34
REMARK SMILES IDX 27 35 28 36 29 37 30 38 31 39 32 40 33 41 34 42 35 43 36 44
REMARK SMILES IDX 37 45 89 46 38 47 88 48 39 49 40 50 41 51 82 52 42 53 87 54
REMARK SMILES IDX 81 55 83 56 43 57 86 58 80 59 79 60 44 62 70 63 53 64 69 65
REMARK SMILES IDX 54 66 57 67 68 68 84 69 55 70 56 71 67 73 85 74 58 75 45 76
REMARK SMILES IDX 46 77 51 78 47 79 48 80 50 81 52 82 49 83 71 84 72 85 77 86
REMARK SMILES IDX 73 87 74 88 76 89 78 90 75 91 59 92 60 93 65 94 61 95 62 96
REMARK SMILES IDX 64 97 66 98 63 99
REMARK H PARENT 17 12 17 13 83 61 57 72
REMARK Flexibility Score: inf
ROOT
ATOM      1  C   UNL A   1      33.846  33.396  27.949  1.00  0.00     0.188 C 
ENDROOT
BRANCH   1   2
ATOM      2  O   UNL A   1      34.451  32.287  28.594  1.00  0.00    -0.376 OA
BRANCH   2   3
ATOM      3  C   UNL A   1      34.562  31.091  27.845  1.00  0.00     0.202 C 
BRANCH   3   4
ATOM      4  C   UNL A   1      33.253  30.392  27.449  1.00  0.00     0.261 C 
BRANCH   4   5
ATOM      5  O   UNL A   1      33.014  30.233  26.037  1.00  0.00    -0.459 OA
BRANCH   5   6
ATOM      6  C   UNL A   1      31.727  30.221  25.593  1.00  0.00     0.365 C 
ATOM      7  O   UNL A   1      30.971  31.182  25.641  1.00  0.00    -0.245 OA
BRANCH   6   8
ATOM      8  C   UNL A   1      31.404  28.871  24.916  1.00  0.00     0.304 C 
ATOM      9  C   UNL A   1      32.315  26.785  24.218  1.00  0.00     0.274 C 
ATOM     10  N   UNL A   1      32.486  27.872  25.180  1.00  0.00    -0.319 N 
ATOM     11  S   UNL A   1      32.037  27.620  22.638  1.00  0.00    -0.087 SA
ATOM     12  H   UNL A   1      33.401  28.305  25.059  1.00  0.00     0.348 HD
ATOM     13  H   UNL A   1      32.430  27.521  26.137  1.00  0.00     0.348 HD
ATOM     14  C   UNL A   1      31.238  29.059  23.409  1.00  0.00     0.153 C 
BRANCH   9  15
ATOM     15  C   UNL A   1      33.453  25.773  24.281  1.00  0.00     0.020 A 
ATOM     16  C   UNL A   1      35.577  23.892  24.264  1.00  0.00     0.131 A 
ATOM     17  C   UNL A   1      34.750  24.011  23.151  1.00  0.00     0.048 A 
ATOM     18  C   UNL A   1      35.354  24.695  25.383  1.00  0.00     0.048 A 
ATOM     19  C   UNL A   1      33.691  24.936  23.168  1.00  0.00     0.015 A 
ATOM     20  C   UNL A   1      34.290  25.608  25.398  1.00  0.00     0.015 A 
BRANCH  16  21
ATOM     21  O   UNL A   1      36.697  23.035  24.184  1.00  0.00    -0.423 OA
BRANCH  21  22
ATOM     22  C   UNL A   1      36.877  22.153  25.240  1.00  0.00     0.343 C 
ATOM     23  O   UNL A   1      37.622  22.316  26.197  1.00  0.00    -0.246 OA
BRANCH  22  24
ATOM     24  C   UNL A   1      36.076  20.904  25.067  1.00  0.00     0.060 A 
ATOM     25  C   UNL A   1      34.706  18.424  24.681  1.00  0.00    -0.043 A 
ATOM     26  C   UNL A   1      36.104  18.505  24.604  1.00  0.00     0.005 A 
ATOM     27  C   UNL A   1      34.013  19.620  24.964  1.00  0.00     0.005 A 
ATOM     28  C   UNL A   1      36.776  19.721  24.795  1.00  0.00     0.016 A 
ATOM     29  C   UNL A   1      34.683  20.846  25.151  1.00  0.00     0.016 A 
BRANCH  25  30
ATOM     30  C   UNL A   1      33.948  17.094  24.481  1.00  0.00    -0.013 C 
ATOM     31  C   UNL A   1      33.984  16.696  22.990  1.00  0.00     0.016 C 
ATOM     32  C   UNL A   1      32.459  17.149  24.902  1.00  0.00     0.016 C 
ATOM     33  C   UNL A   1      34.603  15.972  25.317  1.00  0.00     0.016 C 
ENDBRANCH  25  30
ENDBRANCH  22  24
ENDBRANCH  21  22
ENDBRANCH  16  21
ENDBRANCH   9  15
ENDBRANCH   6   8
ENDBRANCH   5   6
ENDBRANCH   4   5
ENDBRANCH   3   4
ENDBRANCH   2   3
ENDBRANCH   1   2
BRANCH   1  34
ATOM     34  C   UNL A   1      33.828  34.687  28.803  1.00  0.00     0.188 C 
BRANCH  34  35
ATOM     35  O   UNL A   1      32.724  34.954  29.662  1.00  0.00    -0.377 OA
BRANCH  35  36
ATOM     36  C   UNL A   1      32.484  36.276  30.121  1.00  0.00     0.188 C 
BRANCH  36  37
ATOM     37  C   UNL A   1      33.315  36.873  31.280  1.00  0.00     0.188 C 
BRANCH  37  38
ATOM     38  O   UNL A   1      34.106  35.934  31.981  1.00  0.00    -0.376 OA
BRANCH  38  39
ATOM     39  C   UNL A   1      33.478  35.006  32.841  1.00  0.00     0.202 C 
BRANCH  39  40
ATOM     40  C   UNL A   1      34.256  33.733  33.194  1.00  0.00     0.261 C 
BRANCH  40  41
ATOM     41  O   UNL A   1      35.681  33.871  33.284  1.00  0.00    -0.460 OA
BRANCH  41  42
ATOM     42  C   UNL A   1      36.411  33.319  32.295  1.00  0.00     0.338 C 
ATOM     43  O   UNL A   1      36.294  33.508  31.094  1.00  0.00    -0.246 OA
BRANCH  42  44
ATOM     44  C   UNL A   1      37.525  32.582  32.921  1.00  0.00     0.060 A 
ATOM     45  C   UNL A   1      37.269  31.801  34.056  1.00  0.00     0.016 A 
ATOM     46  C   UNL A   1      38.811  32.645  32.376  1.00  0.00     0.016 A 
ATOM     47  C   UNL A   1      38.307  31.108  34.672  1.00  0.00     0.010 A 
ATOM     48  C   UNL A   1      39.858  31.974  33.013  1.00  0.00     0.010 A 
ATOM     49  C   UNL A   1      39.614  31.238  34.185  1.00  0.00    -0.014 A 
BRANCH  49  50
ATOM     50  C   UNL A   1      40.741  30.803  35.041  1.00  0.00     0.031 A 
ATOM     51  C   UNL A   1      41.217  31.748  36.110  1.00  0.00     0.074 A 
ATOM     52  C   UNL A   1      41.288  29.582  34.918  1.00  0.00     0.049 A 
ATOM     53  N   UNL A   1      42.169  31.596  36.994  1.00  0.00    -0.248 NA
ATOM     54  C   UNL A   1      40.519  33.041  36.194  1.00  0.00     0.031 C 
ATOM     55  C   UNL A   1      40.877  28.563  33.955  1.00  0.00     0.029 A 
ATOM     56  N   UNL A   1      42.308  28.994  35.621  1.00  0.00    -0.354 N 
ATOM     57  C   UNL A   1      42.181  32.769  37.736  1.00  0.00     0.074 A 
ATOM     58  C   UNL A   1      41.174  33.641  37.173  1.00  0.00     0.031 C 
ATOM     59  C   UNL A   1      41.643  27.470  34.127  1.00  0.00     0.029 A 
ATOM     60  C   UNL A   1      42.612  27.725  35.193  1.00  0.00     0.049 A 
ATOM     61  H   UNL A   1      42.779  29.439  36.362  1.00  0.00     0.167 HD
ATOM     62  C   UNL A   1      42.952  33.088  38.802  1.00  0.00     0.037 A 
ATOM     63  C   UNL A   1      43.572  26.877  35.609  1.00  0.00     0.037 A 
ATOM     64  C   UNL A   1      43.963  32.224  39.350  1.00  0.00     0.049 A 
ATOM     65  C   UNL A   1      44.481  27.292  36.738  1.00  0.00     0.074 A 
ATOM     66  C   UNL A   1      44.803  32.452  40.424  1.00  0.00     0.029 A 
ATOM     67  N   UNL A   1      44.277  30.967  38.854  1.00  0.00    -0.354 N 
ATOM     68  N   UNL A   1      44.476  28.395  37.448  1.00  0.00    -0.248 NA
ATOM     69  C   UNL A   1      45.528  26.336  37.128  1.00  0.00     0.031 C 
ATOM     70  C   UNL A   1      45.666  31.357  40.543  1.00  0.00     0.029 A 
ATOM     71  C   UNL A   1      45.317  30.416  39.586  1.00  0.00     0.049 A 
ATOM     72  H   UNL A   1      43.828  30.530  38.095  1.00  0.00     0.167 HD
ATOM     73  C   UNL A   1      45.486  28.249  38.391  1.00  0.00     0.074 A 
ATOM     74  C   UNL A   1      46.077  26.946  38.169  1.00  0.00     0.031 C 
ATOM     75  C   UNL A   1      45.887  29.113  39.359  1.00  0.00     0.037 A 
BRANCH  62  76
ATOM     76  C   UNL A   1      42.747  34.443  39.417  1.00  0.00     0.057 A 
ATOM     77  C   UNL A   1      43.308  35.604  38.865  1.00  0.00     0.134 A 
ATOM     78  C   UNL A   1      41.976  34.590  40.576  1.00  0.00     0.134 A 
ATOM     79  F   UNL A   1      44.075  35.532  37.767  1.00  0.00    -0.206 F 
ATOM     80  C   UNL A   1      43.134  36.854  39.460  1.00  0.00     0.040 A 
ATOM     81  C   UNL A   1      41.767  35.839  41.163  1.00  0.00     0.040 A 
ATOM     82  F   UNL A   1      41.409  33.522  41.157  1.00  0.00    -0.206 F 
ATOM     83  C   UNL A   1      42.355  36.975  40.609  1.00  0.00     0.006 A 
ENDBRANCH  62  76
BRANCH  63  84
ATOM     84  C   UNL A   1      43.729  25.549  34.963  1.00  0.00     0.057 A 
ATOM     85  C   UNL A   1      43.009  24.434  35.410  1.00  0.00     0.134 A 
ATOM     86  C   UNL A   1      44.625  25.353  33.906  1.00  0.00     0.134 A 
ATOM     87  F   UNL A   1      42.152  24.551  36.436  1.00  0.00    -0.206 F 
ATOM     88  C   UNL A   1      43.190  23.171  34.845  1.00  0.00     0.040 A 
ATOM     89  C   UNL A   1      44.795  24.101  33.312  1.00  0.00     0.040 A 
ATOM     90  F   UNL A   1      45.347  26.378  33.431  1.00  0.00    -0.206 F 
ATOM     91  C   UNL A   1      44.083  23.003  33.788  1.00  0.00     0.006 A 
ENDBRANCH  63  84
BRANCH  75  92
ATOM     92  C   UNL A   1      46.978  28.653  40.284  1.00  0.00     0.057 A 
ATOM     93  C   UNL A   1      46.720  27.867  41.415  1.00  0.00     0.134 A 
ATOM     94  C   UNL A   1      48.316  28.981  40.022  1.00  0.00     0.134 A 
ATOM     95  F   UNL A   1      45.461  27.523  41.732  1.00  0.00    -0.206 F 
ATOM     96  C   UNL A   1      47.745  27.456  42.269  1.00  0.00     0.040 A 
ATOM     97  C   UNL A   1      49.353  28.547  40.848  1.00  0.00     0.040 A 
ATOM     98  F   UNL A   1      48.638  29.719  38.948  1.00  0.00    -0.206 F 
ATOM     99  C   UNL A   1      49.067  27.791  41.983  1.00  0.00     0.006 A 
ENDBRANCH  75  92
ENDBRANCH  49  50
ENDBRANCH  42  44
ENDBRANCH  41  42
ENDBRANCH  40  41
ENDBRANCH  39  40
ENDBRANCH  38  39
ENDBRANCH  37  38
ENDBRANCH  36  37
ENDBRANCH  35  36
ENDBRANCH  34  35
ENDBRANCH   1  34
TORSDOF 25
ENDMDL
MODEL 2
REMARK VINA RESULT:      -9.5      4.543      6.894
REMARK SMILES CC(C)(C)c1ccc(C(=O)Oc2ccc([C@H]3[NH2+][C@@H](C(=O)OCCOCCOCCOCCOC(=O)c4ccc(-c5c6nc(c(-c7c(F)cccc7F)c7ccc([nH]7)c(-c7c(F)cccc7F)c7nc(c(-c8c(F)cccc8F)c8ccc5[nH]8)C=C7)C=C6)cc4)CS3)cc2)cc1
REMARK SMILES IDX 25 1 24 2 23 3 22 4 21 5 19 6 20 7 18 8 16 9 17 10 91 11
REMARK SMILES IDX 90 14 15 15 12 16 13 17 93 18 14 19 92 20 11 21 9 22 10 23
REMARK SMILES IDX 8 24 5 25 6 26 95 27 7 28 94 29 2 30 1 31 3 32 4 33 26 34
REMARK SMILES IDX 27 35 28 36 29 37 30 38 31 39 32 40 33 41 34 42 35 43 36 44
REMARK SMILES IDX 37 45 89 46 38 47 88 48 39 49 40 50 41 51 82 52 42 53 87 54
REMARK SMILES IDX 81 55 83 56 43 57 86 58 80 59 79 60 44 62 70 63 53 64 69 65
REMARK SMILES IDX 54 66 57 67 68 68 84 69 55 70 56 71 67 73 85 74 58 75 45 76
REMARK SMILES IDX 46 77 51 78 47 79 48 80 50 81 52 82 49 83 71 84 72 85 77 86
REMARK SMILES IDX 73 87 74 88 76 89 78 90 75 91 59 92 60 93 65 94 61 95 62 96
REMARK SMILES IDX 64 97 66 98 63 99
REMARK H PARENT 17 12 17 13 83 61 57 72
REMARK Flexibility Score: inf
ROOT
ATOM      1  C   UNL A   1      33.537  33.075  27.646  1.00  0.00     0.188 C 
ENDROOT
BRANCH   1   2
ATOM      2  O   UNL A   1      33.616  31.730  28.090  1.00  0.00    -0.376 OA
BRANCH   2   3
ATOM      3  C   UNL A   1      33.570  30.723  27.096  1.00  0.00     0.202 C 
BRANCH   3   4
ATOM      4  C   UNL A   1      32.197  30.405  26.488  1.00  0.00     0.261 C 
BRANCH   4   5
ATOM      5  O   UNL A   1      32.200  29.698  25.232  1.00  0.00    -0.459 OA
BRANCH   5   6
ATOM      6  C   UNL A   1      31.016  29.513  24.587  1.00  0.00     0.365 C 
ATOM      7  O   UNL A   1      30.267  30.419  24.247  1.00  0.00    -0.245 OA
BRANCH   6   8
ATOM      8  C   UNL A   1      30.819  28.021  24.241  1.00  0.00     0.304 C 
ATOM      9  C   UNL A   1      31.935  25.949  23.886  1.00  0.00     0.274 C 
ATOM     10  N   UNL A   1      32.043  27.231  24.580  1.00  0.00    -0.319 N 
ATOM     11  S   UNL A   1      31.413  26.385  22.210  1.00  0.00    -0.087 SA
ATOM     12  H   UNL A   1      32.878  27.727  24.270  1.00  0.00     0.348 HD
ATOM     13  H   UNL A   1      32.117  27.091  25.588  1.00  0.00     0.348 HD
ATOM     14  C   UNL A   1      30.499  27.858  22.756  1.00  0.00     0.153 C 
BRANCH   9  15
ATOM     15  C   UNL A   1      33.200  25.108  24.025  1.00  0.00     0.020 A 
ATOM     16  C   UNL A   1      35.554  23.531  24.152  1.00  0.00     0.131 A 
ATOM     17  C   UNL A   1      34.690  23.398  23.069  1.00  0.00     0.048 A 
ATOM     18  C   UNL A   1      35.256  24.435  25.171  1.00  0.00     0.048 A 
ATOM     19  C   UNL A   1      33.518  24.172  23.016  1.00  0.00     0.015 A 
ATOM     20  C   UNL A   1      34.080  25.198  25.117  1.00  0.00     0.015 A 
BRANCH  16  21
ATOM     21  O   UNL A   1      36.776  22.822  24.132  1.00  0.00    -0.423 OA
BRANCH  21  22
ATOM     22  C   UNL A   1      37.096  22.108  25.277  1.00  0.00     0.343 C 
ATOM     23  O   UNL A   1      36.446  21.191  25.762  1.00  0.00    -0.246 OA
BRANCH  22  24
ATOM     24  C   UNL A   1      38.343  22.619  25.924  1.00  0.00     0.060 A 
ATOM     25  C   UNL A   1      40.786  23.413  27.178  1.00  0.00    -0.043 A 
ATOM     26  C   UNL A   1      40.559  22.083  26.800  1.00  0.00     0.005 A 
ATOM     27  C   UNL A   1      39.757  24.339  26.904  1.00  0.00     0.005 A 
ATOM     28  C   UNL A   1      39.361  21.693  26.183  1.00  0.00     0.016 A 
ATOM     29  C   UNL A   1      38.549  23.952  26.290  1.00  0.00     0.016 A 
BRANCH  25  30
ATOM     30  C   UNL A   1      42.102  23.863  27.851  1.00  0.00    -0.013 C 
ATOM     31  C   UNL A   1      43.183  24.090  26.773  1.00  0.00     0.016 C 
ATOM     32  C   UNL A   1      42.674  22.840  28.861  1.00  0.00     0.016 C 
ATOM     33  C   UNL A   1      41.883  25.179  28.629  1.00  0.00     0.016 C 
ENDBRANCH  25  30
ENDBRANCH  22  24
ENDBRANCH  21  22
ENDBRANCH  16  21
ENDBRANCH   9  15
ENDBRANCH   6   8
ENDBRANCH   5   6
ENDBRANCH   4   5
ENDBRANCH   3   4
ENDBRANCH   2   3
ENDBRANCH   1   2
BRANCH   1  34
ATOM     34  C   UNL A   1      33.922  34.116  28.725  1.00  0.00     0.188 C 
BRANCH  34  35
ATOM     35  O   UNL A   1      32.947  34.559  29.664  1.00  0.00    -0.377 OA
BRANCH  35  36
ATOM     36  C   UNL A   1      32.907  35.923  30.058  1.00  0.00     0.188 C 
BRANCH  36  37
ATOM     37  C   UNL A   1      33.608  36.392  31.354  1.00  0.00     0.188 C 
BRANCH  37  38
ATOM     38  O   UNL A   1      34.401  35.404  31.984  1.00  0.00    -0.376 OA
BRANCH  38  39
ATOM     39  C   UNL A   1      34.031  34.933  33.263  1.00  0.00     0.202 C 
BRANCH  39  40
ATOM     40  C   UNL A   1      34.565  33.560  33.690  1.00  0.00     0.261 C 
BRANCH  40  41
ATOM     41  O   UNL A   1      35.812  33.160  33.106  1.00  0.00    -0.460 OA
BRANCH  41  42
ATOM     42  C   UNL A   1      35.762  32.210  32.151  1.00  0.00     0.338 C 
ATOM     43  O   UNL A   1      34.866  32.018  31.344  1.00  0.00    -0.246 OA
BRANCH  42  44
ATOM     44  C   UNL A   1      37.079  31.547  32.113  1.00  0.00     0.060 A 
ATOM     45  C   UNL A   1      38.110  32.039  32.924  1.00  0.00     0.016 A 
ATOM     46  C   UNL A   1      37.287  30.430  31.298  1.00  0.00     0.016 A 
ATOM     47  C   UNL A   1      39.365  31.438  32.895  1.00  0.00     0.010 A 
ATOM     48  C   UNL A   1      38.555  29.847  31.246  1.00  0.00     0.010 A 
ATOM     49  C   UNL A   1      39.606  30.375  32.014  1.00  0.00    -0.014 A 
BRANCH  49  50
ATOM     50  C   UNL A   1      41.007  29.988  31.729  1.00  0.00     0.031 A 
ATOM     51  C   UNL A   1      41.809  30.873  30.815  1.00  0.00     0.074 A 
ATOM     52  C   UNL A   1      41.574  28.919  32.312  1.00  0.00     0.049 A 
ATOM     53  N   UNL A   1      43.052  30.761  30.425  1.00  0.00    -0.248 NA
ATOM     54  C   UNL A   1      41.110  32.047  30.267  1.00  0.00     0.031 C 
ATOM     55  C   UNL A   1      40.913  28.017  33.254  1.00  0.00     0.029 A 
ATOM     56  N   UNL A   1      42.845  28.416  32.196  1.00  0.00    -0.354 N 
ATOM     57  C   UNL A   1      43.282  31.848  29.592  1.00  0.00     0.074 A 
ATOM     58  C   UNL A   1      42.040  32.583  29.496  1.00  0.00     0.031 C 
ATOM     59  C   UNL A   1      41.788  27.068  33.631  1.00  0.00     0.029 A 
ATOM     60  C   UNL A   1      43.057  27.280  32.936  1.00  0.00     0.049 A 
ATOM     61  H   UNL A   1      43.539  28.831  31.635  1.00  0.00     0.167 HD
ATOM     62  C   UNL A   1      44.430  32.211  28.973  1.00  0.00     0.037 A 
ATOM     63  C   UNL A   1      44.150  26.499  33.028  1.00  0.00     0.037 A 
ATOM     64  C   UNL A   1      45.659  31.470  29.060  1.00  0.00     0.049 A 
ATOM     65  C   UNL A   1      45.390  26.873  32.255  1.00  0.00     0.074 A 
ATOM     66  C   UNL A   1      46.878  31.747  28.468  1.00  0.00     0.029 A 
ATOM     67  N   UNL A   1      45.820  30.293  29.777  1.00  0.00    -0.354 N 
ATOM     68  N   UNL A   1      45.607  27.911  31.484  1.00  0.00    -0.248 NA
ATOM     69  C   UNL A   1      46.540  25.964  32.373  1.00  0.00     0.031 C 
ATOM     70  C   UNL A   1      47.761  30.708  28.780  1.00  0.00     0.029 A 
ATOM     71  C   UNL A   1      47.112  29.818  29.623  1.00  0.00     0.049 A 
ATOM     72  H   UNL A   1      45.120  29.859  30.317  1.00  0.00     0.167 HD
ATOM     73  C   UNL A   1      46.926  27.804  31.059  1.00  0.00     0.074 A 
ATOM     74  C   UNL A   1      47.462  26.604  31.667  1.00  0.00     0.031 C 
ATOM     75  C   UNL A   1      47.634  28.627  30.244  1.00  0.00     0.037 A 
BRANCH  62  76
ATOM     76  C   UNL A   1      44.390  33.450  28.125  1.00  0.00     0.057 A 
ATOM     77  C   UNL A   1      44.572  34.730  28.668  1.00  0.00     0.134 A 
ATOM     78  C   UNL A   1      44.171  33.361  26.745  1.00  0.00     0.134 A 
ATOM     79  F   UNL A   1      44.766  34.888  29.986  1.00  0.00    -0.206 F 
ATOM     80  C   UNL A   1      44.506  35.876  27.874  1.00  0.00     0.040 A 
ATOM     81  C   UNL A   1      44.135  34.498  25.936  1.00  0.00     0.040 A 
ATOM     82  F   UNL A   1      43.990  32.169  26.159  1.00  0.00    -0.206 F 
ATOM     83  C   UNL A   1      44.294  35.761  26.502  1.00  0.00     0.006 A 
ENDBRANCH  62  76
BRANCH  63  84
ATOM     84  C   UNL A   1      44.132  25.285  33.884  1.00  0.00     0.057 A 
ATOM     85  C   UNL A   1      44.278  25.373  35.274  1.00  0.00     0.134 A 
ATOM     86  C   UNL A   1      44.003  24.004  33.332  1.00  0.00     0.134 A 
ATOM     87  F   UNL A   1      44.430  26.570  35.862  1.00  0.00    -0.206 F 
ATOM     88  C   UNL A   1      44.316  24.235  36.080  1.00  0.00     0.040 A 
ATOM     89  C   UNL A   1      44.011  22.859  34.129  1.00  0.00     0.040 A 
ATOM     90  F   UNL A   1      43.862  23.849  32.008  1.00  0.00    -0.206 F 
ATOM     91  C   UNL A   1      44.178  22.972  35.508  1.00  0.00     0.006 A 
ENDBRANCH  63  84
BRANCH  75  92
ATOM     92  C   UNL A   1      49.079  28.288  30.008  1.00  0.00     0.057 A 
ATOM     93  C   UNL A   1      50.110  28.817  30.794  1.00  0.00     0.134 A 
ATOM     94  C   UNL A   1      49.440  27.392  28.992  1.00  0.00     0.134 A 
ATOM     95  F   UNL A   1      49.838  29.687  31.779  1.00  0.00    -0.206 F 
ATOM     96  C   UNL A   1      51.449  28.497  30.555  1.00  0.00     0.040 A 
ATOM     97  C   UNL A   1      50.771  27.038  28.765  1.00  0.00     0.040 A 
ATOM     98  F   UNL A   1      48.502  26.836  28.209  1.00  0.00    -0.206 F 
ATOM     99  C   UNL A   1      51.781  27.601  29.542  1.00  0.00     0.006 A 
ENDBRANCH  75  92
ENDBRANCH  49  50
ENDBRANCH  42  44
ENDBRANCH  41  42
ENDBRANCH  40  41
ENDBRANCH  39  40
ENDBRANCH  38  39
ENDBRANCH  37  38
ENDBRANCH  36  37
ENDBRANCH  35  36
ENDBRANCH  34  35
ENDBRANCH   1  34
TORSDOF 25
ENDMDL
MODEL 3
REMARK VINA RESULT:      -8.4      3.019      7.234
REMARK SMILES CC(C)(C)c1ccc(C(=O)Oc2ccc([C@H]3[NH2+][C@@H](C(=O)OCCOCCOCCOCCOC(=O)c4ccc(-c5c6nc(c(-c7c(F)cccc7F)c7ccc([nH]7)c(-c7c(F)cccc7F)c7nc(c(-c8c(F)cccc8F)c8ccc5[nH]8)C=C7)C=C6)cc4)CS3)cc2)cc1
REMARK SMILES IDX 25 1 24 2 23 3 22 4 21 5 19 6 20 7 18 8 16 9 17 10 91 11
REMARK SMILES IDX 90 14 15 15 12 16 13 17 93 18 14 19 92 20 11 21 9 22 10 23
REMARK SMILES IDX 8 24 5 25 6 26 95 27 7 28 94 29 2 30 1 31 3 32 4 33 26 34
REMARK SMILES IDX 27 35 28 36 29 37 30 38 31 39 32 40 33 41 34 42 35 43 36 44
REMARK SMILES IDX 37 45 89 46 38 47 88 48 39 49 40 50 41 51 82 52 42 53 87 54
REMARK SMILES IDX 81 55 83 56 43 57 86 58 80 59 79 60 44 62 70 63 53 64 69 65
REMARK SMILES IDX 54 66 57 67 68 68 84 69 55 70 56 71 67 73 85 74 58 75 45 76
REMARK SMILES IDX 46 77 51 78 47 79 48 80 50 81 52 82 49 83 71 84 72 85 77 86
REMARK SMILES IDX 73 87 74 88 76 89 78 90 75 91 59 92 60 93 65 94 61 95 62 96
REMARK SMILES IDX 64 97 66 98 63 99
REMARK H PARENT 17 12 17 13 83 61 57 72
REMARK Flexibility Score: inf
ROOT
ATOM      1  C   UNL A   1      34.613  32.871  29.005  1.00  0.00     0.188 C 
ENDROOT
BRANCH   1   2
ATOM      2  O   UNL A   1      35.311  31.672  28.706  1.00  0.00    -0.376 OA
BRANCH   2   3
ATOM      3  C   UNL A   1      34.924  30.980  27.533  1.00  0.00     0.202 C 
BRANCH   3   4
ATOM      4  C   UNL A   1      33.444  30.588  27.411  1.00  0.00     0.261 C 
BRANCH   4   5
ATOM      5  O   UNL A   1      33.000  30.158  26.109  1.00  0.00    -0.459 OA
BRANCH   5   6
ATOM      6  C   UNL A   1      31.691  30.333  25.778  1.00  0.00     0.365 C 
ATOM      7  O   UNL A   1      31.075  31.380  25.929  1.00  0.00    -0.245 OA
BRANCH   6   8
ATOM      8  C   UNL A   1      31.140  29.072  25.078  1.00  0.00     0.304 C 
ATOM      9  C   UNL A   1      31.728  26.980  24.106  1.00  0.00     0.274 C 
ATOM     10  N   UNL A   1      32.151  27.970  25.095  1.00  0.00    -0.319 N 
ATOM     11  S   UNL A   1      31.283  27.957  22.651  1.00  0.00    -0.087 SA
ATOM     12  H   UNL A   1      33.072  28.335  24.852  1.00  0.00     0.348 HD
ATOM     13  H   UNL A   1      32.215  27.550  26.023  1.00  0.00     0.348 HD
ATOM     14  C   UNL A   1      30.755  29.391  23.635  1.00  0.00     0.153 C 
BRANCH   9  15
ATOM     15  C   UNL A   1      32.762  25.876  23.915  1.00  0.00     0.020 A 
ATOM     16  C   UNL A   1      34.707  23.824  23.692  1.00  0.00     0.131 A 
ATOM     17  C   UNL A   1      34.749  24.700  24.772  1.00  0.00     0.048 A 
ATOM     18  C   UNL A   1      33.713  23.961  22.723  1.00  0.00     0.048 A 
ATOM     19  C   UNL A   1      33.790  25.724  24.872  1.00  0.00     0.015 A 
ATOM     20  C   UNL A   1      32.766  24.991  22.824  1.00  0.00     0.015 A 
BRANCH  16  21
ATOM     21  O   UNL A   1      35.613  22.740  23.667  1.00  0.00    -0.423 OA
BRANCH  21  22
ATOM     22  C   UNL A   1      35.810  22.070  24.866  1.00  0.00     0.343 C 
ATOM     23  O   UNL A   1      34.990  21.369  25.445  1.00  0.00    -0.246 OA
BRANCH  22  24
ATOM     24  C   UNL A   1      37.164  22.336  25.439  1.00  0.00     0.060 A 
ATOM     25  C   UNL A   1      39.797  22.659  26.505  1.00  0.00    -0.043 A 
ATOM     26  C   UNL A   1      39.401  21.464  25.888  1.00  0.00     0.005 A 
ATOM     27  C   UNL A   1      38.839  23.692  26.567  1.00  0.00     0.005 A 
ATOM     28  C   UNL A   1      38.110  21.306  25.363  1.00  0.00     0.016 A 
ATOM     29  C   UNL A   1      37.538  23.537  26.047  1.00  0.00     0.016 A 
BRANCH  25  30
ATOM     30  C   UNL A   1      41.217  22.855  27.082  1.00  0.00    -0.013 C 
ATOM     31  C   UNL A   1      42.217  23.082  25.928  1.00  0.00     0.016 C 
ATOM     32  C   UNL A   1      41.734  21.649  27.902  1.00  0.00     0.016 C 
ATOM     33  C   UNL A   1      41.249  24.079  28.023  1.00  0.00     0.016 C 
ENDBRANCH  25  30
ENDBRANCH  22  24
ENDBRANCH  21  22
ENDBRANCH  16  21
ENDBRANCH   9  15
ENDBRANCH   6   8
ENDBRANCH   5   6
ENDBRANCH   4   5
ENDBRANCH   3   4
ENDBRANCH   2   3
ENDBRANCH   1   2
BRANCH   1  34
ATOM     34  C   UNL A   1      34.840  33.386  30.446  1.00  0.00     0.188 C 
BRANCH  34  35
ATOM     35  O   UNL A   1      34.175  32.759  31.538  1.00  0.00    -0.377 OA
BRANCH  35  36
ATOM     36  C   UNL A   1      34.585  33.029  32.870  1.00  0.00     0.188 C 
BRANCH  36  37
ATOM     37  C   UNL A   1      35.737  34.018  33.158  1.00  0.00     0.188 C 
BRANCH  37  38
ATOM     38  O   UNL A   1      36.827  33.461  33.867  1.00  0.00    -0.376 OA
BRANCH  38  39
ATOM     39  C   UNL A   1      37.230  34.046  35.087  1.00  0.00     0.202 C 
BRANCH  39  40
ATOM     40  C   UNL A   1      38.656  34.606  35.165  1.00  0.00     0.261 C 
BRANCH  40  41
ATOM     41  O   UNL A   1      39.672  33.684  35.581  1.00  0.00    -0.460 OA
BRANCH  41  42
ATOM     42  C   UNL A   1      40.936  33.959  35.203  1.00  0.00     0.338 C 
ATOM     43  O   UNL A   1      41.425  35.058  34.995  1.00  0.00    -0.246 OA
BRANCH  42  44
ATOM     44  C   UNL A   1      41.704  32.701  35.269  1.00  0.00     0.060 A 
ATOM     45  C   UNL A   1      41.110  31.573  35.850  1.00  0.00     0.016 A 
ATOM     46  C   UNL A   1      42.995  32.631  34.738  1.00  0.00     0.016 A 
ATOM     47  C   UNL A   1      41.820  30.379  35.936  1.00  0.00     0.010 A 
ATOM     48  C   UNL A   1      43.719  31.441  34.853  1.00  0.00     0.010 A 
ATOM     49  C   UNL A   1      43.147  30.326  35.488  1.00  0.00    -0.014 A 
BRANCH  49  50
ATOM     50  C   UNL A   1      43.996  29.187  35.905  1.00  0.00     0.031 A 
ATOM     51  C   UNL A   1      44.230  28.084  34.911  1.00  0.00     0.074 A 
ATOM     52  C   UNL A   1      44.594  29.159  37.108  1.00  0.00     0.049 A 
ATOM     53  N   UNL A   1      44.944  26.994  35.027  1.00  0.00    -0.248 NA
ATOM     54  C   UNL A   1      43.569  28.234  33.604  1.00  0.00     0.031 C 
ATOM     55  C   UNL A   1      44.482  30.194  38.134  1.00  0.00     0.029 A 
ATOM     56  N   UNL A   1      45.422  28.218  37.663  1.00  0.00    -0.354 N 
ATOM     57  C   UNL A   1      44.818  26.333  33.812  1.00  0.00     0.074 A 
ATOM     58  C   UNL A   1      43.927  27.119  32.988  1.00  0.00     0.031 C 
ATOM     59  C   UNL A   1      45.218  29.828  39.199  1.00  0.00     0.029 A 
ATOM     60  C   UNL A   1      45.827  28.525  38.938  1.00  0.00     0.049 A 
ATOM     61  H   UNL A   1      45.701  27.400  37.192  1.00  0.00     0.167 HD
ATOM     62  C   UNL A   1      45.406  25.181  33.411  1.00  0.00     0.037 A 
ATOM     63  C   UNL A   1      46.592  27.822  39.797  1.00  0.00     0.037 A 
ATOM     64  C   UNL A   1      46.280  24.395  34.239  1.00  0.00     0.049 A 
ATOM     65  C   UNL A   1      47.160  26.495  39.360  1.00  0.00     0.074 A 
ATOM     66  C   UNL A   1      46.924  23.210  33.932  1.00  0.00     0.029 A 
ATOM     67  N   UNL A   1      46.624  24.712  35.545  1.00  0.00    -0.354 N 
ATOM     68  N   UNL A   1      47.054  25.885  38.204  1.00  0.00    -0.248 NA
ATOM     69  C   UNL A   1      47.962  25.763  40.351  1.00  0.00     0.031 C 
ATOM     70  C   UNL A   1      47.611  22.779  35.072  1.00  0.00     0.029 A 
ATOM     71  C   UNL A   1      47.452  23.731  36.067  1.00  0.00     0.049 A 
ATOM     72  H   UNL A   1      46.325  25.515  36.030  1.00  0.00     0.167 HD
ATOM     73  C   UNL A   1      47.806  24.722  38.314  1.00  0.00     0.074 A 
ATOM     74  C   UNL A   1      48.371  24.717  39.647  1.00  0.00     0.031 C 
ATOM     75  C   UNL A   1      48.015  23.746  37.393  1.00  0.00     0.037 A 
BRANCH  62  76
ATOM     76  C   UNL A   1      45.089  24.695  32.026  1.00  0.00     0.057 A 
ATOM     77  C   UNL A   1      44.144  23.685  31.790  1.00  0.00     0.134 A 
ATOM     78  C   UNL A   1      45.734  25.245  30.912  1.00  0.00     0.134 A 
ATOM     79  F   UNL A   1      43.504  23.101  32.814  1.00  0.00    -0.206 F 
ATOM     80  C   UNL A   1      43.877  23.222  30.501  1.00  0.00     0.040 A 
ATOM     81  C   UNL A   1      45.452  24.812  29.616  1.00  0.00     0.040 A 
ATOM     82  F   UNL A   1      46.648  26.215  31.065  1.00  0.00    -0.206 F 
ATOM     83  C   UNL A   1      44.527  23.791  29.408  1.00  0.00     0.006 A 
ENDBRANCH  62  76
BRANCH  63  84
ATOM     84  C   UNL A   1      46.873  28.353  41.155  1.00  0.00     0.057 A 
ATOM     85  C   UNL A   1      46.014  28.090  42.230  1.00  0.00     0.134 A 
ATOM     86  C   UNL A   1      47.988  29.163  41.407  1.00  0.00     0.134 A 
ATOM     87  F   UNL A   1      44.916  27.341  42.048  1.00  0.00    -0.206 F 
ATOM     88  C   UNL A   1      46.241  28.629  43.497  1.00  0.00     0.040 A 
ATOM     89  C   UNL A   1      48.242  29.685  42.675  1.00  0.00     0.040 A 
ATOM     90  F   UNL A   1      48.849  29.455  40.422  1.00  0.00    -0.206 F 
ATOM     91  C   UNL A   1      47.361  29.426  43.723  1.00  0.00     0.006 A 
ENDBRANCH  63  84
BRANCH  75  92
ATOM     92  C   UNL A   1      48.937  22.623  37.777  1.00  0.00     0.057 A 
ATOM     93  C   UNL A   1      50.321  22.684  37.566  1.00  0.00     0.134 A 
ATOM     94  C   UNL A   1      48.432  21.471  38.395  1.00  0.00     0.134 A 
ATOM     95  F   UNL A   1      50.872  23.753  36.971  1.00  0.00    -0.206 F 
ATOM     96  C   UNL A   1      51.162  21.627  37.921  1.00  0.00     0.040 A 
ATOM     97  C   UNL A   1      49.266  20.422  38.786  1.00  0.00     0.040 A 
ATOM     98  F   UNL A   1      47.118  21.350  38.641  1.00  0.00    -0.206 F 
ATOM     99  C   UNL A   1      50.634  20.494  38.539  1.00  0.00     0.006 A 
ENDBRANCH  75  92
ENDBRANCH  49  50
ENDBRANCH  42  44
ENDBRANCH  41  42
ENDBRANCH  40  41
ENDBRANCH  39  40
ENDBRANCH  38  39
ENDBRANCH  37  38
ENDBRANCH  36  37
ENDBRANCH  35  36
ENDBRANCH  34  35
ENDBRANCH   1  34
TORSDOF 25
ENDMDL
