MODEL 1
REMARK VINA RESULT:      -8.5      0.000      0.000
REMARK SMILES C/C=C/c1cncc(-c2ccc([C@@H](C)C(=O)OCCOCCOCCOCCOC(=O)c3ccc(-c4c5nc(c(-c6c(F)cccc6F)c6ccc([nH]6)c(-c6c(F)cccc6F)c6nc(c(-c7c(F)cccc7F)c7ccc4[nH]7)C=C6)C=C5)cc3)cc2)c1
REMARK SMILES IDX 22 1 21 2 20 3 19 4 18 5 17 6 15 7 16 8 13 9 14 10 12 11
REMARK SMILES IDX 9 12 10 13 87 14 11 15 86 16 8 17 4 18 5 19 88 20 6 21 7 22
REMARK SMILES IDX 3 23 1 24 2 25 23 26 24 27 25 28 26 29 27 30 28 31 29 32
REMARK SMILES IDX 30 33 31 34 32 35 33 36 85 37 34 38 84 39 35 40 36 41 37 42
REMARK SMILES IDX 78 43 38 44 83 45 77 46 79 47 39 48 82 49 76 50 75 51 40 53
REMARK SMILES IDX 66 54 49 55 65 56 50 57 53 58 64 59 80 60 51 61 52 62 63 64
REMARK SMILES IDX 81 65 54 66 41 67 42 68 47 69 43 70 44 71 46 72 48 73 45 74
REMARK SMILES IDX 67 75 68 76 73 77 69 78 70 79 72 80 74 81 71 82 55 83 56 84
REMARK SMILES IDX 61 85 57 86 58 87 60 88 62 89 59 90
REMARK H PARENT 79 52 53 63
REMARK Flexibility Score: inf
ROOT
ATOM      1  C   UNL A   1      33.230  37.088  32.089  1.00  0.00     0.188 C 
ENDROOT
BRANCH   1   2
ATOM      2  C   UNL A   1      34.049  35.866  32.530  1.00  0.00     0.188 C 
BRANCH   2   3
ATOM      3  O   UNL A   1      34.777  35.879  33.749  1.00  0.00    -0.376 OA
BRANCH   3   4
ATOM      4  C   UNL A   1      35.169  34.666  34.374  1.00  0.00     0.202 C 
BRANCH   4   5
ATOM      5  C   UNL A   1      36.627  34.168  34.334  1.00  0.00     0.261 C 
BRANCH   5   6
ATOM      6  O   UNL A   1      37.561  34.921  33.531  1.00  0.00    -0.463 OA
BRANCH   6   7
ATOM      7  C   UNL A   1      37.862  34.403  32.317  1.00  0.00     0.313 C 
ATOM      8  O   UNL A   1      37.013  34.165  31.458  1.00  0.00    -0.252 OA
BRANCH   7   9
ATOM      9  C   UNL A   1      39.337  34.091  32.062  1.00  0.00     0.126 C 
ATOM     10  C   UNL A   1      39.627  34.344  30.587  1.00  0.00     0.025 C 
BRANCH   9  11
ATOM     11  C   UNL A   1      39.970  32.779  32.533  1.00  0.00    -0.034 A 
ATOM     12  C   UNL A   1      41.275  30.363  33.372  1.00  0.00    -0.017 A 
ATOM     13  C   UNL A   1      39.993  30.713  33.834  1.00  0.00     0.009 A 
ATOM     14  C   UNL A   1      41.896  31.244  32.479  1.00  0.00     0.009 A 
ATOM     15  C   UNL A   1      39.349  31.896  33.422  1.00  0.00     0.005 A 
ATOM     16  C   UNL A   1      41.252  32.421  32.057  1.00  0.00     0.005 A 
BRANCH  12  17
ATOM     17  C   UNL A   1      41.900  29.083  33.756  1.00  0.00     0.001 A 
ATOM     18  C   UNL A   1      43.426  27.208  33.409  1.00  0.00    -0.007 A 
ATOM     19  C   UNL A   1      42.961  26.685  34.613  1.00  0.00     0.119 A 
ATOM     20  C   UNL A   1      42.867  28.422  32.977  1.00  0.00     0.020 A 
ATOM     21  N   UNL A   1      42.031  27.276  35.394  1.00  0.00    -0.263 NA
ATOM     22  C   UNL A   1      41.530  28.451  34.947  1.00  0.00     0.119 A 
BRANCH  18  23
ATOM     23  C   UNL A   1      44.427  26.442  32.653  1.00  0.00     0.005 C 
ATOM     24  C   UNL A   1      45.268  25.154  30.683  1.00  0.00     0.035 C 
ATOM     25  C   UNL A   1      44.203  25.858  31.466  1.00  0.00    -0.030 C 
ENDBRANCH  18  23
ENDBRANCH  12  17
ENDBRANCH   9  11
ENDBRANCH   7   9
ENDBRANCH   6   7
ENDBRANCH   5   6
ENDBRANCH   4   5
ENDBRANCH   3   4
ENDBRANCH   2   3
ENDBRANCH   1   2
BRANCH   1  26
ATOM     26  O   UNL A   1      32.522  36.931  30.877  1.00  0.00    -0.377 OA
BRANCH  26  27
ATOM     27  C   UNL A   1      33.256  36.447  29.765  1.00  0.00     0.188 C 
BRANCH  27  28
ATOM     28  C   UNL A   1      33.304  34.923  29.553  1.00  0.00     0.188 C 
BRANCH  28  29
ATOM     29  O   UNL A   1      33.634  34.534  28.227  1.00  0.00    -0.376 OA
BRANCH  29  30
ATOM     30  C   UNL A   1      34.285  33.289  28.018  1.00  0.00     0.202 C 
BRANCH  30  31
ATOM     31  C   UNL A   1      34.672  32.447  29.248  1.00  0.00     0.261 C 
BRANCH  31  32
ATOM     32  O   UNL A   1      35.725  31.484  29.081  1.00  0.00    -0.460 OA
BRANCH  32  33
ATOM     33  C   UNL A   1      36.342  31.010  30.181  1.00  0.00     0.338 C 
ATOM     34  O   UNL A   1      35.901  30.993  31.320  1.00  0.00    -0.246 OA
BRANCH  33  35
ATOM     35  C   UNL A   1      37.581  30.325  29.754  1.00  0.00     0.060 A 
ATOM     36  C   UNL A   1      38.465  29.850  30.732  1.00  0.00     0.016 A 
ATOM     37  C   UNL A   1      37.873  30.150  28.398  1.00  0.00     0.016 A 
ATOM     38  C   UNL A   1      39.661  29.234  30.361  1.00  0.00     0.010 A 
ATOM     39  C   UNL A   1      39.085  29.557  28.027  1.00  0.00     0.010 A 
ATOM     40  C   UNL A   1      40.001  29.130  29.006  1.00  0.00    -0.014 A 
BRANCH  40  41
ATOM     41  C   UNL A   1      41.389  28.771  28.621  1.00  0.00     0.031 A 
ATOM     42  C   UNL A   1      41.677  27.343  28.246  1.00  0.00     0.074 A 
ATOM     43  C   UNL A   1      42.370  29.689  28.578  1.00  0.00     0.049 A 
ATOM     44  N   UNL A   1      42.813  26.775  27.933  1.00  0.00    -0.248 NA
ATOM     45  C   UNL A   1      40.522  26.429  28.224  1.00  0.00     0.031 C 
ATOM     46  C   UNL A   1      42.211  31.113  28.864  1.00  0.00     0.029 A 
ATOM     47  N   UNL A   1      43.704  29.550  28.282  1.00  0.00    -0.354 N 
ATOM     48  C   UNL A   1      42.513  25.441  27.687  1.00  0.00     0.074 A 
ATOM     49  C   UNL A   1      41.095  25.276  27.915  1.00  0.00     0.031 C 
ATOM     50  C   UNL A   1      43.408  31.716  28.743  1.00  0.00     0.029 A 
ATOM     51  C   UNL A   1      44.420  30.715  28.409  1.00  0.00     0.049 A 
ATOM     52  H   UNL A   1      44.108  28.697  28.005  1.00  0.00     0.167 HD
ATOM     53  C   UNL A   1      43.343  24.443  27.301  1.00  0.00     0.037 A 
ATOM     54  C   UNL A   1      45.745  30.939  28.296  1.00  0.00     0.037 A 
ATOM     55  C   UNL A   1      44.755  24.608  27.079  1.00  0.00     0.049 A 
ATOM     56  C   UNL A   1      46.663  29.793  27.953  1.00  0.00     0.074 A 
ATOM     57  C   UNL A   1      45.678  23.662  26.671  1.00  0.00     0.029 A 
ATOM     58  N   UNL A   1      45.450  25.795  27.257  1.00  0.00    -0.354 N 
ATOM     59  N   UNL A   1      46.368  28.540  27.702  1.00  0.00    -0.248 NA
ATOM     60  C   UNL A   1      48.101  30.094  27.877  1.00  0.00     0.031 C 
ATOM     61  C   UNL A   1      46.942  24.260  26.664  1.00  0.00     0.029 A 
ATOM     62  C   UNL A   1      46.796  25.597  26.999  1.00  0.00     0.049 A 
ATOM     63  H   UNL A   1      45.046  26.651  27.527  1.00  0.00     0.167 HD
ATOM     64  C   UNL A   1      47.575  27.914  27.404  1.00  0.00     0.074 A 
ATOM     65  C   UNL A   1      48.604  28.929  27.494  1.00  0.00     0.031 C 
ATOM     66  C   UNL A   1      47.810  26.618  27.081  1.00  0.00     0.037 A 
BRANCH  53  67
ATOM     67  C   UNL A   1      42.750  23.075  27.129  1.00  0.00     0.057 A 
ATOM     68  C   UNL A   1      42.491  22.529  25.865  1.00  0.00     0.134 A 
ATOM     69  C   UNL A   1      42.463  22.279  28.246  1.00  0.00     0.134 A 
ATOM     70  F   UNL A   1      42.726  23.243  24.754  1.00  0.00    -0.206 F 
ATOM     71  C   UNL A   1      41.947  21.251  25.719  1.00  0.00     0.040 A 
ATOM     72  C   UNL A   1      41.948  20.989  28.112  1.00  0.00     0.040 A 
ATOM     73  F   UNL A   1      42.689  22.738  29.486  1.00  0.00    -0.206 F 
ATOM     74  C   UNL A   1      41.682  20.474  26.845  1.00  0.00     0.006 A 
ENDBRANCH  53  67
BRANCH  54  75
ATOM     75  C   UNL A   1      46.297  32.300  28.528  1.00  0.00     0.057 A 
ATOM     76  C   UNL A   1      46.706  32.712  29.802  1.00  0.00     0.134 A 
ATOM     77  C   UNL A   1      46.394  33.234  27.489  1.00  0.00     0.134 A 
ATOM     78  F   UNL A   1      46.613  31.872  30.844  1.00  0.00    -0.206 F 
ATOM     79  C   UNL A   1      47.170  34.006  30.039  1.00  0.00     0.040 A 
ATOM     80  C   UNL A   1      46.884  34.523  27.706  1.00  0.00     0.040 A 
ATOM     81  F   UNL A   1      46.017  32.906  26.245  1.00  0.00    -0.206 F 
ATOM     82  C   UNL A   1      47.266  34.915  28.987  1.00  0.00     0.006 A 
ENDBRANCH  54  75
BRANCH  66  83
ATOM     83  C   UNL A   1      49.223  26.228  26.752  1.00  0.00     0.057 A 
ATOM     84  C   UNL A   1      49.785  26.451  25.488  1.00  0.00     0.134 A 
ATOM     85  C   UNL A   1      50.050  25.663  27.734  1.00  0.00     0.134 A 
ATOM     86  F   UNL A   1      49.047  26.979  24.500  1.00  0.00    -0.206 F 
ATOM     87  C   UNL A   1      51.107  26.102  25.205  1.00  0.00     0.040 A 
ATOM     88  C   UNL A   1      51.383  25.340  27.472  1.00  0.00     0.040 A 
ATOM     89  F   UNL A   1      49.582  25.433  28.969  1.00  0.00    -0.206 F 
ATOM     90  C   UNL A   1      51.912  25.553  26.201  1.00  0.00     0.006 A 
ENDBRANCH  66  83
ENDBRANCH  40  41
ENDBRANCH  33  35
ENDBRANCH  32  33
ENDBRANCH  31  32
ENDBRANCH  30  31
ENDBRANCH  29  30
ENDBRANCH  28  29
ENDBRANCH  27  28
ENDBRANCH  26  27
ENDBRANCH   1  26
TORSDOF 23
ENDMDL
MODEL 2
REMARK VINA RESULT:      -7.4      4.037      8.261
REMARK SMILES C/C=C/c1cncc(-c2ccc([C@@H](C)C(=O)OCCOCCOCCOCCOC(=O)c3ccc(-c4c5nc(c(-c6c(F)cccc6F)c6ccc([nH]6)c(-c6c(F)cccc6F)c6nc(c(-c7c(F)cccc7F)c7ccc4[nH]7)C=C6)C=C5)cc3)cc2)c1
REMARK SMILES IDX 22 1 21 2 20 3 19 4 18 5 17 6 15 7 16 8 13 9 14 10 12 11
REMARK SMILES IDX 9 12 10 13 87 14 11 15 86 16 8 17 4 18 5 19 88 20 6 21 7 22
REMARK SMILES IDX 3 23 1 24 2 25 23 26 24 27 25 28 26 29 27 30 28 31 29 32
REMARK SMILES IDX 30 33 31 34 32 35 33 36 85 37 34 38 84 39 35 40 36 41 37 42
REMARK SMILES IDX 78 43 38 44 83 45 77 46 79 47 39 48 82 49 76 50 75 51 40 53
REMARK SMILES IDX 66 54 49 55 65 56 50 57 53 58 64 59 80 60 51 61 52 62 63 64
REMARK SMILES IDX 81 65 54 66 41 67 42 68 47 69 43 70 44 71 46 72 48 73 45 74
REMARK SMILES IDX 67 75 68 76 73 77 69 78 70 79 72 80 74 81 71 82 55 83 56 84
REMARK SMILES IDX 61 85 57 86 58 87 60 88 62 89 59 90
REMARK H PARENT 79 52 53 63
REMARK Flexibility Score: inf
ROOT
ATOM      1  C   UNL A   1      33.920  37.130  32.691  1.00  0.00     0.188 C 
ENDROOT
BRANCH   1   2
ATOM      2  C   UNL A   1      34.344  35.900  33.507  1.00  0.00     0.188 C 
BRANCH   2   3
ATOM      3  O   UNL A   1      34.769  34.709  32.862  1.00  0.00    -0.376 OA
BRANCH   3   4
ATOM      4  C   UNL A   1      36.087  34.592  32.348  1.00  0.00     0.202 C 
BRANCH   4   5
ATOM      5  C   UNL A   1      36.974  33.372  32.663  1.00  0.00     0.261 C 
BRANCH   5   6
ATOM      6  O   UNL A   1      36.548  32.502  33.734  1.00  0.00    -0.463 OA
BRANCH   6   7
ATOM      7  C   UNL A   1      36.778  32.942  34.993  1.00  0.00     0.313 C 
ATOM      8  O   UNL A   1      35.910  33.459  35.694  1.00  0.00    -0.252 OA
BRANCH   7   9
ATOM      9  C   UNL A   1      38.209  32.791  35.509  1.00  0.00     0.126 C 
ATOM     10  C   UNL A   1      38.340  31.412  36.147  1.00  0.00     0.025 C 
BRANCH   9  11
ATOM     11  C   UNL A   1      38.863  33.868  36.380  1.00  0.00    -0.034 A 
ATOM     12  C   UNL A   1      40.093  35.964  37.908  1.00  0.00    -0.017 A 
ATOM     13  C   UNL A   1      39.468  34.866  38.525  1.00  0.00     0.009 A 
ATOM     14  C   UNL A   1      40.095  35.997  36.508  1.00  0.00     0.009 A 
ATOM     15  C   UNL A   1      38.866  33.834  37.778  1.00  0.00     0.005 A 
ATOM     16  C   UNL A   1      39.505  34.963  35.759  1.00  0.00     0.005 A 
BRANCH  12  17
ATOM     17  C   UNL A   1      40.784  36.995  38.706  1.00  0.00     0.001 A 
ATOM     18  C   UNL A   1      40.840  38.869  40.273  1.00  0.00    -0.007 A 
ATOM     19  C   UNL A   1      42.226  38.870  40.126  1.00  0.00     0.119 A 
ATOM     20  C   UNL A   1      40.118  37.918  39.533  1.00  0.00     0.020 A 
ATOM     21  N   UNL A   1      42.912  38.011  39.342  1.00  0.00    -0.263 NA
ATOM     22  C   UNL A   1      42.177  37.103  38.659  1.00  0.00     0.119 A 
BRANCH  18  23
ATOM     23  C   UNL A   1      40.228  39.879  41.146  1.00  0.00     0.005 C 
ATOM     24  C   UNL A   1      39.318  42.144  41.684  1.00  0.00     0.035 C 
ATOM     25  C   UNL A   1      40.020  41.159  40.801  1.00  0.00    -0.030 C 
ENDBRANCH  18  23
ENDBRANCH  12  17
ENDBRANCH   9  11
ENDBRANCH   7   9
ENDBRANCH   6   7
ENDBRANCH   5   6
ENDBRANCH   4   5
ENDBRANCH   3   4
ENDBRANCH   2   3
ENDBRANCH   1   2
BRANCH   1  26
ATOM     26  O   UNL A   1      32.783  36.945  31.873  1.00  0.00    -0.377 OA
BRANCH  26  27
ATOM     27  C   UNL A   1      33.012  36.794  30.482  1.00  0.00     0.188 C 
BRANCH  27  28
ATOM     28  C   UNL A   1      33.130  35.361  29.933  1.00  0.00     0.188 C 
BRANCH  28  29
ATOM     29  O   UNL A   1      32.721  35.226  28.578  1.00  0.00    -0.376 OA
BRANCH  29  30
ATOM     30  C   UNL A   1      32.730  33.936  27.983  1.00  0.00     0.202 C 
BRANCH  30  31
ATOM     31  C   UNL A   1      33.439  32.789  28.727  1.00  0.00     0.261 C 
BRANCH  31  32
ATOM     32  O   UNL A   1      34.512  32.125  28.040  1.00  0.00    -0.460 OA
BRANCH  32  33
ATOM     33  C   UNL A   1      35.674  32.787  27.874  1.00  0.00     0.338 C 
ATOM     34  O   UNL A   1      35.830  33.872  27.337  1.00  0.00    -0.246 OA
BRANCH  33  35
ATOM     35  C   UNL A   1      36.723  32.069  28.632  1.00  0.00     0.060 A 
ATOM     36  C   UNL A   1      37.880  32.764  29.010  1.00  0.00     0.016 A 
ATOM     37  C   UNL A   1      36.568  30.723  28.970  1.00  0.00     0.016 A 
ATOM     38  C   UNL A   1      38.905  32.104  29.691  1.00  0.00     0.010 A 
ATOM     39  C   UNL A   1      37.607  30.056  29.628  1.00  0.00     0.010 A 
ATOM     40  C   UNL A   1      38.795  30.734  29.959  1.00  0.00    -0.014 A 
BRANCH  40  41
ATOM     41  C   UNL A   1      39.993  29.972  30.391  1.00  0.00     0.031 A 
ATOM     42  C   UNL A   1      40.668  30.373  31.675  1.00  0.00     0.074 A 
ATOM     43  C   UNL A   1      40.461  28.930  29.682  1.00  0.00     0.049 A 
ATOM     44  N   UNL A   1      41.756  29.902  32.228  1.00  0.00    -0.248 NA
ATOM     45  C   UNL A   1      40.028  31.458  32.436  1.00  0.00     0.031 C 
ATOM     46  C   UNL A   1      39.867  28.406  28.454  1.00  0.00     0.029 A 
ATOM     47  N   UNL A   1      41.557  28.130  29.896  1.00  0.00    -0.354 N 
ATOM     48  C   UNL A   1      41.935  30.637  33.393  1.00  0.00     0.074 A 
ATOM     49  C   UNL A   1      40.862  31.605  33.454  1.00  0.00     0.031 C 
ATOM     50  C   UNL A   1      40.617  27.378  28.014  1.00  0.00     0.029 A 
ATOM     51  C   UNL A   1      41.760  27.198  28.908  1.00  0.00     0.049 A 
ATOM     52  H   UNL A   1      42.141  28.216  30.684  1.00  0.00     0.167 HD
ATOM     53  C   UNL A   1      42.903  30.515  34.332  1.00  0.00     0.037 A 
ATOM     54  C   UNL A   1      42.769  26.321  28.733  1.00  0.00     0.037 A 
ATOM     55  C   UNL A   1      43.973  29.554  34.268  1.00  0.00     0.049 A 
ATOM     56  C   UNL A   1      43.885  26.264  29.745  1.00  0.00     0.074 A 
ATOM     57  C   UNL A   1      44.993  29.341  35.177  1.00  0.00     0.029 A 
ATOM     58  N   UNL A   1      44.166  28.655  33.230  1.00  0.00    -0.354 N 
ATOM     59  N   UNL A   1      44.035  26.948  30.855  1.00  0.00    -0.248 NA
ATOM     60  C   UNL A   1      44.973  25.310  29.481  1.00  0.00     0.031 C 
ATOM     61  C   UNL A   1      45.840  28.356  34.660  1.00  0.00     0.029 A 
ATOM     62  C   UNL A   1      45.308  27.907  33.461  1.00  0.00     0.049 A 
ATOM     63  H   UNL A   1      43.579  28.562  32.446  1.00  0.00     0.167 HD
ATOM     64  C   UNL A   1      45.210  26.483  31.435  1.00  0.00     0.074 A 
ATOM     65  C   UNL A   1      45.727  25.451  30.562  1.00  0.00     0.031 C 
ATOM     66  C   UNL A   1      45.807  26.873  32.590  1.00  0.00     0.037 A 
BRANCH  53  67
ATOM     67  C   UNL A   1      42.870  31.468  35.492  1.00  0.00     0.057 A 
ATOM     68  C   UNL A   1      42.172  31.179  36.672  1.00  0.00     0.134 A 
ATOM     69  C   UNL A   1      43.572  32.678  35.437  1.00  0.00     0.134 A 
ATOM     70  F   UNL A   1      41.464  30.045  36.785  1.00  0.00    -0.206 F 
ATOM     71  C   UNL A   1      42.157  32.071  37.747  1.00  0.00     0.040 A 
ATOM     72  C   UNL A   1      43.590  33.563  36.516  1.00  0.00     0.040 A 
ATOM     73  F   UNL A   1      44.264  33.016  34.339  1.00  0.00    -0.206 F 
ATOM     74  C   UNL A   1      42.875  33.264  37.674  1.00  0.00     0.006 A 
ENDBRANCH  53  67
BRANCH  54  75
ATOM     75  C   UNL A   1      42.791  25.433  27.541  1.00  0.00     0.057 A 
ATOM     76  C   UNL A   1      42.244  24.145  27.583  1.00  0.00     0.134 A 
ATOM     77  C   UNL A   1      43.393  25.835  26.342  1.00  0.00     0.134 A 
ATOM     78  F   UNL A   1      41.677  23.690  28.712  1.00  0.00    -0.206 F 
ATOM     79  C   UNL A   1      42.313  23.283  26.488  1.00  0.00     0.040 A 
ATOM     80  C   UNL A   1      43.442  24.995  25.229  1.00  0.00     0.040 A 
ATOM     81  F   UNL A   1      43.938  27.055  26.233  1.00  0.00    -0.206 F 
ATOM     82  C   UNL A   1      42.909  23.710  25.303  1.00  0.00     0.006 A 
ENDBRANCH  54  75
BRANCH  66  83
ATOM     83  C   UNL A   1      47.058  26.150  33.005  1.00  0.00     0.057 A 
ATOM     84  C   UNL A   1      48.336  26.624  32.683  1.00  0.00     0.134 A 
ATOM     85  C   UNL A   1      46.979  24.986  33.784  1.00  0.00     0.134 A 
ATOM     86  F   UNL A   1      48.483  27.726  31.932  1.00  0.00    -0.206 F 
ATOM     87  C   UNL A   1      49.489  25.953  33.096  1.00  0.00     0.040 A 
ATOM     88  C   UNL A   1      48.125  24.326  34.230  1.00  0.00     0.040 A 
ATOM     89  F   UNL A   1      45.789  24.484  34.141  1.00  0.00    -0.206 F 
ATOM     90  C   UNL A   1      49.385  24.805  33.879  1.00  0.00     0.006 A 
ENDBRANCH  66  83
ENDBRANCH  40  41
ENDBRANCH  33  35
ENDBRANCH  32  33
ENDBRANCH  31  32
ENDBRANCH  30  31
ENDBRANCH  29  30
ENDBRANCH  28  29
ENDBRANCH  27  28
ENDBRANCH  26  27
ENDBRANCH   1  26
TORSDOF 23
ENDMDL
MODEL 3
REMARK VINA RESULT:      -7.3      9.907     14.532
REMARK SMILES C/C=C/c1cncc(-c2ccc([C@@H](C)C(=O)OCCOCCOCCOCCOC(=O)c3ccc(-c4c5nc(c(-c6c(F)cccc6F)c6ccc([nH]6)c(-c6c(F)cccc6F)c6nc(c(-c7c(F)cccc7F)c7ccc4[nH]7)C=C6)C=C5)cc3)cc2)c1
REMARK SMILES IDX 22 1 21 2 20 3 19 4 18 5 17 6 15 7 16 8 13 9 14 10 12 11
REMARK SMILES IDX 9 12 10 13 87 14 11 15 86 16 8 17 4 18 5 19 88 20 6 21 7 22
REMARK SMILES IDX 3 23 1 24 2 25 23 26 24 27 25 28 26 29 27 30 28 31 29 32
REMARK SMILES IDX 30 33 31 34 32 35 33 36 85 37 34 38 84 39 35 40 36 41 37 42
REMARK SMILES IDX 78 43 38 44 83 45 77 46 79 47 39 48 82 49 76 50 75 51 40 53
REMARK SMILES IDX 66 54 49 55 65 56 50 57 53 58 64 59 80 60 51 61 52 62 63 64
REMARK SMILES IDX 81 65 54 66 41 67 42 68 47 69 43 70 44 71 46 72 48 73 45 74
REMARK SMILES IDX 67 75 68 76 73 77 69 78 70 79 72 80 74 81 71 82 55 83 56 84
REMARK SMILES IDX 61 85 57 86 58 87 60 88 62 89 59 90
REMARK H PARENT 79 52 53 63
REMARK Flexibility Score: inf
ROOT
ATOM      1  C   UNL A   1      41.746  14.055  40.482  1.00  0.00     0.188 C 
ENDROOT
BRANCH   1   2
ATOM      2  C   UNL A   1      41.782  13.297  41.816  1.00  0.00     0.188 C 
BRANCH   2   3
ATOM      3  O   UNL A   1      41.564  11.894  41.863  1.00  0.00    -0.376 OA
BRANCH   3   4
ATOM      4  C   UNL A   1      41.372  11.229  43.103  1.00  0.00     0.202 C 
BRANCH   4   5
ATOM      5  C   UNL A   1      42.521  10.482  43.807  1.00  0.00     0.261 C 
BRANCH   5   6
ATOM      6  O   UNL A   1      43.812  11.126  43.833  1.00  0.00    -0.463 OA
BRANCH   6   7
ATOM      7  C   UNL A   1      44.445  11.154  45.029  1.00  0.00     0.313 C 
ATOM      8  O   UNL A   1      44.792  10.139  45.631  1.00  0.00    -0.252 OA
BRANCH   7   9
ATOM      9  C   UNL A   1      44.692  12.539  45.629  1.00  0.00     0.126 C 
ATOM     10  C   UNL A   1      43.531  12.864  46.564  1.00  0.00     0.025 C 
BRANCH   9  11
ATOM     11  C   UNL A   1      45.047  13.741  44.750  1.00  0.00    -0.034 A 
ATOM     12  C   UNL A   1      45.595  16.045  43.128  1.00  0.00    -0.017 A 
ATOM     13  C   UNL A   1      46.618  15.180  43.558  1.00  0.00     0.009 A 
ATOM     14  C   UNL A   1      44.288  15.737  43.524  1.00  0.00     0.009 A 
ATOM     15  C   UNL A   1      46.352  14.047  44.351  1.00  0.00     0.005 A 
ATOM     16  C   UNL A   1      44.017  14.601  44.306  1.00  0.00     0.005 A 
BRANCH  12  17
ATOM     17  C   UNL A   1      45.885  17.184  42.235  1.00  0.00     0.001 A 
ATOM     18  C   UNL A   1      47.229  18.368  40.575  1.00  0.00    -0.007 A 
ATOM     19  C   UNL A   1      46.286  19.391  40.631  1.00  0.00     0.119 A 
ATOM     20  C   UNL A   1      47.020  17.256  41.407  1.00  0.00     0.020 A 
ATOM     21  N   UNL A   1      45.184  19.374  41.411  1.00  0.00    -0.263 NA
ATOM     22  C   UNL A   1      45.015  18.276  42.186  1.00  0.00     0.119 A 
BRANCH  18  23
ATOM     23  C   UNL A   1      48.393  18.536  39.694  1.00  0.00     0.005 C 
ATOM     24  C   UNL A   1      49.703  19.633  37.870  1.00  0.00     0.035 C 
ATOM     25  C   UNL A   1      48.472  19.431  38.697  1.00  0.00    -0.030 C 
ENDBRANCH  18  23
ENDBRANCH  12  17
ENDBRANCH   9  11
ENDBRANCH   7   9
ENDBRANCH   6   7
ENDBRANCH   5   6
ENDBRANCH   4   5
ENDBRANCH   3   4
ENDBRANCH   2   3
ENDBRANCH   1   2
BRANCH   1  26
ATOM     26  O   UNL A   1      42.633  15.151  40.390  1.00  0.00    -0.377 OA
BRANCH  26  27
ATOM     27  C   UNL A   1      43.092  15.496  39.094  1.00  0.00     0.188 C 
BRANCH  27  28
ATOM     28  C   UNL A   1      44.193  16.568  38.992  1.00  0.00     0.188 C 
BRANCH  28  29
ATOM     29  O   UNL A   1      44.100  17.383  37.831  1.00  0.00    -0.376 OA
BRANCH  29  30
ATOM     30  C   UNL A   1      45.245  18.110  37.408  1.00  0.00     0.202 C 
BRANCH  30  31
ATOM     31  C   UNL A   1      45.324  18.567  35.940  1.00  0.00     0.261 C 
BRANCH  31  32
ATOM     32  O   UNL A   1      45.235  19.979  35.686  1.00  0.00    -0.460 OA
BRANCH  32  33
ATOM     33  C   UNL A   1      46.169  20.548  34.899  1.00  0.00     0.338 C 
ATOM     34  O   UNL A   1      47.094  19.987  34.334  1.00  0.00    -0.246 OA
BRANCH  33  35
ATOM     35  C   UNL A   1      45.776  21.956  34.666  1.00  0.00     0.060 A 
ATOM     36  C   UNL A   1      44.414  22.285  34.647  1.00  0.00     0.016 A 
ATOM     37  C   UNL A   1      46.742  22.946  34.468  1.00  0.00     0.016 A 
ATOM     38  C   UNL A   1      44.011  23.596  34.390  1.00  0.00     0.010 A 
ATOM     39  C   UNL A   1      46.335  24.254  34.184  1.00  0.00     0.010 A 
ATOM     40  C   UNL A   1      44.968  24.578  34.107  1.00  0.00    -0.014 A 
BRANCH  40  41
ATOM     41  C   UNL A   1      44.541  25.877  33.531  1.00  0.00     0.031 A 
ATOM     42  C   UNL A   1      44.338  25.964  32.043  1.00  0.00     0.074 A 
ATOM     43  C   UNL A   1      44.311  26.952  34.306  1.00  0.00     0.049 A 
ATOM     44  N   UNL A   1      44.027  26.997  31.302  1.00  0.00    -0.248 NA
ATOM     45  C   UNL A   1      44.515  24.713  31.287  1.00  0.00     0.031 C 
ATOM     46  C   UNL A   1      44.417  26.985  35.763  1.00  0.00     0.029 A 
ATOM     47  N   UNL A   1      43.947  28.231  33.964  1.00  0.00    -0.354 N 
ATOM     48  C   UNL A   1      43.980  26.524  29.997  1.00  0.00     0.074 A 
ATOM     49  C   UNL A   1      44.323  25.120  30.041  1.00  0.00     0.031 C 
ATOM     50  C   UNL A   1      44.138  28.230  36.190  1.00  0.00     0.029 A 
ATOM     51  C   UNL A   1      43.871  29.087  35.036  1.00  0.00     0.049 A 
ATOM     52  H   UNL A   1      43.758  28.509  33.039  1.00  0.00     0.167 HD
ATOM     53  C   UNL A   1      43.674  27.197  28.863  1.00  0.00     0.037 A 
ATOM     54  C   UNL A   1      43.641  30.415  35.075  1.00  0.00     0.037 A 
ATOM     55  C   UNL A   1      43.337  28.595  28.819  1.00  0.00     0.049 A 
ATOM     56  C   UNL A   1      43.391  31.161  33.789  1.00  0.00     0.074 A 
ATOM     57  C   UNL A   1      42.996  29.364  27.721  1.00  0.00     0.029 A 
ATOM     58  N   UNL A   1      43.310  29.436  29.921  1.00  0.00    -0.354 N 
ATOM     59  N   UNL A   1      43.327  30.702  32.561  1.00  0.00    -0.248 NA
ATOM     60  C   UNL A   1      43.178  32.613  33.894  1.00  0.00     0.031 C 
ATOM     61  C   UNL A   1      42.825  30.684  28.149  1.00  0.00     0.029 A 
ATOM     62  C   UNL A   1      42.990  30.724  29.525  1.00  0.00     0.049 A 
ATOM     63  H   UNL A   1      43.492  29.159  30.848  1.00  0.00     0.167 HD
ATOM     64  C   UNL A   1      43.033  31.798  31.757  1.00  0.00     0.074 A 
ATOM     65  C   UNL A   1      42.920  32.943  32.636  1.00  0.00     0.031 C 
ATOM     66  C   UNL A   1      42.869  31.853  30.412  1.00  0.00     0.037 A 
BRANCH  53  67
ATOM     67  C   UNL A   1      43.724  26.435  27.569  1.00  0.00     0.057 A 
ATOM     68  C   UNL A   1      42.617  25.731  27.076  1.00  0.00     0.134 A 
ATOM     69  C   UNL A   1      44.888  26.434  26.790  1.00  0.00     0.134 A 
ATOM     70  F   UNL A   1      41.476  25.677  27.780  1.00  0.00    -0.206 F 
ATOM     71  C   UNL A   1      42.675  25.034  25.867  1.00  0.00     0.040 A 
ATOM     72  C   UNL A   1      44.948  25.767  25.566  1.00  0.00     0.040 A 
ATOM     73  F   UNL A   1      45.983  27.090  27.201  1.00  0.00    -0.206 F 
ATOM     74  C   UNL A   1      43.841  25.059  25.104  1.00  0.00     0.006 A 
ENDBRANCH  53  67
BRANCH  54  75
ATOM     75  C   UNL A   1      43.654  31.140  36.373  1.00  0.00     0.057 A 
ATOM     76  C   UNL A   1      42.474  31.367  37.091  1.00  0.00     0.134 A 
ATOM     77  C   UNL A   1      44.840  31.656  36.908  1.00  0.00     0.134 A 
ATOM     78  F   UNL A   1      41.300  30.922  36.617  1.00  0.00    -0.206 F 
ATOM     79  C   UNL A   1      42.468  32.098  38.280  1.00  0.00     0.040 A 
ATOM     80  C   UNL A   1      44.854  32.363  38.112  1.00  0.00     0.040 A 
ATOM     81  F   UNL A   1      46.006  31.477  36.271  1.00  0.00    -0.206 F 
ATOM     82  C   UNL A   1      43.664  32.594  38.797  1.00  0.00     0.006 A 
ENDBRANCH  54  75
BRANCH  66  83
ATOM     83  C   UNL A   1      42.499  33.179  29.809  1.00  0.00     0.057 A 
ATOM     84  C   UNL A   1      41.193  33.683  29.855  1.00  0.00     0.134 A 
ATOM     85  C   UNL A   1      43.480  33.986  29.214  1.00  0.00     0.134 A 
ATOM     86  F   UNL A   1      40.204  32.959  30.400  1.00  0.00    -0.206 F 
ATOM     87  C   UNL A   1      40.871  34.927  29.308  1.00  0.00     0.040 A 
ATOM     88  C   UNL A   1      43.176  35.245  28.694  1.00  0.00     0.040 A 
ATOM     89  F   UNL A   1      44.754  33.572  29.146  1.00  0.00    -0.206 F 
ATOM     90  C   UNL A   1      41.866  35.715  28.734  1.00  0.00     0.006 A 
ENDBRANCH  66  83
ENDBRANCH  40  41
ENDBRANCH  33  35
ENDBRANCH  32  33
ENDBRANCH  31  32
ENDBRANCH  30  31
ENDBRANCH  29  30
ENDBRANCH  28  29
ENDBRANCH  27  28
ENDBRANCH  26  27
ENDBRANCH   1  26
TORSDOF 23
ENDMDL
