MODEL 1
REMARK VINA RESULT:      -9.4      0.000      0.000
REMARK SMILES CC(C)C[C@@H](C[C@H](O)c1ccccc1)C(=O)OCCOCCOCCOCCOC(=O)c1ccc(-c2c3nc(c(-c4c(F)cccc4F)c4ccc([nH]4)c(-c4c(F)cccc4F)c4nc(c(-c5c(F)cccc5F)c5ccc2[nH]5)C=C4)C=C3)cc1
REMARK SMILES IDX 22 1 21 2 20 3 19 4 18 5 17 6 15 7 16 8 5 9 4 10 2 11 1 12
REMARK SMILES IDX 3 13 6 14 7 15 9 16 10 17 14 18 11 19 13 20 12 21 8 22 23 24
REMARK SMILES IDX 24 25 25 26 26 27 27 28 28 29 29 30 30 31 31 32 32 33 33 34
REMARK SMILES IDX 85 35 34 36 84 37 35 38 36 39 37 40 78 41 38 42 83 43 77 44
REMARK SMILES IDX 79 45 39 46 82 47 76 48 75 49 40 51 66 52 49 53 65 54 50 55
REMARK SMILES IDX 53 56 64 57 80 58 51 59 52 60 63 62 81 63 54 64 41 65 42 66
REMARK SMILES IDX 47 67 43 68 44 69 46 70 48 71 45 72 67 73 68 74 73 75 69 76
REMARK SMILES IDX 70 77 72 78 74 79 71 80 55 81 56 82 61 83 57 84 58 85 60 86
REMARK SMILES IDX 62 87 59 88
REMARK H PARENT 8 23 79 50 53 61
REMARK Flexibility Score: inf
ROOT
ATOM      1  C   UNL A   1      30.502  28.153  23.765  1.00  0.00     0.188 C 
ENDROOT
BRANCH   1   2
ATOM      2  C   UNL A   1      30.683  27.050  22.710  1.00  0.00     0.188 C 
BRANCH   2   3
ATOM      3  O   UNL A   1      31.933  26.864  22.073  1.00  0.00    -0.376 OA
BRANCH   3   4
ATOM      4  C   UNL A   1      32.828  25.842  22.478  1.00  0.00     0.202 C 
BRANCH   4   5
ATOM      5  C   UNL A   1      32.440  24.361  22.512  1.00  0.00     0.261 C 
BRANCH   5   6
ATOM      6  O   UNL A   1      31.863  23.826  23.721  1.00  0.00    -0.463 OA
BRANCH   6   7
ATOM      7  C   UNL A   1      32.755  23.436  24.661  1.00  0.00     0.309 C 
ATOM      8  O   UNL A   1      33.077  24.120  25.631  1.00  0.00    -0.252 OA
BRANCH   7   9
ATOM      9  C   UNL A   1      33.469  22.128  24.376  1.00  0.00     0.102 C 
BRANCH   9  10
ATOM     10  C   UNL A   1      34.725  21.743  25.197  1.00  0.00     0.018 C 
BRANCH  10  11
ATOM     11  C   UNL A   1      36.078  22.076  24.501  1.00  0.00    -0.017 C 
ATOM     12  C   UNL A   1      36.635  23.456  24.874  1.00  0.00     0.007 C 
ATOM     13  C   UNL A   1      37.140  21.026  24.852  1.00  0.00     0.007 C 
ENDBRANCH  10  11
ENDBRANCH   9  10
BRANCH   9  14
ATOM     14  C   UNL A   1      32.425  21.003  24.242  1.00  0.00     0.052 C 
BRANCH  14  15
ATOM     15  C   UNL A   1      32.811  19.814  23.336  1.00  0.00     0.145 C 
BRANCH  15  16
ATOM     16  C   UNL A   1      32.982  18.422  23.927  1.00  0.00    -0.020 A 
ATOM     17  C   UNL A   1      32.462  18.016  25.162  1.00  0.00     0.006 A 
ATOM     18  C   UNL A   1      33.766  17.485  23.225  1.00  0.00     0.006 A 
ATOM     19  C   UNL A   1      32.812  16.784  25.731  1.00  0.00     0.000 A 
ATOM     20  C   UNL A   1      34.076  16.234  23.767  1.00  0.00     0.000 A 
ATOM     21  C   UNL A   1      33.630  15.898  25.039  1.00  0.00     0.000 A 
ENDBRANCH  15  16
BRANCH  15  22
ATOM     22  O   UNL A   1      31.778  19.738  22.346  1.00  0.00    -0.388 OA
ATOM     23  H   UNL A   1      31.210  20.522  22.411  1.00  0.00     0.211 HD
ENDBRANCH  15  22
ENDBRANCH  14  15
ENDBRANCH   9  14
ENDBRANCH   7   9
ENDBRANCH   6   7
ENDBRANCH   5   6
ENDBRANCH   4   5
ENDBRANCH   3   4
ENDBRANCH   2   3
ENDBRANCH   1   2
BRANCH   1  24
ATOM     24  O   UNL A   1      31.689  28.731  24.273  1.00  0.00    -0.377 OA
BRANCH  24  25
ATOM     25  C   UNL A   1      31.719  29.157  25.631  1.00  0.00     0.188 C 
BRANCH  25  26
ATOM     26  C   UNL A   1      32.888  30.029  26.131  1.00  0.00     0.188 C 
BRANCH  26  27
ATOM     27  O   UNL A   1      32.540  30.931  27.168  1.00  0.00    -0.376 OA
BRANCH  27  28
ATOM     28  C   UNL A   1      31.707  32.041  26.876  1.00  0.00     0.202 C 
BRANCH  28  29
ATOM     29  C   UNL A   1      32.307  33.457  26.939  1.00  0.00     0.261 C 
BRANCH  29  30
ATOM     30  O   UNL A   1      32.203  34.155  28.191  1.00  0.00    -0.460 OA
BRANCH  30  31
ATOM     31  C   UNL A   1      33.263  34.862  28.621  1.00  0.00     0.338 C 
ATOM     32  O   UNL A   1      33.291  36.049  28.914  1.00  0.00    -0.246 OA
BRANCH  31  33
ATOM     33  C   UNL A   1      34.370  33.920  28.881  1.00  0.00     0.060 A 
ATOM     34  C   UNL A   1      34.102  32.742  29.592  1.00  0.00     0.016 A 
ATOM     35  C   UNL A   1      35.671  34.216  28.468  1.00  0.00     0.016 A 
ATOM     36  C   UNL A   1      35.145  31.899  29.966  1.00  0.00     0.010 A 
ATOM     37  C   UNL A   1      36.721  33.383  28.864  1.00  0.00     0.010 A 
ATOM     38  C   UNL A   1      36.464  32.258  29.670  1.00  0.00    -0.014 A 
BRANCH  38  39
ATOM     39  C   UNL A   1      37.560  31.645  30.458  1.00  0.00     0.031 A 
ATOM     40  C   UNL A   1      38.418  30.611  29.774  1.00  0.00     0.074 A 
ATOM     41  C   UNL A   1      37.836  32.031  31.715  1.00  0.00     0.049 A 
ATOM     42  N   UNL A   1      39.433  29.928  30.238  1.00  0.00    -0.248 NA
ATOM     43  C   UNL A   1      38.080  30.309  28.373  1.00  0.00     0.031 C 
ATOM     44  C   UNL A   1      37.121  33.063  32.461  1.00  0.00     0.029 A 
ATOM     45  N   UNL A   1      38.804  31.593  32.581  1.00  0.00    -0.354 N 
ATOM     46  C   UNL A   1      39.839  29.106  29.192  1.00  0.00     0.074 A 
ATOM     47  C   UNL A   1      38.943  29.349  28.085  1.00  0.00     0.031 C 
ATOM     48  C   UNL A   1      37.678  33.180  33.680  1.00  0.00     0.029 A 
ATOM     49  C   UNL A   1      38.765  32.209  33.808  1.00  0.00     0.049 A 
ATOM     50  H   UNL A   1      39.465  30.902  32.347  1.00  0.00     0.167 HD
ATOM     51  C   UNL A   1      40.871  28.231  29.153  1.00  0.00     0.037 A 
ATOM     52  C   UNL A   1      39.516  32.001  34.906  1.00  0.00     0.037 A 
ATOM     53  C   UNL A   1      41.763  27.995  30.255  1.00  0.00     0.049 A 
ATOM     54  C   UNL A   1      40.613  30.967  34.865  1.00  0.00     0.074 A 
ATOM     55  C   UNL A   1      42.851  27.142  30.317  1.00  0.00     0.029 A 
ATOM     56  N   UNL A   1      41.661  28.605  31.496  1.00  0.00    -0.354 N 
ATOM     57  N   UNL A   1      41.003  30.207  33.870  1.00  0.00    -0.248 NA
ATOM     58  C   UNL A   1      41.382  30.771  36.102  1.00  0.00     0.031 C 
ATOM     59  C   UNL A   1      43.367  27.188  31.616  1.00  0.00     0.029 A 
ATOM     60  C   UNL A   1      42.648  28.128  32.341  1.00  0.00     0.049 A 
ATOM     61  H   UNL A   1      40.986  29.279  31.741  1.00  0.00     0.167 HD
ATOM     62  C   UNL A   1      42.088  29.479  34.344  1.00  0.00     0.074 A 
ATOM     63  C   UNL A   1      42.296  29.892  35.717  1.00  0.00     0.031 C 
ATOM     64  C   UNL A   1      42.851  28.559  33.701  1.00  0.00     0.037 A 
BRANCH  51  65
ATOM     65  C   UNL A   1      41.051  27.436  27.891  1.00  0.00     0.057 A 
ATOM     66  C   UNL A   1      40.458  26.180  27.701  1.00  0.00     0.134 A 
ATOM     67  C   UNL A   1      41.841  27.936  26.847  1.00  0.00     0.134 A 
ATOM     68  F   UNL A   1      39.704  25.632  28.668  1.00  0.00    -0.206 F 
ATOM     69  C   UNL A   1      40.674  25.436  26.539  1.00  0.00     0.040 A 
ATOM     70  C   UNL A   1      42.037  27.217  25.667  1.00  0.00     0.040 A 
ATOM     71  F   UNL A   1      42.439  29.133  26.958  1.00  0.00    -0.206 F 
ATOM     72  C   UNL A   1      41.461  25.958  25.516  1.00  0.00     0.006 A 
ENDBRANCH  51  65
BRANCH  52  73
ATOM     73  C   UNL A   1      39.270  32.791  36.139  1.00  0.00     0.057 A 
ATOM     74  C   UNL A   1      39.905  34.021  36.350  1.00  0.00     0.134 A 
ATOM     75  C   UNL A   1      38.416  32.328  37.147  1.00  0.00     0.134 A 
ATOM     76  F   UNL A   1      40.754  34.508  35.434  1.00  0.00    -0.206 F 
ATOM     77  C   UNL A   1      39.716  34.752  37.525  1.00  0.00     0.040 A 
ATOM     78  C   UNL A   1      38.195  33.061  38.314  1.00  0.00     0.040 A 
ATOM     79  F   UNL A   1      37.776  31.158  37.007  1.00  0.00    -0.206 F 
ATOM     80  C   UNL A   1      38.853  34.273  38.509  1.00  0.00     0.006 A 
ENDBRANCH  52  73
BRANCH  64  81
ATOM     81  C   UNL A   1      44.025  27.989  34.448  1.00  0.00     0.057 A 
ATOM     82  C   UNL A   1      45.285  28.603  34.452  1.00  0.00     0.134 A 
ATOM     83  C   UNL A   1      43.878  26.817  35.203  1.00  0.00     0.134 A 
ATOM     84  F   UNL A   1      45.497  29.723  33.745  1.00  0.00    -0.206 F 
ATOM     85  C   UNL A   1      46.364  28.052  35.148  1.00  0.00     0.040 A 
ATOM     86  C   UNL A   1      44.939  26.276  35.931  1.00  0.00     0.040 A 
ATOM     87  F   UNL A   1      42.697  26.184  35.257  1.00  0.00    -0.206 F 
ATOM     88  C   UNL A   1      46.190  26.888  35.895  1.00  0.00     0.006 A 
ENDBRANCH  64  81
ENDBRANCH  38  39
ENDBRANCH  31  33
ENDBRANCH  30  31
ENDBRANCH  29  30
ENDBRANCH  28  29
ENDBRANCH  27  28
ENDBRANCH  26  27
ENDBRANCH  25  26
ENDBRANCH  24  25
ENDBRANCH   1  24
TORSDOF 26
ENDMDL
MODEL 2
REMARK VINA RESULT:      -9.2      1.849      3.257
REMARK SMILES CC(C)C[C@@H](C[C@H](O)c1ccccc1)C(=O)OCCOCCOCCOCCOC(=O)c1ccc(-c2c3nc(c(-c4c(F)cccc4F)c4ccc([nH]4)c(-c4c(F)cccc4F)c4nc(c(-c5c(F)cccc5F)c5ccc2[nH]5)C=C4)C=C3)cc1
REMARK SMILES IDX 22 1 21 2 20 3 19 4 18 5 17 6 15 7 16 8 5 9 4 10 2 11 1 12
REMARK SMILES IDX 3 13 6 14 7 15 9 16 10 17 14 18 11 19 13 20 12 21 8 22 23 24
REMARK SMILES IDX 24 25 25 26 26 27 27 28 28 29 29 30 30 31 31 32 32 33 33 34
REMARK SMILES IDX 85 35 34 36 84 37 35 38 36 39 37 40 78 41 38 42 83 43 77 44
REMARK SMILES IDX 79 45 39 46 82 47 76 48 75 49 40 51 66 52 49 53 65 54 50 55
REMARK SMILES IDX 53 56 64 57 80 58 51 59 52 60 63 62 81 63 54 64 41 65 42 66
REMARK SMILES IDX 47 67 43 68 44 69 46 70 48 71 45 72 67 73 68 74 73 75 69 76
REMARK SMILES IDX 70 77 72 78 74 79 71 80 55 81 56 82 61 83 57 84 58 85 60 86
REMARK SMILES IDX 62 87 59 88
REMARK H PARENT 8 23 79 50 53 61
REMARK Flexibility Score: inf
ROOT
ATOM      1  C   UNL A   1      32.768  27.730  23.118  1.00  0.00     0.188 C 
ENDROOT
BRANCH   1   2
ATOM      2  C   UNL A   1      31.277  27.768  23.487  1.00  0.00     0.188 C 
BRANCH   2   3
ATOM      3  O   UNL A   1      30.379  26.814  22.953  1.00  0.00    -0.376 OA
BRANCH   3   4
ATOM      4  C   UNL A   1      30.096  25.600  23.629  1.00  0.00     0.202 C 
BRANCH   4   5
ATOM      5  C   UNL A   1      30.645  24.246  23.173  1.00  0.00     0.261 C 
BRANCH   5   6
ATOM      6  O   UNL A   1      31.358  23.433  24.128  1.00  0.00    -0.463 OA
BRANCH   6   7
ATOM      7  C   UNL A   1      32.150  22.477  23.592  1.00  0.00     0.309 C 
ATOM      8  O   UNL A   1      32.730  22.588  22.513  1.00  0.00    -0.252 OA
BRANCH   7   9
ATOM      9  C   UNL A   1      32.180  21.159  24.345  1.00  0.00     0.102 C 
BRANCH   9  10
ATOM     10  C   UNL A   1      33.064  19.998  23.826  1.00  0.00     0.018 C 
BRANCH  10  11
ATOM     11  C   UNL A   1      32.395  18.594  23.900  1.00  0.00    -0.017 C 
ATOM     12  C   UNL A   1      32.621  17.740  22.645  1.00  0.00     0.007 C 
ATOM     13  C   UNL A   1      32.918  17.808  25.109  1.00  0.00     0.007 C 
ENDBRANCH  10  11
ENDBRANCH   9  10
BRANCH   9  14
ATOM     14  C   UNL A   1      32.320  21.443  25.852  1.00  0.00     0.052 C 
BRANCH  14  15
ATOM     15  C   UNL A   1      33.704  21.167  26.476  1.00  0.00     0.145 C 
BRANCH  15  16
ATOM     16  C   UNL A   1      34.914  21.988  26.053  1.00  0.00    -0.020 A 
ATOM     17  C   UNL A   1      34.982  23.386  26.108  1.00  0.00     0.006 A 
ATOM     18  C   UNL A   1      36.026  21.316  25.509  1.00  0.00     0.006 A 
ATOM     19  C   UNL A   1      36.049  24.088  25.531  1.00  0.00     0.000 A 
ATOM     20  C   UNL A   1      37.117  22.011  24.978  1.00  0.00     0.000 A 
ATOM     21  C   UNL A   1      37.111  23.400  24.954  1.00  0.00     0.000 A 
ENDBRANCH  15  16
BRANCH  15  22
ATOM     22  O   UNL A   1      33.531  21.352  27.887  1.00  0.00    -0.388 OA
ATOM     23  H   UNL A   1      34.100  22.076  28.190  1.00  0.00     0.211 HD
ENDBRANCH  15  22
ENDBRANCH  14  15
ENDBRANCH   9  14
ENDBRANCH   7   9
ENDBRANCH   6   7
ENDBRANCH   5   6
ENDBRANCH   4   5
ENDBRANCH   3   4
ENDBRANCH   2   3
ENDBRANCH   1   2
BRANCH   1  24
ATOM     24  O   UNL A   1      33.608  27.001  23.992  1.00  0.00    -0.377 OA
BRANCH  24  25
ATOM     25  C   UNL A   1      33.334  27.026  25.389  1.00  0.00     0.188 C 
BRANCH  25  26
ATOM     26  C   UNL A   1      33.690  28.278  26.214  1.00  0.00     0.188 C 
BRANCH  26  27
ATOM     27  O   UNL A   1      32.595  28.846  26.914  1.00  0.00    -0.376 OA
BRANCH  27  28
ATOM     28  C   UNL A   1      31.793  29.826  26.277  1.00  0.00     0.202 C 
BRANCH  28  29
ATOM     29  C   UNL A   1      32.004  31.307  26.637  1.00  0.00     0.261 C 
BRANCH  29  30
ATOM     30  O   UNL A   1      33.002  31.603  27.628  1.00  0.00    -0.460 OA
BRANCH  30  31
ATOM     31  C   UNL A   1      33.273  32.892  27.901  1.00  0.00     0.338 C 
ATOM     32  O   UNL A   1      32.540  33.855  27.727  1.00  0.00    -0.246 OA
BRANCH  31  33
ATOM     33  C   UNL A   1      34.547  32.946  28.645  1.00  0.00     0.060 A 
ATOM     34  C   UNL A   1      35.726  33.245  27.948  1.00  0.00     0.016 A 
ATOM     35  C   UNL A   1      34.587  32.661  30.013  1.00  0.00     0.016 A 
ATOM     36  C   UNL A   1      36.957  33.174  28.594  1.00  0.00     0.010 A 
ATOM     37  C   UNL A   1      35.825  32.567  30.656  1.00  0.00     0.010 A 
ATOM     38  C   UNL A   1      37.014  32.760  29.929  1.00  0.00    -0.014 A 
BRANCH  38  39
ATOM     39  C   UNL A   1      38.297  32.232  30.454  1.00  0.00     0.031 A 
ATOM     40  C   UNL A   1      38.811  30.941  29.871  1.00  0.00     0.074 A 
ATOM     41  C   UNL A   1      39.021  32.900  31.367  1.00  0.00     0.049 A 
ATOM     42  N   UNL A   1      39.898  30.270  30.154  1.00  0.00    -0.248 NA
ATOM     43  C   UNL A   1      37.979  30.323  28.825  1.00  0.00     0.031 C 
ATOM     44  C   UNL A   1      38.664  34.186  31.958  1.00  0.00     0.029 A 
ATOM     45  N   UNL A   1      40.220  32.579  31.950  1.00  0.00    -0.354 N 
ATOM     46  C   UNL A   1      39.868  29.147  29.334  1.00  0.00     0.074 A 
ATOM     47  C   UNL A   1      38.643  29.208  28.571  1.00  0.00     0.031 C 
ATOM     48  C   UNL A   1      39.626  34.547  32.826  1.00  0.00     0.029 A 
ATOM     49  C   UNL A   1      40.649  33.502  32.872  1.00  0.00     0.049 A 
ATOM     50  H   UNL A   1      40.726  31.763  31.731  1.00  0.00     0.167 HD
ATOM     51  C   UNL A   1      40.783  28.156  29.220  1.00  0.00     0.037 A 
ATOM     52  C   UNL A   1      41.737  33.493  33.665  1.00  0.00     0.037 A 
ATOM     53  C   UNL A   1      42.004  28.101  29.979  1.00  0.00     0.049 A 
ATOM     54  C   UNL A   1      42.706  32.341  33.576  1.00  0.00     0.074 A 
ATOM     55  C   UNL A   1      43.007  27.151  29.930  1.00  0.00     0.029 A 
ATOM     56  N   UNL A   1      42.379  29.032  30.936  1.00  0.00    -0.354 N 
ATOM     57  N   UNL A   1      42.682  31.292  32.788  1.00  0.00    -0.248 NA
ATOM     58  C   UNL A   1      43.861  32.378  34.484  1.00  0.00     0.031 C 
ATOM     59  C   UNL A   1      43.959  27.472  30.904  1.00  0.00     0.029 A 
ATOM     60  C   UNL A   1      43.586  28.665  31.505  1.00  0.00     0.049 A 
ATOM     61  H   UNL A   1      41.863  29.837  31.175  1.00  0.00     0.167 HD
ATOM     62  C   UNL A   1      43.837  30.572  33.071  1.00  0.00     0.074 A 
ATOM     63  C   UNL A   1      44.541  31.307  34.102  1.00  0.00     0.031 C 
ATOM     64  C   UNL A   1      44.282  29.414  32.521  1.00  0.00     0.037 A 
BRANCH  51  65
ATOM     65  C   UNL A   1      40.466  27.033  28.274  1.00  0.00     0.057 A 
ATOM     66  C   UNL A   1      40.995  26.969  26.978  1.00  0.00     0.134 A 
ATOM     67  C   UNL A   1      39.608  25.998  28.669  1.00  0.00     0.134 A 
ATOM     68  F   UNL A   1      41.808  27.938  26.526  1.00  0.00    -0.206 F 
ATOM     69  C   UNL A   1      40.652  25.940  26.097  1.00  0.00     0.040 A 
ATOM     70  C   UNL A   1      39.285  24.946  27.810  1.00  0.00     0.040 A 
ATOM     71  F   UNL A   1      39.066  25.993  29.897  1.00  0.00    -0.206 F 
ATOM     72  C   UNL A   1      39.799  24.922  26.516  1.00  0.00     0.006 A 
ENDBRANCH  51  65
BRANCH  52  73
ATOM     73  C   UNL A   1      41.982  34.614  34.608  1.00  0.00     0.057 A 
ATOM     74  C   UNL A   1      42.695  35.752  34.211  1.00  0.00     0.134 A 
ATOM     75  C   UNL A   1      41.535  34.566  35.934  1.00  0.00     0.134 A 
ATOM     76  F   UNL A   1      43.171  35.849  32.961  1.00  0.00    -0.206 F 
ATOM     77  C   UNL A   1      42.970  36.793  35.102  1.00  0.00     0.040 A 
ATOM     78  C   UNL A   1      41.778  35.611  36.827  1.00  0.00     0.040 A 
ATOM     79  F   UNL A   1      40.846  33.504  36.378  1.00  0.00    -0.206 F 
ATOM     80  C   UNL A   1      42.504  36.725  36.414  1.00  0.00     0.006 A 
ENDBRANCH  52  73
BRANCH  64  81
ATOM     81  C   UNL A   1      45.624  28.905  32.970  1.00  0.00     0.057 A 
ATOM     82  C   UNL A   1      46.823  29.329  32.383  1.00  0.00     0.134 A 
ATOM     83  C   UNL A   1      45.713  27.994  34.032  1.00  0.00     0.134 A 
ATOM     84  F   UNL A   1      46.811  30.194  31.358  1.00  0.00    -0.206 F 
ATOM     85  C   UNL A   1      48.059  28.838  32.812  1.00  0.00     0.040 A 
ATOM     86  C   UNL A   1      46.944  27.523  34.492  1.00  0.00     0.040 A 
ATOM     87  F   UNL A   1      44.606  27.556  34.650  1.00  0.00    -0.206 F 
ATOM     88  C   UNL A   1      48.121  27.937  33.873  1.00  0.00     0.006 A 
ENDBRANCH  64  81
ENDBRANCH  38  39
ENDBRANCH  31  33
ENDBRANCH  30  31
ENDBRANCH  29  30
ENDBRANCH  28  29
ENDBRANCH  27  28
ENDBRANCH  26  27
ENDBRANCH  25  26
ENDBRANCH  24  25
ENDBRANCH   1  24
TORSDOF 26
ENDMDL
MODEL 3
REMARK VINA RESULT:      -9.1      4.282      7.860
REMARK SMILES CC(C)C[C@@H](C[C@H](O)c1ccccc1)C(=O)OCCOCCOCCOCCOC(=O)c1ccc(-c2c3nc(c(-c4c(F)cccc4F)c4ccc([nH]4)c(-c4c(F)cccc4F)c4nc(c(-c5c(F)cccc5F)c5ccc2[nH]5)C=C4)C=C3)cc1
REMARK SMILES IDX 22 1 21 2 20 3 19 4 18 5 17 6 15 7 16 8 5 9 4 10 2 11 1 12
REMARK SMILES IDX 3 13 6 14 7 15 9 16 10 17 14 18 11 19 13 20 12 21 8 22 23 24
REMARK SMILES IDX 24 25 25 26 26 27 27 28 28 29 29 30 30 31 31 32 32 33 33 34
REMARK SMILES IDX 85 35 34 36 84 37 35 38 36 39 37 40 78 41 38 42 83 43 77 44
REMARK SMILES IDX 79 45 39 46 82 47 76 48 75 49 40 51 66 52 49 53 65 54 50 55
REMARK SMILES IDX 53 56 64 57 80 58 51 59 52 60 63 62 81 63 54 64 41 65 42 66
REMARK SMILES IDX 47 67 43 68 44 69 46 70 48 71 45 72 67 73 68 74 73 75 69 76
REMARK SMILES IDX 70 77 72 78 74 79 71 80 55 81 56 82 61 83 57 84 58 85 60 86
REMARK SMILES IDX 62 87 59 88
REMARK H PARENT 8 23 79 50 53 61
REMARK Flexibility Score: inf
ROOT
ATOM      1  C   UNL A   1      32.822  29.109  24.137  1.00  0.00     0.188 C 
ENDROOT
BRANCH   1   2
ATOM      2  C   UNL A   1      31.414  28.907  24.716  1.00  0.00     0.188 C 
BRANCH   2   3
ATOM      3  O   UNL A   1      30.397  28.303  23.939  1.00  0.00    -0.376 OA
BRANCH   3   4
ATOM      4  C   UNL A   1      30.256  26.894  23.865  1.00  0.00     0.202 C 
BRANCH   4   5
ATOM      5  C   UNL A   1      31.176  26.008  23.020  1.00  0.00     0.261 C 
BRANCH   5   6
ATOM      6  O   UNL A   1      32.316  25.394  23.655  1.00  0.00    -0.463 OA
BRANCH   6   7
ATOM      7  C   UNL A   1      33.335  25.077  22.825  1.00  0.00     0.309 C 
ATOM      8  O   UNL A   1      33.714  25.789  21.896  1.00  0.00    -0.252 OA
BRANCH   7   9
ATOM      9  C   UNL A   1      33.919  23.689  23.013  1.00  0.00     0.102 C 
BRANCH   9  10
ATOM     10  C   UNL A   1      34.302  23.203  24.432  1.00  0.00     0.018 C 
BRANCH  10  11
ATOM     11  C   UNL A   1      35.769  22.698  24.569  1.00  0.00    -0.017 C 
ATOM     12  C   UNL A   1      35.890  21.169  24.603  1.00  0.00     0.007 C 
ATOM     13  C   UNL A   1      36.630  23.216  23.409  1.00  0.00     0.007 C 
ENDBRANCH  10  11
ENDBRANCH   9  10
BRANCH   9  14
ATOM     14  C   UNL A   1      33.095  22.679  22.193  1.00  0.00     0.052 C 
BRANCH  14  15
ATOM     15  C   UNL A   1      32.031  21.873  22.968  1.00  0.00     0.145 C 
BRANCH  15  16
ATOM     16  C   UNL A   1      32.349  20.475  23.479  1.00  0.00    -0.020 A 
ATOM     17  C   UNL A   1      32.367  19.324  22.681  1.00  0.00     0.006 A 
ATOM     18  C   UNL A   1      32.583  20.300  24.858  1.00  0.00     0.006 A 
ATOM     19  C   UNL A   1      32.483  18.046  23.247  1.00  0.00     0.000 A 
ATOM     20  C   UNL A   1      32.751  19.030  25.418  1.00  0.00     0.000 A 
ATOM     21  C   UNL A   1      32.662  17.899  24.617  1.00  0.00     0.000 A 
ENDBRANCH  15  16
BRANCH  15  22
ATOM     22  O   UNL A   1      31.693  22.679  24.103  1.00  0.00    -0.388 OA
ATOM     23  H   UNL A   1      32.424  22.663  24.740  1.00  0.00     0.211 HD
ENDBRANCH  15  22
ENDBRANCH  14  15
ENDBRANCH   9  14
ENDBRANCH   7   9
ENDBRANCH   6   7
ENDBRANCH   5   6
ENDBRANCH   4   5
ENDBRANCH   3   4
ENDBRANCH   2   3
ENDBRANCH   1   2
BRANCH   1  24
ATOM     24  O   UNL A   1      33.819  28.217  24.596  1.00  0.00    -0.377 OA
BRANCH  24  25
ATOM     25  C   UNL A   1      33.832  27.850  25.972  1.00  0.00     0.188 C 
BRANCH  25  26
ATOM     26  C   UNL A   1      34.468  28.798  27.008  1.00  0.00     0.188 C 
BRANCH  26  27
ATOM     27  O   UNL A   1      33.564  29.733  27.574  1.00  0.00    -0.376 OA
BRANCH  27  28
ATOM     28  C   UNL A   1      33.766  31.119  27.352  1.00  0.00     0.202 C 
BRANCH  28  29
ATOM     29  C   UNL A   1      34.652  31.907  28.333  1.00  0.00     0.261 C 
BRANCH  29  30
ATOM     30  O   UNL A   1      35.256  31.167  29.407  1.00  0.00    -0.460 OA
BRANCH  30  31
ATOM     31  C   UNL A   1      36.433  31.594  29.898  1.00  0.00     0.338 C 
ATOM     32  O   UNL A   1      36.622  32.540  30.650  1.00  0.00    -0.246 OA
BRANCH  31  33
ATOM     33  C   UNL A   1      37.468  30.604  29.539  1.00  0.00     0.060 A 
ATOM     34  C   UNL A   1      38.213  30.003  30.563  1.00  0.00     0.016 A 
ATOM     35  C   UNL A   1      37.733  30.303  28.200  1.00  0.00     0.016 A 
ATOM     36  C   UNL A   1      39.281  29.166  30.251  1.00  0.00     0.010 A 
ATOM     37  C   UNL A   1      38.820  29.482  27.887  1.00  0.00     0.010 A 
ATOM     38  C   UNL A   1      39.634  28.965  28.912  1.00  0.00    -0.014 A 
BRANCH  38  39
ATOM     39  C   UNL A   1      41.006  28.495  28.603  1.00  0.00     0.031 A 
ATOM     40  C   UNL A   1      42.127  29.497  28.704  1.00  0.00     0.074 A 
ATOM     41  C   UNL A   1      41.268  27.211  28.307  1.00  0.00     0.049 A 
ATOM     42  N   UNL A   1      43.407  29.344  28.487  1.00  0.00    -0.248 NA
ATOM     43  C   UNL A   1      41.745  30.862  29.105  1.00  0.00     0.031 C 
ATOM     44  C   UNL A   1      40.282  26.137  28.241  1.00  0.00     0.029 A 
ATOM     45  N   UNL A   1      42.459  26.599  28.011  1.00  0.00    -0.354 N 
ATOM     46  C   UNL A   1      43.977  30.594  28.707  1.00  0.00     0.074 A 
ATOM     47  C   UNL A   1      42.902  31.499  29.040  1.00  0.00     0.031 C 
ATOM     48  C   UNL A   1      40.910  24.991  27.922  1.00  0.00     0.029 A 
ATOM     49  C   UNL A   1      42.335  25.260  27.732  1.00  0.00     0.049 A 
ATOM     50  H   UNL A   1      43.322  27.073  27.998  1.00  0.00     0.167 HD
ATOM     51  C   UNL A   1      45.280  30.954  28.647  1.00  0.00     0.037 A 
ATOM     52  C   UNL A   1      43.268  24.364  27.356  1.00  0.00     0.037 A 
ATOM     53  C   UNL A   1      46.348  30.049  28.318  1.00  0.00     0.049 A 
ATOM     54  C   UNL A   1      44.703  24.805  27.221  1.00  0.00     0.074 A 
ATOM     55  C   UNL A   1      47.705  30.306  28.244  1.00  0.00     0.029 A 
ATOM     56  N   UNL A   1      46.175  28.711  27.997  1.00  0.00    -0.354 N 
ATOM     57  N   UNL A   1      45.237  25.981  27.448  1.00  0.00    -0.248 NA
ATOM     58  C   UNL A   1      45.669  23.785  26.785  1.00  0.00     0.031 C 
ATOM     59  C   UNL A   1      48.346  29.140  27.814  1.00  0.00     0.029 A 
ATOM     60  C   UNL A   1      47.397  28.135  27.696  1.00  0.00     0.049 A 
ATOM     61  H   UNL A   1      45.311  28.239  27.985  1.00  0.00     0.167 HD
ATOM     62  C   UNL A   1      46.602  25.832  27.229  1.00  0.00     0.074 A 
ATOM     63  C   UNL A   1      46.814  24.449  26.854  1.00  0.00     0.031 C 
ATOM     64  C   UNL A   1      47.593  26.753  27.338  1.00  0.00     0.037 A 
BRANCH  51  65
ATOM     65  C   UNL A   1      45.605  32.400  28.894  1.00  0.00     0.057 A 
ATOM     66  C   UNL A   1      45.853  32.907  30.177  1.00  0.00     0.134 A 
ATOM     67  C   UNL A   1      45.664  33.304  27.825  1.00  0.00     0.134 A 
ATOM     68  F   UNL A   1      45.794  32.101  31.250  1.00  0.00    -0.206 F 
ATOM     69  C   UNL A   1      46.110  34.263  30.392  1.00  0.00     0.040 A 
ATOM     70  C   UNL A   1      45.953  34.655  28.023  1.00  0.00     0.040 A 
ATOM     71  F   UNL A   1      45.439  32.889  26.569  1.00  0.00    -0.206 F 
ATOM     72  C   UNL A   1      46.165  35.139  29.311  1.00  0.00     0.006 A 
ENDBRANCH  51  65
BRANCH  52  73
ATOM     73  C   UNL A   1      42.883  22.954  27.090  1.00  0.00     0.057 A 
ATOM     74  C   UNL A   1      42.763  22.471  25.781  1.00  0.00     0.134 A 
ATOM     75  C   UNL A   1      42.600  22.063  28.132  1.00  0.00     0.134 A 
ATOM     76  F   UNL A   1      42.996  23.282  24.738  1.00  0.00    -0.206 F 
ATOM     77  C   UNL A   1      42.358  21.161  25.517  1.00  0.00     0.040 A 
ATOM     78  C   UNL A   1      42.223  20.742  27.884  1.00  0.00     0.040 A 
ATOM     79  F   UNL A   1      42.697  22.462  29.409  1.00  0.00    -0.206 F 
ATOM     80  C   UNL A   1      42.093  20.291  26.573  1.00  0.00     0.006 A 
ENDBRANCH  52  73
BRANCH  64  81
ATOM     81  C   UNL A   1      49.004  26.280  27.119  1.00  0.00     0.057 A 
ATOM     82  C   UNL A   1      49.629  26.330  25.866  1.00  0.00     0.134 A 
ATOM     83  C   UNL A   1      49.760  25.794  28.197  1.00  0.00     0.134 A 
ATOM     84  F   UNL A   1      48.962  26.777  24.792  1.00  0.00    -0.206 F 
ATOM     85  C   UNL A   1      50.939  25.879  25.685  1.00  0.00     0.040 A 
ATOM     86  C   UNL A   1      51.080  25.374  28.035  1.00  0.00     0.040 A 
ATOM     87  F   UNL A   1      49.230  25.732  29.427  1.00  0.00    -0.206 F 
ATOM     88  C   UNL A   1      51.670  25.405  26.773  1.00  0.00     0.006 A 
ENDBRANCH  64  81
ENDBRANCH  38  39
ENDBRANCH  31  33
ENDBRANCH  30  31
ENDBRANCH  29  30
ENDBRANCH  28  29
ENDBRANCH  27  28
ENDBRANCH  26  27
ENDBRANCH  25  26
ENDBRANCH  24  25
ENDBRANCH   1  24
TORSDOF 26
ENDMDL
