MODEL 1
REMARK VINA RESULT:     -11.0      0.000      0.000
REMARK SMILES O=C(OCCOCCOCCOCCOC(=O)[C@H]1[C@@H](C(=O)NN2CCOCC2)[C@H]2C=C[C@@H]1CC2)c1ccc(-c2c3nc(c(-c4c(F)cccc4F)c4ccc([nH]4)c(-c4c(F)cccc4F)c4nc(c(-c5c(F)cccc5F)c5ccc2[nH]5)C=C4)C=C3)cc1
REMARK SMILES IDX 9 1 8 2 7 3 6 4 5 5 4 6 3 7 2 8 1 9 35 10 36 11 88 12 37 13
REMARK SMILES IDX 87 14 38 15 39 16 40 17 81 18 41 19 86 20 80 21 82 22 42 23
REMARK SMILES IDX 85 24 79 25 78 26 43 28 69 29 52 30 68 31 53 32 56 33 67 34
REMARK SMILES IDX 83 35 54 36 55 37 66 39 84 40 57 41 44 42 45 43 50 44 46 45
REMARK SMILES IDX 47 46 49 47 51 48 48 49 70 50 71 51 76 52 72 53 73 54 75 55
REMARK SMILES IDX 77 56 74 57 58 58 59 59 64 60 60 61 61 62 63 63 65 64 62 65
REMARK SMILES IDX 10 66 11 67 12 68 13 69 14 70 15 71 16 72 17 73 18 74 19 75
REMARK SMILES IDX 32 76 29 77 31 78 33 79 30 80 34 81 20 82 21 83 22 84 23 86
REMARK SMILES IDX 24 87 28 88 25 89 27 90 26 91
REMARK H PARENT 82 27 56 38 22 85
REMARK Flexibility Score: inf
ROOT
ATOM      1  O   UNL A   1      33.487  34.477  29.095  1.00  0.00    -0.377 OA
ENDROOT
BRANCH   1   2
ATOM      2  C   UNL A   1      32.904  35.763  29.236  1.00  0.00     0.188 C 
BRANCH   2   3
ATOM      3  C   UNL A   1      32.950  36.270  30.674  1.00  0.00     0.188 C 
BRANCH   3   4
ATOM      4  O   UNL A   1      32.844  35.124  31.492  1.00  0.00    -0.376 OA
BRANCH   4   5
ATOM      5  C   UNL A   1      33.820  34.900  32.490  1.00  0.00     0.202 C 
BRANCH   5   6
ATOM      6  C   UNL A   1      33.915  33.440  32.891  1.00  0.00     0.261 C 
BRANCH   6   7
ATOM      7  O   UNL A   1      35.020  32.726  32.300  1.00  0.00    -0.460 OA
BRANCH   7   8
ATOM      8  C   UNL A   1      36.149  32.211  32.842  1.00  0.00     0.338 C 
ATOM      9  O   UNL A   1      36.301  32.290  34.061  1.00  0.00    -0.246 OA
BRANCH   8  10
ATOM     10  C   UNL A   1      37.184  31.455  32.082  1.00  0.00     0.060 A 
ATOM     11  C   UNL A   1      37.925  30.379  32.565  1.00  0.00     0.016 A 
ATOM     12  C   UNL A   1      37.336  31.785  30.726  1.00  0.00     0.016 A 
ATOM     13  C   UNL A   1      38.876  29.736  31.802  1.00  0.00     0.010 A 
ATOM     14  C   UNL A   1      38.253  31.105  29.920  1.00  0.00     0.010 A 
ATOM     15  C   UNL A   1      39.061  30.109  30.482  1.00  0.00    -0.014 A 
BRANCH  15  16
ATOM     16  C   UNL A   1      40.272  29.604  29.822  1.00  0.00     0.031 A 
ATOM     17  C   UNL A   1      41.474  30.495  29.849  1.00  0.00     0.074 A 
ATOM     18  C   UNL A   1      40.338  28.326  29.410  1.00  0.00     0.049 A 
ATOM     19  N   UNL A   1      42.615  30.367  29.235  1.00  0.00    -0.248 NA
ATOM     20  C   UNL A   1      41.375  31.703  30.691  1.00  0.00     0.031 C 
ATOM     21  C   UNL A   1      39.265  27.333  29.545  1.00  0.00     0.029 A 
ATOM     22  N   UNL A   1      41.363  27.630  28.838  1.00  0.00    -0.354 N 
ATOM     23  C   UNL A   1      43.334  31.512  29.553  1.00  0.00     0.074 A 
ATOM     24  C   UNL A   1      42.513  32.318  30.424  1.00  0.00     0.031 C 
ATOM     25  C   UNL A   1      39.706  26.147  29.096  1.00  0.00     0.029 A 
ATOM     26  C   UNL A   1      41.042  26.327  28.546  1.00  0.00     0.049 A 
ATOM     27  H   UNL A   1      42.247  28.023  28.654  1.00  0.00     0.167 HD
ATOM     28  C   UNL A   1      44.570  31.852  29.129  1.00  0.00     0.037 A 
ATOM     29  C   UNL A   1      41.741  25.413  27.850  1.00  0.00     0.037 A 
ATOM     30  C   UNL A   1      45.353  30.991  28.289  1.00  0.00     0.049 A 
ATOM     31  C   UNL A   1      43.071  25.847  27.298  1.00  0.00     0.074 A 
ATOM     32  C   UNL A   1      46.581  31.222  27.704  1.00  0.00     0.029 A 
ATOM     33  N   UNL A   1      44.966  29.703  27.928  1.00  0.00    -0.354 N 
ATOM     34  N   UNL A   1      43.704  26.987  27.469  1.00  0.00    -0.248 NA
ATOM     35  C   UNL A   1      43.771  24.892  26.434  1.00  0.00     0.031 C 
ATOM     36  C   UNL A   1      46.918  30.088  26.956  1.00  0.00     0.029 A 
ATOM     37  C   UNL A   1      45.926  29.129  27.119  1.00  0.00     0.049 A 
ATOM     38  H   UNL A   1      44.130  29.266  28.210  1.00  0.00     0.167 HD
ATOM     39  C   UNL A   1      44.882  26.884  26.747  1.00  0.00     0.074 A 
ATOM     40  C   UNL A   1      44.883  25.558  26.155  1.00  0.00     0.031 C 
ATOM     41  C   UNL A   1      45.872  27.795  26.574  1.00  0.00     0.037 A 
BRANCH  28  42
ATOM     42  C   UNL A   1      45.057  33.223  29.487  1.00  0.00     0.057 A 
ATOM     43  C   UNL A   1      45.794  33.485  30.649  1.00  0.00     0.134 A 
ATOM     44  C   UNL A   1      44.706  34.320  28.688  1.00  0.00     0.134 A 
ATOM     45  F   UNL A   1      46.128  32.488  31.482  1.00  0.00    -0.206 F 
ATOM     46  C   UNL A   1      46.135  34.789  31.020  1.00  0.00     0.040 A 
ATOM     47  C   UNL A   1      45.063  35.624  29.035  1.00  0.00     0.040 A 
ATOM     48  F   UNL A   1      43.986  34.144  27.570  1.00  0.00    -0.206 F 
ATOM     49  C   UNL A   1      45.770  35.863  30.210  1.00  0.00     0.006 A 
ENDBRANCH  28  42
BRANCH  29  50
ATOM     50  C   UNL A   1      41.169  24.070  27.569  1.00  0.00     0.057 A 
ATOM     51  C   UNL A   1      40.120  23.895  26.660  1.00  0.00     0.134 A 
ATOM     52  C   UNL A   1      41.652  22.920  28.212  1.00  0.00     0.134 A 
ATOM     53  F   UNL A   1      39.596  24.953  26.023  1.00  0.00    -0.206 F 
ATOM     54  C   UNL A   1      39.563  22.637  26.413  1.00  0.00     0.040 A 
ATOM     55  C   UNL A   1      41.129  21.653  27.951  1.00  0.00     0.040 A 
ATOM     56  F   UNL A   1      42.657  23.010  29.097  1.00  0.00    -0.206 F 
ATOM     57  C   UNL A   1      40.074  21.510  27.054  1.00  0.00     0.006 A 
ENDBRANCH  29  50
BRANCH  41  58
ATOM     58  C   UNL A   1      47.043  27.355  25.754  1.00  0.00     0.057 A 
ATOM     59  C   UNL A   1      47.111  27.594  24.377  1.00  0.00     0.134 A 
ATOM     60  C   UNL A   1      48.135  26.729  26.367  1.00  0.00     0.134 A 
ATOM     61  F   UNL A   1      46.087  28.177  23.736  1.00  0.00    -0.206 F 
ATOM     62  C   UNL A   1      48.222  27.205  23.631  1.00  0.00     0.040 A 
ATOM     63  C   UNL A   1      49.263  26.363  25.636  1.00  0.00     0.040 A 
ATOM     64  F   UNL A   1      48.128  26.485  27.686  1.00  0.00    -0.206 F 
ATOM     65  C   UNL A   1      49.306  26.595  24.263  1.00  0.00     0.006 A 
ENDBRANCH  41  58
ENDBRANCH  15  16
ENDBRANCH   8  10
ENDBRANCH   7   8
ENDBRANCH   6   7
ENDBRANCH   5   6
ENDBRANCH   4   5
ENDBRANCH   3   4
ENDBRANCH   2   3
ENDBRANCH   1   2
BRANCH   1  66
ATOM     66  C   UNL A   1      34.830  34.423  28.617  1.00  0.00     0.188 C 
BRANCH  66  67
ATOM     67  C   UNL A   1      35.375  33.116  28.062  1.00  0.00     0.188 C 
BRANCH  67  68
ATOM     68  O   UNL A   1      34.610  31.966  28.333  1.00  0.00    -0.376 OA
BRANCH  68  69
ATOM     69  C   UNL A   1      34.335  31.076  27.255  1.00  0.00     0.202 C 
BRANCH  69  70
ATOM     70  C   UNL A   1      33.512  29.767  27.406  1.00  0.00     0.261 C 
BRANCH  70  71
ATOM     71  O   UNL A   1      33.171  29.038  26.197  1.00  0.00    -0.463 OA
BRANCH  71  72
ATOM     72  C   UNL A   1      31.961  29.314  25.644  1.00  0.00     0.310 C 
ATOM     73  O   UNL A   1      31.571  30.464  25.413  1.00  0.00    -0.252 OA
BRANCH  72  74
ATOM     74  C   UNL A   1      31.035  28.126  25.340  1.00  0.00     0.119 C 
ATOM     75  C   UNL A   1      30.493  28.098  23.862  1.00  0.00     0.101 C 
ATOM     76  C   UNL A   1      31.323  26.661  25.818  1.00  0.00     0.026 C 
ATOM     77  C   UNL A   1      30.340  26.623  23.395  1.00  0.00     0.025 C 
ATOM     78  C   UNL A   1      32.109  25.849  24.808  1.00  0.00    -0.027 C 
ATOM     79  C   UNL A   1      29.951  25.919  25.817  1.00  0.00     0.009 C 
ATOM     80  C   UNL A   1      31.633  25.864  23.555  1.00  0.00    -0.027 C 
ATOM     81  C   UNL A   1      29.354  25.926  24.377  1.00  0.00     0.009 C 
BRANCH  75  82
ATOM     82  C   UNL A   1      31.213  28.954  22.811  1.00  0.00     0.238 C 
ATOM     83  O   UNL A   1      32.302  28.627  22.333  1.00  0.00    -0.273 OA
ATOM     84  N   UNL A   1      30.660  30.106  22.304  1.00  0.00    -0.288 N 
ATOM     85  H   UNL A   1      31.283  30.688  21.813  1.00  0.00     0.185 HD
BRANCH  84  86
ATOM     86  N   UNL A   1      29.366  30.565  22.383  1.00  0.00    -0.217 NA
ATOM     87  C   UNL A   1      28.446  30.453  21.266  1.00  0.00     0.136 C 
ATOM     88  C   UNL A   1      28.989  31.509  23.418  1.00  0.00     0.136 C 
ATOM     89  C   UNL A   1      28.042  31.832  20.724  1.00  0.00     0.177 C 
ATOM     90  C   UNL A   1      28.649  32.863  22.793  1.00  0.00     0.177 C 
ATOM     91  O   UNL A   1      27.655  32.744  21.767  1.00  0.00    -0.379 OA
ENDBRANCH  84  86
ENDBRANCH  75  82
ENDBRANCH  72  74
ENDBRANCH  71  72
ENDBRANCH  70  71
ENDBRANCH  69  70
ENDBRANCH  68  69
ENDBRANCH  67  68
ENDBRANCH  66  67
ENDBRANCH   1  66
TORSDOF 22
ENDMDL
MODEL 2
REMARK VINA RESULT:     -10.6      4.880      8.009
REMARK SMILES O=C(OCCOCCOCCOCCOC(=O)[C@H]1[C@@H](C(=O)NN2CCOCC2)[C@H]2C=C[C@@H]1CC2)c1ccc(-c2c3nc(c(-c4c(F)cccc4F)c4ccc([nH]4)c(-c4c(F)cccc4F)c4nc(c(-c5c(F)cccc5F)c5ccc2[nH]5)C=C4)C=C3)cc1
REMARK SMILES IDX 9 1 8 2 7 3 6 4 5 5 4 6 3 7 2 8 1 9 35 10 36 11 88 12 37 13
REMARK SMILES IDX 87 14 38 15 39 16 40 17 81 18 41 19 86 20 80 21 82 22 42 23
REMARK SMILES IDX 85 24 79 25 78 26 43 28 69 29 52 30 68 31 53 32 56 33 67 34
REMARK SMILES IDX 83 35 54 36 55 37 66 39 84 40 57 41 44 42 45 43 50 44 46 45
REMARK SMILES IDX 47 46 49 47 51 48 48 49 70 50 71 51 76 52 72 53 73 54 75 55
REMARK SMILES IDX 77 56 74 57 58 58 59 59 64 60 60 61 61 62 63 63 65 64 62 65
REMARK SMILES IDX 10 66 11 67 12 68 13 69 14 70 15 71 16 72 17 73 18 74 19 75
REMARK SMILES IDX 32 76 29 77 31 78 33 79 30 80 34 81 20 82 21 83 22 84 23 86
REMARK SMILES IDX 24 87 28 88 25 89 27 90 26 91
REMARK H PARENT 82 27 56 38 22 85
REMARK Flexibility Score: inf
ROOT
ATOM      1  O   UNL A   1      30.621  29.547  24.230  1.00  0.00    -0.377 OA
ENDROOT
BRANCH   1   2
ATOM      2  C   UNL A   1      31.436  29.016  25.263  1.00  0.00     0.188 C 
BRANCH   2   3
ATOM      3  C   UNL A   1      32.770  29.745  25.387  1.00  0.00     0.188 C 
BRANCH   3   4
ATOM      4  O   UNL A   1      32.976  29.944  26.769  1.00  0.00    -0.376 OA
BRANCH   4   5
ATOM      5  C   UNL A   1      33.298  31.239  27.238  1.00  0.00     0.202 C 
BRANCH   5   6
ATOM      6  C   UNL A   1      32.101  32.171  27.232  1.00  0.00     0.261 C 
BRANCH   6   7
ATOM      7  O   UNL A   1      32.429  33.568  27.373  1.00  0.00    -0.460 OA
BRANCH   7   8
ATOM      8  C   UNL A   1      33.112  34.238  28.332  1.00  0.00     0.338 C 
ATOM      9  O   UNL A   1      32.658  35.311  28.730  1.00  0.00    -0.246 OA
BRANCH   8  10
ATOM     10  C   UNL A   1      34.327  33.722  29.023  1.00  0.00     0.060 A 
ATOM     11  C   UNL A   1      35.644  33.968  28.645  1.00  0.00     0.016 A 
ATOM     12  C   UNL A   1      34.120  33.028  30.225  1.00  0.00     0.016 A 
ATOM     13  C   UNL A   1      36.719  33.444  29.331  1.00  0.00     0.010 A 
ATOM     14  C   UNL A   1      35.199  32.540  30.967  1.00  0.00     0.010 A 
ATOM     15  C   UNL A   1      36.502  32.709  30.483  1.00  0.00    -0.014 A 
BRANCH  15  16
ATOM     16  C   UNL A   1      37.644  31.938  30.993  1.00  0.00     0.031 A 
ATOM     17  C   UNL A   1      38.022  32.164  32.424  1.00  0.00     0.074 A 
ATOM     18  C   UNL A   1      38.169  30.939  30.264  1.00  0.00     0.049 A 
ATOM     19  N   UNL A   1      39.056  31.732  33.086  1.00  0.00    -0.248 NA
ATOM     20  C   UNL A   1      37.099  32.995  33.221  1.00  0.00     0.031 C 
ATOM     21  C   UNL A   1      37.707  30.524  28.934  1.00  0.00     0.029 A 
ATOM     22  N   UNL A   1      39.174  30.062  30.554  1.00  0.00    -0.354 N 
ATOM     23  C   UNL A   1      38.948  32.301  34.348  1.00  0.00     0.074 A 
ATOM     24  C   UNL A   1      37.744  33.097  34.370  1.00  0.00     0.031 C 
ATOM     25  C   UNL A   1      38.410  29.450  28.541  1.00  0.00     0.029 A 
ATOM     26  C   UNL A   1      39.436  29.176  29.537  1.00  0.00     0.049 A 
ATOM     27  H   UNL A   1      39.663  30.063  31.408  1.00  0.00     0.167 HD
ATOM     28  C   UNL A   1      39.803  32.172  35.385  1.00  0.00     0.037 A 
ATOM     29  C   UNL A   1      40.441  28.292  29.416  1.00  0.00     0.037 A 
ATOM     30  C   UNL A   1      40.968  31.337  35.315  1.00  0.00     0.049 A 
ATOM     31  C   UNL A   1      41.441  28.238  30.539  1.00  0.00     0.074 A 
ATOM     32  C   UNL A   1      41.977  31.165  36.241  1.00  0.00     0.029 A 
ATOM     33  N   UNL A   1      41.264  30.513  34.233  1.00  0.00    -0.354 N 
ATOM     34  N   UNL A   1      41.432  28.883  31.684  1.00  0.00    -0.248 NA
ATOM     35  C   UNL A   1      42.604  27.367  30.345  1.00  0.00     0.031 C 
ATOM     36  C   UNL A   1      42.904  30.266  35.700  1.00  0.00     0.029 A 
ATOM     37  C   UNL A   1      42.445  29.837  34.461  1.00  0.00     0.049 A 
ATOM     38  H   UNL A   1      40.711  30.425  33.423  1.00  0.00     0.167 HD
ATOM     39  C   UNL A   1      42.578  28.487  32.356  1.00  0.00     0.074 A 
ATOM     40  C   UNL A   1      43.245  27.528  31.495  1.00  0.00     0.031 C 
ATOM     41  C   UNL A   1      43.049  28.880  33.566  1.00  0.00     0.037 A 
BRANCH  28  42
ATOM     42  C   UNL A   1      39.543  33.024  36.590  1.00  0.00     0.057 A 
ATOM     43  C   UNL A   1      38.603  32.682  37.571  1.00  0.00     0.134 A 
ATOM     44  C   UNL A   1      40.191  34.260  36.725  1.00  0.00     0.134 A 
ATOM     45  F   UNL A   1      37.914  31.534  37.482  1.00  0.00    -0.206 F 
ATOM     46  C   UNL A   1      38.294  33.549  38.623  1.00  0.00     0.040 A 
ATOM     47  C   UNL A   1      39.909  35.124  37.785  1.00  0.00     0.040 A 
ATOM     48  F   UNL A   1      41.090  34.659  35.814  1.00  0.00    -0.206 F 
ATOM     49  C   UNL A   1      38.950  34.774  38.732  1.00  0.00     0.006 A 
ENDBRANCH  28  42
BRANCH  29  50
ATOM     50  C   UNL A   1      40.595  27.479  28.181  1.00  0.00     0.057 A 
ATOM     51  C   UNL A   1      40.015  26.211  28.062  1.00  0.00     0.134 A 
ATOM     52  C   UNL A   1      41.338  27.944  27.086  1.00  0.00     0.134 A 
ATOM     53  F   UNL A   1      39.306  25.695  29.077  1.00  0.00    -0.206 F 
ATOM     54  C   UNL A   1      40.178  25.433  26.912  1.00  0.00     0.040 A 
ATOM     55  C   UNL A   1      41.482  27.192  25.918  1.00  0.00     0.040 A 
ATOM     56  F   UNL A   1      41.924  29.150  27.128  1.00  0.00    -0.206 F 
ATOM     57  C   UNL A   1      40.908  25.928  25.833  1.00  0.00     0.006 A 
ENDBRANCH  29  50
BRANCH  41  58
ATOM     58  C   UNL A   1      44.313  28.229  34.030  1.00  0.00     0.057 A 
ATOM     59  C   UNL A   1      45.572  28.747  33.706  1.00  0.00     0.134 A 
ATOM     60  C   UNL A   1      44.260  27.096  34.851  1.00  0.00     0.134 A 
ATOM     61  F   UNL A   1      45.682  29.821  32.910  1.00  0.00    -0.206 F 
ATOM     62  C   UNL A   1      46.741  28.146  34.170  1.00  0.00     0.040 A 
ATOM     63  C   UNL A   1      45.421  26.506  35.345  1.00  0.00     0.040 A 
ATOM     64  F   UNL A   1      43.080  26.563  35.201  1.00  0.00    -0.206 F 
ATOM     65  C   UNL A   1      46.666  27.027  34.999  1.00  0.00     0.006 A 
ENDBRANCH  41  58
ENDBRANCH  15  16
ENDBRANCH   8  10
ENDBRANCH   7   8
ENDBRANCH   6   7
ENDBRANCH   5   6
ENDBRANCH   4   5
ENDBRANCH   3   4
ENDBRANCH   2   3
ENDBRANCH   1   2
BRANCH   1  66
ATOM     66  C   UNL A   1      30.732  28.946  22.941  1.00  0.00     0.188 C 
BRANCH  66  67
ATOM     67  C   UNL A   1      30.348  27.485  22.762  1.00  0.00     0.188 C 
BRANCH  67  68
ATOM     68  O   UNL A   1      29.251  27.040  23.522  1.00  0.00    -0.376 OA
BRANCH  68  69
ATOM     69  C   UNL A   1      29.441  25.915  24.376  1.00  0.00     0.202 C 
BRANCH  69  70
ATOM     70  C   UNL A   1      30.831  25.304  24.701  1.00  0.00     0.261 C 
BRANCH  70  71
ATOM     71  O   UNL A   1      31.079  23.931  24.296  1.00  0.00    -0.463 OA
BRANCH  71  72
ATOM     72  C   UNL A   1      31.500  23.080  25.269  1.00  0.00     0.310 C 
ATOM     73  O   UNL A   1      30.725  22.482  26.024  1.00  0.00    -0.252 OA
BRANCH  72  74
ATOM     74  C   UNL A   1      33.016  22.900  25.444  1.00  0.00     0.119 C 
ATOM     75  C   UNL A   1      33.572  21.549  24.859  1.00  0.00     0.101 C 
ATOM     76  C   UNL A   1      34.056  24.045  25.192  1.00  0.00     0.026 C 
ATOM     77  C   UNL A   1      35.008  21.777  24.304  1.00  0.00     0.025 C 
ATOM     78  C   UNL A   1      34.583  24.071  23.772  1.00  0.00    -0.027 C 
ATOM     79  C   UNL A   1      35.338  23.661  25.994  1.00  0.00     0.009 C 
ATOM     80  C   UNL A   1      35.029  22.899  23.296  1.00  0.00    -0.027 C 
ATOM     81  C   UNL A   1      35.884  22.293  25.482  1.00  0.00     0.009 C 
BRANCH  75  82
ATOM     82  C   UNL A   1      32.696  20.775  23.865  1.00  0.00     0.238 C 
ATOM     83  O   UNL A   1      32.141  21.327  22.912  1.00  0.00    -0.273 OA
ATOM     84  N   UNL A   1      32.524  19.414  23.949  1.00  0.00    -0.288 N 
ATOM     85  H   UNL A   1      31.783  19.052  23.413  1.00  0.00     0.185 HD
BRANCH  84  86
ATOM     86  N   UNL A   1      33.234  18.484  24.672  1.00  0.00    -0.217 NA
ATOM     87  C   UNL A   1      34.488  17.936  24.190  1.00  0.00     0.136 C 
ATOM     88  C   UNL A   1      32.586  17.736  25.734  1.00  0.00     0.136 C 
ATOM     89  C   UNL A   1      34.377  16.431  23.905  1.00  0.00     0.177 C 
ATOM     90  C   UNL A   1      32.477  16.262  25.344  1.00  0.00     0.177 C 
ATOM     91  O   UNL A   1      33.749  15.710  24.978  1.00  0.00    -0.379 OA
ENDBRANCH  84  86
ENDBRANCH  75  82
ENDBRANCH  72  74
ENDBRANCH  71  72
ENDBRANCH  70  71
ENDBRANCH  69  70
ENDBRANCH  68  69
ENDBRANCH  67  68
ENDBRANCH  66  67
ENDBRANCH   1  66
TORSDOF 22
ENDMDL
MODEL 3
REMARK VINA RESULT:     -10.6      4.885      9.152
REMARK SMILES O=C(OCCOCCOCCOCCOC(=O)[C@H]1[C@@H](C(=O)NN2CCOCC2)[C@H]2C=C[C@@H]1CC2)c1ccc(-c2c3nc(c(-c4c(F)cccc4F)c4ccc([nH]4)c(-c4c(F)cccc4F)c4nc(c(-c5c(F)cccc5F)c5ccc2[nH]5)C=C4)C=C3)cc1
REMARK SMILES IDX 9 1 8 2 7 3 6 4 5 5 4 6 3 7 2 8 1 9 35 10 36 11 88 12 37 13
REMARK SMILES IDX 87 14 38 15 39 16 40 17 81 18 41 19 86 20 80 21 82 22 42 23
REMARK SMILES IDX 85 24 79 25 78 26 43 28 69 29 52 30 68 31 53 32 56 33 67 34
REMARK SMILES IDX 83 35 54 36 55 37 66 39 84 40 57 41 44 42 45 43 50 44 46 45
REMARK SMILES IDX 47 46 49 47 51 48 48 49 70 50 71 51 76 52 72 53 73 54 75 55
REMARK SMILES IDX 77 56 74 57 58 58 59 59 64 60 60 61 61 62 63 63 65 64 62 65
REMARK SMILES IDX 10 66 11 67 12 68 13 69 14 70 15 71 16 72 17 73 18 74 19 75
REMARK SMILES IDX 32 76 29 77 31 78 33 79 30 80 34 81 20 82 21 83 22 84 23 86
REMARK SMILES IDX 24 87 28 88 25 89 27 90 26 91
REMARK H PARENT 82 27 56 38 22 85
REMARK Flexibility Score: inf
ROOT
ATOM      1  O   UNL A   1      32.942  28.228  22.259  1.00  0.00    -0.377 OA
ENDROOT
BRANCH   1   2
ATOM      2  C   UNL A   1      32.008  28.417  23.311  1.00  0.00     0.188 C 
BRANCH   2   3
ATOM      3  C   UNL A   1      32.525  27.901  24.649  1.00  0.00     0.188 C 
BRANCH   3   4
ATOM      4  O   UNL A   1      31.577  28.308  25.614  1.00  0.00    -0.376 OA
BRANCH   4   5
ATOM      5  C   UNL A   1      32.030  28.892  26.819  1.00  0.00     0.202 C 
BRANCH   5   6
ATOM      6  C   UNL A   1      31.800  30.390  26.860  1.00  0.00     0.261 C 
BRANCH   6   7
ATOM      7  O   UNL A   1      32.981  31.186  26.632  1.00  0.00    -0.460 OA
BRANCH   7   8
ATOM      8  C   UNL A   1      33.781  31.870  27.484  1.00  0.00     0.338 C 
ATOM      9  O   UNL A   1      33.414  32.981  27.864  1.00  0.00    -0.246 OA
BRANCH   8  10
ATOM     10  C   UNL A   1      35.035  31.332  28.083  1.00  0.00     0.060 A 
ATOM     11  C   UNL A   1      35.247  30.015  28.483  1.00  0.00     0.016 A 
ATOM     12  C   UNL A   1      36.132  32.206  28.136  1.00  0.00     0.016 A 
ATOM     13  C   UNL A   1      36.435  29.596  29.041  1.00  0.00     0.010 A 
ATOM     14  C   UNL A   1      37.363  31.782  28.645  1.00  0.00     0.010 A 
ATOM     15  C   UNL A   1      37.493  30.481  29.145  1.00  0.00    -0.014 A 
BRANCH  15  16
ATOM     16  C   UNL A   1      38.610  30.070  30.006  1.00  0.00     0.031 A 
ATOM     17  C   UNL A   1      39.676  29.234  29.370  1.00  0.00     0.074 A 
ATOM     18  C   UNL A   1      38.754  30.601  31.232  1.00  0.00     0.049 A 
ATOM     19  N   UNL A   1      40.687  28.622  29.916  1.00  0.00    -0.248 NA
ATOM     20  C   UNL A   1      39.588  29.065  27.907  1.00  0.00     0.031 C 
ATOM     21  C   UNL A   1      37.857  31.593  31.840  1.00  0.00     0.029 A 
ATOM     22  N   UNL A   1      39.731  30.420  32.168  1.00  0.00    -0.354 N 
ATOM     23  C   UNL A   1      41.305  27.936  28.880  1.00  0.00     0.074 A 
ATOM     24  C   UNL A   1      40.571  28.214  27.669  1.00  0.00     0.031 C 
ATOM     25  C   UNL A   1      38.348  31.952  33.036  1.00  0.00     0.029 A 
ATOM     26  C   UNL A   1      39.524  31.140  33.319  1.00  0.00     0.049 A 
ATOM     27  H   UNL A   1      40.508  29.832  32.032  1.00  0.00     0.167 HD
ATOM     28  C   UNL A   1      42.387  27.131  28.956  1.00  0.00     0.037 A 
ATOM     29  C   UNL A   1      40.185  31.087  34.488  1.00  0.00     0.037 A 
ATOM     30  C   UNL A   1      43.098  26.921  30.185  1.00  0.00     0.049 A 
ATOM     31  C   UNL A   1      41.324  30.108  34.583  1.00  0.00     0.074 A 
ATOM     32  C   UNL A   1      44.154  26.074  30.449  1.00  0.00     0.029 A 
ATOM     33  N   UNL A   1      42.812  27.596  31.368  1.00  0.00    -0.354 N 
ATOM     34  N   UNL A   1      41.831  29.338  33.646  1.00  0.00    -0.248 NA
ATOM     35  C   UNL A   1      41.960  29.960  35.895  1.00  0.00     0.031 C 
ATOM     36  C   UNL A   1      44.481  26.209  31.804  1.00  0.00     0.029 A 
ATOM     37  C   UNL A   1      43.664  27.179  32.370  1.00  0.00     0.049 A 
ATOM     38  H   UNL A   1      42.105  28.273  31.474  1.00  0.00     0.167 HD
ATOM     39  C   UNL A   1      42.855  28.625  34.248  1.00  0.00     0.074 A 
ATOM     40  C   UNL A   1      42.908  29.072  35.628  1.00  0.00     0.031 C 
ATOM     41  C   UNL A   1      43.674  27.679  33.724  1.00  0.00     0.037 A 
BRANCH  28  42
ATOM     42  C   UNL A   1      42.760  26.376  27.717  1.00  0.00     0.057 A 
ATOM     43  C   UNL A   1      43.622  26.897  26.743  1.00  0.00     0.134 A 
ATOM     44  C   UNL A   1      42.172  25.131  27.454  1.00  0.00     0.134 A 
ATOM     45  F   UNL A   1      44.187  28.103  26.909  1.00  0.00    -0.206 F 
ATOM     46  C   UNL A   1      43.861  26.224  25.542  1.00  0.00     0.040 A 
ATOM     47  C   UNL A   1      42.423  24.437  26.269  1.00  0.00     0.040 A 
ATOM     48  F   UNL A   1      41.323  24.580  28.334  1.00  0.00    -0.206 F 
ATOM     49  C   UNL A   1      43.261  24.988  25.303  1.00  0.00     0.006 A 
ENDBRANCH  28  42
BRANCH  29  50
ATOM     50  C   UNL A   1      39.742  31.898  35.652  1.00  0.00     0.057 A 
ATOM     51  C   UNL A   1      40.368  33.103  35.988  1.00  0.00     0.134 A 
ATOM     52  C   UNL A   1      38.681  31.483  36.471  1.00  0.00     0.134 A 
ATOM     53  F   UNL A   1      41.402  33.551  35.260  1.00  0.00    -0.206 F 
ATOM     54  C   UNL A   1      39.970  33.855  37.096  1.00  0.00     0.040 A 
ATOM     55  C   UNL A   1      38.250  32.240  37.563  1.00  0.00     0.040 A 
ATOM     56  F   UNL A   1      38.032  30.337  36.212  1.00  0.00    -0.206 F 
ATOM     57  C   UNL A   1      38.902  33.426  37.883  1.00  0.00     0.006 A 
ENDBRANCH  29  50
BRANCH  41  58
ATOM     58  C   UNL A   1      44.714  27.118  34.641  1.00  0.00     0.057 A 
ATOM     59  C   UNL A   1      45.939  27.761  34.848  1.00  0.00     0.134 A 
ATOM     60  C   UNL A   1      44.459  25.944  35.359  1.00  0.00     0.134 A 
ATOM     61  F   UNL A   1      46.243  28.881  34.174  1.00  0.00    -0.206 F 
ATOM     62  C   UNL A   1      46.887  27.242  35.728  1.00  0.00     0.040 A 
ATOM     63  C   UNL A   1      45.386  25.433  36.264  1.00  0.00     0.040 A 
ATOM     64  F   UNL A   1      43.296  25.291  35.208  1.00  0.00    -0.206 F 
ATOM     65  C   UNL A   1      46.607  26.079  36.445  1.00  0.00     0.006 A 
ENDBRANCH  41  58
ENDBRANCH  15  16
ENDBRANCH   8  10
ENDBRANCH   7   8
ENDBRANCH   6   7
ENDBRANCH   5   6
ENDBRANCH   4   5
ENDBRANCH   3   4
ENDBRANCH   2   3
ENDBRANCH   1   2
BRANCH   1  66
ATOM     66  C   UNL A   1      33.520  26.930  22.129  1.00  0.00     0.188 C 
BRANCH  66  67
ATOM     67  C   UNL A   1      32.795  25.866  21.319  1.00  0.00     0.188 C 
BRANCH  67  68
ATOM     68  O   UNL A   1      32.291  24.775  22.049  1.00  0.00    -0.376 OA
BRANCH  68  69
ATOM     69  C   UNL A   1      31.152  24.992  22.876  1.00  0.00     0.202 C 
BRANCH  69  70
ATOM     70  C   UNL A   1      30.787  24.098  24.093  1.00  0.00     0.261 C 
BRANCH  70  71
ATOM     71  O   UNL A   1      31.620  24.195  25.280  1.00  0.00    -0.463 OA
BRANCH  71  72
ATOM     72  C   UNL A   1      32.077  23.023  25.795  1.00  0.00     0.310 C 
ATOM     73  O   UNL A   1      31.334  22.169  26.290  1.00  0.00    -0.252 OA
BRANCH  72  74
ATOM     74  C   UNL A   1      33.596  22.792  25.788  1.00  0.00     0.119 C 
ATOM     75  C   UNL A   1      34.043  21.502  25.005  1.00  0.00     0.101 C 
ATOM     76  C   UNL A   1      34.642  23.935  25.553  1.00  0.00     0.026 C 
ATOM     77  C   UNL A   1      35.420  21.759  24.328  1.00  0.00     0.025 C 
ATOM     78  C   UNL A   1      35.020  24.106  24.095  1.00  0.00    -0.027 C 
ATOM     79  C   UNL A   1      35.986  23.436  26.167  1.00  0.00     0.009 C 
ATOM     80  C   UNL A   1      35.375  22.985  23.451  1.00  0.00    -0.027 C 
ATOM     81  C   UNL A   1      36.430  22.122  25.455  1.00  0.00     0.009 C 
BRANCH  75  82
ATOM     82  C   UNL A   1      33.044  20.863  24.032  1.00  0.00     0.238 C 
ATOM     83  O   UNL A   1      32.507  21.505  23.126  1.00  0.00    -0.273 OA
ATOM     84  N   UNL A   1      32.731  19.525  24.081  1.00  0.00    -0.288 N 
ATOM     85  H   UNL A   1      31.930  19.263  23.571  1.00  0.00     0.185 HD
BRANCH  84  86
ATOM     86  N   UNL A   1      33.369  18.499  24.738  1.00  0.00    -0.217 NA
ATOM     87  C   UNL A   1      34.559  17.868  24.196  1.00  0.00     0.136 C 
ATOM     88  C   UNL A   1      32.680  17.757  25.776  1.00  0.00     0.136 C 
ATOM     89  C   UNL A   1      34.307  16.396  23.837  1.00  0.00     0.177 C 
ATOM     90  C   UNL A   1      32.430  16.320  25.316  1.00  0.00     0.177 C 
ATOM     91  O   UNL A   1      33.639  15.678  24.889  1.00  0.00    -0.379 OA
ENDBRANCH  84  86
ENDBRANCH  75  82
ENDBRANCH  72  74
ENDBRANCH  71  72
ENDBRANCH  70  71
ENDBRANCH  69  70
ENDBRANCH  68  69
ENDBRANCH  67  68
ENDBRANCH  66  67
ENDBRANCH   1  66
TORSDOF 22
ENDMDL
