MODEL 1
REMARK VINA RESULT:      -8.5      0.000      0.000
REMARK SMILES CC[C@H](C)[C@H](NC(=O)[C@@H](C)Oc1ccc2c(C)c(C)c(=O)oc2c1C)C(=O)OCCOCCOCCOCCOC(=O)c1ccc(-c2c3nc(c(-c4c(F)cccc4F)c4ccc([nH]4)c(-c4c(F)cccc4F)c4nc(c(-c5c(F)cccc5F)c5ccc2[nH]5)C=C4)C=C3)cc1
REMARK SMILES IDX 33 1 32 2 31 3 30 4 29 5 28 6 26 7 27 8 5 9 3 10 4 11 2 12
REMARK SMILES IDX 1 13 6 14 7 15 8 17 9 18 10 19 11 20 12 21 13 22 24 23 14 24
REMARK SMILES IDX 23 25 25 26 15 27 22 28 16 29 20 30 17 31 18 32 21 33 19 34
REMARK SMILES IDX 34 35 35 36 36 37 37 38 38 39 39 40 40 41 41 42 42 43 43 44
REMARK SMILES IDX 44 45 96 46 45 47 95 48 46 49 47 50 48 51 89 52 49 53 94 54
REMARK SMILES IDX 88 55 90 56 50 57 93 58 87 59 86 60 51 62 77 63 60 64 76 65
REMARK SMILES IDX 61 66 64 67 75 68 91 69 62 70 63 71 74 73 92 74 65 75 52 76
REMARK SMILES IDX 53 77 58 78 54 79 55 80 57 81 59 82 56 83 78 84 79 85 84 86
REMARK SMILES IDX 80 87 81 88 83 89 85 90 82 91 66 92 67 93 72 94 68 95 69 96
REMARK SMILES IDX 71 97 73 98 70 99
REMARK H PARENT 6 16 90 61 64 72
REMARK Flexibility Score: inf
ROOT
ATOM      1  C   UNL A   1      37.921  28.883  28.932  1.00  0.00     0.188 C 
ENDROOT
BRANCH   1   2
ATOM      2  C   UNL A   1      39.445  28.057  28.877  1.00  0.00     0.188 C 
BRANCH   2   3
ATOM      3  O   UNL A   1      40.001  27.203  27.816  1.00  0.00    -0.376 OA
BRANCH   3   4
ATOM      4  C   UNL A   1      40.601  25.876  27.732  1.00  0.00     0.202 C 
BRANCH   4   5
ATOM      5  C   UNL A   1      40.265  25.162  26.382  1.00  0.00     0.261 C 
BRANCH   5   6
ATOM      6  O   UNL A   1      40.110  23.771  26.614  1.00  0.00    -0.462 OA
BRANCH   6   7
ATOM      7  C   UNL A   1      38.787  23.474  26.570  1.00  0.00     0.328 C 
ATOM      8  O   UNL A   1      37.955  24.018  27.298  1.00  0.00    -0.250 OA
BRANCH   7   9
ATOM      9  C   UNL A   1      38.450  22.530  25.411  1.00  0.00     0.195 C 
BRANCH   9  10
ATOM     10  C   UNL A   1      36.953  22.855  25.022  1.00  0.00     0.019 C 
ATOM     11  C   UNL A   1      36.839  22.893  23.465  1.00  0.00     0.010 C 
BRANCH  10  12
ATOM     12  C   UNL A   1      35.791  21.989  25.536  1.00  0.00     0.002 C 
ATOM     13  C   UNL A   1      34.678  21.690  24.549  1.00  0.00     0.004 C 
ENDBRANCH  10  12
ENDBRANCH   9  10
BRANCH   9  14
ATOM     14  N   UNL A   1      38.890  21.123  25.687  1.00  0.00    -0.339 N 
ATOM     15  C   UNL A   1      40.037  20.436  26.026  1.00  0.00     0.261 C 
ATOM     16  H   UNL A   1      38.131  20.502  25.598  1.00  0.00     0.164 HD
ATOM     17  O   UNL A   1      39.866  19.220  25.765  1.00  0.00    -0.271 OA
BRANCH  15  18
ATOM     18  C   UNL A   1      41.619  20.804  26.814  1.00  0.00     0.258 C 
ATOM     19  C   UNL A   1      42.379  19.454  26.649  1.00  0.00     0.064 C 
BRANCH  18  20
ATOM     20  O   UNL A   1      42.638  21.808  27.528  1.00  0.00    -0.480 OA
BRANCH  20  21
ATOM     21  C   UNL A   1      43.576  22.842  27.226  1.00  0.00     0.127 A 
ATOM     22  C   UNL A   1      43.583  23.934  28.107  1.00  0.00     0.047 A 
ATOM     23  C   UNL A   1      44.674  22.926  26.283  1.00  0.00     0.035 A 
ATOM     24  C   UNL A   1      44.217  25.178  27.822  1.00  0.00     0.016 A 
ATOM     25  C   UNL A   1      45.281  24.196  26.008  1.00  0.00     0.145 A 
ATOM     26  C   UNL A   1      45.416  21.899  25.441  1.00  0.00     0.052 C 
ATOM     27  C   UNL A   1      45.009  25.355  26.690  1.00  0.00     0.021 A 
ATOM     28  O   UNL A   1      46.252  24.219  24.967  1.00  0.00    -0.422 OA
ATOM     29  C   UNL A   1      45.582  26.620  26.183  1.00  0.00    -0.030 A 
ATOM     30  C   UNL A   1      46.999  25.323  24.634  1.00  0.00     0.339 A 
ATOM     31  C   UNL A   1      44.989  27.893  26.713  1.00  0.00     0.045 C 
ATOM     32  C   UNL A   1      46.529  26.602  25.213  1.00  0.00     0.038 A 
ATOM     33  O   UNL A   1      47.946  25.240  23.855  1.00  0.00    -0.246 OA
ATOM     34  C   UNL A   1      47.164  27.822  24.604  1.00  0.00     0.052 C 
ENDBRANCH  20  21
ENDBRANCH  18  20
ENDBRANCH  15  18
ENDBRANCH   9  14
ENDBRANCH   7   9
ENDBRANCH   6   7
ENDBRANCH   5   6
ENDBRANCH   4   5
ENDBRANCH   3   4
ENDBRANCH   2   3
ENDBRANCH   1   2
BRANCH   1  35
ATOM     35  O   UNL A   1      37.727  30.240  28.496  1.00  0.00    -0.377 OA
BRANCH  35  36
ATOM     36  C   UNL A   1      37.888  31.556  29.107  1.00  0.00     0.188 C 
BRANCH  36  37
ATOM     37  C   UNL A   1      36.469  32.330  29.187  1.00  0.00     0.188 C 
BRANCH  37  38
ATOM     38  O   UNL A   1      35.376  31.806  29.905  1.00  0.00    -0.376 OA
BRANCH  38  39
ATOM     39  C   UNL A   1      34.679  32.649  30.824  1.00  0.00     0.202 C 
BRANCH  39  40
ATOM     40  C   UNL A   1      35.636  32.965  31.977  1.00  0.00     0.261 C 
BRANCH  40  41
ATOM     41  O   UNL A   1      36.032  31.746  32.649  1.00  0.00    -0.460 OA
BRANCH  41  42
ATOM     42  C   UNL A   1      36.857  31.950  33.695  1.00  0.00     0.338 C 
ATOM     43  O   UNL A   1      36.617  32.676  34.681  1.00  0.00    -0.246 OA
BRANCH  42  44
ATOM     44  C   UNL A   1      37.983  31.005  33.653  1.00  0.00     0.060 A 
ATOM     45  C   UNL A   1      39.121  31.262  34.441  1.00  0.00     0.016 A 
ATOM     46  C   UNL A   1      37.954  29.913  32.784  1.00  0.00     0.016 A 
ATOM     47  C   UNL A   1      40.286  30.529  34.246  1.00  0.00     0.010 A 
ATOM     48  C   UNL A   1      39.130  29.200  32.560  1.00  0.00     0.010 A 
ATOM     49  C   UNL A   1      40.315  29.580  33.216  1.00  0.00    -0.014 A 
BRANCH  49  50
ATOM     50  C   UNL A   1      41.600  29.340  32.519  1.00  0.00     0.031 A 
ATOM     51  C   UNL A   1      42.431  28.181  33.017  1.00  0.00     0.074 A 
ATOM     52  C   UNL A   1      42.030  30.122  31.519  1.00  0.00     0.049 A 
ATOM     53  N   UNL A   1      43.605  27.762  32.621  1.00  0.00    -0.248 NA
ATOM     54  C   UNL A   1      41.856  27.385  34.118  1.00  0.00     0.031 C 
ATOM     55  C   UNL A   1      41.301  31.248  30.943  1.00  0.00     0.029 A 
ATOM     56  N   UNL A   1      43.210  30.086  30.822  1.00  0.00    -0.354 N 
ATOM     57  C   UNL A   1      43.886  26.647  33.405  1.00  0.00     0.074 A 
ATOM     58  C   UNL A   1      42.786  26.471  34.321  1.00  0.00     0.031 C 
ATOM     59  C   UNL A   1      42.063  31.812  29.987  1.00  0.00     0.029 A 
ATOM     60  C   UNL A   1      43.336  31.098  29.906  1.00  0.00     0.049 A 
ATOM     61  H   UNL A   1      43.901  29.399  30.965  1.00  0.00     0.167 HD
ATOM     62  C   UNL A   1      44.966  25.834  33.367  1.00  0.00     0.037 A 
ATOM     63  C   UNL A   1      44.377  31.411  29.112  1.00  0.00     0.037 A 
ATOM     64  C   UNL A   1      46.092  26.052  32.508  1.00  0.00     0.049 A 
ATOM     65  C   UNL A   1      45.622  30.561  29.167  1.00  0.00     0.074 A 
ATOM     66  C   UNL A   1      47.257  25.318  32.401  1.00  0.00     0.029 A 
ATOM     67  N   UNL A   1      46.196  27.112  31.620  1.00  0.00    -0.354 N 
ATOM     68  N   UNL A   1      45.861  29.485  29.879  1.00  0.00    -0.248 NA
ATOM     69  C   UNL A   1      46.742  30.973  28.310  1.00  0.00     0.031 C 
ATOM     70  C   UNL A   1      48.087  25.960  31.476  1.00  0.00     0.029 A 
ATOM     71  C   UNL A   1      47.419  27.069  30.977  1.00  0.00     0.049 A 
ATOM     72  H   UNL A   1      45.501  27.794  31.469  1.00  0.00     0.167 HD
ATOM     73  C   UNL A   1      47.145  29.077  29.538  1.00  0.00     0.074 A 
ATOM     74  C   UNL A   1      47.629  30.018  28.547  1.00  0.00     0.031 C 
ATOM     75  C   UNL A   1      47.864  28.023  29.996  1.00  0.00     0.037 A 
BRANCH  62  76
ATOM     76  C   UNL A   1      44.971  24.675  34.317  1.00  0.00     0.057 A 
ATOM     77  C   UNL A   1      44.471  23.427  33.931  1.00  0.00     0.134 A 
ATOM     78  C   UNL A   1      45.516  24.785  35.604  1.00  0.00     0.134 A 
ATOM     79  F   UNL A   1      43.948  23.252  32.709  1.00  0.00    -0.206 F 
ATOM     80  C   UNL A   1      44.516  22.327  34.790  1.00  0.00     0.040 A 
ATOM     81  C   UNL A   1      45.587  23.688  36.464  1.00  0.00     0.040 A 
ATOM     82  F   UNL A   1      46.038  25.948  36.024  1.00  0.00    -0.206 F 
ATOM     83  C   UNL A   1      45.082  22.454  36.057  1.00  0.00     0.006 A 
ENDBRANCH  62  76
BRANCH  63  84
ATOM     84  C   UNL A   1      44.304  32.583  28.203  1.00  0.00     0.057 A 
ATOM     85  C   UNL A   1      44.570  33.879  28.657  1.00  0.00     0.134 A 
ATOM     86  C   UNL A   1      43.997  32.426  26.846  1.00  0.00     0.134 A 
ATOM     87  F   UNL A   1      44.876  34.096  29.945  1.00  0.00    -0.206 F 
ATOM     88  C   UNL A   1      44.533  34.978  27.797  1.00  0.00     0.040 A 
ATOM     89  C   UNL A   1      43.976  33.513  25.970  1.00  0.00     0.040 A 
ATOM     90  F   UNL A   1      43.757  31.206  26.345  1.00  0.00    -0.206 F 
ATOM     91  C   UNL A   1      44.241  34.795  26.447  1.00  0.00     0.006 A 
ENDBRANCH  63  84
BRANCH  75  92
ATOM     92  C   UNL A   1      49.228  27.822  29.409  1.00  0.00     0.057 A 
ATOM     93  C   UNL A   1      50.327  28.531  29.906  1.00  0.00     0.134 A 
ATOM     94  C   UNL A   1      49.443  26.961  28.326  1.00  0.00     0.134 A 
ATOM     95  F   UNL A   1      50.182  29.381  30.935  1.00  0.00    -0.206 F 
ATOM     96  C   UNL A   1      51.596  28.392  29.346  1.00  0.00     0.040 A 
ATOM     97  C   UNL A   1      50.712  26.796  27.772  1.00  0.00     0.040 A 
ATOM     98  F   UNL A   1      48.430  26.247  27.813  1.00  0.00    -0.206 F 
ATOM     99  C   UNL A   1      51.792  27.518  28.279  1.00  0.00     0.006 A 
ENDBRANCH  75  92
ENDBRANCH  49  50
ENDBRANCH  42  44
ENDBRANCH  41  42
ENDBRANCH  40  41
ENDBRANCH  39  40
ENDBRANCH  38  39
ENDBRANCH  37  38
ENDBRANCH  36  37
ENDBRANCH  35  36
ENDBRANCH   1  35
TORSDOF 26
ENDMDL
MODEL 2
REMARK VINA RESULT:      -7.8      4.508     11.853
REMARK SMILES CC[C@H](C)[C@H](NC(=O)[C@@H](C)Oc1ccc2c(C)c(C)c(=O)oc2c1C)C(=O)OCCOCCOCCOCCOC(=O)c1ccc(-c2c3nc(c(-c4c(F)cccc4F)c4ccc([nH]4)c(-c4c(F)cccc4F)c4nc(c(-c5c(F)cccc5F)c5ccc2[nH]5)C=C4)C=C3)cc1
REMARK SMILES IDX 33 1 32 2 31 3 30 4 29 5 28 6 26 7 27 8 5 9 3 10 4 11 2 12
REMARK SMILES IDX 1 13 6 14 7 15 8 17 9 18 10 19 11 20 12 21 13 22 24 23 14 24
REMARK SMILES IDX 23 25 25 26 15 27 22 28 16 29 20 30 17 31 18 32 21 33 19 34
REMARK SMILES IDX 34 35 35 36 36 37 37 38 38 39 39 40 40 41 41 42 42 43 43 44
REMARK SMILES IDX 44 45 96 46 45 47 95 48 46 49 47 50 48 51 89 52 49 53 94 54
REMARK SMILES IDX 88 55 90 56 50 57 93 58 87 59 86 60 51 62 77 63 60 64 76 65
REMARK SMILES IDX 61 66 64 67 75 68 91 69 62 70 63 71 74 73 92 74 65 75 52 76
REMARK SMILES IDX 53 77 58 78 54 79 55 80 57 81 59 82 56 83 78 84 79 85 84 86
REMARK SMILES IDX 80 87 81 88 83 89 85 90 82 91 66 92 67 93 72 94 68 95 69 96
REMARK SMILES IDX 71 97 73 98 70 99
REMARK H PARENT 6 16 90 61 64 72
REMARK Flexibility Score: inf
ROOT
ATOM      1  C   UNL A   1      41.275  33.813  31.489  1.00  0.00     0.188 C 
ENDROOT
BRANCH   1   2
ATOM      2  C   UNL A   1      40.502  33.794  33.042  1.00  0.00     0.188 C 
BRANCH   2   3
ATOM      3  O   UNL A   1      40.939  34.411  34.304  1.00  0.00    -0.376 OA
BRANCH   3   4
ATOM      4  C   UNL A   1      41.053  35.764  34.835  1.00  0.00     0.202 C 
BRANCH   4   5
ATOM      5  C   UNL A   1      40.025  36.035  35.982  1.00  0.00     0.261 C 
BRANCH   5   6
ATOM      6  O   UNL A   1      40.717  36.496  37.132  1.00  0.00    -0.462 OA
BRANCH   6   7
ATOM      7  C   UNL A   1      41.337  35.439  37.713  1.00  0.00     0.328 C 
ATOM      8  O   UNL A   1      42.499  35.486  38.120  1.00  0.00    -0.250 OA
BRANCH   7   9
ATOM      9  C   UNL A   1      40.375  34.269  37.948  1.00  0.00     0.195 C 
BRANCH   9  10
ATOM     10  C   UNL A   1      40.034  34.304  39.490  1.00  0.00     0.019 C 
ATOM     11  C   UNL A   1      39.134  35.547  39.776  1.00  0.00     0.010 C 
BRANCH  10  12
ATOM     12  C   UNL A   1      39.375  33.102  40.188  1.00  0.00     0.002 C 
ATOM     13  C   UNL A   1      37.870  32.971  40.038  1.00  0.00     0.004 C 
ENDBRANCH  10  12
ENDBRANCH   9  10
BRANCH   9  14
ATOM     14  N   UNL A   1      40.853  33.009  37.289  1.00  0.00    -0.339 N 
ATOM     15  C   UNL A   1      40.334  31.923  36.616  1.00  0.00     0.261 C 
ATOM     16  H   UNL A   1      41.832  32.936  37.357  1.00  0.00     0.164 HD
ATOM     17  O   UNL A   1      41.193  31.006  36.617  1.00  0.00    -0.271 OA
BRANCH  15  18
ATOM     18  C   UNL A   1      38.840  31.530  35.683  1.00  0.00     0.258 C 
ATOM     19  C   UNL A   1      37.826  31.212  36.822  1.00  0.00     0.064 C 
BRANCH  18  20
ATOM     20  O   UNL A   1      38.028  31.403  34.311  1.00  0.00    -0.480 OA
BRANCH  20  21
ATOM     21  C   UNL A   1      36.961  32.021  33.589  1.00  0.00     0.127 A 
ATOM     22  C   UNL A   1      36.467  31.294  32.495  1.00  0.00     0.047 A 
ATOM     23  C   UNL A   1      36.138  33.184  33.858  1.00  0.00     0.035 A 
ATOM     24  C   UNL A   1      35.628  31.853  31.487  1.00  0.00     0.016 A 
ATOM     25  C   UNL A   1      35.315  33.729  32.817  1.00  0.00     0.145 A 
ATOM     26  C   UNL A   1      35.905  34.043  35.090  1.00  0.00     0.052 C 
ATOM     27  C   UNL A   1      35.114  33.142  31.593  1.00  0.00     0.021 A 
ATOM     28  O   UNL A   1      34.651  34.953  33.113  1.00  0.00    -0.422 OA
ATOM     29  C   UNL A   1      34.381  33.905  30.560  1.00  0.00    -0.030 A 
ATOM     30  C   UNL A   1      33.753  35.566  32.274  1.00  0.00     0.339 A 
ATOM     31  C   UNL A   1      34.488  33.409  29.148  1.00  0.00     0.045 C 
ATOM     32  C   UNL A   1      33.732  35.049  30.887  1.00  0.00     0.038 A 
ATOM     33  O   UNL A   1      33.074  36.518  32.653  1.00  0.00    -0.246 OA
ATOM     34  C   UNL A   1      32.976  35.919  29.919  1.00  0.00     0.052 C 
ENDBRANCH  20  21
ENDBRANCH  18  20
ENDBRANCH  15  18
ENDBRANCH   9  14
ENDBRANCH   7   9
ENDBRANCH   6   7
ENDBRANCH   5   6
ENDBRANCH   4   5
ENDBRANCH   3   4
ENDBRANCH   2   3
ENDBRANCH   1   2
BRANCH   1  35
ATOM     35  O   UNL A   1      41.017  32.849  30.453  1.00  0.00    -0.377 OA
BRANCH  35  36
ATOM     36  C   UNL A   1      40.044  31.779  30.253  1.00  0.00     0.188 C 
BRANCH  36  37
ATOM     37  C   UNL A   1      40.787  30.351  30.084  1.00  0.00     0.188 C 
BRANCH  37  38
ATOM     38  O   UNL A   1      40.465  29.465  29.038  1.00  0.00    -0.376 OA
BRANCH  38  39
ATOM     39  C   UNL A   1      40.028  28.142  29.355  1.00  0.00     0.202 C 
BRANCH  39  40
ATOM     40  C   UNL A   1      39.217  27.626  28.162  1.00  0.00     0.261 C 
BRANCH  40  41
ATOM     41  O   UNL A   1      40.058  27.529  26.988  1.00  0.00    -0.460 OA
BRANCH  41  42
ATOM     42  C   UNL A   1      40.572  26.299  26.793  1.00  0.00     0.338 C 
ATOM     43  O   UNL A   1      39.917  25.270  26.528  1.00  0.00    -0.246 OA
BRANCH  42  44
ATOM     44  C   UNL A   1      42.037  26.365  26.679  1.00  0.00     0.060 A 
ATOM     45  C   UNL A   1      42.816  26.309  27.850  1.00  0.00     0.016 A 
ATOM     46  C   UNL A   1      42.638  26.560  25.435  1.00  0.00     0.016 A 
ATOM     47  C   UNL A   1      44.173  26.609  27.800  1.00  0.00     0.010 A 
ATOM     48  C   UNL A   1      43.989  26.896  25.386  1.00  0.00     0.010 A 
ATOM     49  C   UNL A   1      44.723  27.020  26.579  1.00  0.00    -0.014 A 
BRANCH  49  50
ATOM     50  C   UNL A   1      45.845  27.988  26.605  1.00  0.00     0.031 A 
ATOM     51  C   UNL A   1      45.473  29.450  26.688  1.00  0.00     0.074 A 
ATOM     52  C   UNL A   1      47.126  27.603  26.526  1.00  0.00     0.049 A 
ATOM     53  N   UNL A   1      46.239  30.510  26.693  1.00  0.00    -0.248 NA
ATOM     54  C   UNL A   1      44.033  29.757  26.778  1.00  0.00     0.031 C 
ATOM     55  C   UNL A   1      47.599  26.223  26.468  1.00  0.00     0.029 A 
ATOM     56  N   UNL A   1      48.268  28.359  26.465  1.00  0.00    -0.354 N 
ATOM     57  C   UNL A   1      45.375  31.593  26.812  1.00  0.00     0.074 A 
ATOM     58  C   UNL A   1      44.029  31.076  26.841  1.00  0.00     0.031 C 
ATOM     59  C   UNL A   1      48.941  26.231  26.358  1.00  0.00     0.029 A 
ATOM     60  C   UNL A   1      49.410  27.615  26.316  1.00  0.00     0.049 A 
ATOM     61  H   UNL A   1      48.267  29.342  26.521  1.00  0.00     0.167 HD
ATOM     62  C   UNL A   1      45.672  32.910  26.892  1.00  0.00     0.037 A 
ATOM     63  C   UNL A   1      50.682  28.022  26.148  1.00  0.00     0.037 A 
ATOM     64  C   UNL A   1      47.004  33.430  26.789  1.00  0.00     0.049 A 
ATOM     65  C   UNL A   1      50.981  29.500  26.124  1.00  0.00     0.074 A 
ATOM     66  C   UNL A   1      47.427  34.744  26.824  1.00  0.00     0.029 A 
ATOM     67  N   UNL A   1      48.129  32.644  26.602  1.00  0.00    -0.354 N 
ATOM     68  N   UNL A   1      50.164  30.515  26.279  1.00  0.00    -0.248 NA
ATOM     69  C   UNL A   1      52.380  29.887  25.895  1.00  0.00     0.031 C 
ATOM     70  C   UNL A   1      48.810  34.756  26.615  1.00  0.00     0.029 A 
ATOM     71  C   UNL A   1      49.250  33.445  26.493  1.00  0.00     0.049 A 
ATOM     72  H   UNL A   1      48.131  31.660  26.555  1.00  0.00     0.167 HD
ATOM     73  C   UNL A   1      50.951  31.657  26.194  1.00  0.00     0.074 A 
ATOM     74  C   UNL A   1      52.312  31.208  25.983  1.00  0.00     0.031 C 
ATOM     75  C   UNL A   1      50.589  32.961  26.284  1.00  0.00     0.037 A 
BRANCH  62  76
ATOM     76  C   UNL A   1      44.518  33.853  27.058  1.00  0.00     0.057 A 
ATOM     77  C   UNL A   1      44.079  34.235  28.330  1.00  0.00     0.134 A 
ATOM     78  C   UNL A   1      43.871  34.419  25.951  1.00  0.00     0.134 A 
ATOM     79  F   UNL A   1      44.665  33.740  29.430  1.00  0.00    -0.206 F 
ATOM     80  C   UNL A   1      43.038  35.151  28.496  1.00  0.00     0.040 A 
ATOM     81  C   UNL A   1      42.844  35.352  26.104  1.00  0.00     0.040 A 
ATOM     82  F   UNL A   1      44.264  34.115  24.704  1.00  0.00    -0.206 F 
ATOM     83  C   UNL A   1      42.423  35.718  27.382  1.00  0.00     0.006 A 
ENDBRANCH  62  76
BRANCH  63  84
ATOM     84  C   UNL A   1      51.773  27.029  25.979  1.00  0.00     0.057 A 
ATOM     85  C   UNL A   1      52.495  26.541  27.074  1.00  0.00     0.134 A 
ATOM     86  C   UNL A   1      52.094  26.519  24.715  1.00  0.00     0.134 A 
ATOM     87  F   UNL A   1      52.231  26.985  28.311  1.00  0.00    -0.206 F 
ATOM     88  C   UNL A   1      53.499  25.584  26.920  1.00  0.00     0.040 A 
ATOM     89  C   UNL A   1      53.083  25.546  24.549  1.00  0.00     0.040 A 
ATOM     90  F   UNL A   1      51.421  26.928  23.631  1.00  0.00    -0.206 F 
ATOM     91  C   UNL A   1      53.791  25.079  25.654  1.00  0.00     0.006 A 
ENDBRANCH  63  84
BRANCH  75  92
ATOM     92  C   UNL A   1      51.682  33.980  26.181  1.00  0.00     0.057 A 
ATOM     93  C   UNL A   1      52.242  34.540  27.336  1.00  0.00     0.134 A 
ATOM     94  C   UNL A   1      52.150  34.435  24.942  1.00  0.00     0.134 A 
ATOM     95  F   UNL A   1      51.828  34.153  28.552  1.00  0.00    -0.206 F 
ATOM     96  C   UNL A   1      53.230  35.521  27.262  1.00  0.00     0.040 A 
ATOM     97  C   UNL A   1      53.154  35.400  24.857  1.00  0.00     0.040 A 
ATOM     98  F   UNL A   1      51.659  33.928  23.802  1.00  0.00    -0.206 F 
ATOM     99  C   UNL A   1      53.692  35.949  26.019  1.00  0.00     0.006 A 
ENDBRANCH  75  92
ENDBRANCH  49  50
ENDBRANCH  42  44
ENDBRANCH  41  42
ENDBRANCH  40  41
ENDBRANCH  39  40
ENDBRANCH  38  39
ENDBRANCH  37  38
ENDBRANCH  36  37
ENDBRANCH  35  36
ENDBRANCH   1  35
TORSDOF 26
ENDMDL
MODEL 3
REMARK VINA RESULT:      -7.6      3.046      9.882
REMARK SMILES CC[C@H](C)[C@H](NC(=O)[C@@H](C)Oc1ccc2c(C)c(C)c(=O)oc2c1C)C(=O)OCCOCCOCCOCCOC(=O)c1ccc(-c2c3nc(c(-c4c(F)cccc4F)c4ccc([nH]4)c(-c4c(F)cccc4F)c4nc(c(-c5c(F)cccc5F)c5ccc2[nH]5)C=C4)C=C3)cc1
REMARK SMILES IDX 33 1 32 2 31 3 30 4 29 5 28 6 26 7 27 8 5 9 3 10 4 11 2 12
REMARK SMILES IDX 1 13 6 14 7 15 8 17 9 18 10 19 11 20 12 21 13 22 24 23 14 24
REMARK SMILES IDX 23 25 25 26 15 27 22 28 16 29 20 30 17 31 18 32 21 33 19 34
REMARK SMILES IDX 34 35 35 36 36 37 37 38 38 39 39 40 40 41 41 42 42 43 43 44
REMARK SMILES IDX 44 45 96 46 45 47 95 48 46 49 47 50 48 51 89 52 49 53 94 54
REMARK SMILES IDX 88 55 90 56 50 57 93 58 87 59 86 60 51 62 77 63 60 64 76 65
REMARK SMILES IDX 61 66 64 67 75 68 91 69 62 70 63 71 74 73 92 74 65 75 52 76
REMARK SMILES IDX 53 77 58 78 54 79 55 80 57 81 59 82 56 83 78 84 79 85 84 86
REMARK SMILES IDX 80 87 81 88 83 89 85 90 82 91 66 92 67 93 72 94 68 95 69 96
REMARK SMILES IDX 71 97 73 98 70 99
REMARK H PARENT 6 16 90 61 64 72
REMARK Flexibility Score: inf
ROOT
ATOM      1  C   UNL A   1      50.625  28.249  26.303  1.00  0.00     0.188 C 
ENDROOT
BRANCH   1   2
ATOM      2  C   UNL A   1      48.938  28.597  26.100  1.00  0.00     0.188 C 
BRANCH   2   3
ATOM      3  O   UNL A   1      48.003  28.098  25.079  1.00  0.00    -0.376 OA
BRANCH   3   4
ATOM      4  C   UNL A   1      47.032  27.016  24.974  1.00  0.00     0.202 C 
BRANCH   4   5
ATOM      5  C   UNL A   1      45.569  27.549  24.827  1.00  0.00     0.261 C 
BRANCH   5   6
ATOM      6  O   UNL A   1      44.672  26.631  25.430  1.00  0.00    -0.462 OA
BRANCH   6   7
ATOM      7  C   UNL A   1      43.440  27.197  25.470  1.00  0.00     0.328 C 
ATOM      8  O   UNL A   1      43.031  27.969  24.600  1.00  0.00    -0.250 OA
BRANCH   7   9
ATOM      9  C   UNL A   1      42.587  26.633  26.610  1.00  0.00     0.195 C 
BRANCH   9  10
ATOM     10  C   UNL A   1      43.210  27.222  27.937  1.00  0.00     0.019 C 
ATOM     11  C   UNL A   1      42.414  26.660  29.157  1.00  0.00     0.010 C 
BRANCH  10  12
ATOM     12  C   UNL A   1      44.704  27.051  28.259  1.00  0.00     0.002 C 
ATOM     13  C   UNL A   1      45.050  26.124  29.410  1.00  0.00     0.004 C 
ENDBRANCH  10  12
ENDBRANCH   9  10
BRANCH   9  14
ATOM     14  N   UNL A   1      42.345  25.161  26.455  1.00  0.00    -0.339 N 
ATOM     15  C   UNL A   1      41.300  24.263  26.519  1.00  0.00     0.261 C 
ATOM     16  H   UNL A   1      43.187  24.696  26.245  1.00  0.00     0.164 HD
ATOM     17  O   UNL A   1      41.775  23.108  26.656  1.00  0.00    -0.271 OA
BRANCH  15  18
ATOM     18  C   UNL A   1      39.503  24.305  26.358  1.00  0.00     0.258 C 
ATOM     19  C   UNL A   1      39.107  25.317  27.475  1.00  0.00     0.064 C 
BRANCH  18  20
ATOM     20  O   UNL A   1      38.144  23.887  25.628  1.00  0.00    -0.480 OA
BRANCH  20  21
ATOM     21  C   UNL A   1      37.156  22.855  25.623  1.00  0.00     0.127 A 
ATOM     22  C   UNL A   1      37.646  21.544  25.730  1.00  0.00     0.047 A 
ATOM     23  C   UNL A   1      35.710  22.880  25.713  1.00  0.00     0.035 A 
ATOM     24  C   UNL A   1      36.869  20.383  25.449  1.00  0.00     0.016 A 
ATOM     25  C   UNL A   1      34.957  21.697  25.409  1.00  0.00     0.145 A 
ATOM     26  C   UNL A   1      34.700  23.951  26.093  1.00  0.00     0.052 C 
ATOM     27  C   UNL A   1      35.505  20.460  25.180  1.00  0.00     0.021 A 
ATOM     28  O   UNL A   1      33.541  21.841  25.378  1.00  0.00    -0.422 OA
ATOM     29  C   UNL A   1      34.619  19.375  24.710  1.00  0.00    -0.030 A 
ATOM     30  C   UNL A   1      32.664  20.799  25.199  1.00  0.00     0.339 A 
ATOM     31  C   UNL A   1      35.283  18.162  24.128  1.00  0.00     0.045 C 
ATOM     32  C   UNL A   1      33.273  19.535  24.726  1.00  0.00     0.038 A 
ATOM     33  O   UNL A   1      31.455  20.948  25.363  1.00  0.00    -0.246 OA
ATOM     34  C   UNL A   1      32.276  18.514  24.251  1.00  0.00     0.052 C 
ENDBRANCH  20  21
ENDBRANCH  18  20
ENDBRANCH  15  18
ENDBRANCH   9  14
ENDBRANCH   7   9
ENDBRANCH   6   7
ENDBRANCH   5   6
ENDBRANCH   4   5
ENDBRANCH   3   4
ENDBRANCH   2   3
ENDBRANCH   1   2
BRANCH   1  35
ATOM     35  O   UNL A   1      51.483  27.792  25.242  1.00  0.00    -0.377 OA
BRANCH  35  36
ATOM     36  C   UNL A   1      52.814  28.149  24.761  1.00  0.00     0.188 C 
BRANCH  36  37
ATOM     37  C   UNL A   1      53.673  26.822  24.412  1.00  0.00     0.188 C 
BRANCH  37  38
ATOM     38  O   UNL A   1      54.714  26.369  25.246  1.00  0.00    -0.376 OA
BRANCH  38  39
ATOM     39  C   UNL A   1      54.393  25.848  26.537  1.00  0.00     0.202 C 
BRANCH  39  40
ATOM     40  C   UNL A   1      55.060  26.753  27.578  1.00  0.00     0.261 C 
BRANCH  40  41
ATOM     41  O   UNL A   1      54.290  26.760  28.803  1.00  0.00    -0.460 OA
BRANCH  41  42
ATOM     42  C   UNL A   1      53.454  27.811  28.908  1.00  0.00     0.338 C 
ATOM     43  O   UNL A   1      53.518  28.862  28.238  1.00  0.00    -0.246 OA
BRANCH  42  44
ATOM     44  C   UNL A   1      52.292  27.464  29.741  1.00  0.00     0.060 A 
ATOM     45  C   UNL A   1      51.340  26.557  29.241  1.00  0.00     0.016 A 
ATOM     46  C   UNL A   1      52.100  28.086  30.975  1.00  0.00     0.016 A 
ATOM     47  C   UNL A   1      50.122  26.393  29.892  1.00  0.00     0.010 A 
ATOM     48  C   UNL A   1      50.867  27.953  31.611  1.00  0.00     0.010 A 
ATOM     49  C   UNL A   1      49.849  27.190  31.011  1.00  0.00    -0.014 A 
BRANCH  49  50
ATOM     50  C   UNL A   1      48.445  27.588  31.264  1.00  0.00     0.031 A 
ATOM     51  C   UNL A   1      47.689  26.779  32.291  1.00  0.00     0.074 A 
ATOM     52  C   UNL A   1      47.853  28.591  30.600  1.00  0.00     0.049 A 
ATOM     53  N   UNL A   1      46.447  26.880  32.688  1.00  0.00    -0.248 NA
ATOM     54  C   UNL A   1      48.442  25.704  32.965  1.00  0.00     0.031 C 
ATOM     55  C   UNL A   1      48.493  29.451  29.609  1.00  0.00     0.029 A 
ATOM     56  N   UNL A   1      46.559  29.039  30.657  1.00  0.00    -0.354 N 
ATOM     57  C   UNL A   1      46.288  25.905  33.666  1.00  0.00     0.074 A 
ATOM     58  C   UNL A   1      47.539  25.198  33.785  1.00  0.00     0.031 C 
ATOM     59  C   UNL A   1      47.578  30.317  29.134  1.00  0.00     0.029 A 
ATOM     60  C   UNL A   1      46.290  30.051  29.773  1.00  0.00     0.049 A 
ATOM     61  H   UNL A   1      45.887  28.669  31.275  1.00  0.00     0.167 HD
ATOM     62  C   UNL A   1      45.194  25.618  34.409  1.00  0.00     0.037 A 
ATOM     63  C   UNL A   1      45.124  30.670  29.507  1.00  0.00     0.037 A 
ATOM     64  C   UNL A   1      43.929  26.271  34.240  1.00  0.00     0.049 A 
ATOM     65  C   UNL A   1      43.887  30.257  30.264  1.00  0.00     0.074 A 
ATOM     66  C   UNL A   1      42.741  26.047  34.910  1.00  0.00     0.029 A 
ATOM     67  N   UNL A   1      43.689  27.267  33.307  1.00  0.00    -0.354 N 
ATOM     68  N   UNL A   1      43.755  29.364  31.216  1.00  0.00    -0.248 NA
ATOM     69  C   UNL A   1      42.635  30.937  29.903  1.00  0.00     0.031 C 
ATOM     70  C   UNL A   1      41.768  26.881  34.349  1.00  0.00     0.029 A 
ATOM     71  C   UNL A   1      42.363  27.653  33.361  1.00  0.00     0.049 A 
ATOM     72  H   UNL A   1      44.363  27.644  32.695  1.00  0.00     0.167 HD
ATOM     73  C   UNL A   1      42.417  29.393  31.587  1.00  0.00     0.074 A 
ATOM     74  C   UNL A   1      41.780  30.400  30.761  1.00  0.00     0.031 C 
ATOM     75  C   UNL A   1      41.766  28.659  32.523  1.00  0.00     0.037 A 
BRANCH  62  76
ATOM     76  C   UNL A   1      45.336  24.527  35.426  1.00  0.00     0.057 A 
ATOM     77  C   UNL A   1      45.163  23.185  35.071  1.00  0.00     0.134 A 
ATOM     78  C   UNL A   1      45.691  24.805  36.754  1.00  0.00     0.134 A 
ATOM     79  F   UNL A   1      44.836  22.851  33.814  1.00  0.00    -0.206 F 
ATOM     80  C   UNL A   1      45.342  22.157  35.998  1.00  0.00     0.040 A 
ATOM     81  C   UNL A   1      45.894  23.785  37.684  1.00  0.00     0.040 A 
ATOM     82  F   UNL A   1      45.899  26.070  37.151  1.00  0.00    -0.206 F 
ATOM     83  C   UNL A   1      45.716  22.455  37.306  1.00  0.00     0.006 A 
ENDBRANCH  62  76
BRANCH  63  84
ATOM     84  C   UNL A   1      45.058  31.736  28.476  1.00  0.00     0.057 A 
ATOM     85  C   UNL A   1      44.677  31.457  27.159  1.00  0.00     0.134 A 
ATOM     86  C   UNL A   1      45.342  33.069  28.796  1.00  0.00     0.134 A 
ATOM     87  F   UNL A   1      44.385  30.201  26.789  1.00  0.00    -0.206 F 
ATOM     88  C   UNL A   1      44.583  32.463  26.195  1.00  0.00     0.040 A 
ATOM     89  C   UNL A   1      45.233  34.088  27.848  1.00  0.00     0.040 A 
ATOM     90  F   UNL A   1      45.688  33.403  30.047  1.00  0.00    -0.206 F 
ATOM     91  C   UNL A   1      44.855  33.785  26.542  1.00  0.00     0.006 A 
ENDBRANCH  63  84
BRANCH  75  92
ATOM     92  C   UNL A   1      40.308  28.942  32.717  1.00  0.00     0.057 A 
ATOM     93  C   UNL A   1      39.351  28.330  31.900  1.00  0.00     0.134 A 
ATOM     94  C   UNL A   1      39.857  29.850  33.683  1.00  0.00     0.134 A 
ATOM     95  F   UNL A   1      39.722  27.459  30.948  1.00  0.00    -0.206 F 
ATOM     96  C   UNL A   1      37.992  28.612  32.035  1.00  0.00     0.040 A 
ATOM     97  C   UNL A   1      38.498  30.123  33.843  1.00  0.00     0.040 A 
ATOM     98  F   UNL A   1      40.726  30.459  34.502  1.00  0.00    -0.206 F 
ATOM     99  C   UNL A   1      37.562  29.507  33.013  1.00  0.00     0.006 A 
ENDBRANCH  75  92
ENDBRANCH  49  50
ENDBRANCH  42  44
ENDBRANCH  41  42
ENDBRANCH  40  41
ENDBRANCH  39  40
ENDBRANCH  38  39
ENDBRANCH  37  38
ENDBRANCH  36  37
ENDBRANCH  35  36
ENDBRANCH   1  35
TORSDOF 26
ENDMDL
