MODEL 1
REMARK VINA RESULT:     -10.7      0.000      0.000
REMARK SMILES CS(=O)(=O)c1ccc(/C=C(/C(=O)OCCOCCOCCOCCOC(=O)c2ccc(-c3c4nc(c(-c5c(F)cccc5F)c5ccc([nH]5)c(-c5c(F)cccc5F)c5nc(c(-c6c(F)cccc6F)c6ccc3[nH]6)C=C5)C=C4)cc2)c2ccc(F)cc2)cc1
REMARK SMILES IDX 19 1 18 2 17 3 16 4 15 5 14 6 13 7 11 8 12 9 10 10 9 11 8 12
REMARK SMILES IDX 5 13 6 14 90 15 7 16 89 17 2 18 1 19 3 20 4 21 82 22 83 23
REMARK SMILES IDX 88 24 84 25 87 26 85 27 86 28 20 29 21 30 22 31 23 32 24 33
REMARK SMILES IDX 25 34 26 35 27 36 28 37 29 38 81 39 30 40 80 41 31 42 32 43
REMARK SMILES IDX 33 44 74 45 34 46 79 47 73 48 75 49 35 50 78 51 72 52 71 53
REMARK SMILES IDX 36 55 62 56 45 57 61 58 46 59 49 60 60 61 76 62 47 63 48 64
REMARK SMILES IDX 59 66 77 67 50 68 37 69 38 70 43 71 39 72 40 73 42 74 44 75
REMARK SMILES IDX 41 76 63 77 64 78 69 79 65 80 66 81 68 82 70 83 67 84 51 85
REMARK SMILES IDX 52 86 57 87 53 88 54 89 56 90 58 91 55 92
REMARK H PARENT 75 54 49 65
REMARK Flexibility Score: inf
ROOT
ATOM      1  O   UNL A   1      30.211  30.026  23.954  1.00  0.00    -0.377 OA
ENDROOT
BRANCH   1   2
ATOM      2  C   UNL A   1      29.638  29.364  22.841  1.00  0.00     0.188 C 
BRANCH   2   3
ATOM      3  C   UNL A   1      29.884  27.852  22.672  1.00  0.00     0.188 C 
BRANCH   3   4
ATOM      4  O   UNL A   1      29.416  27.063  23.760  1.00  0.00    -0.376 OA
BRANCH   4   5
ATOM      5  C   UNL A   1      29.961  25.754  23.850  1.00  0.00     0.202 C 
BRANCH   5   6
ATOM      6  C   UNL A   1      31.287  25.672  24.616  1.00  0.00     0.261 C 
BRANCH   6   7
ATOM      7  O   UNL A   1      32.465  25.821  23.803  1.00  0.00    -0.460 OA
BRANCH   7   8
ATOM      8  C   UNL A   1      32.665  24.908  22.823  1.00  0.00     0.338 C 
ATOM      9  O   UNL A   1      32.597  25.132  21.625  1.00  0.00    -0.246 OA
BRANCH   8  10
ATOM     10  C   UNL A   1      33.109  23.596  23.406  1.00  0.00     0.067 C 
ATOM     11  C   UNL A   1      32.246  22.552  23.386  1.00  0.00     0.024 C 
BRANCH  11  12
ATOM     12  C   UNL A   1      32.490  21.129  23.721  1.00  0.00    -0.025 A 
ATOM     13  C   UNL A   1      33.295  18.463  24.019  1.00  0.00     0.067 A 
ATOM     14  C   UNL A   1      33.491  19.361  25.063  1.00  0.00     0.021 A 
ATOM     15  C   UNL A   1      32.579  18.839  22.885  1.00  0.00     0.021 A 
ATOM     16  C   UNL A   1      33.060  20.681  24.920  1.00  0.00     0.009 A 
ATOM     17  C   UNL A   1      32.181  20.171  22.741  1.00  0.00     0.009 A 
BRANCH  13  18
ATOM     18  S   UNL A   1      34.024  16.848  24.123  1.00  0.00     0.175 S 
ATOM     19  C   UNL A   1      32.851  15.962  25.123  1.00  0.00     0.163 C 
ATOM     20  O   UNL A   1      35.258  16.966  24.877  1.00  0.00    -0.224 OA
ATOM     21  O   UNL A   1      34.012  16.277  22.790  1.00  0.00    -0.224 OA
ENDBRANCH  13  18
ENDBRANCH  11  12
BRANCH  10  22
ATOM     22  C   UNL A   1      34.482  23.511  23.943  1.00  0.00    -0.011 A 
ATOM     23  C   UNL A   1      34.735  23.877  25.280  1.00  0.00     0.012 A 
ATOM     24  C   UNL A   1      35.524  22.975  23.178  1.00  0.00     0.012 A 
ATOM     25  C   UNL A   1      35.996  23.694  25.846  1.00  0.00     0.040 A 
ATOM     26  C   UNL A   1      36.786  22.785  23.749  1.00  0.00     0.040 A 
ATOM     27  C   UNL A   1      37.008  23.141  25.076  1.00  0.00     0.123 A 
ATOM     28  F   UNL A   1      38.210  22.928  25.626  1.00  0.00    -0.207 F 
ENDBRANCH  10  22
ENDBRANCH   8  10
ENDBRANCH   7   8
ENDBRANCH   6   7
ENDBRANCH   5   6
ENDBRANCH   4   5
ENDBRANCH   3   4
ENDBRANCH   2   3
ENDBRANCH   1   2
BRANCH   1  29
ATOM     29  C   UNL A   1      31.387  29.492  24.547  1.00  0.00     0.188 C 
BRANCH  29  30
ATOM     30  C   UNL A   1      31.807  29.897  25.976  1.00  0.00     0.188 C 
BRANCH  30  31
ATOM     31  O   UNL A   1      31.569  31.258  26.311  1.00  0.00    -0.376 OA
BRANCH  31  32
ATOM     32  C   UNL A   1      32.466  31.855  27.235  1.00  0.00     0.202 C 
BRANCH  32  33
ATOM     33  C   UNL A   1      32.424  33.386  27.251  1.00  0.00     0.261 C 
BRANCH  33  34
ATOM     34  O   UNL A   1      32.413  33.977  28.560  1.00  0.00    -0.460 OA
BRANCH  34  35
ATOM     35  C   UNL A   1      33.416  34.829  28.862  1.00  0.00     0.338 C 
ATOM     36  O   UNL A   1      33.364  36.042  28.941  1.00  0.00    -0.246 OA
BRANCH  35  37
ATOM     37  C   UNL A   1      34.576  34.017  29.270  1.00  0.00     0.060 A 
ATOM     38  C   UNL A   1      34.386  32.970  30.182  1.00  0.00     0.016 A 
ATOM     39  C   UNL A   1      35.839  34.277  28.735  1.00  0.00     0.016 A 
ATOM     40  C   UNL A   1      35.473  32.197  30.585  1.00  0.00     0.010 A 
ATOM     41  C   UNL A   1      36.929  33.518  29.156  1.00  0.00     0.010 A 
ATOM     42  C   UNL A   1      36.756  32.499  30.108  1.00  0.00    -0.014 A 
BRANCH  42  43
ATOM     43  C   UNL A   1      37.942  31.903  30.763  1.00  0.00     0.031 A 
ATOM     44  C   UNL A   1      38.656  30.790  30.048  1.00  0.00     0.074 A 
ATOM     45  C   UNL A   1      38.377  32.334  31.959  1.00  0.00     0.049 A 
ATOM     46  N   UNL A   1      39.681  30.077  30.432  1.00  0.00    -0.248 NA
ATOM     47  C   UNL A   1      38.135  30.433  28.718  1.00  0.00     0.031 C 
ATOM     48  C   UNL A   1      37.788  33.424  32.734  1.00  0.00     0.029 A 
ATOM     49  N   UNL A   1      39.418  31.888  32.734  1.00  0.00    -0.354 N 
ATOM     50  C   UNL A   1      39.925  29.185  29.396  1.00  0.00     0.074 A 
ATOM     51  C   UNL A   1      38.924  29.425  28.381  1.00  0.00     0.031 C 
ATOM     52  C   UNL A   1      38.470  33.553  33.886  1.00  0.00     0.029 A 
ATOM     53  C   UNL A   1      39.522  32.538  33.939  1.00  0.00     0.049 A 
ATOM     54  H   UNL A   1      40.032  31.172  32.453  1.00  0.00     0.167 HD
ATOM     55  C   UNL A   1      40.902  28.254  29.295  1.00  0.00     0.037 A 
ATOM     56  C   UNL A   1      40.359  32.319  34.971  1.00  0.00     0.037 A 
ATOM     57  C   UNL A   1      41.890  28.010  30.310  1.00  0.00     0.049 A 
ATOM     58  C   UNL A   1      41.394  31.228  34.868  1.00  0.00     0.074 A 
ATOM     59  C   UNL A   1      42.934  27.101  30.297  1.00  0.00     0.029 A 
ATOM     60  N   UNL A   1      41.948  28.671  31.528  1.00  0.00    -0.354 N 
ATOM     61  N   UNL A   1      41.642  30.413  33.870  1.00  0.00    -0.248 NA
ATOM     62  C   UNL A   1      42.267  31.028  36.034  1.00  0.00     0.031 C 
ATOM     63  C   UNL A   1      43.593  27.178  31.527  1.00  0.00     0.029 A 
ATOM     64  C   UNL A   1      42.994  28.171  32.285  1.00  0.00     0.049 A 
ATOM     65  H   UNL A   1      41.337  29.389  31.811  1.00  0.00     0.167 HD
ATOM     66  C   UNL A   1      42.714  29.626  34.276  1.00  0.00     0.074 A 
ATOM     67  C   UNL A   1      43.076  30.069  35.606  1.00  0.00     0.031 C 
ATOM     68  C   UNL A   1      43.345  28.629  33.607  1.00  0.00     0.037 A 
BRANCH  55  69
ATOM     69  C   UNL A   1      40.921  27.412  28.054  1.00  0.00     0.057 A 
ATOM     70  C   UNL A   1      41.695  27.757  26.938  1.00  0.00     0.134 A 
ATOM     71  C   UNL A   1      40.161  26.239  27.977  1.00  0.00     0.134 A 
ATOM     72  F   UNL A   1      42.430  28.879  26.939  1.00  0.00    -0.206 F 
ATOM     73  C   UNL A   1      41.693  26.976  25.780  1.00  0.00     0.040 A 
ATOM     74  C   UNL A   1      40.172  25.437  26.836  1.00  0.00     0.040 A 
ATOM     75  F   UNL A   1      39.398  25.854  29.010  1.00  0.00    -0.206 F 
ATOM     76  C   UNL A   1      40.935  25.809  25.730  1.00  0.00     0.006 A 
ENDBRANCH  55  69
BRANCH  56  77
ATOM     77  C   UNL A   1      40.251  33.141  36.204  1.00  0.00     0.057 A 
ATOM     78  C   UNL A   1      41.063  34.263  36.401  1.00  0.00     0.134 A 
ATOM     79  C   UNL A   1      39.353  32.807  37.224  1.00  0.00     0.134 A 
ATOM     80  F   UNL A   1      41.962  34.618  35.473  1.00  0.00    -0.206 F 
ATOM     81  C   UNL A   1      40.995  35.018  37.575  1.00  0.00     0.040 A 
ATOM     82  C   UNL A   1      39.257  33.566  38.392  1.00  0.00     0.040 A 
ATOM     83  F   UNL A   1      38.548  31.741  37.098  1.00  0.00    -0.206 F 
ATOM     84  C   UNL A   1      40.086  34.671  38.573  1.00  0.00     0.006 A 
ENDBRANCH  56  77
BRANCH  68  85
ATOM     85  C   UNL A   1      44.513  27.974  34.283  1.00  0.00     0.057 A 
ATOM     86  C   UNL A   1      45.808  28.501  34.204  1.00  0.00     0.134 A 
ATOM     87  C   UNL A   1      44.329  26.826  35.066  1.00  0.00     0.134 A 
ATOM     88  F   UNL A   1      46.053  29.591  33.462  1.00  0.00    -0.206 F 
ATOM     89  C   UNL A   1      46.882  27.898  34.862  1.00  0.00     0.040 A 
ATOM     90  C   UNL A   1      45.390  26.230  35.750  1.00  0.00     0.040 A 
ATOM     91  F   UNL A   1      43.112  26.275  35.194  1.00  0.00    -0.206 F 
ATOM     92  C   UNL A   1      46.672  26.763  35.644  1.00  0.00     0.006 A 
ENDBRANCH  68  85
ENDBRANCH  42  43
ENDBRANCH  35  37
ENDBRANCH  34  35
ENDBRANCH  33  34
ENDBRANCH  32  33
ENDBRANCH  31  32
ENDBRANCH  30  31
ENDBRANCH  29  30
ENDBRANCH   1  29
TORSDOF 23
ENDMDL
MODEL 2
REMARK VINA RESULT:     -10.6      0.490      5.881
REMARK SMILES CS(=O)(=O)c1ccc(/C=C(/C(=O)OCCOCCOCCOCCOC(=O)c2ccc(-c3c4nc(c(-c5c(F)cccc5F)c5ccc([nH]5)c(-c5c(F)cccc5F)c5nc(c(-c6c(F)cccc6F)c6ccc3[nH]6)C=C5)C=C4)cc2)c2ccc(F)cc2)cc1
REMARK SMILES IDX 19 1 18 2 17 3 16 4 15 5 14 6 13 7 11 8 12 9 10 10 9 11 8 12
REMARK SMILES IDX 5 13 6 14 90 15 7 16 89 17 2 18 1 19 3 20 4 21 82 22 83 23
REMARK SMILES IDX 88 24 84 25 87 26 85 27 86 28 20 29 21 30 22 31 23 32 24 33
REMARK SMILES IDX 25 34 26 35 27 36 28 37 29 38 81 39 30 40 80 41 31 42 32 43
REMARK SMILES IDX 33 44 74 45 34 46 79 47 73 48 75 49 35 50 78 51 72 52 71 53
REMARK SMILES IDX 36 55 62 56 45 57 61 58 46 59 49 60 60 61 76 62 47 63 48 64
REMARK SMILES IDX 59 66 77 67 50 68 37 69 38 70 43 71 39 72 40 73 42 74 44 75
REMARK SMILES IDX 41 76 63 77 64 78 69 79 65 80 66 81 68 82 70 83 67 84 51 85
REMARK SMILES IDX 52 86 57 87 53 88 54 89 56 90 58 91 55 92
REMARK H PARENT 75 54 49 65
REMARK Flexibility Score: inf
ROOT
ATOM      1  O   UNL A   1      30.094  29.915  23.932  1.00  0.00    -0.377 OA
ENDROOT
BRANCH   1   2
ATOM      2  C   UNL A   1      29.356  29.072  23.066  1.00  0.00     0.188 C 
BRANCH   2   3
ATOM      3  C   UNL A   1      29.933  27.687  22.714  1.00  0.00     0.188 C 
BRANCH   3   4
ATOM      4  O   UNL A   1      29.465  26.633  23.549  1.00  0.00    -0.376 OA
BRANCH   4   5
ATOM      5  C   UNL A   1      30.291  25.479  23.605  1.00  0.00     0.202 C 
BRANCH   5   6
ATOM      6  C   UNL A   1      31.665  25.714  24.243  1.00  0.00     0.261 C 
BRANCH   6   7
ATOM      7  O   UNL A   1      32.753  25.831  23.309  1.00  0.00    -0.460 OA
BRANCH   7   8
ATOM      8  C   UNL A   1      32.923  24.821  22.423  1.00  0.00     0.338 C 
ATOM      9  O   UNL A   1      32.860  24.930  21.208  1.00  0.00    -0.246 OA
BRANCH   8  10
ATOM     10  C   UNL A   1      33.329  23.559  23.130  1.00  0.00     0.067 C 
ATOM     11  C   UNL A   1      32.479  22.504  23.113  1.00  0.00     0.024 C 
BRANCH  11  12
ATOM     12  C   UNL A   1      32.707  21.112  23.566  1.00  0.00    -0.025 A 
ATOM     13  C   UNL A   1      33.419  18.444  24.034  1.00  0.00     0.067 A 
ATOM     14  C   UNL A   1      33.834  19.432  24.922  1.00  0.00     0.021 A 
ATOM     15  C   UNL A   1      32.540  18.746  22.997  1.00  0.00     0.021 A 
ATOM     16  C   UNL A   1      33.450  20.755  24.699  1.00  0.00     0.009 A 
ATOM     17  C   UNL A   1      32.189  20.078  22.767  1.00  0.00     0.009 A 
BRANCH  13  18
ATOM     18  S   UNL A   1      34.075  16.803  24.204  1.00  0.00     0.175 S 
ATOM     19  C   UNL A   1      32.852  16.005  25.218  1.00  0.00     0.163 C 
ATOM     20  O   UNL A   1      35.304  16.894  24.970  1.00  0.00    -0.224 OA
ATOM     21  O   UNL A   1      34.054  16.187  22.892  1.00  0.00    -0.224 OA
ENDBRANCH  13  18
ENDBRANCH  11  12
BRANCH  10  22
ATOM     22  C   UNL A   1      34.655  23.531  23.782  1.00  0.00    -0.011 A 
ATOM     23  C   UNL A   1      34.787  23.964  25.116  1.00  0.00     0.012 A 
ATOM     24  C   UNL A   1      35.767  22.985  23.131  1.00  0.00     0.012 A 
ATOM     25  C   UNL A   1      36.000  23.835  25.792  1.00  0.00     0.040 A 
ATOM     26  C   UNL A   1      36.980  22.851  23.812  1.00  0.00     0.040 A 
ATOM     27  C   UNL A   1      37.084  23.272  25.135  1.00  0.00     0.123 A 
ATOM     28  F   UNL A   1      38.240  23.113  25.791  1.00  0.00    -0.207 F 
ENDBRANCH  10  22
ENDBRANCH   8  10
ENDBRANCH   7   8
ENDBRANCH   6   7
ENDBRANCH   5   6
ENDBRANCH   4   5
ENDBRANCH   3   4
ENDBRANCH   2   3
ENDBRANCH   1   2
BRANCH   1  29
ATOM     29  C   UNL A   1      31.355  29.476  24.418  1.00  0.00     0.188 C 
BRANCH  29  30
ATOM     30  C   UNL A   1      31.831  29.852  25.837  1.00  0.00     0.188 C 
BRANCH  30  31
ATOM     31  O   UNL A   1      31.527  31.181  26.242  1.00  0.00    -0.376 OA
BRANCH  31  32
ATOM     32  C   UNL A   1      32.349  31.744  27.253  1.00  0.00     0.202 C 
BRANCH  32  33
ATOM     33  C   UNL A   1      32.518  33.264  27.150  1.00  0.00     0.261 C 
BRANCH  33  34
ATOM     34  O   UNL A   1      32.544  33.956  28.408  1.00  0.00    -0.460 OA
BRANCH  34  35
ATOM     35  C   UNL A   1      33.519  34.871  28.589  1.00  0.00     0.338 C 
ATOM     36  O   UNL A   1      33.476  36.063  28.345  1.00  0.00    -0.246 OA
BRANCH  35  37
ATOM     37  C   UNL A   1      34.614  34.211  29.321  1.00  0.00     0.060 A 
ATOM     38  C   UNL A   1      35.939  34.550  29.015  1.00  0.00     0.016 A 
ATOM     39  C   UNL A   1      34.329  33.278  30.321  1.00  0.00     0.016 A 
ATOM     40  C   UNL A   1      36.987  33.930  29.693  1.00  0.00     0.010 A 
ATOM     41  C   UNL A   1      35.378  32.641  30.981  1.00  0.00     0.010 A 
ATOM     42  C   UNL A   1      36.710  32.940  30.645  1.00  0.00    -0.014 A 
BRANCH  42  43
ATOM     43  C   UNL A   1      37.799  32.062  31.131  1.00  0.00     0.031 A 
ATOM     44  C   UNL A   1      38.306  32.279  32.529  1.00  0.00     0.074 A 
ATOM     45  C   UNL A   1      38.326  31.100  30.355  1.00  0.00     0.049 A 
ATOM     46  N   UNL A   1      39.279  31.678  33.163  1.00  0.00    -0.248 NA
ATOM     47  C   UNL A   1      37.622  33.319  33.315  1.00  0.00     0.031 C 
ATOM     48  C   UNL A   1      37.898  30.775  28.996  1.00  0.00     0.029 A 
ATOM     49  N   UNL A   1      39.352  30.225  30.607  1.00  0.00    -0.354 N 
ATOM     50  C   UNL A   1      39.327  32.270  34.418  1.00  0.00     0.074 A 
ATOM     51  C   UNL A   1      38.308  33.296  34.447  1.00  0.00     0.031 C 
ATOM     52  C   UNL A   1      38.669  29.778  28.527  1.00  0.00     0.029 A 
ATOM     53  C   UNL A   1      39.658  29.416  29.541  1.00  0.00     0.049 A 
ATOM     54  H   UNL A   1      39.823  30.180  31.471  1.00  0.00     0.167 HD
ATOM     55  C   UNL A   1      40.142  31.979  35.459  1.00  0.00     0.037 A 
ATOM     56  C   UNL A   1      40.642  28.507  29.398  1.00  0.00     0.037 A 
ATOM     57  C   UNL A   1      41.161  30.966  35.425  1.00  0.00     0.049 A 
ATOM     58  C   UNL A   1      41.586  28.250  30.545  1.00  0.00     0.074 A 
ATOM     59  C   UNL A   1      42.028  30.581  36.432  1.00  0.00     0.029 A 
ATOM     60  N   UNL A   1      41.459  30.186  34.318  1.00  0.00    -0.354 N 
ATOM     61  N   UNL A   1      41.601  28.787  31.741  1.00  0.00    -0.248 NA
ATOM     62  C   UNL A   1      42.647  27.257  30.321  1.00  0.00     0.031 C 
ATOM     63  C   UNL A   1      42.883  29.602  35.918  1.00  0.00     0.029 A 
ATOM     64  C   UNL A   1      42.514  29.339  34.609  1.00  0.00     0.049 A 
ATOM     65  H   UNL A   1      40.988  30.227  33.454  1.00  0.00     0.167 HD
ATOM     66  C   UNL A   1      42.651  28.179  32.421  1.00  0.00     0.074 A 
ATOM     67  C   UNL A   1      43.241  27.224  31.506  1.00  0.00     0.031 C 
ATOM     68  C   UNL A   1      43.086  28.389  33.688  1.00  0.00     0.037 A 
BRANCH  55  69
ATOM     69  C   UNL A   1      39.978  32.795  36.706  1.00  0.00     0.057 A 
ATOM     70  C   UNL A   1      40.836  33.859  37.013  1.00  0.00     0.134 A 
ATOM     71  C   UNL A   1      38.943  32.518  37.607  1.00  0.00     0.134 A 
ATOM     72  F   UNL A   1      41.860  34.163  36.202  1.00  0.00    -0.206 F 
ATOM     73  C   UNL A   1      40.686  34.602  38.186  1.00  0.00     0.040 A 
ATOM     74  C   UNL A   1      38.766  33.271  38.769  1.00  0.00     0.040 A 
ATOM     75  F   UNL A   1      38.087  31.512  37.373  1.00  0.00    -0.206 F 
ATOM     76  C   UNL A   1      39.644  34.313  39.064  1.00  0.00     0.006 A 
ENDBRANCH  55  69
BRANCH  56  77
ATOM     77  C   UNL A   1      40.798  27.775  28.115  1.00  0.00     0.057 A 
ATOM     78  C   UNL A   1      40.197  26.527  27.913  1.00  0.00     0.134 A 
ATOM     79  C   UNL A   1      41.573  28.294  27.071  1.00  0.00     0.134 A 
ATOM     80  F   UNL A   1      39.464  25.966  28.885  1.00  0.00    -0.206 F 
ATOM     81  C   UNL A   1      40.371  25.815  26.724  1.00  0.00     0.040 A 
ATOM     82  C   UNL A   1      41.736  27.604  25.868  1.00  0.00     0.040 A 
ATOM     83  F   UNL A   1      42.178  29.484  27.202  1.00  0.00    -0.206 F 
ATOM     84  C   UNL A   1      41.140  26.357  25.696  1.00  0.00     0.006 A 
ENDBRANCH  56  77
BRANCH  68  85
ATOM     85  C   UNL A   1      44.229  27.547  34.175  1.00  0.00     0.057 A 
ATOM     86  C   UNL A   1      45.558  27.980  34.090  1.00  0.00     0.134 A 
ATOM     87  C   UNL A   1      43.990  26.308  34.785  1.00  0.00     0.134 A 
ATOM     88  F   UNL A   1      45.855  29.151  33.508  1.00  0.00    -0.206 F 
ATOM     89  C   UNL A   1      46.611  27.201  34.573  1.00  0.00     0.040 A 
ATOM     90  C   UNL A   1      45.033  25.533  35.296  1.00  0.00     0.040 A 
ATOM     91  F   UNL A   1      42.740  25.840  34.910  1.00  0.00    -0.206 F 
ATOM     92  C   UNL A   1      46.348  25.976  35.186  1.00  0.00     0.006 A 
ENDBRANCH  68  85
ENDBRANCH  42  43
ENDBRANCH  35  37
ENDBRANCH  34  35
ENDBRANCH  33  34
ENDBRANCH  32  33
ENDBRANCH  31  32
ENDBRANCH  30  31
ENDBRANCH  29  30
ENDBRANCH   1  29
TORSDOF 23
ENDMDL
MODEL 3
REMARK VINA RESULT:     -10.2      4.224      7.683
REMARK SMILES CS(=O)(=O)c1ccc(/C=C(/C(=O)OCCOCCOCCOCCOC(=O)c2ccc(-c3c4nc(c(-c5c(F)cccc5F)c5ccc([nH]5)c(-c5c(F)cccc5F)c5nc(c(-c6c(F)cccc6F)c6ccc3[nH]6)C=C5)C=C4)cc2)c2ccc(F)cc2)cc1
REMARK SMILES IDX 19 1 18 2 17 3 16 4 15 5 14 6 13 7 11 8 12 9 10 10 9 11 8 12
REMARK SMILES IDX 5 13 6 14 90 15 7 16 89 17 2 18 1 19 3 20 4 21 82 22 83 23
REMARK SMILES IDX 88 24 84 25 87 26 85 27 86 28 20 29 21 30 22 31 23 32 24 33
REMARK SMILES IDX 25 34 26 35 27 36 28 37 29 38 81 39 30 40 80 41 31 42 32 43
REMARK SMILES IDX 33 44 74 45 34 46 79 47 73 48 75 49 35 50 78 51 72 52 71 53
REMARK SMILES IDX 36 55 62 56 45 57 61 58 46 59 49 60 60 61 76 62 47 63 48 64
REMARK SMILES IDX 59 66 77 67 50 68 37 69 38 70 43 71 39 72 40 73 42 74 44 75
REMARK SMILES IDX 41 76 63 77 64 78 69 79 65 80 66 81 68 82 70 83 67 84 51 85
REMARK SMILES IDX 52 86 57 87 53 88 54 89 56 90 58 91 55 92
REMARK H PARENT 75 54 49 65
REMARK Flexibility Score: inf
ROOT
ATOM      1  O   UNL A   1      33.617  29.804  27.622  1.00  0.00    -0.377 OA
ENDROOT
BRANCH   1   2
ATOM      2  C   UNL A   1      33.656  29.123  26.381  1.00  0.00     0.188 C 
BRANCH   2   3
ATOM      3  C   UNL A   1      32.415  29.181  25.467  1.00  0.00     0.188 C 
BRANCH   3   4
ATOM      4  O   UNL A   1      32.658  28.756  24.131  1.00  0.00    -0.376 OA
BRANCH   4   5
ATOM      5  C   UNL A   1      32.708  27.351  23.932  1.00  0.00     0.202 C 
BRANCH   5   6
ATOM      6  C   UNL A   1      31.672  26.814  22.937  1.00  0.00     0.261 C 
BRANCH   6   7
ATOM      7  O   UNL A   1      31.700  25.388  22.746  1.00  0.00    -0.460 OA
BRANCH   7   8
ATOM      8  C   UNL A   1      32.849  24.845  22.278  1.00  0.00     0.338 C 
ATOM      9  O   UNL A   1      33.599  25.369  21.468  1.00  0.00    -0.246 OA
BRANCH   8  10
ATOM     10  C   UNL A   1      33.151  23.555  22.985  1.00  0.00     0.067 C 
ATOM     11  C   UNL A   1      32.269  22.532  22.873  1.00  0.00     0.024 C 
BRANCH  11  12
ATOM     12  C   UNL A   1      32.411  21.123  23.310  1.00  0.00    -0.025 A 
ATOM     13  C   UNL A   1      33.053  18.448  23.834  1.00  0.00     0.067 A 
ATOM     14  C   UNL A   1      33.187  19.397  24.842  1.00  0.00     0.021 A 
ATOM     15  C   UNL A   1      32.471  18.786  22.614  1.00  0.00     0.021 A 
ATOM     16  C   UNL A   1      32.836  20.724  24.583  1.00  0.00     0.009 A 
ATOM     17  C   UNL A   1      32.154  20.122  22.357  1.00  0.00     0.009 A 
BRANCH  13  18
ATOM     18  S   UNL A   1      33.689  16.813  24.101  1.00  0.00     0.175 S 
ATOM     19  C   UNL A   1      35.205  17.129  24.974  1.00  0.00     0.163 C 
ATOM     20  O   UNL A   1      34.026  16.251  22.806  1.00  0.00    -0.224 OA
ATOM     21  O   UNL A   1      32.778  16.131  24.999  1.00  0.00    -0.224 OA
ENDBRANCH  13  18
ENDBRANCH  11  12
BRANCH  10  22
ATOM     22  C   UNL A   1      34.416  23.465  23.743  1.00  0.00    -0.011 A 
ATOM     23  C   UNL A   1      35.560  22.914  23.131  1.00  0.00     0.012 A 
ATOM     24  C   UNL A   1      34.528  24.009  25.027  1.00  0.00     0.012 A 
ATOM     25  C   UNL A   1      36.794  22.927  23.780  1.00  0.00     0.040 A 
ATOM     26  C   UNL A   1      35.767  24.027  25.674  1.00  0.00     0.040 A 
ATOM     27  C   UNL A   1      36.887  23.491  25.044  1.00  0.00     0.123 A 
ATOM     28  F   UNL A   1      38.076  23.539  25.656  1.00  0.00    -0.207 F 
ENDBRANCH  10  22
ENDBRANCH   8  10
ENDBRANCH   7   8
ENDBRANCH   6   7
ENDBRANCH   5   6
ENDBRANCH   4   5
ENDBRANCH   3   4
ENDBRANCH   2   3
ENDBRANCH   1   2
BRANCH   1  29
ATOM     29  C   UNL A   1      33.829  31.209  27.649  1.00  0.00     0.188 C 
BRANCH  29  30
ATOM     30  C   UNL A   1      35.256  31.795  27.620  1.00  0.00     0.188 C 
BRANCH  30  31
ATOM     31  O   UNL A   1      35.509  32.811  28.581  1.00  0.00    -0.376 OA
BRANCH  31  32
ATOM     32  C   UNL A   1      34.446  33.134  29.465  1.00  0.00     0.202 C 
BRANCH  32  33
ATOM     33  C   UNL A   1      34.689  32.714  30.918  1.00  0.00     0.261 C 
BRANCH  33  34
ATOM     34  O   UNL A   1      35.544  31.573  31.084  1.00  0.00    -0.460 OA
BRANCH  34  35
ATOM     35  C   UNL A   1      36.615  31.715  31.893  1.00  0.00     0.338 C 
ATOM     36  O   UNL A   1      36.647  32.209  33.006  1.00  0.00    -0.246 OA
BRANCH  35  37
ATOM     37  C   UNL A   1      37.738  30.992  31.271  1.00  0.00     0.060 A 
ATOM     38  C   UNL A   1      38.715  30.417  32.093  1.00  0.00     0.016 A 
ATOM     39  C   UNL A   1      37.808  30.865  29.882  1.00  0.00     0.016 A 
ATOM     40  C   UNL A   1      39.788  29.736  31.520  1.00  0.00     0.010 A 
ATOM     41  C   UNL A   1      38.893  30.204  29.310  1.00  0.00     0.010 A 
ATOM     42  C   UNL A   1      39.904  29.668  30.125  1.00  0.00    -0.014 A 
BRANCH  42  43
ATOM     43  C   UNL A   1      41.181  29.234  29.514  1.00  0.00     0.031 A 
ATOM     44  C   UNL A   1      42.265  30.261  29.348  1.00  0.00     0.074 A 
ATOM     45  C   UNL A   1      41.376  27.966  29.117  1.00  0.00     0.049 A 
ATOM     46  N   UNL A   1      43.446  30.143  28.800  1.00  0.00    -0.248 NA
ATOM     47  C   UNL A   1      41.972  31.606  29.869  1.00  0.00     0.031 C 
ATOM     48  C   UNL A   1      40.412  26.875  29.253  1.00  0.00     0.029 A 
ATOM     49  N   UNL A   1      42.458  27.388  28.502  1.00  0.00    -0.354 N 
ATOM     50  C   UNL A   1      44.034  31.396  28.905  1.00  0.00     0.074 A 
ATOM     51  C   UNL A   1      43.070  32.268  29.541  1.00  0.00     0.031 C 
ATOM     52  C   UNL A   1      40.944  25.760  28.722  1.00  0.00     0.029 A 
ATOM     53  C   UNL A   1      42.269  26.066  28.186  1.00  0.00     0.049 A 
ATOM     54  H   UNL A   1      43.292  27.875  28.308  1.00  0.00     0.167 HD
ATOM     55  C   UNL A   1      45.270  31.785  28.515  1.00  0.00     0.037 A 
ATOM     56  C   UNL A   1      43.069  25.213  27.518  1.00  0.00     0.037 A 
ATOM     57  C   UNL A   1      46.221  30.920  27.874  1.00  0.00     0.049 A 
ATOM     58  C   UNL A   1      44.413  25.687  27.027  1.00  0.00     0.074 A 
ATOM     59  C   UNL A   1      47.507  31.213  27.455  1.00  0.00     0.029 A 
ATOM     60  N   UNL A   1      45.984  29.594  27.546  1.00  0.00    -0.354 N 
ATOM     61  N   UNL A   1      44.977  26.864  27.163  1.00  0.00    -0.248 NA
ATOM     62  C   UNL A   1      45.233  24.713  26.292  1.00  0.00     0.031 C 
ATOM     63  C   UNL A   1      48.030  30.077  26.829  1.00  0.00     0.029 A 
ATOM     64  C   UNL A   1      47.090  29.062  26.906  1.00  0.00     0.049 A 
ATOM     65  H   UNL A   1      45.152  29.104  27.740  1.00  0.00     0.167 HD
ATOM     66  C   UNL A   1      46.225  26.763  26.558  1.00  0.00     0.074 A 
ATOM     67  C   UNL A   1      46.340  25.407  26.064  1.00  0.00     0.031 C 
ATOM     68  C   UNL A   1      47.190  27.706  26.426  1.00  0.00     0.037 A 
BRANCH  55  69
ATOM     69  C   UNL A   1      45.641  33.220  28.746  1.00  0.00     0.057 A 
ATOM     70  C   UNL A   1      45.501  34.192  27.746  1.00  0.00     0.134 A 
ATOM     71  C   UNL A   1      46.136  33.636  29.988  1.00  0.00     0.134 A 
ATOM     72  F   UNL A   1      45.052  33.854  26.528  1.00  0.00    -0.206 F 
ATOM     73  C   UNL A   1      45.865  35.521  27.965  1.00  0.00     0.040 A 
ATOM     74  C   UNL A   1      46.478  34.968  30.227  1.00  0.00     0.040 A 
ATOM     75  F   UNL A   1      46.294  32.756  30.987  1.00  0.00    -0.206 F 
ATOM     76  C   UNL A   1      46.349  35.914  29.211  1.00  0.00     0.006 A 
ENDBRANCH  55  69
BRANCH  56  77
ATOM     77  C   UNL A   1      42.621  23.820  27.260  1.00  0.00     0.057 A 
ATOM     78  C   UNL A   1      42.076  23.450  26.025  1.00  0.00     0.134 A 
ATOM     79  C   UNL A   1      42.704  22.834  28.251  1.00  0.00     0.134 A 
ATOM     80  F   UNL A   1      41.946  24.355  25.046  1.00  0.00    -0.206 F 
ATOM     81  C   UNL A   1      41.617  22.152  25.789  1.00  0.00     0.040 A 
ATOM     82  C   UNL A   1      42.271  21.527  28.020  1.00  0.00     0.040 A 
ATOM     83  F   UNL A   1      43.215  23.126  29.456  1.00  0.00    -0.206 F 
ATOM     84  C   UNL A   1      41.719  21.185  26.788  1.00  0.00     0.006 A 
ENDBRANCH  56  77
BRANCH  68  85
ATOM     85  C   UNL A   1      48.469  27.298  25.755  1.00  0.00     0.057 A 
ATOM     86  C   UNL A   1      49.547  26.767  26.473  1.00  0.00     0.134 A 
ATOM     87  C   UNL A   1      48.602  27.390  24.363  1.00  0.00     0.134 A 
ATOM     88  F   UNL A   1      49.488  26.662  27.809  1.00  0.00    -0.206 F 
ATOM     89  C   UNL A   1      50.721  26.364  25.834  1.00  0.00     0.040 A 
ATOM     90  C   UNL A   1      49.760  26.965  23.710  1.00  0.00     0.040 A 
ATOM     91  F   UNL A   1      47.602  27.878  23.613  1.00  0.00    -0.206 F 
ATOM     92  C   UNL A   1      50.826  26.456  24.446  1.00  0.00     0.006 A 
ENDBRANCH  68  85
ENDBRANCH  42  43
ENDBRANCH  35  37
ENDBRANCH  34  35
ENDBRANCH  33  34
ENDBRANCH  32  33
ENDBRANCH  31  32
ENDBRANCH  30  31
ENDBRANCH  29  30
ENDBRANCH   1  29
TORSDOF 23
ENDMDL
