MODEL 1
REMARK VINA RESULT:     -10.6      0.000      0.000
REMARK SMILES CS(=O)(=O)c1ccc(/C=C(/C(=O)OCCOCCOCCOCCOC(=O)c2ccc(-c3c4nc(c(-c5c(F)cccc5F)c5ccc([nH]5)c(-c5c(F)cccc5F)c5nc(c(-c6c(F)cccc6F)c6ccc3[nH]6)C=C5)C=C4)cc2)c2ccc(O)cc2)cc1
REMARK SMILES IDX 19 1 18 2 17 3 16 4 15 5 14 6 13 7 11 8 12 9 10 10 9 11 8 12
REMARK SMILES IDX 5 13 6 14 90 15 7 16 89 17 2 18 1 19 3 20 4 21 82 22 83 23
REMARK SMILES IDX 88 24 84 25 87 26 85 27 86 28 20 30 21 31 22 32 23 33 24 34
REMARK SMILES IDX 25 35 26 36 27 37 28 38 29 39 81 40 30 41 80 42 31 43 32 44
REMARK SMILES IDX 33 45 74 46 34 47 79 48 73 49 75 50 35 51 78 52 72 53 71 54
REMARK SMILES IDX 36 56 62 57 45 58 61 59 46 60 49 61 60 62 76 63 47 64 48 65
REMARK SMILES IDX 59 67 77 68 50 69 37 70 38 71 43 72 39 73 40 74 42 75 44 76
REMARK SMILES IDX 41 77 63 78 64 79 69 80 65 81 66 82 68 83 70 84 67 85 51 86
REMARK SMILES IDX 52 87 57 88 53 89 54 90 56 91 58 92 55 93
REMARK H PARENT 86 29 75 55 49 66
REMARK Flexibility Score: inf
ROOT
ATOM      1  O   UNL A   1      31.497  27.386  25.272  1.00  0.00    -0.377 OA
ENDROOT
BRANCH   1   2
ATOM      2  C   UNL A   1      30.817  28.158  24.294  1.00  0.00     0.188 C 
BRANCH   2   3
ATOM      3  C   UNL A   1      31.636  28.903  23.214  1.00  0.00     0.188 C 
BRANCH   3   4
ATOM      4  O   UNL A   1      33.009  29.053  23.536  1.00  0.00    -0.376 OA
BRANCH   4   5
ATOM      5  C   UNL A   1      33.945  28.469  22.647  1.00  0.00     0.202 C 
BRANCH   5   6
ATOM      6  C   UNL A   1      33.522  27.171  21.941  1.00  0.00     0.261 C 
BRANCH   6   7
ATOM      7  O   UNL A   1      33.700  25.961  22.695  1.00  0.00    -0.460 OA
BRANCH   7   8
ATOM      8  C   UNL A   1      32.626  25.145  22.827  1.00  0.00     0.338 C 
ATOM      9  O   UNL A   1      31.501  25.396  22.424  1.00  0.00    -0.246 OA
BRANCH   8  10
ATOM     10  C   UNL A   1      33.036  23.822  23.415  1.00  0.00     0.067 C 
ATOM     11  C   UNL A   1      32.114  22.830  23.494  1.00  0.00     0.024 C 
BRANCH  11  12
ATOM     12  C   UNL A   1      32.310  21.396  23.820  1.00  0.00    -0.025 A 
ATOM     13  C   UNL A   1      33.199  18.749  24.058  1.00  0.00     0.067 A 
ATOM     14  C   UNL A   1      33.312  19.614  25.142  1.00  0.00     0.021 A 
ATOM     15  C   UNL A   1      32.528  19.148  22.902  1.00  0.00     0.021 A 
ATOM     16  C   UNL A   1      32.823  20.917  25.032  1.00  0.00     0.009 A 
ATOM     17  C   UNL A   1      32.077  20.467  22.793  1.00  0.00     0.009 A 
BRANCH  13  18
ATOM     18  S   UNL A   1      34.066  17.200  24.072  1.00  0.00     0.175 S 
ATOM     19  C   UNL A   1      33.131  16.195  25.186  1.00  0.00     0.163 C 
ATOM     20  O   UNL A   1      35.371  17.430  24.665  1.00  0.00    -0.224 OA
ATOM     21  O   UNL A   1      33.948  16.636  22.741  1.00  0.00    -0.224 OA
ENDBRANCH  13  18
ENDBRANCH  11  12
BRANCH  10  22
ATOM     22  C   UNL A   1      34.438  23.672  23.860  1.00  0.00    -0.011 A 
ATOM     23  C   UNL A   1      34.808  24.070  25.159  1.00  0.00     0.013 A 
ATOM     24  C   UNL A   1      35.390  23.036  23.057  1.00  0.00     0.013 A 
ATOM     25  C   UNL A   1      36.091  23.833  25.648  1.00  0.00     0.047 A 
ATOM     26  C   UNL A   1      36.672  22.779  23.553  1.00  0.00     0.047 A 
ATOM     27  C   UNL A   1      37.009  23.176  24.845  1.00  0.00     0.115 A 
BRANCH  27  28
ATOM     28  O   UNL A   1      38.234  22.915  25.380  1.00  0.00    -0.508 OA
ATOM     29  H   UNL A   1      38.308  22.374  26.141  1.00  0.00     0.293 HD
ENDBRANCH  27  28
ENDBRANCH  10  22
ENDBRANCH   8  10
ENDBRANCH   7   8
ENDBRANCH   6   7
ENDBRANCH   5   6
ENDBRANCH   4   5
ENDBRANCH   3   4
ENDBRANCH   2   3
ENDBRANCH   1   2
BRANCH   1  30
ATOM     30  C   UNL A   1      31.532  27.847  26.617  1.00  0.00     0.188 C 
BRANCH  30  31
ATOM     31  C   UNL A   1      32.872  28.263  27.270  1.00  0.00     0.188 C 
BRANCH  31  32
ATOM     32  O   UNL A   1      33.436  29.461  26.761  1.00  0.00    -0.376 OA
BRANCH  32  33
ATOM     33  C   UNL A   1      32.753  30.676  27.020  1.00  0.00     0.202 C 
BRANCH  33  34
ATOM     34  C   UNL A   1      33.505  31.736  27.835  1.00  0.00     0.261 C 
BRANCH  34  35
ATOM     35  O   UNL A   1      33.231  33.104  27.498  1.00  0.00    -0.460 OA
BRANCH  35  36
ATOM     36  C   UNL A   1      33.406  34.031  28.463  1.00  0.00     0.338 C 
ATOM     37  O   UNL A   1      32.628  34.910  28.796  1.00  0.00    -0.246 OA
BRANCH  36  38
ATOM     38  C   UNL A   1      34.642  33.682  29.190  1.00  0.00     0.060 A 
ATOM     39  C   UNL A   1      35.884  34.048  28.651  1.00  0.00     0.016 A 
ATOM     40  C   UNL A   1      34.569  33.024  30.420  1.00  0.00     0.016 A 
ATOM     41  C   UNL A   1      37.059  33.731  29.330  1.00  0.00     0.010 A 
ATOM     42  C   UNL A   1      35.748  32.683  31.085  1.00  0.00     0.010 A 
ATOM     43  C   UNL A   1      36.998  33.006  30.527  1.00  0.00    -0.014 A 
BRANCH  43  44
ATOM     44  C   UNL A   1      38.229  32.401  31.087  1.00  0.00     0.031 A 
ATOM     45  C   UNL A   1      38.802  31.197  30.392  1.00  0.00     0.074 A 
ATOM     46  C   UNL A   1      38.830  32.905  32.178  1.00  0.00     0.049 A 
ATOM     47  N   UNL A   1      39.824  30.451  30.723  1.00  0.00    -0.248 NA
ATOM     48  C   UNL A   1      38.125  30.776  29.154  1.00  0.00     0.031 C 
ATOM     49  C   UNL A   1      38.396  34.091  32.912  1.00  0.00     0.029 A 
ATOM     50  N   UNL A   1      39.936  32.468  32.863  1.00  0.00    -0.354 N 
ATOM     51  C   UNL A   1      39.905  29.471  29.743  1.00  0.00     0.074 A 
ATOM     52  C   UNL A   1      38.812  29.696  28.823  1.00  0.00     0.031 C 
ATOM     53  C   UNL A   1      39.220  34.279  33.959  1.00  0.00     0.029 A 
ATOM     54  C   UNL A   1      40.214  33.207  33.986  1.00  0.00     0.049 A 
ATOM     55  H   UNL A   1      40.478  31.697  32.576  1.00  0.00     0.167 HD
ATOM     56  C   UNL A   1      40.815  28.477  29.616  1.00  0.00     0.037 A 
ATOM     57  C   UNL A   1      41.150  33.020  34.938  1.00  0.00     0.037 A 
ATOM     58  C   UNL A   1      41.896  28.252  30.538  1.00  0.00     0.049 A 
ATOM     59  C   UNL A   1      42.101  31.856  34.820  1.00  0.00     0.074 A 
ATOM     60  C   UNL A   1      42.880  27.280  30.491  1.00  0.00     0.029 A 
ATOM     61  N   UNL A   1      42.129  29.005  31.679  1.00  0.00    -0.354 N 
ATOM     62  N   UNL A   1      42.189  30.947  33.878  1.00  0.00    -0.248 NA
ATOM     63  C   UNL A   1      43.088  31.693  35.899  1.00  0.00     0.031 C 
ATOM     64  C   UNL A   1      43.672  27.409  31.637  1.00  0.00     0.029 A 
ATOM     65  C   UNL A   1      43.223  28.502  32.362  1.00  0.00     0.049 A 
ATOM     66  H   UNL A   1      41.594  29.782  31.962  1.00  0.00     0.167 HD
ATOM     67  C   UNL A   1      43.257  30.130  34.230  1.00  0.00     0.074 A 
ATOM     68  C   UNL A   1      43.794  30.657  35.468  1.00  0.00     0.031 C 
ATOM     69  C   UNL A   1      43.754  29.044  33.586  1.00  0.00     0.037 A 
BRANCH  56  70
ATOM     70  C   UNL A   1      40.654  27.537  28.456  1.00  0.00     0.057 A 
ATOM     71  C   UNL A   1      39.831  26.405  28.525  1.00  0.00     0.134 A 
ATOM     72  C   UNL A   1      41.313  27.783  27.245  1.00  0.00     0.134 A 
ATOM     73  F   UNL A   1      39.185  26.101  29.661  1.00  0.00    -0.206 F 
ATOM     74  C   UNL A   1      39.690  25.538  27.440  1.00  0.00     0.040 A 
ATOM     75  C   UNL A   1      41.156  26.940  26.143  1.00  0.00     0.040 A 
ATOM     76  F   UNL A   1      42.115  28.850  27.110  1.00  0.00    -0.206 F 
ATOM     77  C   UNL A   1      40.348  25.809  26.242  1.00  0.00     0.006 A 
ENDBRANCH  56  70
BRANCH  57  78
ATOM     78  C   UNL A   1      41.230  33.944  36.099  1.00  0.00     0.057 A 
ATOM     79  C   UNL A   1      40.470  33.727  37.254  1.00  0.00     0.134 A 
ATOM     80  C   UNL A   1      42.044  35.084  36.071  1.00  0.00     0.134 A 
ATOM     81  F   UNL A   1      39.652  32.667  37.334  1.00  0.00    -0.206 F 
ATOM     82  C   UNL A   1      40.500  34.618  38.329  1.00  0.00     0.040 A 
ATOM     83  C   UNL A   1      42.106  35.967  37.149  1.00  0.00     0.040 A 
ATOM     84  F   UNL A   1      42.797  35.352  34.993  1.00  0.00    -0.206 F 
ATOM     85  C   UNL A   1      41.324  35.740  38.279  1.00  0.00     0.006 A 
ENDBRANCH  57  78
BRANCH  69  86
ATOM     86  C   UNL A   1      44.967  28.381  34.175  1.00  0.00     0.057 A 
ATOM     87  C   UNL A   1      44.870  27.347  35.114  1.00  0.00     0.134 A 
ATOM     88  C   UNL A   1      46.251  28.754  33.756  1.00  0.00     0.134 A 
ATOM     89  F   UNL A   1      43.672  26.948  35.566  1.00  0.00    -0.206 F 
ATOM     90  C   UNL A   1      46.008  26.725  35.633  1.00  0.00     0.040 A 
ATOM     91  C   UNL A   1      47.393  28.118  34.244  1.00  0.00     0.040 A 
ATOM     92  F   UNL A   1      46.416  29.730  32.849  1.00  0.00    -0.206 F 
ATOM     93  C   UNL A   1      47.274  27.105  35.191  1.00  0.00     0.006 A 
ENDBRANCH  69  86
ENDBRANCH  43  44
ENDBRANCH  36  38
ENDBRANCH  35  36
ENDBRANCH  34  35
ENDBRANCH  33  34
ENDBRANCH  32  33
ENDBRANCH  31  32
ENDBRANCH  30  31
ENDBRANCH   1  30
TORSDOF 24
ENDMDL
MODEL 2
REMARK VINA RESULT:     -10.3      1.091      6.031
REMARK SMILES CS(=O)(=O)c1ccc(/C=C(/C(=O)OCCOCCOCCOCCOC(=O)c2ccc(-c3c4nc(c(-c5c(F)cccc5F)c5ccc([nH]5)c(-c5c(F)cccc5F)c5nc(c(-c6c(F)cccc6F)c6ccc3[nH]6)C=C5)C=C4)cc2)c2ccc(O)cc2)cc1
REMARK SMILES IDX 19 1 18 2 17 3 16 4 15 5 14 6 13 7 11 8 12 9 10 10 9 11 8 12
REMARK SMILES IDX 5 13 6 14 90 15 7 16 89 17 2 18 1 19 3 20 4 21 82 22 83 23
REMARK SMILES IDX 88 24 84 25 87 26 85 27 86 28 20 30 21 31 22 32 23 33 24 34
REMARK SMILES IDX 25 35 26 36 27 37 28 38 29 39 81 40 30 41 80 42 31 43 32 44
REMARK SMILES IDX 33 45 74 46 34 47 79 48 73 49 75 50 35 51 78 52 72 53 71 54
REMARK SMILES IDX 36 56 62 57 45 58 61 59 46 60 49 61 60 62 76 63 47 64 48 65
REMARK SMILES IDX 59 67 77 68 50 69 37 70 38 71 43 72 39 73 40 74 42 75 44 76
REMARK SMILES IDX 41 77 63 78 64 79 69 80 65 81 66 82 68 83 70 84 67 85 51 86
REMARK SMILES IDX 52 87 57 88 53 89 54 90 56 91 58 92 55 93
REMARK H PARENT 86 29 75 55 49 66
REMARK Flexibility Score: inf
ROOT
ATOM      1  O   UNL A   1      31.727  27.885  24.103  1.00  0.00    -0.377 OA
ENDROOT
BRANCH   1   2
ATOM      2  C   UNL A   1      32.258  28.638  23.025  1.00  0.00     0.188 C 
BRANCH   2   3
ATOM      3  C   UNL A   1      33.734  28.433  22.612  1.00  0.00     0.188 C 
BRANCH   3   4
ATOM      4  O   UNL A   1      33.920  27.430  21.627  1.00  0.00    -0.376 OA
BRANCH   4   5
ATOM      5  C   UNL A   1      32.852  26.522  21.424  1.00  0.00     0.202 C 
BRANCH   5   6
ATOM      6  C   UNL A   1      33.108  25.051  21.790  1.00  0.00     0.261 C 
BRANCH   6   7
ATOM      7  O   UNL A   1      33.636  24.815  23.105  1.00  0.00    -0.460 OA
BRANCH   7   8
ATOM      8  C   UNL A   1      32.792  24.304  24.034  1.00  0.00     0.338 C 
ATOM      9  O   UNL A   1      31.811  24.877  24.480  1.00  0.00    -0.246 OA
BRANCH   8  10
ATOM     10  C   UNL A   1      33.147  22.874  24.343  1.00  0.00     0.067 C 
ATOM     11  C   UNL A   1      32.155  21.950  24.380  1.00  0.00     0.024 C 
BRANCH  11  12
ATOM     12  C   UNL A   1      32.258  20.472  24.442  1.00  0.00    -0.025 A 
ATOM     13  C   UNL A   1      33.028  17.782  24.290  1.00  0.00     0.067 A 
ATOM     14  C   UNL A   1      32.975  18.414  25.528  1.00  0.00     0.021 A 
ATOM     15  C   UNL A   1      32.575  18.433  23.143  1.00  0.00     0.021 A 
ATOM     16  C   UNL A   1      32.544  19.741  25.602  1.00  0.00     0.009 A 
ATOM     17  C   UNL A   1      32.181  19.772  23.226  1.00  0.00     0.009 A 
BRANCH  13  18
ATOM     18  S   UNL A   1      33.842  16.212  24.136  1.00  0.00     0.175 S 
ATOM     19  C   UNL A   1      35.240  16.346  25.211  1.00  0.00     0.163 C 
ATOM     20  O   UNL A   1      34.333  16.100  22.776  1.00  0.00    -0.224 OA
ATOM     21  O   UNL A   1      32.943  15.213  24.683  1.00  0.00    -0.224 OA
ENDBRANCH  13  18
ENDBRANCH  11  12
BRANCH  10  22
ATOM     22  C   UNL A   1      34.573  22.553  24.570  1.00  0.00    -0.011 A 
ATOM     23  C   UNL A   1      35.491  22.651  23.508  1.00  0.00     0.013 A 
ATOM     24  C   UNL A   1      35.054  22.262  25.850  1.00  0.00     0.013 A 
ATOM     25  C   UNL A   1      36.857  22.471  23.718  1.00  0.00     0.047 A 
ATOM     26  C   UNL A   1      36.427  22.101  26.066  1.00  0.00     0.047 A 
ATOM     27  C   UNL A   1      37.315  22.211  24.999  1.00  0.00     0.115 A 
BRANCH  27  28
ATOM     28  O   UNL A   1      38.662  22.096  25.170  1.00  0.00    -0.508 OA
ATOM     29  H   UNL A   1      39.005  21.483  25.789  1.00  0.00     0.293 HD
ENDBRANCH  27  28
ENDBRANCH  10  22
ENDBRANCH   8  10
ENDBRANCH   7   8
ENDBRANCH   6   7
ENDBRANCH   5   6
ENDBRANCH   4   5
ENDBRANCH   3   4
ENDBRANCH   2   3
ENDBRANCH   1   2
BRANCH   1  30
ATOM     30  C   UNL A   1      31.515  28.524  25.356  1.00  0.00     0.188 C 
BRANCH  30  31
ATOM     31  C   UNL A   1      31.497  30.068  25.459  1.00  0.00     0.188 C 
BRANCH  31  32
ATOM     32  O   UNL A   1      32.666  30.641  26.020  1.00  0.00    -0.376 OA
BRANCH  32  33
ATOM     33  C   UNL A   1      32.556  31.261  27.289  1.00  0.00     0.202 C 
BRANCH  33  34
ATOM     34  C   UNL A   1      32.070  32.716  27.312  1.00  0.00     0.261 C 
BRANCH  34  35
ATOM     35  O   UNL A   1      33.092  33.725  27.294  1.00  0.00    -0.460 OA
BRANCH  35  36
ATOM     36  C   UNL A   1      33.281  34.442  28.421  1.00  0.00     0.338 C 
ATOM     37  O   UNL A   1      32.571  35.329  28.863  1.00  0.00    -0.246 OA
BRANCH  36  38
ATOM     38  C   UNL A   1      34.417  33.834  29.143  1.00  0.00     0.060 A 
ATOM     39  C   UNL A   1      35.727  34.182  28.782  1.00  0.00     0.016 A 
ATOM     40  C   UNL A   1      34.182  32.948  30.197  1.00  0.00     0.016 A 
ATOM     41  C   UNL A   1      36.808  33.621  29.460  1.00  0.00     0.010 A 
ATOM     42  C   UNL A   1      35.266  32.367  30.857  1.00  0.00     0.010 A 
ATOM     43  C   UNL A   1      36.582  32.676  30.469  1.00  0.00    -0.014 A 
BRANCH  43  44
ATOM     44  C   UNL A   1      37.707  31.853  30.974  1.00  0.00     0.031 A 
ATOM     45  C   UNL A   1      38.248  32.161  32.343  1.00  0.00     0.074 A 
ATOM     46  C   UNL A   1      38.234  30.855  30.244  1.00  0.00     0.049 A 
ATOM     47  N   UNL A   1      39.264  31.635  32.975  1.00  0.00    -0.248 NA
ATOM     48  C   UNL A   1      37.544  33.210  33.099  1.00  0.00     0.031 C 
ATOM     49  C   UNL A   1      37.769  30.433  28.925  1.00  0.00     0.029 A 
ATOM     50  N   UNL A   1      39.290  30.020  30.515  1.00  0.00    -0.354 N 
ATOM     51  C   UNL A   1      39.327  32.294  34.196  1.00  0.00     0.074 A 
ATOM     52  C   UNL A   1      38.269  33.280  34.204  1.00  0.00     0.031 C 
ATOM     53  C   UNL A   1      38.549  29.426  28.492  1.00  0.00     0.029 A 
ATOM     54  C   UNL A   1      39.586  29.159  29.488  1.00  0.00     0.049 A 
ATOM     55  H   UNL A   1      39.787  30.039  31.364  1.00  0.00     0.167 HD
ATOM     56  C   UNL A   1      40.185  32.090  35.222  1.00  0.00     0.037 A 
ATOM     57  C   UNL A   1      40.596  28.276  29.360  1.00  0.00     0.037 A 
ATOM     58  C   UNL A   1      41.242  31.113  35.207  1.00  0.00     0.049 A 
ATOM     59  C   UNL A   1      41.592  28.125  30.484  1.00  0.00     0.074 A 
ATOM     60  C   UNL A   1      42.157  30.819  36.202  1.00  0.00     0.029 A 
ATOM     61  N   UNL A   1      41.528  30.278  34.137  1.00  0.00    -0.354 N 
ATOM     62  N   UNL A   1      41.632  28.733  31.645  1.00  0.00    -0.248 NA
ATOM     63  C   UNL A   1      42.682  27.160  30.279  1.00  0.00     0.031 C 
ATOM     64  C   UNL A   1      43.035  29.848  35.711  1.00  0.00     0.029 A 
ATOM     65  C   UNL A   1      42.625  29.489  34.436  1.00  0.00     0.049 A 
ATOM     66  H   UNL A   1      41.026  30.252  33.291  1.00  0.00     0.167 HD
ATOM     67  C   UNL A   1      42.724  28.201  32.320  1.00  0.00     0.074 A 
ATOM     68  C   UNL A   1      43.315  27.212  31.442  1.00  0.00     0.031 C 
ATOM     69  C   UNL A   1      43.195  28.499  33.557  1.00  0.00     0.037 A 
BRANCH  56  70
ATOM     70  C   UNL A   1      40.037  32.967  36.431  1.00  0.00     0.057 A 
ATOM     71  C   UNL A   1      40.818  34.116  36.618  1.00  0.00     0.134 A 
ATOM     72  C   UNL A   1      39.081  32.672  37.411  1.00  0.00     0.134 A 
ATOM     73  F   UNL A   1      41.765  34.447  35.726  1.00  0.00    -0.206 F 
ATOM     74  C   UNL A   1      40.672  34.923  37.747  1.00  0.00     0.040 A 
ATOM     75  C   UNL A   1      38.904  33.488  38.530  1.00  0.00     0.040 A 
ATOM     76  F   UNL A   1      38.298  31.588  37.296  1.00  0.00    -0.206 F 
ATOM     77  C   UNL A   1      39.706  34.614  38.703  1.00  0.00     0.006 A 
ENDBRANCH  56  70
BRANCH  57  78
ATOM     78  C   UNL A   1      40.736  27.474  28.118  1.00  0.00     0.057 A 
ATOM     79  C   UNL A   1      40.119  26.223  27.986  1.00  0.00     0.134 A 
ATOM     80  C   UNL A   1      41.514  27.922  27.043  1.00  0.00     0.134 A 
ATOM     81  F   UNL A   1      39.381  25.727  28.989  1.00  0.00    -0.206 F 
ATOM     82  C   UNL A   1      40.288  25.440  26.842  1.00  0.00     0.040 A 
ATOM     83  C   UNL A   1      41.668  27.162  25.883  1.00  0.00     0.040 A 
ATOM     84  F   UNL A   1      42.134  29.110  27.105  1.00  0.00    -0.206 F 
ATOM     85  C   UNL A   1      41.061  25.913  25.784  1.00  0.00     0.006 A 
ENDBRANCH  57  78
BRANCH  69  86
ATOM     86  C   UNL A   1      44.374  27.715  34.060  1.00  0.00     0.057 A 
ATOM     87  C   UNL A   1      45.689  28.176  33.923  1.00  0.00     0.134 A 
ATOM     88  C   UNL A   1      44.183  26.503  34.736  1.00  0.00     0.134 A 
ATOM     89  F   UNL A   1      45.945  29.324  33.278  1.00  0.00    -0.206 F 
ATOM     90  C   UNL A   1      46.773  27.447  34.417  1.00  0.00     0.040 A 
ATOM     91  C   UNL A   1      45.254  25.781  35.261  1.00  0.00     0.040 A 
ATOM     92  F   UNL A   1      42.947  26.009  34.913  1.00  0.00    -0.206 F 
ATOM     93  C   UNL A   1      46.555  26.249  35.096  1.00  0.00     0.006 A 
ENDBRANCH  69  86
ENDBRANCH  43  44
ENDBRANCH  36  38
ENDBRANCH  35  36
ENDBRANCH  34  35
ENDBRANCH  33  34
ENDBRANCH  32  33
ENDBRANCH  31  32
ENDBRANCH  30  31
ENDBRANCH   1  30
TORSDOF 24
ENDMDL
MODEL 3
REMARK VINA RESULT:     -10.3      3.116      8.951
REMARK SMILES CS(=O)(=O)c1ccc(/C=C(/C(=O)OCCOCCOCCOCCOC(=O)c2ccc(-c3c4nc(c(-c5c(F)cccc5F)c5ccc([nH]5)c(-c5c(F)cccc5F)c5nc(c(-c6c(F)cccc6F)c6ccc3[nH]6)C=C5)C=C4)cc2)c2ccc(O)cc2)cc1
REMARK SMILES IDX 19 1 18 2 17 3 16 4 15 5 14 6 13 7 11 8 12 9 10 10 9 11 8 12
REMARK SMILES IDX 5 13 6 14 90 15 7 16 89 17 2 18 1 19 3 20 4 21 82 22 83 23
REMARK SMILES IDX 88 24 84 25 87 26 85 27 86 28 20 30 21 31 22 32 23 33 24 34
REMARK SMILES IDX 25 35 26 36 27 37 28 38 29 39 81 40 30 41 80 42 31 43 32 44
REMARK SMILES IDX 33 45 74 46 34 47 79 48 73 49 75 50 35 51 78 52 72 53 71 54
REMARK SMILES IDX 36 56 62 57 45 58 61 59 46 60 49 61 60 62 76 63 47 64 48 65
REMARK SMILES IDX 59 67 77 68 50 69 37 70 38 71 43 72 39 73 40 74 42 75 44 76
REMARK SMILES IDX 41 77 63 78 64 79 69 80 65 81 66 82 68 83 70 84 67 85 51 86
REMARK SMILES IDX 52 87 57 88 53 89 54 90 56 91 58 92 55 93
REMARK H PARENT 86 29 75 55 49 66
REMARK Flexibility Score: inf
ROOT
ATOM      1  O   UNL A   1      39.072  22.286  26.148  1.00  0.00    -0.377 OA
ENDROOT
BRANCH   1   2
ATOM      2  C   UNL A   1      38.109  21.681  25.300  1.00  0.00     0.188 C 
BRANCH   2   3
ATOM      3  C   UNL A   1      37.071  22.572  24.577  1.00  0.00     0.188 C 
BRANCH   3   4
ATOM      4  O   UNL A   1      35.964  22.935  25.386  1.00  0.00    -0.376 OA
BRANCH   4   5
ATOM      5  C   UNL A   1      35.469  24.255  25.242  1.00  0.00     0.202 C 
BRANCH   5   6
ATOM      6  C   UNL A   1      34.251  24.640  26.097  1.00  0.00     0.261 C 
BRANCH   6   7
ATOM      7  O   UNL A   1      33.319  23.580  26.371  1.00  0.00    -0.460 OA
BRANCH   7   8
ATOM      8  C   UNL A   1      32.014  23.919  26.512  1.00  0.00     0.338 C 
ATOM      9  O   UNL A   1      31.323  23.657  27.483  1.00  0.00    -0.246 OA
BRANCH   8  10
ATOM     10  C   UNL A   1      31.566  24.785  25.365  1.00  0.00     0.067 C 
ATOM     11  C   UNL A   1      30.859  25.910  25.637  1.00  0.00     0.024 C 
BRANCH  11  12
ATOM     12  C   UNL A   1      30.496  27.027  24.730  1.00  0.00    -0.025 A 
ATOM     13  C   UNL A   1      29.322  29.213  23.429  1.00  0.00     0.067 A 
ATOM     14  C   UNL A   1      30.529  29.379  24.101  1.00  0.00     0.021 A 
ATOM     15  C   UNL A   1      28.761  27.945  23.284  1.00  0.00     0.021 A 
ATOM     16  C   UNL A   1      31.133  28.274  24.706  1.00  0.00     0.009 A 
ATOM     17  C   UNL A   1      29.357  26.856  23.926  1.00  0.00     0.009 A 
BRANCH  13  18
ATOM     18  S   UNL A   1      28.400  30.639  22.912  1.00  0.00     0.175 S 
ATOM     19  C   UNL A   1      28.484  30.587  21.146  1.00  0.00     0.163 C 
ATOM     20  O   UNL A   1      29.120  31.817  23.359  1.00  0.00    -0.224 OA
ATOM     21  O   UNL A   1      27.022  30.420  23.308  1.00  0.00    -0.224 OA
ENDBRANCH  13  18
ENDBRANCH  11  12
BRANCH  10  22
ATOM     22  C   UNL A   1      31.940  24.364  23.998  1.00  0.00    -0.011 A 
ATOM     23  C   UNL A   1      32.509  25.296  23.109  1.00  0.00     0.013 A 
ATOM     24  C   UNL A   1      31.847  23.027  23.600  1.00  0.00     0.013 A 
ATOM     25  C   UNL A   1      32.981  24.904  21.858  1.00  0.00     0.047 A 
ATOM     26  C   UNL A   1      32.338  22.628  22.352  1.00  0.00     0.047 A 
ATOM     27  C   UNL A   1      32.904  23.569  21.496  1.00  0.00     0.115 A 
BRANCH  27  28
ATOM     28  O   UNL A   1      33.426  23.219  20.287  1.00  0.00    -0.508 OA
ATOM     29  H   UNL A   1      34.354  23.228  20.157  1.00  0.00     0.293 HD
ENDBRANCH  27  28
ENDBRANCH  10  22
ENDBRANCH   8  10
ENDBRANCH   7   8
ENDBRANCH   6   7
ENDBRANCH   5   6
ENDBRANCH   4   5
ENDBRANCH   3   4
ENDBRANCH   2   3
ENDBRANCH   1   2
BRANCH   1  30
ATOM     30  C   UNL A   1      40.015  21.462  26.824  1.00  0.00     0.188 C 
BRANCH  30  31
ATOM     31  C   UNL A   1      40.663  20.255  26.103  1.00  0.00     0.188 C 
BRANCH  31  32
ATOM     32  O   UNL A   1      41.975  20.487  25.618  1.00  0.00    -0.376 OA
BRANCH  32  33
ATOM     33  C   UNL A   1      42.962  20.899  26.547  1.00  0.00     0.202 C 
BRANCH  33  34
ATOM     34  C   UNL A   1      44.261  21.476  25.972  1.00  0.00     0.261 C 
BRANCH  34  35
ATOM     35  O   UNL A   1      44.509  22.865  26.238  1.00  0.00    -0.460 OA
BRANCH  35  36
ATOM     36  C   UNL A   1      43.897  23.771  25.448  1.00  0.00     0.338 C 
ATOM     37  O   UNL A   1      43.743  23.717  24.239  1.00  0.00    -0.246 OA
BRANCH  36  38
ATOM     38  C   UNL A   1      43.267  24.771  26.333  1.00  0.00     0.060 A 
ATOM     39  C   UNL A   1      43.836  26.048  26.443  1.00  0.00     0.016 A 
ATOM     40  C   UNL A   1      42.095  24.454  27.024  1.00  0.00     0.016 A 
ATOM     41  C   UNL A   1      43.247  27.004  27.269  1.00  0.00     0.010 A 
ATOM     42  C   UNL A   1      41.522  25.404  27.872  1.00  0.00     0.010 A 
ATOM     43  C   UNL A   1      42.115  26.670  28.023  1.00  0.00    -0.014 A 
BRANCH  43  44
ATOM     44  C   UNL A   1      41.672  27.560  29.123  1.00  0.00     0.031 A 
ATOM     45  C   UNL A   1      42.401  27.476  30.435  1.00  0.00     0.074 A 
ATOM     46  C   UNL A   1      40.656  28.426  28.964  1.00  0.00     0.049 A 
ATOM     47  N   UNL A   1      42.162  28.094  31.562  1.00  0.00    -0.248 NA
ATOM     48  C   UNL A   1      43.557  26.565  30.480  1.00  0.00     0.031 C 
ATOM     49  C   UNL A   1      39.902  28.630  27.730  1.00  0.00     0.029 A 
ATOM     50  N   UNL A   1      40.079  29.290  29.861  1.00  0.00    -0.354 N 
ATOM     51  C   UNL A   1      43.129  27.641  32.450  1.00  0.00     0.074 A 
ATOM     52  C   UNL A   1      43.937  26.673  31.742  1.00  0.00     0.031 C 
ATOM     53  C   UNL A   1      38.947  29.552  27.953  1.00  0.00     0.029 A 
ATOM     54  C   UNL A   1      39.003  29.973  29.352  1.00  0.00     0.049 A 
ATOM     55  H   UNL A   1      40.406  29.407  30.783  1.00  0.00     0.167 HD
ATOM     56  C   UNL A   1      43.331  28.005  33.737  1.00  0.00     0.037 A 
ATOM     57  C   UNL A   1      38.148  30.821  29.957  1.00  0.00     0.037 A 
ATOM     58  C   UNL A   1      42.519  28.964  34.440  1.00  0.00     0.049 A 
ATOM     59  C   UNL A   1      38.341  31.148  31.417  1.00  0.00     0.074 A 
ATOM     60  C   UNL A   1      42.649  29.411  35.742  1.00  0.00     0.029 A 
ATOM     61  N   UNL A   1      41.421  29.613  33.898  1.00  0.00    -0.354 N 
ATOM     62  N   UNL A   1      39.272  30.735  32.244  1.00  0.00    -0.248 NA
ATOM     63  C   UNL A   1      37.366  32.064  32.027  1.00  0.00     0.031 C 
ATOM     64  C   UNL A   1      41.592  30.288  36.008  1.00  0.00     0.029 A 
ATOM     65  C   UNL A   1      40.844  30.438  34.850  1.00  0.00     0.049 A 
ATOM     66  H   UNL A   1      41.098  29.504  32.974  1.00  0.00     0.167 HD
ATOM     67  C   UNL A   1      39.016  31.366  33.456  1.00  0.00     0.074 A 
ATOM     68  C   UNL A   1      37.848  32.198  33.254  1.00  0.00     0.031 C 
ATOM     69  C   UNL A   1      39.688  31.270  34.630  1.00  0.00     0.037 A 
BRANCH  56  70
ATOM     70  C   UNL A   1      44.452  27.335  34.478  1.00  0.00     0.057 A 
ATOM     71  C   UNL A   1      44.276  26.121  35.155  1.00  0.00     0.134 A 
ATOM     72  C   UNL A   1      45.733  27.901  34.491  1.00  0.00     0.134 A 
ATOM     73  F   UNL A   1      43.070  25.534  35.197  1.00  0.00    -0.206 F 
ATOM     74  C   UNL A   1      45.326  25.509  35.841  1.00  0.00     0.040 A 
ATOM     75  C   UNL A   1      46.799  27.282  35.147  1.00  0.00     0.040 A 
ATOM     76  F   UNL A   1      45.973  29.061  33.861  1.00  0.00    -0.206 F 
ATOM     77  C   UNL A   1      46.594  26.086  35.831  1.00  0.00     0.006 A 
ENDBRANCH  56  70
BRANCH  57  78
ATOM     78  C   UNL A   1      37.016  31.411  29.197  1.00  0.00     0.057 A 
ATOM     79  C   UNL A   1      37.068  32.726  28.720  1.00  0.00     0.134 A 
ATOM     80  C   UNL A   1      35.842  30.686  28.955  1.00  0.00     0.134 A 
ATOM     81  F   UNL A   1      38.154  33.481  28.941  1.00  0.00    -0.206 F 
ATOM     82  C   UNL A   1      35.989  33.306  28.050  1.00  0.00     0.040 A 
ATOM     83  C   UNL A   1      34.767  31.243  28.262  1.00  0.00     0.040 A 
ATOM     84  F   UNL A   1      35.726  29.421  29.386  1.00  0.00    -0.206 F 
ATOM     85  C   UNL A   1      34.835  32.561  27.815  1.00  0.00     0.006 A 
ENDBRANCH  57  78
BRANCH  69  86
ATOM     86  C   UNL A   1      39.214  32.121  35.775  1.00  0.00     0.057 A 
ATOM     87  C   UNL A   1      39.643  33.442  35.949  1.00  0.00     0.134 A 
ATOM     88  C   UNL A   1      38.275  31.622  36.687  1.00  0.00     0.134 A 
ATOM     89  F   UNL A   1      40.548  33.980  35.118  1.00  0.00    -0.206 F 
ATOM     90  C   UNL A   1      39.175  34.228  37.005  1.00  0.00     0.040 A 
ATOM     91  C   UNL A   1      37.776  32.407  37.727  1.00  0.00     0.040 A 
ATOM     92  F   UNL A   1      37.812  30.367  36.572  1.00  0.00    -0.206 F 
ATOM     93  C   UNL A   1      38.232  33.712  37.892  1.00  0.00     0.006 A 
ENDBRANCH  69  86
ENDBRANCH  43  44
ENDBRANCH  36  38
ENDBRANCH  35  36
ENDBRANCH  34  35
ENDBRANCH  33  34
ENDBRANCH  32  33
ENDBRANCH  31  32
ENDBRANCH  30  31
ENDBRANCH   1  30
TORSDOF 24
ENDMDL
