MODEL 1
REMARK VINA RESULT:     -10.2      0.000      0.000
REMARK SMILES CC1(C)CCC[C@@](C)(CCC(=O)OCCOCCOCCOCCOC(=O)c2ccc(-c3c4nc(c(-c5c(F)cccc5F)c5ccc([nH]5)c(-c5c(F)cccc5F)c5nc(c(-c6c(F)cccc6F)c6ccc3[nH]6)C=C5)C=C4)cc2)C1=O
REMARK SMILES IDX 19 1 18 2 17 3 16 4 15 5 14 6 13 7 11 8 12 9 10 10 9 11 7 12
REMARK SMILES IDX 1 13 2 14 3 15 4 16 82 17 5 18 83 19 6 20 8 21 20 22 21 23
REMARK SMILES IDX 22 24 23 25 24 26 25 27 26 28 27 29 28 30 29 31 81 32 30 33
REMARK SMILES IDX 80 34 31 35 32 36 33 37 74 38 34 39 79 40 73 41 75 42 35 43
REMARK SMILES IDX 78 44 72 45 71 46 36 48 62 49 45 50 61 51 46 52 49 53 60 54
REMARK SMILES IDX 76 55 47 56 48 57 59 59 77 60 50 61 37 62 38 63 43 64 39 65
REMARK SMILES IDX 40 66 42 67 44 68 41 69 63 70 64 71 69 72 65 73 66 74 68 75
REMARK SMILES IDX 70 76 67 77 51 78 52 79 57 80 53 81 54 82 56 83 58 84 55 85
REMARK H PARENT 75 47 49 58
REMARK Flexibility Score: inf
ROOT
ATOM      1  O   UNL A   1      39.072  21.058  26.178  1.00  0.00    -0.377 OA
ENDROOT
BRANCH   1   2
ATOM      2  C   UNL A   1      38.200  21.850  25.388  1.00  0.00     0.188 C 
BRANCH   2   3
ATOM      3  C   UNL A   1      36.866  21.186  25.027  1.00  0.00     0.188 C 
BRANCH   3   4
ATOM      4  O   UNL A   1      35.824  21.231  25.989  1.00  0.00    -0.376 OA
BRANCH   4   5
ATOM      5  C   UNL A   1      34.483  21.098  25.531  1.00  0.00     0.202 C 
BRANCH   5   6
ATOM      6  C   UNL A   1      33.767  22.310  24.903  1.00  0.00     0.261 C 
BRANCH   6   7
ATOM      7  O   UNL A   1      33.707  23.505  25.718  1.00  0.00    -0.463 OA
BRANCH   7   8
ATOM      8  C   UNL A   1      34.478  24.539  25.312  1.00  0.00     0.305 C 
ATOM      9  O   UNL A   1      35.468  24.416  24.594  1.00  0.00    -0.252 OA
BRANCH   8  10
ATOM     10  C   UNL A   1      34.011  25.920  25.732  1.00  0.00     0.124 C 
BRANCH  10  11
ATOM     11  C   UNL A   1      32.991  26.771  24.961  1.00  0.00     0.026 C 
BRANCH  11  12
ATOM     12  C   UNL A   1      31.751  27.399  25.671  1.00  0.00     0.027 C 
ATOM     13  C   UNL A   1      31.264  27.740  22.373  1.00  0.00     0.019 C 
ATOM     14  C   UNL A   1      30.328  28.150  23.521  1.00  0.00     0.024 C 
ATOM     15  C   UNL A   1      29.505  29.364  23.040  1.00  0.00     0.019 C 
ATOM     16  C   UNL A   1      29.321  27.046  23.861  1.00  0.00     0.014 C 
ATOM     17  C   UNL A   1      31.155  28.533  24.776  1.00  0.00     0.144 C 
ATOM     18  C   UNL A   1      29.928  25.907  24.652  1.00  0.00     0.002 C 
ATOM     19  O   UNL A   1      31.399  29.718  25.019  1.00  0.00    -0.298 OA
ATOM     20  C   UNL A   1      30.625  26.380  25.921  1.00  0.00     0.014 C 
ATOM     21  C   UNL A   1      32.140  28.010  27.032  1.00  0.00     0.020 C 
ENDBRANCH  11  12
ENDBRANCH  10  11
ENDBRANCH   8  10
ENDBRANCH   7   8
ENDBRANCH   6   7
ENDBRANCH   5   6
ENDBRANCH   4   5
ENDBRANCH   3   4
ENDBRANCH   2   3
ENDBRANCH   1   2
BRANCH   1  22
ATOM     22  C   UNL A   1      40.457  21.383  26.281  1.00  0.00     0.188 C 
BRANCH  22  23
ATOM     23  C   UNL A   1      41.520  20.288  26.307  1.00  0.00     0.188 C 
BRANCH  23  24
ATOM     24  O   UNL A   1      42.614  20.368  25.393  1.00  0.00    -0.376 OA
BRANCH  24  25
ATOM     25  C   UNL A   1      43.770  21.131  25.726  1.00  0.00     0.202 C 
BRANCH  25  26
ATOM     26  C   UNL A   1      44.223  22.103  24.644  1.00  0.00     0.261 C 
BRANCH  26  27
ATOM     27  O   UNL A   1      43.414  23.288  24.666  1.00  0.00    -0.460 OA
BRANCH  27  28
ATOM     28  C   UNL A   1      44.075  24.418  24.985  1.00  0.00     0.338 C 
ATOM     29  O   UNL A   1      45.197  24.752  24.627  1.00  0.00    -0.246 OA
BRANCH  28  30
ATOM     30  C   UNL A   1      43.190  25.306  25.749  1.00  0.00     0.060 A 
ATOM     31  C   UNL A   1      43.574  26.646  25.876  1.00  0.00     0.016 A 
ATOM     32  C   UNL A   1      42.060  24.817  26.412  1.00  0.00     0.016 A 
ATOM     33  C   UNL A   1      42.885  27.480  26.746  1.00  0.00     0.010 A 
ATOM     34  C   UNL A   1      41.367  25.658  27.284  1.00  0.00     0.010 A 
ATOM     35  C   UNL A   1      41.821  26.971  27.500  1.00  0.00    -0.014 A 
BRANCH  35  36
ATOM     36  C   UNL A   1      41.358  27.735  28.679  1.00  0.00     0.031 A 
ATOM     37  C   UNL A   1      42.132  27.607  29.963  1.00  0.00     0.074 A 
ATOM     38  C   UNL A   1      40.313  28.573  28.592  1.00  0.00     0.049 A 
ATOM     39  N   UNL A   1      41.921  28.173  31.122  1.00  0.00    -0.248 NA
ATOM     40  C   UNL A   1      43.302  26.713  29.933  1.00  0.00     0.031 C 
ATOM     41  C   UNL A   1      39.521  28.813  27.388  1.00  0.00     0.029 A 
ATOM     42  N   UNL A   1      39.743  29.378  29.543  1.00  0.00    -0.354 N 
ATOM     43  C   UNL A   1      42.923  27.696  31.961  1.00  0.00     0.074 A 
ATOM     44  C   UNL A   1      43.715  26.765  31.189  1.00  0.00     0.031 C 
ATOM     45  C   UNL A   1      38.558  29.704  27.675  1.00  0.00     0.029 A 
ATOM     46  C   UNL A   1      38.649  30.068  29.088  1.00  0.00     0.049 A 
ATOM     47  H   UNL A   1      40.085  29.453  30.462  1.00  0.00     0.167 HD
ATOM     48  C   UNL A   1      43.165  28.015  33.254  1.00  0.00     0.037 A 
ATOM     49  C   UNL A   1      37.806  30.886  29.748  1.00  0.00     0.037 A 
ATOM     50  C   UNL A   1      42.370  28.942  34.013  1.00  0.00     0.049 A 
ATOM     51  C   UNL A   1      38.054  31.175  31.204  1.00  0.00     0.074 A 
ATOM     52  C   UNL A   1      42.535  29.351  35.324  1.00  0.00     0.029 A 
ATOM     53  N   UNL A   1      41.246  29.598  33.528  1.00  0.00    -0.354 N 
ATOM     54  N   UNL A   1      39.014  30.740  31.985  1.00  0.00    -0.248 NA
ATOM     55  C   UNL A   1      37.106  32.080  31.868  1.00  0.00     0.031 C 
ATOM     56  C   UNL A   1      41.476  30.203  35.652  1.00  0.00     0.029 A 
ATOM     57  C   UNL A   1      40.691  30.385  34.523  1.00  0.00     0.049 A 
ATOM     58  H   UNL A   1      40.896  29.516  32.612  1.00  0.00     0.167 HD
ATOM     59  C   UNL A   1      38.806  31.341  33.221  1.00  0.00     0.074 A 
ATOM     60  C   UNL A   1      37.634  32.180  33.080  1.00  0.00     0.031 C 
ATOM     61  C   UNL A   1      39.524  31.216  34.366  1.00  0.00     0.037 A 
BRANCH  48  62
ATOM     62  C   UNL A   1      44.309  27.315  33.933  1.00  0.00     0.057 A 
ATOM     63  C   UNL A   1      44.165  26.062  34.545  1.00  0.00     0.134 A 
ATOM     64  C   UNL A   1      45.576  27.911  33.978  1.00  0.00     0.134 A 
ATOM     65  F   UNL A   1      42.975  25.441  34.554  1.00  0.00    -0.206 F 
ATOM     66  C   UNL A   1      45.228  25.446  35.209  1.00  0.00     0.040 A 
ATOM     67  C   UNL A   1      46.655  27.289  34.610  1.00  0.00     0.040 A 
ATOM     68  F   UNL A   1      45.788  29.107  33.412  1.00  0.00    -0.206 F 
ATOM     69  C   UNL A   1      46.480  26.058  35.237  1.00  0.00     0.006 A 
ENDBRANCH  48  62
BRANCH  49  70
ATOM     70  C   UNL A   1      36.650  31.481  29.034  1.00  0.00     0.057 A 
ATOM     71  C   UNL A   1      36.639  32.829  28.659  1.00  0.00     0.134 A 
ATOM     72  C   UNL A   1      35.526  30.712  28.706  1.00  0.00     0.134 A 
ATOM     73  F   UNL A   1      37.678  33.622  28.961  1.00  0.00    -0.206 F 
ATOM     74  C   UNL A   1      35.549  33.395  27.994  1.00  0.00     0.040 A 
ATOM     75  C   UNL A   1      34.441  31.257  28.018  1.00  0.00     0.040 A 
ATOM     76  F   UNL A   1      35.476  29.413  29.032  1.00  0.00    -0.206 F 
ATOM     77  C   UNL A   1      34.449  32.606  27.667  1.00  0.00     0.006 A 
ENDBRANCH  49  70
BRANCH  61  78
ATOM     78  C   UNL A   1      39.092  32.044  35.544  1.00  0.00     0.057 A 
ATOM     79  C   UNL A   1      39.496  33.375  35.713  1.00  0.00     0.134 A 
ATOM     80  C   UNL A   1      38.226  31.507  36.507  1.00  0.00     0.134 A 
ATOM     81  F   UNL A   1      40.331  33.949  34.834  1.00  0.00    -0.206 F 
ATOM     82  C   UNL A   1      39.082  34.129  36.813  1.00  0.00     0.040 A 
ATOM     83  C   UNL A   1      37.778  32.261  37.592  1.00  0.00     0.040 A 
ATOM     84  F   UNL A   1      37.789  30.242  36.401  1.00  0.00    -0.206 F 
ATOM     85  C   UNL A   1      38.215  33.574  37.752  1.00  0.00     0.006 A 
ENDBRANCH  61  78
ENDBRANCH  35  36
ENDBRANCH  28  30
ENDBRANCH  27  28
ENDBRANCH  26  27
ENDBRANCH  25  26
ENDBRANCH  24  25
ENDBRANCH  23  24
ENDBRANCH  22  23
ENDBRANCH   1  22
TORSDOF 22
ENDMDL
MODEL 2
REMARK VINA RESULT:      -9.9      0.946      6.414
REMARK SMILES CC1(C)CCC[C@@](C)(CCC(=O)OCCOCCOCCOCCOC(=O)c2ccc(-c3c4nc(c(-c5c(F)cccc5F)c5ccc([nH]5)c(-c5c(F)cccc5F)c5nc(c(-c6c(F)cccc6F)c6ccc3[nH]6)C=C5)C=C4)cc2)C1=O
REMARK SMILES IDX 19 1 18 2 17 3 16 4 15 5 14 6 13 7 11 8 12 9 10 10 9 11 7 12
REMARK SMILES IDX 1 13 2 14 3 15 4 16 82 17 5 18 83 19 6 20 8 21 20 22 21 23
REMARK SMILES IDX 22 24 23 25 24 26 25 27 26 28 27 29 28 30 29 31 81 32 30 33
REMARK SMILES IDX 80 34 31 35 32 36 33 37 74 38 34 39 79 40 73 41 75 42 35 43
REMARK SMILES IDX 78 44 72 45 71 46 36 48 62 49 45 50 61 51 46 52 49 53 60 54
REMARK SMILES IDX 76 55 47 56 48 57 59 59 77 60 50 61 37 62 38 63 43 64 39 65
REMARK SMILES IDX 40 66 42 67 44 68 41 69 63 70 64 71 69 72 65 73 66 74 68 75
REMARK SMILES IDX 70 76 67 77 51 78 52 79 57 80 53 81 54 82 56 83 58 84 55 85
REMARK H PARENT 75 47 49 58
REMARK Flexibility Score: inf
ROOT
ATOM      1  O   UNL A   1      39.854  21.308  26.845  1.00  0.00    -0.377 OA
ENDROOT
BRANCH   1   2
ATOM      2  C   UNL A   1      39.042  22.227  26.131  1.00  0.00     0.188 C 
BRANCH   2   3
ATOM      3  C   UNL A   1      37.835  21.609  25.416  1.00  0.00     0.188 C 
BRANCH   3   4
ATOM      4  O   UNL A   1      36.966  22.482  24.713  1.00  0.00    -0.376 OA
BRANCH   4   5
ATOM      5  C   UNL A   1      35.614  22.076  24.530  1.00  0.00     0.202 C 
BRANCH   5   6
ATOM      6  C   UNL A   1      34.522  22.610  25.478  1.00  0.00     0.261 C 
BRANCH   6   7
ATOM      7  O   UNL A   1      33.924  23.876  25.109  1.00  0.00    -0.463 OA
BRANCH   7   8
ATOM      8  C   UNL A   1      32.663  23.818  24.625  1.00  0.00     0.305 C 
ATOM      9  O   UNL A   1      31.772  23.126  25.113  1.00  0.00    -0.252 OA
BRANCH   8  10
ATOM     10  C   UNL A   1      32.359  24.734  23.455  1.00  0.00     0.124 C 
BRANCH  10  11
ATOM     11  C   UNL A   1      32.106  26.245  23.569  1.00  0.00     0.026 C 
BRANCH  11  12
ATOM     12  C   UNL A   1      30.823  26.808  24.255  1.00  0.00     0.027 C 
ATOM     13  C   UNL A   1      33.437  27.826  26.088  1.00  0.00     0.019 C 
ATOM     14  C   UNL A   1      31.946  28.138  26.300  1.00  0.00     0.024 C 
ATOM     15  C   UNL A   1      31.723  28.343  27.813  1.00  0.00     0.019 C 
ATOM     16  C   UNL A   1      31.533  29.445  25.614  1.00  0.00     0.014 C 
ATOM     17  C   UNL A   1      31.075  26.961  25.789  1.00  0.00     0.144 C 
ATOM     18  C   UNL A   1      31.377  29.310  24.115  1.00  0.00     0.002 C 
ATOM     19  O   UNL A   1      30.650  26.115  26.583  1.00  0.00    -0.298 OA
ATOM     20  C   UNL A   1      30.418  28.194  23.722  1.00  0.00     0.014 C 
ATOM     21  C   UNL A   1      29.623  25.860  24.053  1.00  0.00     0.020 C 
ENDBRANCH  11  12
ENDBRANCH  10  11
ENDBRANCH   8  10
ENDBRANCH   7   8
ENDBRANCH   6   7
ENDBRANCH   5   6
ENDBRANCH   4   5
ENDBRANCH   3   4
ENDBRANCH   2   3
ENDBRANCH   1   2
BRANCH   1  22
ATOM     22  C   UNL A   1      41.260  21.519  26.963  1.00  0.00     0.188 C 
BRANCH  22  23
ATOM     23  C   UNL A   1      42.254  20.438  26.547  1.00  0.00     0.188 C 
BRANCH  23  24
ATOM     24  O   UNL A   1      43.001  20.616  25.343  1.00  0.00    -0.376 OA
BRANCH  24  25
ATOM     25  C   UNL A   1      44.185  21.407  25.346  1.00  0.00     0.202 C 
BRANCH  25  26
ATOM     26  C   UNL A   1      44.166  22.583  24.380  1.00  0.00     0.261 C 
BRANCH  26  27
ATOM     27  O   UNL A   1      43.319  23.629  24.882  1.00  0.00    -0.460 OA
BRANCH  27  28
ATOM     28  C   UNL A   1      43.948  24.792  25.135  1.00  0.00     0.338 C 
ATOM     29  O   UNL A   1      45.006  25.188  24.663  1.00  0.00    -0.246 OA
BRANCH  28  30
ATOM     30  C   UNL A   1      43.102  25.631  25.994  1.00  0.00     0.060 A 
ATOM     31  C   UNL A   1      43.416  26.992  26.077  1.00  0.00     0.016 A 
ATOM     32  C   UNL A   1      42.086  25.079  26.780  1.00  0.00     0.016 A 
ATOM     33  C   UNL A   1      42.780  27.789  27.020  1.00  0.00     0.010 A 
ATOM     34  C   UNL A   1      41.445  25.882  27.725  1.00  0.00     0.010 A 
ATOM     35  C   UNL A   1      41.840  27.221  27.889  1.00  0.00    -0.014 A 
BRANCH  35  36
ATOM     36  C   UNL A   1      41.467  27.964  29.112  1.00  0.00     0.031 A 
ATOM     37  C   UNL A   1      40.235  28.828  29.074  1.00  0.00     0.074 A 
ATOM     38  C   UNL A   1      42.169  27.823  30.247  1.00  0.00     0.049 A 
ATOM     39  N   UNL A   1      39.710  29.570  30.014  1.00  0.00    -0.248 NA
ATOM     40  C   UNL A   1      39.499  28.861  27.800  1.00  0.00     0.031 C 
ATOM     41  C   UNL A   1      43.348  26.978  30.412  1.00  0.00     0.029 A 
ATOM     42  N   UNL A   1      41.984  28.395  31.479  1.00  0.00    -0.354 N 
ATOM     43  C   UNL A   1      38.592  30.166  29.441  1.00  0.00     0.074 A 
ATOM     44  C   UNL A   1      38.537  29.730  28.064  1.00  0.00     0.031 C 
ATOM     45  C   UNL A   1      43.788  27.091  31.676  1.00  0.00     0.029 A 
ATOM     46  C   UNL A   1      42.941  28.041  32.394  1.00  0.00     0.049 A 
ATOM     47  H   UNL A   1      41.236  29.002  31.686  1.00  0.00     0.167 HD
ATOM     48  C   UNL A   1      37.686  30.992  30.016  1.00  0.00     0.037 A 
ATOM     49  C   UNL A   1      43.120  28.456  33.663  1.00  0.00     0.037 A 
ATOM     50  C   UNL A   1      37.750  31.420  31.388  1.00  0.00     0.049 A 
ATOM     51  C   UNL A   1      42.140  29.427  34.263  1.00  0.00     0.074 A 
ATOM     52  C   UNL A   1      36.877  32.241  32.078  1.00  0.00     0.029 A 
ATOM     53  N   UNL A   1      38.756  31.067  32.278  1.00  0.00    -0.354 N 
ATOM     54  N   UNL A   1      41.072  29.969  33.725  1.00  0.00    -0.248 NA
ATOM     55  C   UNL A   1      42.383  29.838  35.653  1.00  0.00     0.031 C 
ATOM     56  C   UNL A   1      37.389  32.438  33.365  1.00  0.00     0.029 A 
ATOM     57  C   UNL A   1      38.541  31.679  33.501  1.00  0.00     0.049 A 
ATOM     58  H   UNL A   1      39.510  30.469  32.070  1.00  0.00     0.167 HD
ATOM     59  C   UNL A   1      40.500  30.756  34.717  1.00  0.00     0.074 A 
ATOM     60  C   UNL A   1      41.334  30.611  35.893  1.00  0.00     0.031 C 
ATOM     61  C   UNL A   1      39.381  31.522  34.663  1.00  0.00     0.037 A 
BRANCH  48  62
ATOM     62  C   UNL A   1      36.582  31.518  29.142  1.00  0.00     0.057 A 
ATOM     63  C   UNL A   1      36.536  32.851  28.713  1.00  0.00     0.134 A 
ATOM     64  C   UNL A   1      35.543  30.673  28.730  1.00  0.00     0.134 A 
ATOM     65  F   UNL A   1      37.489  33.720  29.085  1.00  0.00    -0.206 F 
ATOM     66  C   UNL A   1      35.479  33.334  27.938  1.00  0.00     0.040 A 
ATOM     67  C   UNL A   1      34.499  31.136  27.927  1.00  0.00     0.040 A 
ATOM     68  F   UNL A   1      35.523  29.385  29.101  1.00  0.00    -0.206 F 
ATOM     69  C   UNL A   1      34.460  32.473  27.537  1.00  0.00     0.006 A 
ENDBRANCH  48  62
BRANCH  49  70
ATOM     70  C   UNL A   1      44.279  27.955  34.443  1.00  0.00     0.057 A 
ATOM     71  C   UNL A   1      44.204  26.768  35.180  1.00  0.00     0.134 A 
ATOM     72  C   UNL A   1      45.493  28.653  34.467  1.00  0.00     0.134 A 
ATOM     73  F   UNL A   1      43.062  26.064  35.212  1.00  0.00    -0.206 F 
ATOM     74  C   UNL A   1      45.289  26.298  35.922  1.00  0.00     0.040 A 
ATOM     75  C   UNL A   1      46.595  28.181  35.182  1.00  0.00     0.040 A 
ATOM     76  F   UNL A   1      45.632  29.795  33.778  1.00  0.00    -0.206 F 
ATOM     77  C   UNL A   1      46.491  27.003  35.919  1.00  0.00     0.006 A 
ENDBRANCH  49  70
BRANCH  61  78
ATOM     78  C   UNL A   1      38.965  32.225  35.926  1.00  0.00     0.057 A 
ATOM     79  C   UNL A   1      38.173  31.605  36.901  1.00  0.00     0.134 A 
ATOM     80  C   UNL A   1      39.397  33.534  36.182  1.00  0.00     0.134 A 
ATOM     81  F   UNL A   1      37.718  30.357  36.716  1.00  0.00    -0.206 F 
ATOM     82  C   UNL A   1      37.799  32.273  38.069  1.00  0.00     0.040 A 
ATOM     83  C   UNL A   1      39.058  34.199  37.361  1.00  0.00     0.040 A 
ATOM     84  F   UNL A   1      40.169  34.183  35.297  1.00  0.00    -0.206 F 
ATOM     85  C   UNL A   1      38.248  33.572  38.304  1.00  0.00     0.006 A 
ENDBRANCH  61  78
ENDBRANCH  35  36
ENDBRANCH  28  30
ENDBRANCH  27  28
ENDBRANCH  26  27
ENDBRANCH  25  26
ENDBRANCH  24  25
ENDBRANCH  23  24
ENDBRANCH  22  23
ENDBRANCH   1  22
TORSDOF 22
ENDMDL
MODEL 3
REMARK VINA RESULT:      -9.9      0.894      2.034
REMARK SMILES CC1(C)CCC[C@@](C)(CCC(=O)OCCOCCOCCOCCOC(=O)c2ccc(-c3c4nc(c(-c5c(F)cccc5F)c5ccc([nH]5)c(-c5c(F)cccc5F)c5nc(c(-c6c(F)cccc6F)c6ccc3[nH]6)C=C5)C=C4)cc2)C1=O
REMARK SMILES IDX 19 1 18 2 17 3 16 4 15 5 14 6 13 7 11 8 12 9 10 10 9 11 7 12
REMARK SMILES IDX 1 13 2 14 3 15 4 16 82 17 5 18 83 19 6 20 8 21 20 22 21 23
REMARK SMILES IDX 22 24 23 25 24 26 25 27 26 28 27 29 28 30 29 31 81 32 30 33
REMARK SMILES IDX 80 34 31 35 32 36 33 37 74 38 34 39 79 40 73 41 75 42 35 43
REMARK SMILES IDX 78 44 72 45 71 46 36 48 62 49 45 50 61 51 46 52 49 53 60 54
REMARK SMILES IDX 76 55 47 56 48 57 59 59 77 60 50 61 37 62 38 63 43 64 39 65
REMARK SMILES IDX 40 66 42 67 44 68 41 69 63 70 64 71 69 72 65 73 66 74 68 75
REMARK SMILES IDX 70 76 67 77 51 78 52 79 57 80 53 81 54 82 56 83 58 84 55 85
REMARK H PARENT 75 47 49 58
REMARK Flexibility Score: inf
ROOT
ATOM      1  O   UNL A   1      39.105  22.187  26.472  1.00  0.00    -0.377 OA
ENDROOT
BRANCH   1   2
ATOM      2  C   UNL A   1      38.082  22.254  25.491  1.00  0.00     0.188 C 
BRANCH   2   3
ATOM      3  C   UNL A   1      37.213  20.997  25.372  1.00  0.00     0.188 C 
BRANCH   3   4
ATOM      4  O   UNL A   1      36.002  21.098  24.640  1.00  0.00    -0.376 OA
BRANCH   4   5
ATOM      5  C   UNL A   1      35.048  22.069  25.054  1.00  0.00     0.202 C 
BRANCH   5   6
ATOM      6  C   UNL A   1      34.162  22.766  24.003  1.00  0.00     0.261 C 
BRANCH   6   7
ATOM      7  O   UNL A   1      32.826  23.121  24.432  1.00  0.00    -0.463 OA
BRANCH   7   8
ATOM      8  C   UNL A   1      31.846  22.961  23.514  1.00  0.00     0.305 C 
ATOM      9  O   UNL A   1      31.785  22.014  22.734  1.00  0.00    -0.252 OA
BRANCH   8  10
ATOM     10  C   UNL A   1      30.739  23.999  23.537  1.00  0.00     0.124 C 
BRANCH  10  11
ATOM     11  C   UNL A   1      30.764  25.286  24.375  1.00  0.00     0.026 C 
BRANCH  11  12
ATOM     12  C   UNL A   1      30.814  26.694  23.705  1.00  0.00     0.027 C 
ATOM     13  C   UNL A   1      33.582  26.402  25.572  1.00  0.00     0.019 C 
ATOM     14  C   UNL A   1      33.160  27.575  24.672  1.00  0.00     0.024 C 
ATOM     15  C   UNL A   1      33.756  28.864  25.276  1.00  0.00     0.019 C 
ATOM     16  C   UNL A   1      33.737  27.446  23.258  1.00  0.00     0.014 C 
ATOM     17  C   UNL A   1      31.613  27.679  24.617  1.00  0.00     0.144 C 
ATOM     18  C   UNL A   1      33.013  26.424  22.408  1.00  0.00     0.002 C 
ATOM     19  O   UNL A   1      31.021  28.482  25.343  1.00  0.00    -0.298 OA
ATOM     20  C   UNL A   1      31.513  26.679  22.333  1.00  0.00     0.014 C 
ATOM     21  C   UNL A   1      29.396  27.264  23.501  1.00  0.00     0.020 C 
ENDBRANCH  11  12
ENDBRANCH  10  11
ENDBRANCH   8  10
ENDBRANCH   7   8
ENDBRANCH   6   7
ENDBRANCH   5   6
ENDBRANCH   4   5
ENDBRANCH   3   4
ENDBRANCH   2   3
ENDBRANCH   1   2
BRANCH   1  22
ATOM     22  C   UNL A   1      40.187  21.268  26.334  1.00  0.00     0.188 C 
BRANCH  22  23
ATOM     23  C   UNL A   1      41.196  21.067  27.461  1.00  0.00     0.188 C 
BRANCH  23  24
ATOM     24  O   UNL A   1      42.585  20.993  27.138  1.00  0.00    -0.376 OA
BRANCH  24  25
ATOM     25  C   UNL A   1      42.995  20.765  25.793  1.00  0.00     0.202 C 
BRANCH  25  26
ATOM     26  C   UNL A   1      43.920  21.832  25.222  1.00  0.00     0.261 C 
BRANCH  26  27
ATOM     27  O   UNL A   1      43.170  23.003  24.863  1.00  0.00    -0.460 OA
BRANCH  27  28
ATOM     28  C   UNL A   1      43.833  24.166  25.010  1.00  0.00     0.338 C 
ATOM     29  O   UNL A   1      44.911  24.477  24.521  1.00  0.00    -0.246 OA
BRANCH  28  30
ATOM     30  C   UNL A   1      43.001  25.114  25.761  1.00  0.00     0.060 A 
ATOM     31  C   UNL A   1      43.485  26.419  25.912  1.00  0.00     0.016 A 
ATOM     32  C   UNL A   1      41.821  24.709  26.392  1.00  0.00     0.016 A 
ATOM     33  C   UNL A   1      42.842  27.297  26.774  1.00  0.00     0.010 A 
ATOM     34  C   UNL A   1      41.173  25.593  27.256  1.00  0.00     0.010 A 
ATOM     35  C   UNL A   1      41.723  26.865  27.497  1.00  0.00    -0.014 A 
BRANCH  35  36
ATOM     36  C   UNL A   1      41.292  27.653  28.672  1.00  0.00     0.031 A 
ATOM     37  C   UNL A   1      42.076  27.520  29.948  1.00  0.00     0.074 A 
ATOM     38  C   UNL A   1      40.267  28.516  28.586  1.00  0.00     0.049 A 
ATOM     39  N   UNL A   1      41.892  28.104  31.104  1.00  0.00    -0.248 NA
ATOM     40  C   UNL A   1      43.224  26.597  29.916  1.00  0.00     0.031 C 
ATOM     41  C   UNL A   1      39.468  28.762  27.389  1.00  0.00     0.029 A 
ATOM     42  N   UNL A   1      39.727  29.345  29.534  1.00  0.00    -0.354 N 
ATOM     43  C   UNL A   1      42.890  27.611  31.937  1.00  0.00     0.074 A 
ATOM     44  C   UNL A   1      43.651  26.652  31.167  1.00  0.00     0.031 C 
ATOM     45  C   UNL A   1      38.530  29.680  27.676  1.00  0.00     0.029 A 
ATOM     46  C   UNL A   1      38.645  30.057  29.084  1.00  0.00     0.049 A 
ATOM     47  H   UNL A   1      40.081  29.422  30.449  1.00  0.00     0.167 HD
ATOM     48  C   UNL A   1      43.154  27.937  33.224  1.00  0.00     0.037 A 
ATOM     49  C   UNL A   1      37.830  30.902  29.744  1.00  0.00     0.037 A 
ATOM     50  C   UNL A   1      42.391  28.892  33.981  1.00  0.00     0.049 A 
ATOM     51  C   UNL A   1      38.101  31.201  31.194  1.00  0.00     0.074 A 
ATOM     52  C   UNL A   1      42.580  29.311  35.286  1.00  0.00     0.029 A 
ATOM     53  N   UNL A   1      41.278  29.570  33.501  1.00  0.00    -0.354 N 
ATOM     54  N   UNL A   1      39.058  30.750  31.969  1.00  0.00    -0.248 NA
ATOM     55  C   UNL A   1      37.183  32.136  31.858  1.00  0.00     0.031 C 
ATOM     56  C   UNL A   1      41.546  30.192  35.616  1.00  0.00     0.029 A 
ATOM     57  C   UNL A   1      40.754  30.381  34.493  1.00  0.00     0.049 A 
ATOM     58  H   UNL A   1      40.916  29.487  32.590  1.00  0.00     0.167 HD
ATOM     59  C   UNL A   1      38.879  31.370  33.200  1.00  0.00     0.074 A 
ATOM     60  C   UNL A   1      37.726  32.236  33.063  1.00  0.00     0.031 C 
ATOM     61  C   UNL A   1      39.606  31.240  34.339  1.00  0.00     0.037 A 
BRANCH  48  62
ATOM     62  C   UNL A   1      44.289  27.216  33.898  1.00  0.00     0.057 A 
ATOM     63  C   UNL A   1      45.600  27.710  33.892  1.00  0.00     0.134 A 
ATOM     64  C   UNL A   1      44.062  26.002  34.559  1.00  0.00     0.134 A 
ATOM     65  F   UNL A   1      45.892  28.859  33.263  1.00  0.00    -0.206 F 
ATOM     66  C   UNL A   1      46.650  27.006  34.486  1.00  0.00     0.040 A 
ATOM     67  C   UNL A   1      45.097  25.305  35.185  1.00  0.00     0.040 A 
ATOM     68  F   UNL A   1      42.832  25.471  34.606  1.00  0.00    -0.206 F 
ATOM     69  C   UNL A   1      46.398  25.802  35.140  1.00  0.00     0.006 A 
ENDBRANCH  48  62
BRANCH  49  70
ATOM     70  C   UNL A   1      36.681  31.518  29.035  1.00  0.00     0.057 A 
ATOM     71  C   UNL A   1      35.532  30.780  28.728  1.00  0.00     0.134 A 
ATOM     72  C   UNL A   1      36.704  32.865  28.652  1.00  0.00     0.134 A 
ATOM     73  F   UNL A   1      35.458  29.481  29.052  1.00  0.00    -0.206 F 
ATOM     74  C   UNL A   1      34.453  31.355  28.054  1.00  0.00     0.040 A 
ATOM     75  C   UNL A   1      35.621  33.460  28.001  1.00  0.00     0.040 A 
ATOM     76  F   UNL A   1      37.773  33.628  28.921  1.00  0.00    -0.206 F 
ATOM     77  C   UNL A   1      34.494  32.700  27.694  1.00  0.00     0.006 A 
ENDBRANCH  49  70
BRANCH  61  78
ATOM     78  C   UNL A   1      39.207  32.090  35.513  1.00  0.00     0.057 A 
ATOM     79  C   UNL A   1      39.692  33.392  35.693  1.00  0.00     0.134 A 
ATOM     80  C   UNL A   1      38.293  31.606  36.459  1.00  0.00     0.134 A 
ATOM     81  F   UNL A   1      40.576  33.914  34.830  1.00  0.00    -0.206 F 
ATOM     82  C   UNL A   1      39.308  34.169  36.788  1.00  0.00     0.040 A 
ATOM     83  C   UNL A   1      37.875  32.386  37.538  1.00  0.00     0.040 A 
ATOM     84  F   UNL A   1      37.777  30.373  36.341  1.00  0.00    -0.206 F 
ATOM     85  C   UNL A   1      38.391  33.667  37.711  1.00  0.00     0.006 A 
ENDBRANCH  61  78
ENDBRANCH  35  36
ENDBRANCH  28  30
ENDBRANCH  27  28
ENDBRANCH  26  27
ENDBRANCH  25  26
ENDBRANCH  24  25
ENDBRANCH  23  24
ENDBRANCH  22  23
ENDBRANCH   1  22
TORSDOF 22
ENDMDL
