MODEL 1
REMARK VINA RESULT:      -8.7      0.000      0.000
REMARK SMILES CCC[NH2+][C@@]1(C(=O)OCCOCCOCCOCCOC(=O)c2ccc(-c3c4nc(c(-c5c(F)cccc5F)c5ccc([nH]5)c(-c5c(F)cccc5F)c5nc(c(-c6c(F)cccc6F)c6ccc3[nH]6)C=C5)C=C4)cc2)CCC[C@@H]1CCOC
REMARK SMILES IDX 13 1 12 2 11 3 10 4 9 5 8 6 6 7 7 8 5 9 77 10 80 11 78 12
REMARK SMILES IDX 79 13 4 14 3 17 2 18 1 19 81 20 82 21 83 22 84 23 14 24
REMARK SMILES IDX 15 25 16 26 17 27 18 28 19 29 20 30 21 31 22 32 23 33 24 34
REMARK SMILES IDX 76 35 25 36 75 37 26 38 27 39 28 40 69 41 29 42 74 43 68 44
REMARK SMILES IDX 70 45 30 46 73 47 67 48 66 49 31 51 57 52 40 53 56 54 41 55
REMARK SMILES IDX 44 56 55 57 71 58 42 59 43 60 54 62 72 63 45 64 32 65 33 66
REMARK SMILES IDX 38 67 34 68 35 69 37 70 39 71 36 72 58 73 59 74 64 75 60 76
REMARK SMILES IDX 61 77 63 78 65 79 62 80 46 81 47 82 52 83 48 84 49 85 51 86
REMARK SMILES IDX 53 87 50 88
REMARK H PARENT 4 15 4 16 70 50 44 61
REMARK Flexibility Score: inf
ROOT
ATOM      1  C   UNL A   1      38.382  23.193  26.075  1.00  0.00     0.188 C 
ENDROOT
BRANCH   1   2
ATOM      2  C   UNL A   1      37.221  23.167  25.082  1.00  0.00     0.188 C 
BRANCH   2   3
ATOM      3  O   UNL A   1      35.925  22.891  25.609  1.00  0.00    -0.376 OA
BRANCH   3   4
ATOM      4  C   UNL A   1      34.791  23.232  24.822  1.00  0.00     0.202 C 
BRANCH   4   5
ATOM      5  C   UNL A   1      34.693  24.675  24.303  1.00  0.00     0.261 C 
BRANCH   5   6
ATOM      6  O   UNL A   1      33.439  25.378  24.511  1.00  0.00    -0.459 OA
BRANCH   6   7
ATOM      7  C   UNL A   1      33.070  26.254  23.539  1.00  0.00     0.368 C 
ATOM      8  O   UNL A   1      33.622  26.296  22.437  1.00  0.00    -0.245 OA
BRANCH   7   9
ATOM      9  C   UNL A   1      31.962  27.329  23.934  1.00  0.00     0.197 C 
ATOM     10  C   UNL A   1      32.766  28.615  24.284  1.00  0.00     0.081 C 
ATOM     11  C   UNL A   1      31.085  27.219  25.236  1.00  0.00     0.065 C 
ATOM     12  C   UNL A   1      33.143  28.482  25.755  1.00  0.00     0.008 C 
ATOM     13  C   UNL A   1      32.068  27.604  26.374  1.00  0.00     0.011 C 
BRANCH   9  14
ATOM     14  N   UNL A   1      31.296  27.663  22.632  1.00  0.00    -0.332 N 
ATOM     15  H   UNL A   1      32.030  27.666  21.923  1.00  0.00     0.347 HD
ATOM     16  H   UNL A   1      30.566  26.954  22.564  1.00  0.00     0.347 HD
BRANCH  14  17
ATOM     17  C   UNL A   1      30.561  28.893  22.467  1.00  0.00     0.261 C 
BRANCH  17  18
ATOM     18  C   UNL A   1      29.033  28.845  22.689  1.00  0.00     0.058 C 
ATOM     19  C   UNL A   1      28.339  30.099  23.203  1.00  0.00     0.010 C 
ENDBRANCH  17  18
ENDBRANCH  14  17
ENDBRANCH   9  14
BRANCH  11  20
ATOM     20  C   UNL A   1      30.198  26.065  25.781  1.00  0.00     0.039 C 
BRANCH  20  21
ATOM     21  C   UNL A   1      30.700  24.677  26.186  1.00  0.00     0.160 C 
BRANCH  21  22
ATOM     22  O   UNL A   1      30.709  23.743  25.118  1.00  0.00    -0.385 OA
ATOM     23  C   UNL A   1      31.140  22.449  25.483  1.00  0.00     0.194 C 
ENDBRANCH  21  22
ENDBRANCH  20  21
ENDBRANCH  11  20
ENDBRANCH   7   9
ENDBRANCH   6   7
ENDBRANCH   5   6
ENDBRANCH   4   5
ENDBRANCH   3   4
ENDBRANCH   2   3
ENDBRANCH   1   2
BRANCH   1  24
ATOM     24  O   UNL A   1      39.190  22.038  25.965  1.00  0.00    -0.377 OA
BRANCH  24  25
ATOM     25  C   UNL A   1      40.467  22.140  26.553  1.00  0.00     0.188 C 
BRANCH  25  26
ATOM     26  C   UNL A   1      41.503  21.097  26.114  1.00  0.00     0.188 C 
BRANCH  26  27
ATOM     27  O   UNL A   1      42.820  21.393  26.577  1.00  0.00    -0.376 OA
BRANCH  27  28
ATOM     28  C   UNL A   1      43.881  21.349  25.629  1.00  0.00     0.202 C 
BRANCH  28  29
ATOM     29  C   UNL A   1      43.797  22.340  24.456  1.00  0.00     0.261 C 
BRANCH  29  30
ATOM     30  O   UNL A   1      43.402  23.681  24.780  1.00  0.00    -0.460 OA
BRANCH  30  31
ATOM     31  C   UNL A   1      44.320  24.491  25.364  1.00  0.00     0.338 C 
ATOM     32  O   UNL A   1      45.472  24.642  25.053  1.00  0.00    -0.246 OA
BRANCH  31  33
ATOM     33  C   UNL A   1      43.570  25.351  26.314  1.00  0.00     0.060 A 
ATOM     34  C   UNL A   1      43.874  26.717  26.348  1.00  0.00     0.016 A 
ATOM     35  C   UNL A   1      42.528  24.834  27.090  1.00  0.00     0.016 A 
ATOM     36  C   UNL A   1      43.128  27.577  27.153  1.00  0.00     0.010 A 
ATOM     37  C   UNL A   1      41.814  25.687  27.935  1.00  0.00     0.010 A 
ATOM     38  C   UNL A   1      42.128  27.056  27.984  1.00  0.00    -0.014 A 
BRANCH  38  39
ATOM     39  C   UNL A   1      41.617  27.891  29.093  1.00  0.00     0.031 A 
ATOM     40  C   UNL A   1      42.343  27.804  30.406  1.00  0.00     0.074 A 
ATOM     41  C   UNL A   1      40.566  28.714  28.941  1.00  0.00     0.049 A 
ATOM     42  N   UNL A   1      42.096  28.406  31.538  1.00  0.00    -0.248 NA
ATOM     43  C   UNL A   1      43.513  26.908  30.440  1.00  0.00     0.031 C 
ATOM     44  C   UNL A   1      39.813  28.910  27.705  1.00  0.00     0.029 A 
ATOM     45  N   UNL A   1      39.946  29.533  29.850  1.00  0.00    -0.354 N 
ATOM     46  C   UNL A   1      43.079  27.965  32.415  1.00  0.00     0.074 A 
ATOM     47  C   UNL A   1      43.907  27.023  31.698  1.00  0.00     0.031 C 
ATOM     48  C   UNL A   1      38.815  29.782  27.938  1.00  0.00     0.029 A 
ATOM     49  C   UNL A   1      38.845  30.181  29.345  1.00  0.00     0.049 A 
ATOM     50  H   UNL A   1      40.260  29.647  30.775  1.00  0.00     0.167 HD
ATOM     51  C   UNL A   1      43.275  28.317  33.706  1.00  0.00     0.037 A 
ATOM     52  C   UNL A   1      37.957  30.985  29.963  1.00  0.00     0.037 A 
ATOM     53  C   UNL A   1      42.432  29.235  34.419  1.00  0.00     0.049 A 
ATOM     54  C   UNL A   1      38.147  31.301  31.426  1.00  0.00     0.074 A 
ATOM     55  C   UNL A   1      42.542  29.669  35.728  1.00  0.00     0.029 A 
ATOM     56  N   UNL A   1      41.309  29.848  33.883  1.00  0.00    -0.354 N 
ATOM     57  N   UNL A   1      39.099  30.909  32.241  1.00  0.00    -0.248 NA
ATOM     58  C   UNL A   1      37.144  32.173  32.054  1.00  0.00     0.031 C 
ATOM     59  C   UNL A   1      41.452  30.500  36.001  1.00  0.00     0.029 A 
ATOM     60  C   UNL A   1      40.697  30.633  34.844  1.00  0.00     0.049 A 
ATOM     61  H   UNL A   1      40.994  29.740  32.957  1.00  0.00     0.167 HD
ATOM     62  C   UNL A   1      38.825  31.508  33.465  1.00  0.00     0.074 A 
ATOM     63  C   UNL A   1      37.625  32.298  33.283  1.00  0.00     0.031 C 
ATOM     64  C   UNL A   1      39.505  31.416  34.635  1.00  0.00     0.037 A 
BRANCH  51  65
ATOM     65  C   UNL A   1      44.418  27.666  34.426  1.00  0.00     0.057 A 
ATOM     66  C   UNL A   1      44.262  26.473  35.146  1.00  0.00     0.134 A 
ATOM     67  C   UNL A   1      45.694  28.245  34.403  1.00  0.00     0.134 A 
ATOM     68  F   UNL A   1      43.060  25.882  35.229  1.00  0.00    -0.206 F 
ATOM     69  C   UNL A   1      45.326  25.896  35.840  1.00  0.00     0.040 A 
ATOM     70  C   UNL A   1      46.771  27.661  35.070  1.00  0.00     0.040 A 
ATOM     71  F   UNL A   1      45.911  29.388  33.736  1.00  0.00    -0.206 F 
ATOM     72  C   UNL A   1      46.587  26.487  35.798  1.00  0.00     0.006 A 
ENDBRANCH  51  65
BRANCH  52  73
ATOM     73  C   UNL A   1      36.793  31.529  29.214  1.00  0.00     0.057 A 
ATOM     74  C   UNL A   1      35.691  30.729  28.894  1.00  0.00     0.134 A 
ATOM     75  C   UNL A   1      36.769  32.860  28.778  1.00  0.00     0.134 A 
ATOM     76  F   UNL A   1      35.664  29.438  29.259  1.00  0.00    -0.206 F 
ATOM     77  C   UNL A   1      34.615  31.225  28.155  1.00  0.00     0.040 A 
ATOM     78  C   UNL A   1      35.688  33.378  28.060  1.00  0.00     0.040 A 
ATOM     79  F   UNL A   1      37.795  33.680  29.048  1.00  0.00    -0.206 F 
ATOM     80  C   UNL A   1      34.609  32.557  27.740  1.00  0.00     0.006 A 
ENDBRANCH  52  73
BRANCH  64  81
ATOM     81  C   UNL A   1      38.992  32.215  35.798  1.00  0.00     0.057 A 
ATOM     82  C   UNL A   1      38.182  31.647  36.789  1.00  0.00     0.134 A 
ATOM     83  C   UNL A   1      39.365  33.557  35.956  1.00  0.00     0.134 A 
ATOM     84  F   UNL A   1      37.783  30.371  36.693  1.00  0.00    -0.206 F 
ATOM     85  C   UNL A   1      37.744  32.393  37.886  1.00  0.00     0.040 A 
ATOM     86  C   UNL A   1      38.957  34.303  37.061  1.00  0.00     0.040 A 
ATOM     87  F   UNL A   1      40.150  34.157  35.048  1.00  0.00    -0.206 F 
ATOM     88  C   UNL A   1      38.138  33.722  38.028  1.00  0.00     0.006 A 
ENDBRANCH  64  81
ENDBRANCH  38  39
ENDBRANCH  31  33
ENDBRANCH  30  31
ENDBRANCH  29  30
ENDBRANCH  28  29
ENDBRANCH  27  28
ENDBRANCH  26  27
ENDBRANCH  25  26
ENDBRANCH  24  25
ENDBRANCH   1  24
TORSDOF 26
ENDMDL
MODEL 2
REMARK VINA RESULT:      -8.4      1.234      6.475
REMARK SMILES CCC[NH2+][C@@]1(C(=O)OCCOCCOCCOCCOC(=O)c2ccc(-c3c4nc(c(-c5c(F)cccc5F)c5ccc([nH]5)c(-c5c(F)cccc5F)c5nc(c(-c6c(F)cccc6F)c6ccc3[nH]6)C=C5)C=C4)cc2)CCC[C@@H]1CCOC
REMARK SMILES IDX 13 1 12 2 11 3 10 4 9 5 8 6 6 7 7 8 5 9 77 10 80 11 78 12
REMARK SMILES IDX 79 13 4 14 3 17 2 18 1 19 81 20 82 21 83 22 84 23 14 24
REMARK SMILES IDX 15 25 16 26 17 27 18 28 19 29 20 30 21 31 22 32 23 33 24 34
REMARK SMILES IDX 76 35 25 36 75 37 26 38 27 39 28 40 69 41 29 42 74 43 68 44
REMARK SMILES IDX 70 45 30 46 73 47 67 48 66 49 31 51 57 52 40 53 56 54 41 55
REMARK SMILES IDX 44 56 55 57 71 58 42 59 43 60 54 62 72 63 45 64 32 65 33 66
REMARK SMILES IDX 38 67 34 68 35 69 37 70 39 71 36 72 58 73 59 74 64 75 60 76
REMARK SMILES IDX 61 77 63 78 65 79 62 80 46 81 47 82 52 83 48 84 49 85 51 86
REMARK SMILES IDX 53 87 50 88
REMARK H PARENT 4 15 4 16 70 50 44 61
REMARK Flexibility Score: inf
ROOT
ATOM      1  C   UNL A   1      37.704  22.616  25.590  1.00  0.00     0.188 C 
ENDROOT
BRANCH   1   2
ATOM      2  C   UNL A   1      37.001  22.382  24.253  1.00  0.00     0.188 C 
BRANCH   2   3
ATOM      3  O   UNL A   1      35.593  22.159  24.294  1.00  0.00    -0.376 OA
BRANCH   3   4
ATOM      4  C   UNL A   1      34.735  23.171  23.784  1.00  0.00     0.202 C 
BRANCH   4   5
ATOM      5  C   UNL A   1      34.021  24.076  24.801  1.00  0.00     0.261 C 
BRANCH   5   6
ATOM      6  O   UNL A   1      34.014  25.505  24.537  1.00  0.00    -0.459 OA
BRANCH   6   7
ATOM      7  C   UNL A   1      32.977  25.976  23.795  1.00  0.00     0.368 C 
ATOM      8  O   UNL A   1      32.892  25.792  22.578  1.00  0.00    -0.245 OA
BRANCH   7   9
ATOM      9  C   UNL A   1      31.922  26.899  24.552  1.00  0.00     0.197 C 
ATOM     10  C   UNL A   1      31.277  25.969  25.620  1.00  0.00     0.081 C 
ATOM     11  C   UNL A   1      30.612  27.443  23.869  1.00  0.00     0.065 C 
ATOM     12  C   UNL A   1      30.128  25.258  24.912  1.00  0.00     0.008 C 
ATOM     13  C   UNL A   1      29.689  26.197  23.802  1.00  0.00     0.011 C 
BRANCH   9  14
ATOM     14  N   UNL A   1      32.769  27.841  25.356  1.00  0.00    -0.332 N 
ATOM     15  H   UNL A   1      33.728  27.500  25.285  1.00  0.00     0.347 HD
ATOM     16  H   UNL A   1      32.549  28.748  24.946  1.00  0.00     0.347 HD
BRANCH  14  17
ATOM     17  C   UNL A   1      32.513  28.056  26.759  1.00  0.00     0.261 C 
BRANCH  17  18
ATOM     18  C   UNL A   1      31.697  29.307  27.151  1.00  0.00     0.058 C 
ATOM     19  C   UNL A   1      32.232  30.674  26.747  1.00  0.00     0.010 C 
ENDBRANCH  17  18
ENDBRANCH  14  17
ENDBRANCH   9  14
BRANCH  11  20
ATOM     20  C   UNL A   1      30.396  28.232  22.547  1.00  0.00     0.039 C 
BRANCH  20  21
ATOM     21  C   UNL A   1      29.935  29.689  22.448  1.00  0.00     0.160 C 
BRANCH  21  22
ATOM     22  O   UNL A   1      28.816  29.987  23.268  1.00  0.00    -0.385 OA
ATOM     23  C   UNL A   1      27.593  29.470  22.787  1.00  0.00     0.194 C 
ENDBRANCH  21  22
ENDBRANCH  20  21
ENDBRANCH  11  20
ENDBRANCH   7   9
ENDBRANCH   6   7
ENDBRANCH   5   6
ENDBRANCH   4   5
ENDBRANCH   3   4
ENDBRANCH   2   3
ENDBRANCH   1   2
BRANCH   1  24
ATOM     24  O   UNL A   1      38.686  21.631  25.844  1.00  0.00    -0.377 OA
BRANCH  24  25
ATOM     25  C   UNL A   1      39.802  22.072  26.583  1.00  0.00     0.188 C 
BRANCH  25  26
ATOM     26  C   UNL A   1      41.016  21.133  26.607  1.00  0.00     0.188 C 
BRANCH  26  27
ATOM     27  O   UNL A   1      42.203  21.772  27.073  1.00  0.00    -0.376 OA
BRANCH  27  28
ATOM     28  C   UNL A   1      43.289  21.899  26.161  1.00  0.00     0.202 C 
BRANCH  28  29
ATOM     29  C   UNL A   1      43.061  22.811  24.945  1.00  0.00     0.261 C 
BRANCH  29  30
ATOM     30  O   UNL A   1      42.704  24.173  25.225  1.00  0.00    -0.460 OA
BRANCH  30  31
ATOM     31  C   UNL A   1      43.679  25.010  25.660  1.00  0.00     0.338 C 
ATOM     32  O   UNL A   1      44.751  25.215  25.157  1.00  0.00    -0.246 OA
BRANCH  31  33
ATOM     33  C   UNL A   1      43.075  25.818  26.750  1.00  0.00     0.060 A 
ATOM     34  C   UNL A   1      43.445  27.165  26.854  1.00  0.00     0.016 A 
ATOM     35  C   UNL A   1      42.099  25.281  27.595  1.00  0.00     0.016 A 
ATOM     36  C   UNL A   1      42.831  27.985  27.799  1.00  0.00     0.010 A 
ATOM     37  C   UNL A   1      41.520  26.090  28.575  1.00  0.00     0.010 A 
ATOM     38  C   UNL A   1      41.902  27.437  28.693  1.00  0.00    -0.014 A 
BRANCH  38  39
ATOM     39  C   UNL A   1      41.552  28.199  29.913  1.00  0.00     0.031 A 
ATOM     40  C   UNL A   1      40.397  29.155  29.814  1.00  0.00     0.074 A 
ATOM     41  C   UNL A   1      42.213  28.035  31.071  1.00  0.00     0.049 A 
ATOM     42  N   UNL A   1      39.896  29.955  30.716  1.00  0.00    -0.248 NA
ATOM     43  C   UNL A   1      39.714  29.213  28.509  1.00  0.00     0.031 C 
ATOM     44  C   UNL A   1      43.320  27.107  31.293  1.00  0.00     0.029 A 
ATOM     45  N   UNL A   1      42.048  28.661  32.279  1.00  0.00    -0.354 N 
ATOM     46  C   UNL A   1      38.842  30.607  30.091  1.00  0.00     0.074 A 
ATOM     47  C   UNL A   1      38.791  30.135  28.725  1.00  0.00     0.031 C 
ATOM     48  C   UNL A   1      43.749  27.240  32.561  1.00  0.00     0.029 A 
ATOM     49  C   UNL A   1      42.965  28.280  33.227  1.00  0.00     0.049 A 
ATOM     50  H   UNL A   1      41.338  29.321  32.452  1.00  0.00     0.167 HD
ATOM     51  C   UNL A   1      37.988  31.518  30.609  1.00  0.00     0.037 A 
ATOM     52  C   UNL A   1      43.157  28.741  34.480  1.00  0.00     0.037 A 
ATOM     53  C   UNL A   1      38.060  32.000  31.960  1.00  0.00     0.049 A 
ATOM     54  C   UNL A   1      42.244  29.816  35.012  1.00  0.00     0.074 A 
ATOM     55  C   UNL A   1      37.243  32.918  32.594  1.00  0.00     0.029 A 
ATOM     56  N   UNL A   1      39.022  31.613  32.881  1.00  0.00    -0.354 N 
ATOM     57  N   UNL A   1      41.226  30.404  34.428  1.00  0.00    -0.248 NA
ATOM     58  C   UNL A   1      42.503  30.291  36.379  1.00  0.00     0.031 C 
ATOM     59  C   UNL A   1      37.745  33.129  33.881  1.00  0.00     0.029 A 
ATOM     60  C   UNL A   1      38.839  32.296  34.070  1.00  0.00     0.049 A 
ATOM     61  H   UNL A   1      39.730  30.951  32.714  1.00  0.00     0.167 HD
ATOM     62  C   UNL A   1      40.707  31.293  35.363  1.00  0.00     0.074 A 
ATOM     63  C   UNL A   1      41.517  31.159  36.557  1.00  0.00     0.031 C 
ATOM     64  C   UNL A   1      39.656  32.141  35.247  1.00  0.00     0.037 A 
BRANCH  51  65
ATOM     65  C   UNL A   1      36.940  32.074  29.691  1.00  0.00     0.057 A 
ATOM     66  C   UNL A   1      37.088  33.316  29.059  1.00  0.00     0.134 A 
ATOM     67  C   UNL A   1      35.763  31.357  29.441  1.00  0.00     0.134 A 
ATOM     68  F   UNL A   1      38.181  34.064  29.277  1.00  0.00    -0.206 F 
ATOM     69  C   UNL A   1      36.091  33.838  28.234  1.00  0.00     0.040 A 
ATOM     70  C   UNL A   1      34.771  31.857  28.595  1.00  0.00     0.040 A 
ATOM     71  F   UNL A   1      35.555  30.164  30.017  1.00  0.00    -0.206 F 
ATOM     72  C   UNL A   1      34.930  33.104  27.995  1.00  0.00     0.006 A 
ENDBRANCH  51  65
BRANCH  52  73
ATOM     73  C   UNL A   1      44.270  28.210  35.310  1.00  0.00     0.057 A 
ATOM     74  C   UNL A   1      45.562  28.741  35.227  1.00  0.00     0.134 A 
ATOM     75  C   UNL A   1      44.072  27.138  36.190  1.00  0.00     0.134 A 
ATOM     76  F   UNL A   1      45.824  29.751  34.384  1.00  0.00    -0.206 F 
ATOM     77  C   UNL A   1      46.620  28.218  35.975  1.00  0.00     0.040 A 
ATOM     78  C   UNL A   1      45.114  26.621  36.963  1.00  0.00     0.040 A 
ATOM     79  F   UNL A   1      42.859  26.580  36.315  1.00  0.00    -0.206 F 
ATOM     80  C   UNL A   1      46.395  27.157  36.851  1.00  0.00     0.006 A 
ENDBRANCH  52  73
BRANCH  64  81
ATOM     81  C   UNL A   1      39.295  32.964  36.450  1.00  0.00     0.057 A 
ATOM     82  C   UNL A   1      38.477  32.466  37.472  1.00  0.00     0.134 A 
ATOM     83  C   UNL A   1      39.825  34.251  36.614  1.00  0.00     0.134 A 
ATOM     84  F   UNL A   1      37.931  31.245  37.372  1.00  0.00    -0.206 F 
ATOM     85  C   UNL A   1      38.181  33.228  38.604  1.00  0.00     0.040 A 
ATOM     86  C   UNL A   1      39.560  35.010  37.754  1.00  0.00     0.040 A 
ATOM     87  F   UNL A   1      40.627  34.782  35.679  1.00  0.00    -0.206 F 
ATOM     88  C   UNL A   1      38.730  34.500  38.751  1.00  0.00     0.006 A 
ENDBRANCH  64  81
ENDBRANCH  38  39
ENDBRANCH  31  33
ENDBRANCH  30  31
ENDBRANCH  29  30
ENDBRANCH  28  29
ENDBRANCH  27  28
ENDBRANCH  26  27
ENDBRANCH  25  26
ENDBRANCH  24  25
ENDBRANCH   1  24
TORSDOF 26
ENDMDL
MODEL 3
REMARK VINA RESULT:      -8.0      0.766      6.190
REMARK SMILES CCC[NH2+][C@@]1(C(=O)OCCOCCOCCOCCOC(=O)c2ccc(-c3c4nc(c(-c5c(F)cccc5F)c5ccc([nH]5)c(-c5c(F)cccc5F)c5nc(c(-c6c(F)cccc6F)c6ccc3[nH]6)C=C5)C=C4)cc2)CCC[C@@H]1CCOC
REMARK SMILES IDX 13 1 12 2 11 3 10 4 9 5 8 6 6 7 7 8 5 9 77 10 80 11 78 12
REMARK SMILES IDX 79 13 4 14 3 17 2 18 1 19 81 20 82 21 83 22 84 23 14 24
REMARK SMILES IDX 15 25 16 26 17 27 18 28 19 29 20 30 21 31 22 32 23 33 24 34
REMARK SMILES IDX 76 35 25 36 75 37 26 38 27 39 28 40 69 41 29 42 74 43 68 44
REMARK SMILES IDX 70 45 30 46 73 47 67 48 66 49 31 51 57 52 40 53 56 54 41 55
REMARK SMILES IDX 44 56 55 57 71 58 42 59 43 60 54 62 72 63 45 64 32 65 33 66
REMARK SMILES IDX 38 67 34 68 35 69 37 70 39 71 36 72 58 73 59 74 64 75 60 76
REMARK SMILES IDX 61 77 63 78 65 79 62 80 46 81 47 82 52 83 48 84 49 85 51 86
REMARK SMILES IDX 53 87 50 88
REMARK H PARENT 4 15 4 16 70 50 44 61
REMARK Flexibility Score: inf
ROOT
ATOM      1  C   UNL A   1      37.317  22.724  25.078  1.00  0.00     0.188 C 
ENDROOT
BRANCH   1   2
ATOM      2  C   UNL A   1      36.463  22.546  23.823  1.00  0.00     0.188 C 
BRANCH   2   3
ATOM      3  O   UNL A   1      35.053  22.700  23.973  1.00  0.00    -0.376 OA
BRANCH   3   4
ATOM      4  C   UNL A   1      34.427  23.818  23.357  1.00  0.00     0.202 C 
BRANCH   4   5
ATOM      5  C   UNL A   1      34.181  25.062  24.225  1.00  0.00     0.261 C 
BRANCH   5   6
ATOM      6  O   UNL A   1      34.025  26.335  23.543  1.00  0.00    -0.459 OA
BRANCH   6   7
ATOM      7  C   UNL A   1      32.774  26.635  23.103  1.00  0.00     0.368 C 
ATOM      8  O   UNL A   1      32.333  26.229  22.025  1.00  0.00    -0.245 OA
BRANCH   7   9
ATOM      9  C   UNL A   1      31.932  27.653  23.992  1.00  0.00     0.197 C 
ATOM     10  C   UNL A   1      32.682  29.010  23.857  1.00  0.00     0.081 C 
ATOM     11  C   UNL A   1      31.858  27.563  25.562  1.00  0.00     0.065 C 
ATOM     12  C   UNL A   1      33.768  28.993  24.927  1.00  0.00     0.008 C 
ATOM     13  C   UNL A   1      33.245  28.083  26.025  1.00  0.00     0.011 C 
BRANCH   9  14
ATOM     14  N   UNL A   1      30.666  27.859  23.213  1.00  0.00    -0.332 N 
ATOM     15  H   UNL A   1      30.431  26.957  22.800  1.00  0.00     0.347 HD
ATOM     16  H   UNL A   1      30.033  28.249  23.911  1.00  0.00     0.347 HD
BRANCH  14  17
ATOM     17  C   UNL A   1      30.600  28.829  22.148  1.00  0.00     0.261 C 
BRANCH  17  18
ATOM     18  C   UNL A   1      29.419  29.824  22.162  1.00  0.00     0.058 C 
ATOM     19  C   UNL A   1      28.707  30.081  23.484  1.00  0.00     0.010 C 
ENDBRANCH  17  18
ENDBRANCH  14  17
ENDBRANCH   9  14
BRANCH  11  20
ATOM     20  C   UNL A   1      31.483  26.386  26.506  1.00  0.00     0.039 C 
BRANCH  20  21
ATOM     21  C   UNL A   1      31.150  24.961  26.057  1.00  0.00     0.160 C 
BRANCH  21  22
ATOM     22  O   UNL A   1      30.188  24.317  26.878  1.00  0.00    -0.385 OA
ATOM     23  C   UNL A   1      28.867  24.781  26.695  1.00  0.00     0.194 C 
ENDBRANCH  21  22
ENDBRANCH  20  21
ENDBRANCH  11  20
ENDBRANCH   7   9
ENDBRANCH   6   7
ENDBRANCH   5   6
ENDBRANCH   4   5
ENDBRANCH   3   4
ENDBRANCH   2   3
ENDBRANCH   1   2
BRANCH   1  24
ATOM     24  O   UNL A   1      38.363  21.774  25.137  1.00  0.00    -0.377 OA
BRANCH  24  25
ATOM     25  C   UNL A   1      39.324  22.001  26.142  1.00  0.00     0.188 C 
BRANCH  25  26
ATOM     26  C   UNL A   1      40.592  21.138  26.078  1.00  0.00     0.188 C 
BRANCH  26  27
ATOM     27  O   UNL A   1      41.568  21.512  27.050  1.00  0.00    -0.376 OA
BRANCH  27  28
ATOM     28  C   UNL A   1      42.938  21.439  26.675  1.00  0.00     0.202 C 
BRANCH  28  29
ATOM     29  C   UNL A   1      43.320  22.094  25.338  1.00  0.00     0.261 C 
BRANCH  29  30
ATOM     30  O   UNL A   1      42.845  23.432  25.122  1.00  0.00    -0.460 OA
BRANCH  30  31
ATOM     31  C   UNL A   1      43.717  24.454  25.308  1.00  0.00     0.338 C 
ATOM     32  O   UNL A   1      44.670  24.741  24.633  1.00  0.00    -0.246 OA
BRANCH  31  33
ATOM     33  C   UNL A   1      43.131  25.310  26.370  1.00  0.00     0.060 A 
ATOM     34  C   UNL A   1      43.803  26.490  26.713  1.00  0.00     0.016 A 
ATOM     35  C   UNL A   1      41.898  25.000  26.952  1.00  0.00     0.016 A 
ATOM     36  C   UNL A   1      43.240  27.371  27.634  1.00  0.00     0.010 A 
ATOM     37  C   UNL A   1      41.357  25.858  27.912  1.00  0.00     0.010 A 
ATOM     38  C   UNL A   1      42.039  27.034  28.271  1.00  0.00    -0.014 A 
BRANCH  38  39
ATOM     39  C   UNL A   1      41.653  27.765  29.498  1.00  0.00     0.031 A 
ATOM     40  C   UNL A   1      40.457  28.669  29.409  1.00  0.00     0.074 A 
ATOM     41  C   UNL A   1      42.321  27.619  30.655  1.00  0.00     0.049 A 
ATOM     42  N   UNL A   1      39.919  29.435  30.319  1.00  0.00    -0.248 NA
ATOM     43  C   UNL A   1      39.773  28.710  28.103  1.00  0.00     0.031 C 
ATOM     44  C   UNL A   1      43.468  26.739  30.869  1.00  0.00     0.029 A 
ATOM     45  N   UNL A   1      42.125  28.223  31.871  1.00  0.00    -0.354 N 
ATOM     46  C   UNL A   1      38.836  30.045  29.699  1.00  0.00     0.074 A 
ATOM     47  C   UNL A   1      38.808  29.587  28.329  1.00  0.00     0.031 C 
ATOM     48  C   UNL A   1      43.890  26.878  32.139  1.00  0.00     0.029 A 
ATOM     49  C   UNL A   1      43.059  27.873  32.815  1.00  0.00     0.049 A 
ATOM     50  H   UNL A   1      41.387  28.848  32.050  1.00  0.00     0.167 HD
ATOM     51  C   UNL A   1      37.941  30.910  30.227  1.00  0.00     0.037 A 
ATOM     52  C   UNL A   1      43.228  28.329  34.073  1.00  0.00     0.037 A 
ATOM     53  C   UNL A   1      37.990  31.380  31.583  1.00  0.00     0.049 A 
ATOM     54  C   UNL A   1      42.267  29.355  34.617  1.00  0.00     0.074 A 
ATOM     55  C   UNL A   1      37.131  32.253  32.226  1.00  0.00     0.029 A 
ATOM     56  N   UNL A   1      38.968  31.027  32.501  1.00  0.00    -0.354 N 
ATOM     57  N   UNL A   1      41.223  29.902  34.037  1.00  0.00    -0.248 NA
ATOM     58  C   UNL A   1      42.503  29.826  35.989  1.00  0.00     0.031 C 
ATOM     59  C   UNL A   1      37.622  32.472  33.517  1.00  0.00     0.029 A 
ATOM     60  C   UNL A   1      38.753  31.688  33.697  1.00  0.00     0.049 A 
ATOM     61  H   UNL A   1      39.706  30.399  32.327  1.00  0.00     0.167 HD
ATOM     62  C   UNL A   1      40.664  30.756  34.981  1.00  0.00     0.074 A 
ATOM     63  C   UNL A   1      41.478  30.646  36.175  1.00  0.00     0.031 C 
ATOM     64  C   UNL A   1      39.575  31.557  34.874  1.00  0.00     0.037 A 
BRANCH  51  65
ATOM     65  C   UNL A   1      36.870  31.428  29.314  1.00  0.00     0.057 A 
ATOM     66  C   UNL A   1      36.883  32.741  28.821  1.00  0.00     0.134 A 
ATOM     67  C   UNL A   1      35.807  30.603  28.926  1.00  0.00     0.134 A 
ATOM     68  F   UNL A   1      37.860  33.590  29.175  1.00  0.00    -0.206 F 
ATOM     69  C   UNL A   1      35.862  33.221  28.000  1.00  0.00     0.040 A 
ATOM     70  C   UNL A   1      34.796  31.064  28.082  1.00  0.00     0.040 A 
ATOM     71  F   UNL A   1      35.731  29.337  29.365  1.00  0.00    -0.206 F 
ATOM     72  C   UNL A   1      34.817  32.379  27.623  1.00  0.00     0.006 A 
ENDBRANCH  51  65
BRANCH  52  73
ATOM     73  C   UNL A   1      44.364  27.839  34.899  1.00  0.00     0.057 A 
ATOM     74  C   UNL A   1      44.217  26.760  35.777  1.00  0.00     0.134 A 
ATOM     75  C   UNL A   1      45.620  28.458  34.846  1.00  0.00     0.134 A 
ATOM     76  F   UNL A   1      43.033  26.140  35.894  1.00  0.00    -0.206 F 
ATOM     77  C   UNL A   1      45.270  26.323  36.584  1.00  0.00     0.040 A 
ATOM     78  C   UNL A   1      46.689  28.016  35.628  1.00  0.00     0.040 A 
ATOM     79  F   UNL A   1      45.827  29.500  34.028  1.00  0.00    -0.206 F 
ATOM     80  C   UNL A   1      46.513  26.949  36.507  1.00  0.00     0.006 A 
ENDBRANCH  52  73
BRANCH  64  81
ATOM     81  C   UNL A   1      39.176  32.349  36.085  1.00  0.00     0.057 A 
ATOM     82  C   UNL A   1      39.671  33.637  36.325  1.00  0.00     0.134 A 
ATOM     83  C   UNL A   1      38.239  31.835  36.992  1.00  0.00     0.134 A 
ATOM     84  F   UNL A   1      40.577  34.182  35.501  1.00  0.00    -0.206 F 
ATOM     85  C   UNL A   1      39.262  34.378  37.436  1.00  0.00     0.040 A 
ATOM     86  C   UNL A   1      37.802  32.577  38.089  1.00  0.00     0.040 A 
ATOM     87  F   UNL A   1      37.717  30.612  36.812  1.00  0.00    -0.206 F 
ATOM     88  C   UNL A   1      38.319  33.851  38.317  1.00  0.00     0.006 A 
ENDBRANCH  64  81
ENDBRANCH  38  39
ENDBRANCH  31  33
ENDBRANCH  30  31
ENDBRANCH  29  30
ENDBRANCH  28  29
ENDBRANCH  27  28
ENDBRANCH  26  27
ENDBRANCH  25  26
ENDBRANCH  24  25
ENDBRANCH   1  24
TORSDOF 26
ENDMDL
