MODEL 1
REMARK VINA RESULT:      -9.3      0.000      0.000
REMARK SMILES COc1cccc([C@H]2CC(c3ccc(S(C)(=O)=O)cc3)=NN2c2ccc(C(=O)OCCOCCOCCOCCOC(=O)c3ccc(-c4c5nc(c(-c6c(F)cccc6F)c6ccc([nH]6)c(-c6c(F)cccc6F)c6nc(c(-c7c(F)cccc7F)c7ccc4[nH]7)C=C6)C=C5)cc3)cc2)c1
REMARK SMILES IDX 34 1 33 2 32 3 31 4 30 5 29 6 27 7 28 8 26 9 23 10 24 11
REMARK SMILES IDX 99 12 25 13 98 14 22 15 8 16 9 17 10 18 21 19 7 20 3 21 4 22
REMARK SMILES IDX 100 23 5 24 6 25 2 26 1 27 11 28 12 29 20 30 13 31 19 32
REMARK SMILES IDX 14 33 15 34 16 35 17 36 18 37 35 38 36 39 37 40 38 41 39 42
REMARK SMILES IDX 40 43 41 44 42 45 43 46 44 47 45 48 97 49 46 50 96 51 47 52
REMARK SMILES IDX 48 53 49 54 90 55 50 56 95 57 89 58 91 59 51 60 94 61 88 62
REMARK SMILES IDX 87 63 52 65 78 66 61 67 77 68 62 69 65 70 76 71 92 72 63 73
REMARK SMILES IDX 64 74 75 76 93 77 66 78 53 79 54 80 59 81 55 82 56 83 58 84
REMARK SMILES IDX 60 85 57 86 79 87 80 88 85 89 81 90 82 91 84 92 86 93 83 94
REMARK SMILES IDX 67 95 68 96 73 97 69 98 70 99 72 100 74 101 71 102
REMARK H PARENT 91 64 65 75
REMARK Flexibility Score: inf
ROOT
ATOM      1  C   UNL A   1      38.910  26.615  28.009  1.00  0.00     0.188 C 
ENDROOT
BRANCH   1   2
ATOM      2  C   UNL A   1      39.482  28.018  28.309  1.00  0.00     0.188 C 
BRANCH   2   3
ATOM      3  O   UNL A   1      38.750  29.074  27.709  1.00  0.00    -0.376 OA
BRANCH   3   4
ATOM      4  C   UNL A   1      38.002  29.948  28.529  1.00  0.00     0.202 C 
BRANCH   4   5
ATOM      5  C   UNL A   1      36.684  30.525  27.991  1.00  0.00     0.261 C 
BRANCH   5   6
ATOM      6  O   UNL A   1      35.508  29.750  28.241  1.00  0.00    -0.460 OA
BRANCH   6   7
ATOM      7  C   UNL A   1      34.383  30.123  27.593  1.00  0.00     0.338 C 
ATOM      8  O   UNL A   1      34.028  31.263  27.348  1.00  0.00    -0.246 OA
BRANCH   7   9
ATOM      9  C   UNL A   1      33.733  28.901  27.062  1.00  0.00     0.060 A 
ATOM     10  C   UNL A   1      32.533  26.519  26.204  1.00  0.00     0.060 A 
ATOM     11  C   UNL A   1      31.868  27.357  27.108  1.00  0.00     0.029 A 
ATOM     12  C   UNL A   1      33.741  26.956  25.641  1.00  0.00     0.029 A 
ATOM     13  C   UNL A   1      32.482  28.526  27.566  1.00  0.00     0.018 A 
ATOM     14  C   UNL A   1      34.336  28.147  26.052  1.00  0.00     0.018 A 
BRANCH  10  15
ATOM     15  N   UNL A   1      32.128  25.196  26.019  1.00  0.00    -0.257 N 
ATOM     16  C   UNL A   1      30.707  24.910  25.764  1.00  0.00     0.144 C 
ATOM     17  C   UNL A   1      30.735  23.450  25.316  1.00  0.00     0.091 C 
ATOM     18  C   UNL A   1      32.221  23.210  25.280  1.00  0.00     0.071 C 
ATOM     19  N   UNL A   1      32.976  24.207  25.630  1.00  0.00    -0.176 NA
BRANCH  16  20
ATOM     20  C   UNL A   1      30.092  25.859  24.738  1.00  0.00    -0.019 A 
ATOM     21  C   UNL A   1      30.297  27.593  23.037  1.00  0.00     0.119 A 
ATOM     22  C   UNL A   1      28.912  27.749  23.026  1.00  0.00     0.046 A 
ATOM     23  C   UNL A   1      30.886  26.669  23.902  1.00  0.00     0.052 A 
ATOM     24  C   UNL A   1      28.112  26.960  23.849  1.00  0.00     0.004 A 
ATOM     25  C   UNL A   1      28.696  26.018  24.696  1.00  0.00     0.006 A 
BRANCH  21  26
ATOM     26  O   UNL A   1      30.997  28.444  22.225  1.00  0.00    -0.497 OA
ATOM     27  C   UNL A   1      30.363  29.698  21.997  1.00  0.00     0.278 C 
ENDBRANCH  21  26
ENDBRANCH  16  20
BRANCH  18  28
ATOM     28  C   UNL A   1      32.735  21.876  24.940  1.00  0.00    -0.002 A 
ATOM     29  C   UNL A   1      34.088  21.603  25.170  1.00  0.00     0.011 A 
ATOM     30  C   UNL A   1      31.873  20.876  24.480  1.00  0.00     0.011 A 
ATOM     31  C   UNL A   1      34.582  20.314  24.956  1.00  0.00     0.021 A 
ATOM     32  C   UNL A   1      32.371  19.593  24.240  1.00  0.00     0.021 A 
ATOM     33  C   UNL A   1      33.721  19.319  24.482  1.00  0.00     0.067 A 
BRANCH  33  34
ATOM     34  S   UNL A   1      34.349  17.672  24.237  1.00  0.00     0.175 S 
ATOM     35  C   UNL A   1      33.461  16.681  25.410  1.00  0.00     0.163 C 
ATOM     36  O   UNL A   1      33.951  17.270  22.902  1.00  0.00    -0.224 OA
ATOM     37  O   UNL A   1      35.744  17.673  24.633  1.00  0.00    -0.224 OA
ENDBRANCH  33  34
ENDBRANCH  18  28
ENDBRANCH  10  15
ENDBRANCH   7   9
ENDBRANCH   6   7
ENDBRANCH   5   6
ENDBRANCH   4   5
ENDBRANCH   3   4
ENDBRANCH   2   3
ENDBRANCH   1   2
BRANCH   1  38
ATOM     38  O   UNL A   1      39.791  25.589  27.569  1.00  0.00    -0.377 OA
BRANCH  38  39
ATOM     39  C   UNL A   1      40.910  25.217  28.369  1.00  0.00     0.188 C 
BRANCH  39  40
ATOM     40  C   UNL A   1      41.644  23.867  28.176  1.00  0.00     0.188 C 
BRANCH  40  41
ATOM     41  O   UNL A   1      42.877  23.760  28.865  1.00  0.00    -0.376 OA
BRANCH  41  42
ATOM     42  C   UNL A   1      44.069  24.008  28.145  1.00  0.00     0.202 C 
BRANCH  42  43
ATOM     43  C   UNL A   1      43.965  24.098  26.616  1.00  0.00     0.261 C 
BRANCH  43  44
ATOM     44  O   UNL A   1      44.216  25.384  26.036  1.00  0.00    -0.460 OA
BRANCH  44  45
ATOM     45  C   UNL A   1      43.151  26.131  25.679  1.00  0.00     0.338 C 
ATOM     46  O   UNL A   1      42.158  25.766  25.073  1.00  0.00    -0.246 OA
BRANCH  45  47
ATOM     47  C   UNL A   1      43.321  27.456  26.305  1.00  0.00     0.060 A 
ATOM     48  C   UNL A   1      44.309  27.645  27.282  1.00  0.00     0.016 A 
ATOM     49  C   UNL A   1      42.512  28.519  25.898  1.00  0.00     0.016 A 
ATOM     50  C   UNL A   1      44.473  28.899  27.875  1.00  0.00     0.010 A 
ATOM     51  C   UNL A   1      42.661  29.764  26.507  1.00  0.00     0.010 A 
ATOM     52  C   UNL A   1      43.620  29.952  27.519  1.00  0.00    -0.014 A 
BRANCH  52  53
ATOM     53  C   UNL A   1      43.566  31.191  28.330  1.00  0.00     0.031 A 
ATOM     54  C   UNL A   1      44.598  32.250  28.060  1.00  0.00     0.074 A 
ATOM     55  C   UNL A   1      42.656  31.360  29.303  1.00  0.00     0.049 A 
ATOM     56  N   UNL A   1      44.868  33.341  28.727  1.00  0.00    -0.248 NA
ATOM     57  C   UNL A   1      45.448  32.041  26.875  1.00  0.00     0.031 C 
ATOM     58  C   UNL A   1      41.575  30.433  29.625  1.00  0.00     0.029 A 
ATOM     59  N   UNL A   1      42.519  32.371  30.222  1.00  0.00    -0.354 N 
ATOM     60  C   UNL A   1      45.927  33.938  28.055  1.00  0.00     0.074 A 
ATOM     61  C   UNL A   1      46.269  33.078  26.945  1.00  0.00     0.031 C 
ATOM     62  C   UNL A   1      40.897  30.907  30.685  1.00  0.00     0.029 A 
ATOM     63  C   UNL A   1      41.526  32.144  31.144  1.00  0.00     0.049 A 
ATOM     64  H   UNL A   1      43.078  33.182  30.219  1.00  0.00     0.167 HD
ATOM     65  C   UNL A   1      46.555  35.102  28.339  1.00  0.00     0.037 A 
ATOM     66  C   UNL A   1      41.195  32.839  32.251  1.00  0.00     0.037 A 
ATOM     67  C   UNL A   1      46.216  35.947  29.451  1.00  0.00     0.049 A 
ATOM     68  C   UNL A   1      41.974  34.082  32.604  1.00  0.00     0.074 A 
ATOM     69  C   UNL A   1      46.790  37.148  29.827  1.00  0.00     0.029 A 
ATOM     70  N   UNL A   1      45.216  35.673  30.372  1.00  0.00    -0.354 N 
ATOM     71  N   UNL A   1      42.969  34.647  31.963  1.00  0.00    -0.248 NA
ATOM     72  C   UNL A   1      41.587  34.783  33.838  1.00  0.00     0.031 C 
ATOM     73  C   UNL A   1      46.175  37.573  31.008  1.00  0.00     0.029 A 
ATOM     74  C   UNL A   1      45.171  36.672  31.328  1.00  0.00     0.049 A 
ATOM     75  H   UNL A   1      44.626  34.885  30.349  1.00  0.00     0.167 HD
ATOM     76  C   UNL A   1      43.292  35.790  32.685  1.00  0.00     0.074 A 
ATOM     77  C   UNL A   1      42.392  35.837  33.818  1.00  0.00     0.031 C 
ATOM     78  C   UNL A   1      44.245  36.721  32.431  1.00  0.00     0.037 A 
BRANCH  65  79
ATOM     79  C   UNL A   1      47.694  35.510  27.450  1.00  0.00     0.057 A 
ATOM     80  C   UNL A   1      49.007  35.082  27.683  1.00  0.00     0.134 A 
ATOM     81  C   UNL A   1      47.466  36.315  26.326  1.00  0.00     0.134 A 
ATOM     82  F   UNL A   1      49.296  34.323  28.750  1.00  0.00    -0.206 F 
ATOM     83  C   UNL A   1      50.057  35.460  26.844  1.00  0.00     0.040 A 
ATOM     84  C   UNL A   1      48.502  36.674  25.463  1.00  0.00     0.040 A 
ATOM     85  F   UNL A   1      46.231  36.757  26.043  1.00  0.00    -0.206 F 
ATOM     86  C   UNL A   1      49.804  36.251  25.725  1.00  0.00     0.006 A 
ENDBRANCH  65  79
BRANCH  66  87
ATOM     87  C   UNL A   1      40.088  32.373  33.126  1.00  0.00     0.057 A 
ATOM     88  C   UNL A   1      40.333  31.534  34.220  1.00  0.00     0.134 A 
ATOM     89  C   UNL A   1      38.756  32.724  32.872  1.00  0.00     0.134 A 
ATOM     90  F   UNL A   1      41.583  31.142  34.502  1.00  0.00    -0.206 F 
ATOM     91  C   UNL A   1      39.294  31.043  35.014  1.00  0.00     0.040 A 
ATOM     92  C   UNL A   1      37.710  32.264  33.675  1.00  0.00     0.040 A 
ATOM     93  F   UNL A   1      38.450  33.524  31.840  1.00  0.00    -0.206 F 
ATOM     94  C   UNL A   1      37.978  31.412  34.744  1.00  0.00     0.006 A 
ENDBRANCH  66  87
BRANCH  78  95
ATOM     95  C   UNL A   1      44.322  37.915  33.339  1.00  0.00     0.057 A 
ATOM     96  C   UNL A   1      43.704  39.131  33.029  1.00  0.00     0.134 A 
ATOM     97  C   UNL A   1      44.953  37.809  34.586  1.00  0.00     0.134 A 
ATOM     98  F   UNL A   1      43.092  39.302  31.846  1.00  0.00    -0.206 F 
ATOM     99  C   UNL A   1      43.720  40.205  33.922  1.00  0.00     0.040 A 
ATOM    100  C   UNL A   1      44.951  38.864  35.499  1.00  0.00     0.040 A 
ATOM    101  F   UNL A   1      45.555  36.666  34.950  1.00  0.00    -0.206 F 
ATOM    102  C   UNL A   1      44.335  40.068  35.165  1.00  0.00     0.006 A 
ENDBRANCH  78  95
ENDBRANCH  52  53
ENDBRANCH  45  47
ENDBRANCH  44  45
ENDBRANCH  43  44
ENDBRANCH  42  43
ENDBRANCH  41  42
ENDBRANCH  40  41
ENDBRANCH  39  40
ENDBRANCH  38  39
ENDBRANCH   1  38
TORSDOF 25
ENDMDL
MODEL 2
REMARK VINA RESULT:      -8.9      6.110     12.201
REMARK SMILES COc1cccc([C@H]2CC(c3ccc(S(C)(=O)=O)cc3)=NN2c2ccc(C(=O)OCCOCCOCCOCCOC(=O)c3ccc(-c4c5nc(c(-c6c(F)cccc6F)c6ccc([nH]6)c(-c6c(F)cccc6F)c6nc(c(-c7c(F)cccc7F)c7ccc4[nH]7)C=C6)C=C5)cc3)cc2)c1
REMARK SMILES IDX 34 1 33 2 32 3 31 4 30 5 29 6 27 7 28 8 26 9 23 10 24 11
REMARK SMILES IDX 99 12 25 13 98 14 22 15 8 16 9 17 10 18 21 19 7 20 3 21 4 22
REMARK SMILES IDX 100 23 5 24 6 25 2 26 1 27 11 28 12 29 20 30 13 31 19 32
REMARK SMILES IDX 14 33 15 34 16 35 17 36 18 37 35 38 36 39 37 40 38 41 39 42
REMARK SMILES IDX 40 43 41 44 42 45 43 46 44 47 45 48 97 49 46 50 96 51 47 52
REMARK SMILES IDX 48 53 49 54 90 55 50 56 95 57 89 58 91 59 51 60 94 61 88 62
REMARK SMILES IDX 87 63 52 65 78 66 61 67 77 68 62 69 65 70 76 71 92 72 63 73
REMARK SMILES IDX 64 74 75 76 93 77 66 78 53 79 54 80 59 81 55 82 56 83 58 84
REMARK SMILES IDX 60 85 57 86 79 87 80 88 85 89 81 90 82 91 84 92 86 93 83 94
REMARK SMILES IDX 67 95 68 96 73 97 69 98 70 99 72 100 74 101 71 102
REMARK H PARENT 91 64 65 75
REMARK Flexibility Score: inf
ROOT
ATOM      1  C   UNL A   1      47.253  24.145  24.857  1.00  0.00     0.188 C 
ENDROOT
BRANCH   1   2
ATOM      2  C   UNL A   1      48.323  25.186  25.255  1.00  0.00     0.188 C 
BRANCH   2   3
ATOM      3  O   UNL A   1      47.784  26.441  25.640  1.00  0.00    -0.376 OA
BRANCH   3   4
ATOM      4  C   UNL A   1      46.417  26.707  25.402  1.00  0.00     0.202 C 
BRANCH   4   5
ATOM      5  C   UNL A   1      46.035  27.947  24.580  1.00  0.00     0.261 C 
BRANCH   5   6
ATOM      6  O   UNL A   1      46.225  29.211  25.221  1.00  0.00    -0.460 OA
BRANCH   6   7
ATOM      7  C   UNL A   1      45.342  29.543  26.189  1.00  0.00     0.338 C 
ATOM      8  O   UNL A   1      44.380  28.889  26.551  1.00  0.00    -0.246 OA
BRANCH   7   9
ATOM      9  C   UNL A   1      45.844  30.759  26.870  1.00  0.00     0.060 A 
ATOM     10  C   UNL A   1      46.701  33.149  28.058  1.00  0.00     0.060 A 
ATOM     11  C   UNL A   1      45.414  32.656  28.312  1.00  0.00     0.029 A 
ATOM     12  C   UNL A   1      47.589  32.362  27.309  1.00  0.00     0.029 A 
ATOM     13  C   UNL A   1      44.973  31.485  27.690  1.00  0.00     0.018 A 
ATOM     14  C   UNL A   1      47.174  31.165  26.729  1.00  0.00     0.018 A 
BRANCH  10  15
ATOM     15  N   UNL A   1      47.036  34.471  28.352  1.00  0.00    -0.257 N 
ATOM     16  C   UNL A   1      46.850  35.504  27.322  1.00  0.00     0.144 C 
ATOM     17  C   UNL A   1      47.019  36.800  28.112  1.00  0.00     0.091 C 
ATOM     18  C   UNL A   1      47.150  36.247  29.507  1.00  0.00     0.071 C 
ATOM     19  N   UNL A   1      47.111  34.954  29.621  1.00  0.00    -0.176 NA
BRANCH  16  20
ATOM     20  C   UNL A   1      45.504  35.387  26.610  1.00  0.00    -0.019 A 
ATOM     21  C   UNL A   1      43.096  35.757  26.514  1.00  0.00     0.119 A 
ATOM     22  C   UNL A   1      43.015  34.953  25.379  1.00  0.00     0.046 A 
ATOM     23  C   UNL A   1      44.329  35.957  27.138  1.00  0.00     0.052 A 
ATOM     24  C   UNL A   1      44.165  34.378  24.844  1.00  0.00     0.004 A 
ATOM     25  C   UNL A   1      45.402  34.596  25.452  1.00  0.00     0.006 A 
BRANCH  21  26
ATOM     26  O   UNL A   1      41.905  36.241  26.986  1.00  0.00    -0.497 OA
ATOM     27  C   UNL A   1      41.442  35.611  28.175  1.00  0.00     0.278 C 
ENDBRANCH  21  26
ENDBRANCH  16  20
BRANCH  18  28
ATOM     28  C   UNL A   1      47.392  37.161  30.632  1.00  0.00    -0.002 A 
ATOM     29  C   UNL A   1      46.624  38.327  30.721  1.00  0.00     0.011 A 
ATOM     30  C   UNL A   1      48.306  36.829  31.635  1.00  0.00     0.011 A 
ATOM     31  C   UNL A   1      46.757  39.162  31.833  1.00  0.00     0.021 A 
ATOM     32  C   UNL A   1      48.461  37.676  32.735  1.00  0.00     0.021 A 
ATOM     33  C   UNL A   1      47.684  38.836  32.829  1.00  0.00     0.067 A 
BRANCH  33  34
ATOM     34  S   UNL A   1      47.830  39.888  34.257  1.00  0.00     0.175 S 
ATOM     35  C   UNL A   1      46.734  41.241  33.923  1.00  0.00     0.163 C 
ATOM     36  O   UNL A   1      47.306  39.139  35.382  1.00  0.00    -0.224 OA
ATOM     37  O   UNL A   1      49.181  40.415  34.274  1.00  0.00    -0.224 OA
ENDBRANCH  33  34
ENDBRANCH  18  28
ENDBRANCH  10  15
ENDBRANCH   7   9
ENDBRANCH   6   7
ENDBRANCH   5   6
ENDBRANCH   4   5
ENDBRANCH   3   4
ENDBRANCH   2   3
ENDBRANCH   1   2
BRANCH   1  38
ATOM     38  O   UNL A   1      46.707  23.298  25.858  1.00  0.00    -0.377 OA
BRANCH  38  39
ATOM     39  C   UNL A   1      45.401  22.749  25.695  1.00  0.00     0.188 C 
BRANCH  39  40
ATOM     40  C   UNL A   1      44.751  22.579  24.300  1.00  0.00     0.188 C 
BRANCH  40  41
ATOM     41  O   UNL A   1      44.154  21.315  24.075  1.00  0.00    -0.376 OA
BRANCH  41  42
ATOM     42  C   UNL A   1      44.420  20.276  24.997  1.00  0.00     0.202 C 
BRANCH  42  43
ATOM     43  C   UNL A   1      43.223  19.667  25.739  1.00  0.00     0.261 C 
BRANCH  43  44
ATOM     44  O   UNL A   1      42.018  20.444  25.751  1.00  0.00    -0.460 OA
BRANCH  44  45
ATOM     45  C   UNL A   1      41.448  20.700  26.946  1.00  0.00     0.338 C 
ATOM     46  O   UNL A   1      40.781  19.939  27.629  1.00  0.00    -0.246 OA
BRANCH  45  47
ATOM     47  C   UNL A   1      41.914  22.033  27.374  1.00  0.00     0.060 A 
ATOM     48  C   UNL A   1      42.442  22.208  28.661  1.00  0.00     0.016 A 
ATOM     49  C   UNL A   1      41.848  23.104  26.481  1.00  0.00     0.016 A 
ATOM     50  C   UNL A   1      42.885  23.469  29.067  1.00  0.00     0.010 A 
ATOM     51  C   UNL A   1      42.269  24.366  26.896  1.00  0.00     0.010 A 
ATOM     52  C   UNL A   1      42.760  24.561  28.200  1.00  0.00    -0.014 A 
BRANCH  52  53
ATOM     53  C   UNL A   1      42.935  25.946  28.695  1.00  0.00     0.031 A 
ATOM     54  C   UNL A   1      44.337  26.428  28.948  1.00  0.00     0.074 A 
ATOM     55  C   UNL A   1      41.885  26.743  28.953  1.00  0.00     0.049 A 
ATOM     56  N   UNL A   1      44.750  27.524  29.527  1.00  0.00    -0.248 NA
ATOM     57  C   UNL A   1      45.420  25.541  28.489  1.00  0.00     0.031 C 
ATOM     58  C   UNL A   1      40.485  26.412  28.699  1.00  0.00     0.029 A 
ATOM     59  N   UNL A   1      41.840  27.996  29.513  1.00  0.00    -0.354 N 
ATOM     60  C   UNL A   1      46.138  27.451  29.517  1.00  0.00     0.074 A 
ATOM     61  C   UNL A   1      46.496  26.194  28.901  1.00  0.00     0.031 C 
ATOM     62  C   UNL A   1      39.715  27.428  29.126  1.00  0.00     0.029 A 
ATOM     63  C   UNL A   1      40.564  28.457  29.724  1.00  0.00     0.049 A 
ATOM     64  H   UNL A   1      42.646  28.514  29.741  1.00  0.00     0.167 HD
ATOM     65  C   UNL A   1      47.031  28.356  29.980  1.00  0.00     0.037 A 
ATOM     66  C   UNL A   1      40.136  29.565  30.362  1.00  0.00     0.037 A 
ATOM     67  C   UNL A   1      46.666  29.599  30.601  1.00  0.00     0.049 A 
ATOM     68  C   UNL A   1      41.148  30.512  30.958  1.00  0.00     0.074 A 
ATOM     69  C   UNL A   1      47.494  30.587  31.104  1.00  0.00     0.029 A 
ATOM     70  N   UNL A   1      45.362  30.021  30.812  1.00  0.00    -0.354 N 
ATOM     71  N   UNL A   1      42.458  30.444  30.941  1.00  0.00    -0.248 NA
ATOM     72  C   UNL A   1      40.623  31.689  31.667  1.00  0.00     0.031 C 
ATOM     73  C   UNL A   1      46.692  31.581  31.670  1.00  0.00     0.029 A 
ATOM     74  C   UNL A   1      45.364  31.245  31.458  1.00  0.00     0.049 A 
ATOM     75  H   UNL A   1      44.556  29.524  30.543  1.00  0.00     0.167 HD
ATOM     76  C   UNL A   1      42.910  31.587  31.590  1.00  0.00     0.074 A 
ATOM     77  C   UNL A   1      41.737  32.331  31.995  1.00  0.00     0.031 C 
ATOM     78  C   UNL A   1      44.184  31.989  31.824  1.00  0.00     0.037 A 
BRANCH  65  79
ATOM     79  C   UNL A   1      48.488  28.015  29.859  1.00  0.00     0.057 A 
ATOM     80  C   UNL A   1      49.209  27.454  30.922  1.00  0.00     0.134 A 
ATOM     81  C   UNL A   1      49.170  28.221  28.653  1.00  0.00     0.134 A 
ATOM     82  F   UNL A   1      48.620  27.246  32.108  1.00  0.00    -0.206 F 
ATOM     83  C   UNL A   1      50.561  27.131  30.795  1.00  0.00     0.040 A 
ATOM     84  C   UNL A   1      50.513  27.875  28.505  1.00  0.00     0.040 A 
ATOM     85  F   UNL A   1      48.538  28.752  27.595  1.00  0.00    -0.206 F 
ATOM     86  C   UNL A   1      51.215  27.334  29.581  1.00  0.00     0.006 A 
ENDBRANCH  65  79
BRANCH  66  87
ATOM     87  C   UNL A   1      38.681  29.840  30.495  1.00  0.00     0.057 A 
ATOM     88  C   UNL A   1      37.977  30.517  29.492  1.00  0.00     0.134 A 
ATOM     89  C   UNL A   1      37.967  29.466  31.641  1.00  0.00     0.134 A 
ATOM     90  F   UNL A   1      38.608  30.924  28.382  1.00  0.00    -0.206 F 
ATOM     91  C   UNL A   1      36.624  30.833  29.633  1.00  0.00     0.040 A 
ATOM     92  C   UNL A   1      36.607  29.750  31.782  1.00  0.00     0.040 A 
ATOM     93  F   UNL A   1      38.580  28.816  32.640  1.00  0.00    -0.206 F 
ATOM     94  C   UNL A   1      35.934  30.444  30.779  1.00  0.00     0.006 A 
ENDBRANCH  66  87
BRANCH  78  95
ATOM     95  C   UNL A   1      44.392  33.325  32.478  1.00  0.00     0.057 A 
ATOM     96  C   UNL A   1      44.759  33.450  33.822  1.00  0.00     0.134 A 
ATOM     97  C   UNL A   1      44.310  34.499  31.717  1.00  0.00     0.134 A 
ATOM     98  F   UNL A   1      44.845  32.366  34.608  1.00  0.00    -0.206 F 
ATOM     99  C   UNL A   1      45.026  34.698  34.391  1.00  0.00     0.040 A 
ATOM    100  C   UNL A   1      44.603  35.748  32.265  1.00  0.00     0.040 A 
ATOM    101  F   UNL A   1      43.974  34.448  30.419  1.00  0.00    -0.206 F 
ATOM    102  C   UNL A   1      44.959  35.849  33.608  1.00  0.00     0.006 A 
ENDBRANCH  78  95
ENDBRANCH  52  53
ENDBRANCH  45  47
ENDBRANCH  44  45
ENDBRANCH  43  44
ENDBRANCH  42  43
ENDBRANCH  41  42
ENDBRANCH  40  41
ENDBRANCH  39  40
ENDBRANCH  38  39
ENDBRANCH   1  38
TORSDOF 25
ENDMDL
MODEL 3
REMARK VINA RESULT:      -8.9      8.034     12.814
REMARK SMILES COc1cccc([C@H]2CC(c3ccc(S(C)(=O)=O)cc3)=NN2c2ccc(C(=O)OCCOCCOCCOCCOC(=O)c3ccc(-c4c5nc(c(-c6c(F)cccc6F)c6ccc([nH]6)c(-c6c(F)cccc6F)c6nc(c(-c7c(F)cccc7F)c7ccc4[nH]7)C=C6)C=C5)cc3)cc2)c1
REMARK SMILES IDX 34 1 33 2 32 3 31 4 30 5 29 6 27 7 28 8 26 9 23 10 24 11
REMARK SMILES IDX 99 12 25 13 98 14 22 15 8 16 9 17 10 18 21 19 7 20 3 21 4 22
REMARK SMILES IDX 100 23 5 24 6 25 2 26 1 27 11 28 12 29 20 30 13 31 19 32
REMARK SMILES IDX 14 33 15 34 16 35 17 36 18 37 35 38 36 39 37 40 38 41 39 42
REMARK SMILES IDX 40 43 41 44 42 45 43 46 44 47 45 48 97 49 46 50 96 51 47 52
REMARK SMILES IDX 48 53 49 54 90 55 50 56 95 57 89 58 91 59 51 60 94 61 88 62
REMARK SMILES IDX 87 63 52 65 78 66 61 67 77 68 62 69 65 70 76 71 92 72 63 73
REMARK SMILES IDX 64 74 75 76 93 77 66 78 53 79 54 80 59 81 55 82 56 83 58 84
REMARK SMILES IDX 60 85 57 86 79 87 80 88 85 89 81 90 82 91 84 92 86 93 83 94
REMARK SMILES IDX 67 95 68 96 73 97 69 98 70 99 72 100 74 101 71 102
REMARK H PARENT 91 64 65 75
REMARK Flexibility Score: inf
ROOT
ATOM      1  C   UNL A   1      42.303  18.712  26.244  1.00  0.00     0.188 C 
ENDROOT
BRANCH   1   2
ATOM      2  C   UNL A   1      41.689  20.124  26.113  1.00  0.00     0.188 C 
BRANCH   2   3
ATOM      3  O   UNL A   1      42.100  21.022  27.132  1.00  0.00    -0.376 OA
BRANCH   3   4
ATOM      4  C   UNL A   1      42.934  22.112  26.795  1.00  0.00     0.202 C 
BRANCH   4   5
ATOM      5  C   UNL A   1      42.649  23.485  27.421  1.00  0.00     0.261 C 
BRANCH   5   6
ATOM      6  O   UNL A   1      43.546  23.906  28.453  1.00  0.00    -0.460 OA
BRANCH   6   7
ATOM      7  C   UNL A   1      43.255  25.069  29.076  1.00  0.00     0.338 C 
ATOM      8  O   UNL A   1      42.574  25.978  28.638  1.00  0.00    -0.246 OA
BRANCH   7   9
ATOM      9  C   UNL A   1      43.757  24.981  30.468  1.00  0.00     0.060 A 
ATOM     10  C   UNL A   1      44.853  24.855  33.044  1.00  0.00     0.060 A 
ATOM     11  C   UNL A   1      44.622  26.095  32.436  1.00  0.00     0.029 A 
ATOM     12  C   UNL A   1      44.408  23.692  32.398  1.00  0.00     0.029 A 
ATOM     13  C   UNL A   1      44.111  26.158  31.137  1.00  0.00     0.018 A 
ATOM     14  C   UNL A   1      43.848  23.749  31.123  1.00  0.00     0.018 A 
BRANCH  10  15
ATOM     15  N   UNL A   1      45.688  24.744  34.157  1.00  0.00    -0.257 N 
ATOM     16  C   UNL A   1      45.597  25.752  35.225  1.00  0.00     0.144 C 
ATOM     17  C   UNL A   1      46.406  25.117  36.354  1.00  0.00     0.091 C 
ATOM     18  C   UNL A   1      46.711  23.775  35.743  1.00  0.00     0.071 C 
ATOM     19  N   UNL A   1      46.263  23.573  34.540  1.00  0.00    -0.176 NA
BRANCH  16  20
ATOM     20  C   UNL A   1      44.154  26.074  35.606  1.00  0.00    -0.019 A 
ATOM     21  C   UNL A   1      42.419  27.654  36.270  1.00  0.00     0.119 A 
ATOM     22  C   UNL A   1      41.549  26.596  36.524  1.00  0.00     0.046 A 
ATOM     23  C   UNL A   1      43.720  27.395  35.834  1.00  0.00     0.052 A 
ATOM     24  C   UNL A   1      41.961  25.282  36.308  1.00  0.00     0.004 A 
ATOM     25  C   UNL A   1      43.253  25.023  35.849  1.00  0.00     0.006 A 
BRANCH  21  26
ATOM     26  O   UNL A   1      41.934  28.903  36.553  1.00  0.00    -0.497 OA
ATOM     27  C   UNL A   1      40.926  29.361  35.660  1.00  0.00     0.278 C 
ENDBRANCH  21  26
ENDBRANCH  16  20
BRANCH  18  28
ATOM     28  C   UNL A   1      47.545  22.813  36.477  1.00  0.00    -0.002 A 
ATOM     29  C   UNL A   1      47.969  21.656  35.815  1.00  0.00     0.011 A 
ATOM     30  C   UNL A   1      47.976  23.091  37.777  1.00  0.00     0.011 A 
ATOM     31  C   UNL A   1      48.848  20.776  36.451  1.00  0.00     0.021 A 
ATOM     32  C   UNL A   1      48.833  22.198  38.425  1.00  0.00     0.021 A 
ATOM     33  C   UNL A   1      49.266  21.048  37.757  1.00  0.00     0.067 A 
BRANCH  33  34
ATOM     34  S   UNL A   1      50.406  19.937  38.553  1.00  0.00     0.175 S 
ATOM     35  C   UNL A   1      49.388  18.936  39.605  1.00  0.00     0.163 C 
ATOM     36  O   UNL A   1      50.961  19.094  37.512  1.00  0.00    -0.224 OA
ATOM     37  O   UNL A   1      51.267  20.733  39.408  1.00  0.00    -0.224 OA
ENDBRANCH  33  34
ENDBRANCH  18  28
ENDBRANCH  10  15
ENDBRANCH   7   9
ENDBRANCH   6   7
ENDBRANCH   5   6
ENDBRANCH   4   5
ENDBRANCH   3   4
ENDBRANCH   2   3
ENDBRANCH   1   2
BRANCH   1  38
ATOM     38  O   UNL A   1      43.268  18.288  25.291  1.00  0.00    -0.377 OA
BRANCH  38  39
ATOM     39  C   UNL A   1      44.577  18.853  25.300  1.00  0.00     0.188 C 
BRANCH  39  40
ATOM     40  C   UNL A   1      45.247  19.393  24.013  1.00  0.00     0.188 C 
BRANCH  40  41
ATOM     41  O   UNL A   1      45.146  20.794  23.837  1.00  0.00    -0.376 OA
BRANCH  41  42
ATOM     42  C   UNL A   1      46.239  21.599  24.236  1.00  0.00     0.202 C 
BRANCH  42  43
ATOM     43  C   UNL A   1      46.064  23.121  24.149  1.00  0.00     0.261 C 
BRANCH  43  44
ATOM     44  O   UNL A   1      46.405  23.870  25.324  1.00  0.00    -0.460 OA
BRANCH  44  45
ATOM     45  C   UNL A   1      47.342  24.833  25.205  1.00  0.00     0.338 C 
ATOM     46  O   UNL A   1      47.868  25.234  24.180  1.00  0.00    -0.246 OA
BRANCH  45  47
ATOM     47  C   UNL A   1      47.506  25.446  26.537  1.00  0.00     0.060 A 
ATOM     48  C   UNL A   1      48.651  26.205  26.819  1.00  0.00     0.016 A 
ATOM     49  C   UNL A   1      46.504  25.286  27.496  1.00  0.00     0.016 A 
ATOM     50  C   UNL A   1      48.808  26.786  28.080  1.00  0.00     0.010 A 
ATOM     51  C   UNL A   1      46.674  25.848  28.761  1.00  0.00     0.010 A 
ATOM     52  C   UNL A   1      47.839  26.574  29.068  1.00  0.00    -0.014 A 
BRANCH  52  53
ATOM     53  C   UNL A   1      48.112  26.917  30.483  1.00  0.00     0.031 A 
ATOM     54  C   UNL A   1      49.068  26.042  31.244  1.00  0.00     0.074 A 
ATOM     55  C   UNL A   1      47.503  27.948  31.091  1.00  0.00     0.049 A 
ATOM     56  N   UNL A   1      49.351  26.026  32.520  1.00  0.00    -0.248 NA
ATOM     57  C   UNL A   1      49.800  25.038  30.451  1.00  0.00     0.031 C 
ATOM     58  C   UNL A   1      46.600  28.900  30.449  1.00  0.00     0.029 A 
ATOM     59  N   UNL A   1      47.538  28.349  32.405  1.00  0.00    -0.354 N 
ATOM     60  C   UNL A   1      50.277  25.004  32.686  1.00  0.00     0.074 A 
ATOM     61  C   UNL A   1      50.490  24.405  31.388  1.00  0.00     0.031 C 
ATOM     62  C   UNL A   1      46.146  29.761  31.376  1.00  0.00     0.029 A 
ATOM     63  C   UNL A   1      46.690  29.393  32.682  1.00  0.00     0.049 A 
ATOM     64  H   UNL A   1      48.117  27.928  33.081  1.00  0.00     0.167 HD
ATOM     65  C   UNL A   1      50.896  24.605  33.821  1.00  0.00     0.037 A 
ATOM     66  C   UNL A   1      46.364  29.955  33.864  1.00  0.00     0.037 A 
ATOM     67  C   UNL A   1      50.670  25.200  35.110  1.00  0.00     0.049 A 
ATOM     68  C   UNL A   1      46.992  29.428  35.131  1.00  0.00     0.074 A 
ATOM     69  C   UNL A   1      51.247  24.871  36.324  1.00  0.00     0.029 A 
ATOM     70  N   UNL A   1      49.790  26.243  35.353  1.00  0.00    -0.354 N 
ATOM     71  N   UNL A   1      47.872  28.468  35.283  1.00  0.00    -0.248 NA
ATOM     72  C   UNL A   1      46.578  30.061  36.392  1.00  0.00     0.031 C 
ATOM     73  C   UNL A   1      50.674  25.677  37.311  1.00  0.00     0.029 A 
ATOM     74  C   UNL A   1      49.792  26.555  36.701  1.00  0.00     0.049 A 
ATOM     75  H   UNL A   1      49.245  26.695  34.668  1.00  0.00     0.167 HD
ATOM     76  C   UNL A   1      48.152  28.415  36.644  1.00  0.00     0.074 A 
ATOM     77  C   UNL A   1      47.344  29.436  37.276  1.00  0.00     0.031 C 
ATOM     78  C   UNL A   1      49.005  27.599  37.309  1.00  0.00     0.037 A 
BRANCH  65  79
ATOM     79  C   UNL A   1      51.850  23.451  33.721  1.00  0.00     0.057 A 
ATOM     80  C   UNL A   1      53.238  23.628  33.785  1.00  0.00     0.134 A 
ATOM     81  C   UNL A   1      51.370  22.140  33.592  1.00  0.00     0.134 A 
ATOM     82  F   UNL A   1      53.763  24.857  33.892  1.00  0.00    -0.206 F 
ATOM     83  C   UNL A   1      54.116  22.545  33.700  1.00  0.00     0.040 A 
ATOM     84  C   UNL A   1      52.237  21.048  33.536  1.00  0.00     0.040 A 
ATOM     85  F   UNL A   1      50.052  21.900  33.528  1.00  0.00    -0.206 F 
ATOM     86  C   UNL A   1      53.615  21.250  33.584  1.00  0.00     0.006 A 
ENDBRANCH  65  79
BRANCH  66  87
ATOM     87  C   UNL A   1      45.381  31.069  33.920  1.00  0.00     0.057 A 
ATOM     88  C   UNL A   1      45.797  32.396  34.077  1.00  0.00     0.134 A 
ATOM     89  C   UNL A   1      44.002  30.832  33.853  1.00  0.00     0.134 A 
ATOM     90  F   UNL A   1      47.103  32.686  34.171  1.00  0.00    -0.206 F 
ATOM     91  C   UNL A   1      44.881  33.443  34.189  1.00  0.00     0.040 A 
ATOM     92  C   UNL A   1      43.075  31.873  33.936  1.00  0.00     0.040 A 
ATOM     93  F   UNL A   1      43.534  29.584  33.704  1.00  0.00    -0.206 F 
ATOM     94  C   UNL A   1      43.514  33.182  34.114  1.00  0.00     0.006 A 
ENDBRANCH  66  87
BRANCH  78  95
ATOM     95  C   UNL A   1      49.181  27.817  38.785  1.00  0.00     0.057 A 
ATOM     96  C   UNL A   1      48.376  27.179  39.736  1.00  0.00     0.134 A 
ATOM     97  C   UNL A   1      50.236  28.610  39.257  1.00  0.00     0.134 A 
ATOM     98  F   UNL A   1      47.343  26.414  39.350  1.00  0.00    -0.206 F 
ATOM     99  C   UNL A   1      48.606  27.332  41.105  1.00  0.00     0.040 A 
ATOM    100  C   UNL A   1      50.494  28.746  40.621  1.00  0.00     0.040 A 
ATOM    101  F   UNL A   1      51.052  29.240  38.398  1.00  0.00    -0.206 F 
ATOM    102  C   UNL A   1      49.676  28.108  41.550  1.00  0.00     0.006 A 
ENDBRANCH  78  95
ENDBRANCH  52  53
ENDBRANCH  45  47
ENDBRANCH  44  45
ENDBRANCH  43  44
ENDBRANCH  42  43
ENDBRANCH  41  42
ENDBRANCH  40  41
ENDBRANCH  39  40
ENDBRANCH  38  39
ENDBRANCH   1  38
TORSDOF 25
ENDMDL
