MODEL 1
REMARK VINA RESULT:      -8.7      0.000      0.000
REMARK SMILES CCc1nc(COC)cc(N2CCCC[C@H]2C(=O)OCCOCCOCCOCCOC(=O)c2ccc(-c3c4nc(c(-c5c(F)cccc5F)c5ccc([nH]5)c(-c5c(F)cccc5F)c5nc(c(-c6c(F)cccc6F)c6ccc3[nH]6)C=C5)C=C4)cc2)n1
REMARK SMILES IDX 24 1 23 2 22 3 21 4 20 5 19 6 17 7 18 8 16 9 11 10 12 11
REMARK SMILES IDX 13 12 15 13 14 14 10 15 3 16 4 17 88 18 5 19 9 20 2 21 1 22
REMARK SMILES IDX 6 23 7 24 8 25 25 26 26 27 27 28 28 29 29 30 30 31 31 32
REMARK SMILES IDX 32 33 33 34 34 35 35 36 87 37 36 38 86 39 37 40 38 41 39 42
REMARK SMILES IDX 80 43 40 44 85 45 79 46 81 47 41 48 84 49 78 50 77 51 42 53
REMARK SMILES IDX 68 54 51 55 67 56 52 57 55 58 66 59 82 60 53 61 54 62 65 64
REMARK SMILES IDX 83 65 56 66 43 67 44 68 49 69 45 70 46 71 48 72 50 73 47 74
REMARK SMILES IDX 69 75 70 76 75 77 71 78 72 79 74 80 76 81 73 82 57 83 58 84
REMARK SMILES IDX 63 85 59 86 60 87 62 88 64 89 61 90
REMARK H PARENT 81 52 55 63
REMARK Flexibility Score: inf
ROOT
ATOM      1  C   UNL A   1      37.185  22.693  25.021  1.00  0.00     0.188 C 
ENDROOT
BRANCH   1   2
ATOM      2  C   UNL A   1      36.504  21.354  24.677  1.00  0.00     0.188 C 
BRANCH   2   3
ATOM      3  O   UNL A   1      35.376  21.076  25.491  1.00  0.00    -0.376 OA
BRANCH   3   4
ATOM      4  C   UNL A   1      34.984  21.921  26.560  1.00  0.00     0.202 C 
BRANCH   4   5
ATOM      5  C   UNL A   1      33.637  21.783  27.294  1.00  0.00     0.261 C 
BRANCH   5   6
ATOM      6  O   UNL A   1      32.539  22.505  26.747  1.00  0.00    -0.462 OA
BRANCH   6   7
ATOM      7  C   UNL A   1      32.019  22.015  25.593  1.00  0.00     0.328 C 
ATOM      8  O   UNL A   1      31.857  20.825  25.361  1.00  0.00    -0.250 OA
BRANCH   7   9
ATOM      9  C   UNL A   1      31.582  23.191  24.705  1.00  0.00     0.193 C 
ATOM     10  N   UNL A   1      32.545  24.289  24.767  1.00  0.00    -0.343 N 
ATOM     11  C   UNL A   1      33.840  24.027  24.155  1.00  0.00     0.119 C 
ATOM     12  C   UNL A   1      33.704  23.494  22.727  1.00  0.00     0.022 C 
ATOM     13  C   UNL A   1      31.337  22.774  23.253  1.00  0.00     0.037 C 
ATOM     14  C   UNL A   1      32.635  22.416  22.543  1.00  0.00     0.005 C 
BRANCH  10  15
ATOM     15  C   UNL A   1      32.057  25.580  24.894  1.00  0.00     0.133 A 
ATOM     16  C   UNL A   1      30.878  27.360  24.036  1.00  0.00     0.130 A 
ATOM     17  N   UNL A   1      31.073  28.133  25.116  1.00  0.00    -0.235 NA
ATOM     18  N   UNL A   1      31.356  26.110  23.882  1.00  0.00    -0.216 NA
ATOM     19  C   UNL A   1      31.827  27.617  26.102  1.00  0.00     0.072 A 
ATOM     20  C   UNL A   1      32.314  26.323  26.041  1.00  0.00     0.073 A 
BRANCH  16  21
ATOM     21  C   UNL A   1      30.062  27.939  22.914  1.00  0.00     0.074 C 
ATOM     22  C   UNL A   1      30.095  29.459  22.922  1.00  0.00     0.012 C 
ENDBRANCH  16  21
BRANCH  19  23
ATOM     23  C   UNL A   1      32.199  28.536  27.248  1.00  0.00     0.216 C 
BRANCH  23  24
ATOM     24  O   UNL A   1      33.612  28.600  27.485  1.00  0.00    -0.378 OA
ATOM     25  C   UNL A   1      34.171  29.878  27.218  1.00  0.00     0.195 C 
ENDBRANCH  23  24
ENDBRANCH  19  23
ENDBRANCH  10  15
ENDBRANCH   7   9
ENDBRANCH   6   7
ENDBRANCH   5   6
ENDBRANCH   4   5
ENDBRANCH   3   4
ENDBRANCH   2   3
ENDBRANCH   1   2
BRANCH   1  26
ATOM     26  O   UNL A   1      38.399  22.541  25.735  1.00  0.00    -0.377 OA
BRANCH  26  27
ATOM     27  C   UNL A   1      38.777  21.214  26.115  1.00  0.00     0.188 C 
BRANCH  27  28
ATOM     28  C   UNL A   1      40.247  20.709  26.064  1.00  0.00     0.188 C 
BRANCH  28  29
ATOM     29  O   UNL A   1      40.990  20.873  27.262  1.00  0.00    -0.376 OA
BRANCH  29  30
ATOM     30  C   UNL A   1      42.291  21.430  27.196  1.00  0.00     0.202 C 
BRANCH  30  31
ATOM     31  C   UNL A   1      42.748  22.277  28.392  1.00  0.00     0.261 C 
BRANCH  31  32
ATOM     32  O   UNL A   1      41.929  23.414  28.702  1.00  0.00    -0.460 OA
BRANCH  32  33
ATOM     33  C   UNL A   1      41.612  24.242  27.685  1.00  0.00     0.338 C 
ATOM     34  O   UNL A   1      40.521  24.378  27.154  1.00  0.00    -0.246 OA
BRANCH  33  35
ATOM     35  C   UNL A   1      42.775  25.122  27.448  1.00  0.00     0.060 A 
ATOM     36  C   UNL A   1      43.456  25.664  28.548  1.00  0.00     0.016 A 
ATOM     37  C   UNL A   1      43.204  25.384  26.146  1.00  0.00     0.016 A 
ATOM     38  C   UNL A   1      44.548  26.506  28.346  1.00  0.00     0.010 A 
ATOM     39  C   UNL A   1      44.281  26.249  25.944  1.00  0.00     0.010 A 
ATOM     40  C   UNL A   1      44.930  26.842  27.042  1.00  0.00    -0.014 A 
BRANCH  40  41
ATOM     41  C   UNL A   1      45.842  27.987  26.812  1.00  0.00     0.031 A 
ATOM     42  C   UNL A   1      47.306  27.695  26.642  1.00  0.00     0.074 A 
ATOM     43  C   UNL A   1      45.391  29.251  26.763  1.00  0.00     0.049 A 
ATOM     44  N   UNL A   1      48.314  28.519  26.537  1.00  0.00    -0.248 NA
ATOM     45  C   UNL A   1      47.681  26.271  26.597  1.00  0.00     0.031 C 
ATOM     46  C   UNL A   1      43.992  29.657  26.866  1.00  0.00     0.029 A 
ATOM     47  N   UNL A   1      46.080  30.431  26.635  1.00  0.00    -0.354 N 
ATOM     48  C   UNL A   1      49.443  27.717  26.433  1.00  0.00     0.074 A 
ATOM     49  C   UNL A   1      48.999  26.343  26.513  1.00  0.00     0.031 C 
ATOM     50  C   UNL A   1      43.926  30.999  26.823  1.00  0.00     0.029 A 
ATOM     51  C   UNL A   1      45.281  31.544  26.732  1.00  0.00     0.049 A 
ATOM     52  H   UNL A   1      47.053  30.476  26.490  1.00  0.00     0.167 HD
ATOM     53  C   UNL A   1      50.735  28.093  26.284  1.00  0.00     0.037 A 
ATOM     54  C   UNL A   1      45.614  32.849  26.777  1.00  0.00     0.037 A 
ATOM     55  C   UNL A   1      51.169  29.462  26.212  1.00  0.00     0.049 A 
ATOM     56  C   UNL A   1      47.065  33.248  26.687  1.00  0.00     0.074 A 
ATOM     57  C   UNL A   1      52.451  29.951  26.033  1.00  0.00     0.029 A 
ATOM     58  N   UNL A   1      50.332  30.562  26.332  1.00  0.00    -0.354 N 
ATOM     59  N   UNL A   1      48.127  32.487  26.559  1.00  0.00    -0.248 NA
ATOM     60  C   UNL A   1      47.365  34.686  26.747  1.00  0.00     0.031 C 
ATOM     61  C   UNL A   1      52.398  31.345  26.113  1.00  0.00     0.029 A 
ATOM     62  C   UNL A   1      51.075  31.729  26.268  1.00  0.00     0.049 A 
ATOM     63  H   UNL A   1      49.356  30.519  26.447  1.00  0.00     0.167 HD
ATOM     64  C   UNL A   1      49.213  33.353  26.491  1.00  0.00     0.074 A 
ATOM     65  C   UNL A   1      48.681  34.697  26.586  1.00  0.00     0.031 C 
ATOM     66  C   UNL A   1      50.530  33.061  26.356  1.00  0.00     0.037 A 
BRANCH  53  67
ATOM     67  C   UNL A   1      51.768  27.004  26.241  1.00  0.00     0.057 A 
ATOM     68  C   UNL A   1      52.485  26.607  27.377  1.00  0.00     0.134 A 
ATOM     69  C   UNL A   1      52.046  26.340  25.039  1.00  0.00     0.134 A 
ATOM     70  F   UNL A   1      52.281  27.213  28.557  1.00  0.00    -0.206 F 
ATOM     71  C   UNL A   1      53.465  25.614  27.312  1.00  0.00     0.040 A 
ATOM     72  C   UNL A   1      52.998  25.324  24.968  1.00  0.00     0.040 A 
ATOM     73  F   UNL A   1      51.394  26.669  23.913  1.00  0.00    -0.206 F 
ATOM     74  C   UNL A   1      53.719  24.965  26.105  1.00  0.00     0.006 A 
ENDBRANCH  53  67
BRANCH  54  75
ATOM     75  C   UNL A   1      44.552  33.875  26.939  1.00  0.00     0.057 A 
ATOM     76  C   UNL A   1      44.185  34.348  28.203  1.00  0.00     0.134 A 
ATOM     77  C   UNL A   1      43.878  34.407  25.832  1.00  0.00     0.134 A 
ATOM     78  F   UNL A   1      44.777  33.862  29.304  1.00  0.00    -0.206 F 
ATOM     79  C   UNL A   1      43.180  35.305  28.363  1.00  0.00     0.040 A 
ATOM     80  C   UNL A   1      42.891  35.382  25.975  1.00  0.00     0.040 A 
ATOM     81  F   UNL A   1      44.184  33.997  24.592  1.00  0.00    -0.206 F 
ATOM     82  C   UNL A   1      42.536  35.830  27.244  1.00  0.00     0.006 A 
ENDBRANCH  54  75
BRANCH  66  83
ATOM     83  C   UNL A   1      51.494  34.210  26.253  1.00  0.00     0.057 A 
ATOM     84  C   UNL A   1      51.877  34.754  25.021  1.00  0.00     0.134 A 
ATOM     85  C   UNL A   1      51.987  34.826  27.412  1.00  0.00     0.134 A 
ATOM     86  F   UNL A   1      51.450  34.207  23.874  1.00  0.00    -0.206 F 
ATOM     87  C   UNL A   1      52.728  35.859  24.945  1.00  0.00     0.040 A 
ATOM     88  C   UNL A   1      52.813  35.949  27.349  1.00  0.00     0.040 A 
ATOM     89  F   UNL A   1      51.650  34.363  28.626  1.00  0.00    -0.206 F 
ATOM     90  C   UNL A   1      53.190  36.466  26.112  1.00  0.00     0.006 A 
ENDBRANCH  66  83
ENDBRANCH  40  41
ENDBRANCH  33  35
ENDBRANCH  32  33
ENDBRANCH  31  32
ENDBRANCH  30  31
ENDBRANCH  29  30
ENDBRANCH  28  29
ENDBRANCH  27  28
ENDBRANCH  26  27
ENDBRANCH   1  26
TORSDOF 24
ENDMDL
MODEL 2
REMARK VINA RESULT:      -8.7      0.999      2.053
REMARK SMILES CCc1nc(COC)cc(N2CCCC[C@H]2C(=O)OCCOCCOCCOCCOC(=O)c2ccc(-c3c4nc(c(-c5c(F)cccc5F)c5ccc([nH]5)c(-c5c(F)cccc5F)c5nc(c(-c6c(F)cccc6F)c6ccc3[nH]6)C=C5)C=C4)cc2)n1
REMARK SMILES IDX 24 1 23 2 22 3 21 4 20 5 19 6 17 7 18 8 16 9 11 10 12 11
REMARK SMILES IDX 13 12 15 13 14 14 10 15 3 16 4 17 88 18 5 19 9 20 2 21 1 22
REMARK SMILES IDX 6 23 7 24 8 25 25 26 26 27 27 28 28 29 29 30 30 31 31 32
REMARK SMILES IDX 32 33 33 34 34 35 35 36 87 37 36 38 86 39 37 40 38 41 39 42
REMARK SMILES IDX 80 43 40 44 85 45 79 46 81 47 41 48 84 49 78 50 77 51 42 53
REMARK SMILES IDX 68 54 51 55 67 56 52 57 55 58 66 59 82 60 53 61 54 62 65 64
REMARK SMILES IDX 83 65 56 66 43 67 44 68 49 69 45 70 46 71 48 72 50 73 47 74
REMARK SMILES IDX 69 75 70 76 75 77 71 78 72 79 74 80 76 81 73 82 57 83 58 84
REMARK SMILES IDX 63 85 59 86 60 87 62 88 64 89 61 90
REMARK H PARENT 81 52 55 63
REMARK Flexibility Score: inf
ROOT
ATOM      1  C   UNL A   1      36.029  22.239  24.451  1.00  0.00     0.188 C 
ENDROOT
BRANCH   1   2
ATOM      2  C   UNL A   1      35.688  20.809  24.914  1.00  0.00     0.188 C 
BRANCH   2   3
ATOM      3  O   UNL A   1      34.590  20.759  25.809  1.00  0.00    -0.376 OA
BRANCH   3   4
ATOM      4  C   UNL A   1      34.449  21.665  26.891  1.00  0.00     0.202 C 
BRANCH   4   5
ATOM      5  C   UNL A   1      33.102  22.293  27.296  1.00  0.00     0.261 C 
BRANCH   5   6
ATOM      6  O   UNL A   1      32.590  23.303  26.435  1.00  0.00    -0.462 OA
BRANCH   6   7
ATOM      7  C   UNL A   1      31.502  22.964  25.698  1.00  0.00     0.328 C 
ATOM      8  O   UNL A   1      30.873  21.924  25.836  1.00  0.00    -0.250 OA
BRANCH   7   9
ATOM      9  C   UNL A   1      31.150  24.132  24.763  1.00  0.00     0.193 C 
ATOM     10  N   UNL A   1      32.238  25.105  24.696  1.00  0.00    -0.343 N 
ATOM     11  C   UNL A   1      33.450  24.652  24.027  1.00  0.00     0.119 C 
ATOM     12  C   UNL A   1      33.157  24.059  22.647  1.00  0.00     0.022 C 
ATOM     13  C   UNL A   1      30.761  23.666  23.358  1.00  0.00     0.037 C 
ATOM     14  C   UNL A   1      31.958  23.111  22.597  1.00  0.00     0.005 C 
BRANCH  10  15
ATOM     15  C   UNL A   1      31.916  26.451  24.768  1.00  0.00     0.133 A 
ATOM     16  C   UNL A   1      31.704  28.388  25.993  1.00  0.00     0.130 A 
ATOM     17  N   UNL A   1      31.291  29.119  24.944  1.00  0.00    -0.235 NA
ATOM     18  N   UNL A   1      32.006  27.076  25.951  1.00  0.00    -0.216 NA
ATOM     19  C   UNL A   1      31.147  28.472  23.774  1.00  0.00     0.072 A 
ATOM     20  C   UNL A   1      31.483  27.136  23.638  1.00  0.00     0.073 A 
BRANCH  16  21
ATOM     21  C   UNL A   1      31.839  29.095  27.312  1.00  0.00     0.074 C 
ATOM     22  C   UNL A   1      32.764  30.298  27.214  1.00  0.00     0.012 C 
ENDBRANCH  16  21
BRANCH  19  23
ATOM     23  C   UNL A   1      30.520  29.238  22.628  1.00  0.00     0.216 C 
BRANCH  23  24
ATOM     24  O   UNL A   1      29.289  29.881  22.984  1.00  0.00    -0.378 OA
ATOM     25  C   UNL A   1      28.141  29.086  22.724  1.00  0.00     0.195 C 
ENDBRANCH  23  24
ENDBRANCH  19  23
ENDBRANCH  10  15
ENDBRANCH   7   9
ENDBRANCH   6   7
ENDBRANCH   5   6
ENDBRANCH   4   5
ENDBRANCH   3   4
ENDBRANCH   2   3
ENDBRANCH   1   2
BRANCH   1  26
ATOM     26  O   UNL A   1      37.380  22.599  24.679  1.00  0.00    -0.377 OA
BRANCH  26  27
ATOM     27  C   UNL A   1      38.048  21.981  25.784  1.00  0.00     0.188 C 
BRANCH  27  28
ATOM     28  C   UNL A   1      39.272  21.038  25.609  1.00  0.00     0.188 C 
BRANCH  28  29
ATOM     29  O   UNL A   1      40.271  21.143  26.611  1.00  0.00    -0.376 OA
BRANCH  29  30
ATOM     30  C   UNL A   1      41.611  21.391  26.225  1.00  0.00     0.202 C 
BRANCH  30  31
ATOM     31  C   UNL A   1      42.525  22.054  27.265  1.00  0.00     0.261 C 
BRANCH  31  32
ATOM     32  O   UNL A   1      42.021  23.255  27.866  1.00  0.00    -0.460 OA
BRANCH  32  33
ATOM     33  C   UNL A   1      41.667  24.259  27.036  1.00  0.00     0.338 C 
ATOM     34  O   UNL A   1      40.548  24.518  26.624  1.00  0.00    -0.246 OA
BRANCH  33  35
ATOM     35  C   UNL A   1      42.847  25.131  26.863  1.00  0.00     0.060 A 
ATOM     36  C   UNL A   1      43.536  25.579  27.999  1.00  0.00     0.016 A 
ATOM     37  C   UNL A   1      43.283  25.478  25.584  1.00  0.00     0.016 A 
ATOM     38  C   UNL A   1      44.645  26.412  27.859  1.00  0.00     0.010 A 
ATOM     39  C   UNL A   1      44.376  26.335  25.445  1.00  0.00     0.010 A 
ATOM     40  C   UNL A   1      45.035  26.834  26.583  1.00  0.00    -0.014 A 
BRANCH  40  41
ATOM     41  C   UNL A   1      45.968  27.976  26.437  1.00  0.00     0.031 A 
ATOM     42  C   UNL A   1      47.423  27.669  26.216  1.00  0.00     0.074 A 
ATOM     43  C   UNL A   1      45.545  29.248  26.507  1.00  0.00     0.049 A 
ATOM     44  N   UNL A   1      48.447  28.477  26.164  1.00  0.00    -0.248 NA
ATOM     45  C   UNL A   1      47.765  26.247  26.040  1.00  0.00     0.031 C 
ATOM     46  C   UNL A   1      44.158  29.673  26.669  1.00  0.00     0.029 A 
ATOM     47  N   UNL A   1      46.259  30.421  26.469  1.00  0.00    -0.354 N 
ATOM     48  C   UNL A   1      49.556  27.664  25.971  1.00  0.00     0.074 A 
ATOM     49  C   UNL A   1      49.083  26.298  25.939  1.00  0.00     0.031 C 
ATOM     50  C   UNL A   1      44.122  31.016  26.744  1.00  0.00     0.029 A 
ATOM     51  C   UNL A   1      45.487  31.538  26.676  1.00  0.00     0.049 A 
ATOM     52  H   UNL A   1      47.230  30.457  26.310  1.00  0.00     0.167 HD
ATOM     53  C   UNL A   1      50.853  28.024  25.832  1.00  0.00     0.037 A 
ATOM     54  C   UNL A   1      45.850  32.826  26.828  1.00  0.00     0.037 A 
ATOM     55  C   UNL A   1      51.317  29.385  25.870  1.00  0.00     0.049 A 
ATOM     56  C   UNL A   1      47.308  33.200  26.747  1.00  0.00     0.074 A 
ATOM     57  C   UNL A   1      52.606  29.860  25.712  1.00  0.00     0.029 A 
ATOM     58  N   UNL A   1      50.508  30.487  26.101  1.00  0.00    -0.354 N 
ATOM     59  N   UNL A   1      48.350  32.432  26.534  1.00  0.00    -0.248 NA
ATOM     60  C   UNL A   1      47.641  34.622  26.925  1.00  0.00     0.031 C 
ATOM     61  C   UNL A   1      52.587  31.243  25.914  1.00  0.00     0.029 A 
ATOM     62  C   UNL A   1      51.276  31.639  26.125  1.00  0.00     0.049 A 
ATOM     63  H   UNL A   1      49.533  30.455  26.229  1.00  0.00     0.167 HD
ATOM     64  C   UNL A   1      49.454  33.277  26.522  1.00  0.00     0.074 A 
ATOM     65  C   UNL A   1      48.955  34.618  26.742  1.00  0.00     0.031 C 
ATOM     66  C   UNL A   1      50.763  32.970  26.338  1.00  0.00     0.037 A 
BRANCH  53  67
ATOM     67  C   UNL A   1      51.861  26.922  25.676  1.00  0.00     0.057 A 
ATOM     68  C   UNL A   1      52.474  26.307  26.775  1.00  0.00     0.134 A 
ATOM     69  C   UNL A   1      52.219  26.467  24.400  1.00  0.00     0.134 A 
ATOM     70  F   UNL A   1      52.191  26.706  28.024  1.00  0.00    -0.206 F 
ATOM     71  C   UNL A   1      53.433  25.304  26.610  1.00  0.00     0.040 A 
ATOM     72  C   UNL A   1      53.149  25.443  24.223  1.00  0.00     0.040 A 
ATOM     73  F   UNL A   1      51.668  27.009  23.304  1.00  0.00    -0.206 F 
ATOM     74  C   UNL A   1      53.767  24.865  25.331  1.00  0.00     0.006 A 
ENDBRANCH  53  67
BRANCH  54  75
ATOM     75  C   UNL A   1      44.814  33.856  27.097  1.00  0.00     0.057 A 
ATOM     76  C   UNL A   1      44.112  34.471  26.056  1.00  0.00     0.134 A 
ATOM     77  C   UNL A   1      44.501  34.249  28.405  1.00  0.00     0.134 A 
ATOM     78  F   UNL A   1      44.382  34.156  24.780  1.00  0.00    -0.206 F 
ATOM     79  C   UNL A   1      43.144  35.448  26.302  1.00  0.00     0.040 A 
ATOM     80  C   UNL A   1      43.518  35.204  28.667  1.00  0.00     0.040 A 
ATOM     81  F   UNL A   1      45.136  33.696  29.449  1.00  0.00    -0.206 F 
ATOM     82  C   UNL A   1      42.839  35.810  27.613  1.00  0.00     0.006 A 
ENDBRANCH  54  75
BRANCH  66  83
ATOM     83  C   UNL A   1      51.750  34.103  26.317  1.00  0.00     0.057 A 
ATOM     84  C   UNL A   1      52.403  34.544  27.474  1.00  0.00     0.134 A 
ATOM     85  C   UNL A   1      52.106  34.710  25.104  1.00  0.00     0.134 A 
ATOM     86  F   UNL A   1      52.105  34.012  28.669  1.00  0.00    -0.206 F 
ATOM     87  C   UNL A   1      53.362  35.558  27.429  1.00  0.00     0.040 A 
ATOM     88  C   UNL A   1      53.083  35.704  25.042  1.00  0.00     0.040 A 
ATOM     89  F   UNL A   1      51.527  34.328  23.955  1.00  0.00    -0.206 F 
ATOM     90  C   UNL A   1      53.712  36.134  26.208  1.00  0.00     0.006 A 
ENDBRANCH  66  83
ENDBRANCH  40  41
ENDBRANCH  33  35
ENDBRANCH  32  33
ENDBRANCH  31  32
ENDBRANCH  30  31
ENDBRANCH  29  30
ENDBRANCH  28  29
ENDBRANCH  27  28
ENDBRANCH  26  27
ENDBRANCH   1  26
TORSDOF 24
ENDMDL
MODEL 3
REMARK VINA RESULT:      -8.3      8.469     12.870
REMARK SMILES CCc1nc(COC)cc(N2CCCC[C@H]2C(=O)OCCOCCOCCOCCOC(=O)c2ccc(-c3c4nc(c(-c5c(F)cccc5F)c5ccc([nH]5)c(-c5c(F)cccc5F)c5nc(c(-c6c(F)cccc6F)c6ccc3[nH]6)C=C5)C=C4)cc2)n1
REMARK SMILES IDX 24 1 23 2 22 3 21 4 20 5 19 6 17 7 18 8 16 9 11 10 12 11
REMARK SMILES IDX 13 12 15 13 14 14 10 15 3 16 4 17 88 18 5 19 9 20 2 21 1 22
REMARK SMILES IDX 6 23 7 24 8 25 25 26 26 27 27 28 28 29 29 30 30 31 31 32
REMARK SMILES IDX 32 33 33 34 34 35 35 36 87 37 36 38 86 39 37 40 38 41 39 42
REMARK SMILES IDX 80 43 40 44 85 45 79 46 81 47 41 48 84 49 78 50 77 51 42 53
REMARK SMILES IDX 68 54 51 55 67 56 52 57 55 58 66 59 82 60 53 61 54 62 65 64
REMARK SMILES IDX 83 65 56 66 43 67 44 68 49 69 45 70 46 71 48 72 50 73 47 74
REMARK SMILES IDX 69 75 70 76 75 77 71 78 72 79 74 80 76 81 73 82 57 83 58 84
REMARK SMILES IDX 63 85 59 86 60 87 62 88 64 89 61 90
REMARK H PARENT 81 52 55 63
REMARK Flexibility Score: inf
ROOT
ATOM      1  C   UNL A   1      31.598  32.442  26.534  1.00  0.00     0.188 C 
ENDROOT
BRANCH   1   2
ATOM      2  C   UNL A   1      32.391  31.165  26.874  1.00  0.00     0.188 C 
BRANCH   2   3
ATOM      3  O   UNL A   1      31.565  30.085  27.276  1.00  0.00    -0.376 OA
BRANCH   3   4
ATOM      4  C   UNL A   1      32.006  28.738  27.246  1.00  0.00     0.202 C 
BRANCH   4   5
ATOM      5  C   UNL A   1      31.950  27.859  25.982  1.00  0.00     0.261 C 
BRANCH   5   6
ATOM      6  O   UNL A   1      32.892  26.795  25.907  1.00  0.00    -0.462 OA
BRANCH   6   7
ATOM      7  C   UNL A   1      32.401  25.548  26.117  1.00  0.00     0.328 C 
ATOM      8  O   UNL A   1      31.573  25.268  26.972  1.00  0.00    -0.250 OA
BRANCH   7   9
ATOM      9  C   UNL A   1      32.973  24.602  25.049  1.00  0.00     0.193 C 
ATOM     10  N   UNL A   1      32.377  23.270  25.145  1.00  0.00    -0.343 N 
ATOM     11  C   UNL A   1      30.970  23.182  24.779  1.00  0.00     0.119 C 
ATOM     12  C   UNL A   1      30.689  23.813  23.414  1.00  0.00     0.022 C 
ATOM     13  C   UNL A   1      32.823  25.155  23.630  1.00  0.00     0.037 C 
ATOM     14  C   UNL A   1      31.369  25.163  23.179  1.00  0.00     0.005 C 
BRANCH  10  15
ATOM     15  C   UNL A   1      33.215  22.171  25.053  1.00  0.00     0.133 A 
ATOM     16  C   UNL A   1      35.335  21.280  24.969  1.00  0.00     0.130 A 
ATOM     17  N   UNL A   1      34.902  20.012  24.876  1.00  0.00    -0.235 NA
ATOM     18  N   UNL A   1      34.541  22.366  25.042  1.00  0.00    -0.216 NA
ATOM     19  C   UNL A   1      33.571  19.829  24.827  1.00  0.00     0.072 A 
ATOM     20  C   UNL A   1      32.688  20.888  24.946  1.00  0.00     0.073 A 
BRANCH  16  21
ATOM     21  C   UNL A   1      36.821  21.499  24.992  1.00  0.00     0.074 C 
ATOM     22  C   UNL A   1      37.171  22.962  25.215  1.00  0.00     0.012 C 
ENDBRANCH  16  21
BRANCH  19  23
ATOM     23  C   UNL A   1      33.072  18.426  24.550  1.00  0.00     0.216 C 
BRANCH  23  24
ATOM     24  O   UNL A   1      32.873  17.651  25.740  1.00  0.00    -0.378 OA
ATOM     25  C   UNL A   1      32.674  16.268  25.486  1.00  0.00     0.195 C 
ENDBRANCH  23  24
ENDBRANCH  19  23
ENDBRANCH  10  15
ENDBRANCH   7   9
ENDBRANCH   6   7
ENDBRANCH   5   6
ENDBRANCH   4   5
ENDBRANCH   3   4
ENDBRANCH   2   3
ENDBRANCH   1   2
BRANCH   1  26
ATOM     26  O   UNL A   1      31.802  33.495  27.460  1.00  0.00    -0.377 OA
BRANCH  26  27
ATOM     27  C   UNL A   1      33.154  33.828  27.790  1.00  0.00     0.188 C 
BRANCH  27  28
ATOM     28  C   UNL A   1      33.562  34.426  29.166  1.00  0.00     0.188 C 
BRANCH  28  29
ATOM     29  O   UNL A   1      33.914  33.478  30.162  1.00  0.00    -0.376 OA
BRANCH  29  30
ATOM     30  C   UNL A   1      34.637  32.319  29.785  1.00  0.00     0.202 C 
BRANCH  30  31
ATOM     31  C   UNL A   1      35.830  31.925  30.667  1.00  0.00     0.261 C 
BRANCH  31  32
ATOM     32  O   UNL A   1      36.800  32.955  30.905  1.00  0.00    -0.460 OA
BRANCH  32  33
ATOM     33  C   UNL A   1      36.868  33.463  32.153  1.00  0.00     0.338 C 
ATOM     34  O   UNL A   1      36.141  34.309  32.648  1.00  0.00    -0.246 OA
BRANCH  33  35
ATOM     35  C   UNL A   1      37.861  32.667  32.904  1.00  0.00     0.060 A 
ATOM     36  C   UNL A   1      37.430  31.879  33.980  1.00  0.00     0.016 A 
ATOM     37  C   UNL A   1      39.204  32.683  32.527  1.00  0.00     0.016 A 
ATOM     38  C   UNL A   1      38.352  31.130  34.710  1.00  0.00     0.010 A 
ATOM     39  C   UNL A   1      40.132  31.955  33.275  1.00  0.00     0.010 A 
ATOM     40  C   UNL A   1      39.713  31.208  34.391  1.00  0.00    -0.014 A 
BRANCH  40  41
ATOM     41  C   UNL A   1      40.725  30.712  35.352  1.00  0.00     0.031 A 
ATOM     42  C   UNL A   1      41.143  31.630  36.466  1.00  0.00     0.074 A 
ATOM     43  C   UNL A   1      41.267  29.489  35.240  1.00  0.00     0.049 A 
ATOM     44  N   UNL A   1      42.078  31.478  37.365  1.00  0.00    -0.248 NA
ATOM     45  C   UNL A   1      40.407  32.902  36.568  1.00  0.00     0.031 C 
ATOM     46  C   UNL A   1      40.910  28.492  34.235  1.00  0.00     0.029 A 
ATOM     47  N   UNL A   1      42.257  28.889  35.978  1.00  0.00    -0.354 N 
ATOM     48  C   UNL A   1      42.057  32.639  38.127  1.00  0.00     0.074 A 
ATOM     49  C   UNL A   1      41.035  33.496  37.569  1.00  0.00     0.031 C 
ATOM     50  C   UNL A   1      41.691  27.409  34.402  1.00  0.00     0.029 A 
ATOM     51  C   UNL A   1      42.627  27.656  35.498  1.00  0.00     0.049 A 
ATOM     52  H   UNL A   1      42.664  29.303  36.774  1.00  0.00     0.167 HD
ATOM     53  C   UNL A   1      42.822  32.962  39.196  1.00  0.00     0.037 A 
ATOM     54  C   UNL A   1      43.630  26.842  35.882  1.00  0.00     0.037 A 
ATOM     55  C   UNL A   1      43.841  32.106  39.741  1.00  0.00     0.049 A 
ATOM     56  C   UNL A   1      44.522  27.252  37.026  1.00  0.00     0.074 A 
ATOM     57  C   UNL A   1      44.654  32.326  40.839  1.00  0.00     0.029 A 
ATOM     58  N   UNL A   1      44.199  30.873  39.216  1.00  0.00    -0.354 N 
ATOM     59  N   UNL A   1      44.479  28.338  37.762  1.00  0.00    -0.248 NA
ATOM     60  C   UNL A   1      45.601  26.323  37.394  1.00  0.00     0.031 C 
ATOM     61  C   UNL A   1      45.548  31.257  40.937  1.00  0.00     0.029 A 
ATOM     62  C   UNL A   1      45.245  30.336  39.947  1.00  0.00     0.049 A 
ATOM     63  H   UNL A   1      43.773  30.445  38.440  1.00  0.00     0.167 HD
ATOM     64  C   UNL A   1      45.500  28.208  38.696  1.00  0.00     0.074 A 
ATOM     65  C   UNL A   1      46.142  26.935  38.438  1.00  0.00     0.031 C 
ATOM     66  C   UNL A   1      45.869  29.063  39.683  1.00  0.00     0.037 A 
BRANCH  53  67
ATOM     67  C   UNL A   1      42.613  34.317  39.808  1.00  0.00     0.057 A 
ATOM     68  C   UNL A   1      41.715  34.532  40.861  1.00  0.00     0.134 A 
ATOM     69  C   UNL A   1      43.328  35.425  39.333  1.00  0.00     0.134 A 
ATOM     70  F   UNL A   1      40.985  33.519  41.351  1.00  0.00    -0.206 F 
ATOM     71  C   UNL A   1      41.509  35.806  41.397  1.00  0.00     0.040 A 
ATOM     72  C   UNL A   1      43.156  36.696  39.883  1.00  0.00     0.040 A 
ATOM     73  F   UNL A   1      44.206  35.290  38.329  1.00  0.00    -0.206 F 
ATOM     74  C   UNL A   1      42.237  36.891  40.911  1.00  0.00     0.006 A 
ENDBRANCH  53  67
BRANCH  54  75
ATOM     75  C   UNL A   1      43.858  25.565  35.159  1.00  0.00     0.057 A 
ATOM     76  C   UNL A   1      43.109  24.421  35.449  1.00  0.00     0.134 A 
ATOM     77  C   UNL A   1      44.833  25.460  34.158  1.00  0.00     0.134 A 
ATOM     78  F   UNL A   1      42.176  24.450  36.412  1.00  0.00    -0.206 F 
ATOM     79  C   UNL A   1      43.326  23.214  34.779  1.00  0.00     0.040 A 
ATOM     80  C   UNL A   1      45.043  24.268  33.462  1.00  0.00     0.040 A 
ATOM     81  F   UNL A   1      45.584  26.521  33.830  1.00  0.00    -0.206 F 
ATOM     82  C   UNL A   1      44.290  23.139  33.777  1.00  0.00     0.006 A 
ENDBRANCH  54  75
BRANCH  66  83
ATOM     83  C   UNL A   1      46.987  28.639  40.594  1.00  0.00     0.057 A 
ATOM     84  C   UNL A   1      48.323  28.971  40.340  1.00  0.00     0.134 A 
ATOM     85  C   UNL A   1      46.708  27.950  41.783  1.00  0.00     0.134 A 
ATOM     86  F   UNL A   1      48.660  29.622  39.217  1.00  0.00    -0.206 F 
ATOM     87  C   UNL A   1      49.343  28.621  41.227  1.00  0.00     0.040 A 
ATOM     88  C   UNL A   1      47.715  27.620  42.691  1.00  0.00     0.040 A 
ATOM     89  F   UNL A   1      45.448  27.610  42.094  1.00  0.00    -0.206 F 
ATOM     90  C   UNL A   1      49.039  27.952  42.412  1.00  0.00     0.006 A 
ENDBRANCH  66  83
ENDBRANCH  40  41
ENDBRANCH  33  35
ENDBRANCH  32  33
ENDBRANCH  31  32
ENDBRANCH  30  31
ENDBRANCH  29  30
ENDBRANCH  28  29
ENDBRANCH  27  28
ENDBRANCH  26  27
ENDBRANCH   1  26
TORSDOF 24
ENDMDL
