MODEL 1
REMARK VINA RESULT:      -9.8      0.000      0.000
REMARK SMILES Cn1c(C[NH+]2CCCC2)nnc1[C@@H]1CCCN(c2cccc(C(=O)OCCOCCOCCOCCOC(=O)c3ccc(-c4c5nc(c(-c6c(F)cccc6F)c6ccc([nH]6)c(-c6c(F)cccc6F)c6nc(c(-c7c(F)cccc7F)c7ccc4[nH]7)C=C6)C=C5)cc3)n2)C1
REMARK SMILES IDX 30 1 29 2 28 3 27 4 26 5 25 6 23 7 24 8 22 9 18 10 19 11
REMARK SMILES IDX 94 12 20 13 21 14 17 15 13 16 14 17 95 18 15 19 16 20 12 21
REMARK SMILES IDX 1 22 2 23 3 24 10 25 11 26 4 27 5 28 6 29 9 30 7 32 8 33
REMARK SMILES IDX 31 34 32 35 33 36 34 37 35 38 36 39 37 40 38 41 39 42 40 43
REMARK SMILES IDX 41 44 93 45 42 46 92 47 43 48 44 49 45 50 86 51 46 52 91 53
REMARK SMILES IDX 85 54 87 55 47 56 90 57 84 58 83 59 48 61 74 62 57 63 73 64
REMARK SMILES IDX 58 65 61 66 72 67 88 68 59 69 60 70 71 72 89 73 62 74 49 75
REMARK SMILES IDX 50 76 55 77 51 78 52 79 54 80 56 81 53 82 75 83 76 84 81 85
REMARK SMILES IDX 77 86 78 87 80 88 82 89 79 90 63 91 64 92 69 93 65 94 66 95
REMARK SMILES IDX 68 96 70 97 67 98
REMARK H PARENT 5 31 87 60 61 71
REMARK Flexibility Score: inf
ROOT
ATOM      1  C   UNL A   1      34.313  34.031  27.930  1.00  0.00     0.188 C 
ENDROOT
BRANCH   1   2
ATOM      2  C   UNL A   1      34.715  32.559  28.107  1.00  0.00     0.188 C 
BRANCH   2   3
ATOM      3  O   UNL A   1      33.705  31.566  28.223  1.00  0.00    -0.376 OA
BRANCH   3   4
ATOM      4  C   UNL A   1      32.675  31.536  27.252  1.00  0.00     0.202 C 
BRANCH   4   5
ATOM      5  C   UNL A   1      32.187  30.179  26.708  1.00  0.00     0.261 C 
BRANCH   5   6
ATOM      6  O   UNL A   1      32.865  28.978  27.148  1.00  0.00    -0.459 OA
BRANCH   6   7
ATOM      7  C   UNL A   1      34.044  28.642  26.529  1.00  0.00     0.357 C 
ATOM      8  O   UNL A   1      35.152  28.953  26.936  1.00  0.00    -0.244 OA
BRANCH   7   9
ATOM      9  C   UNL A   1      33.794  27.888  25.234  1.00  0.00     0.150 A 
ATOM     10  C   UNL A   1      33.884  25.830  24.076  1.00  0.00     0.129 A 
ATOM     11  C   UNL A   1      33.446  26.461  22.917  1.00  0.00     0.047 A 
ATOM     12  N   UNL A   1      34.088  26.549  25.211  1.00  0.00    -0.224 NA
ATOM     13  C   UNL A   1      33.223  27.840  22.918  1.00  0.00     0.006 A 
ATOM     14  C   UNL A   1      33.383  28.566  24.095  1.00  0.00     0.036 A 
BRANCH  10  15
ATOM     15  N   UNL A   1      34.185  24.457  24.031  1.00  0.00    -0.356 N 
ATOM     16  C   UNL A   1      32.340  23.574  25.441  1.00  0.00     0.077 C 
ATOM     17  C   UNL A   1      33.368  23.579  26.616  1.00  0.00     0.015 C 
ATOM     18  C   UNL A   1      33.139  23.432  24.141  1.00  0.00     0.129 C 
ATOM     19  C   UNL A   1      34.873  23.876  26.311  1.00  0.00     0.022 C 
ATOM     20  C   UNL A   1      35.311  24.085  24.859  1.00  0.00     0.118 C 
BRANCH  16  21
ATOM     21  C   UNL A   1      31.375  24.742  25.393  1.00  0.00     0.137 A 
ATOM     22  C   UNL A   1      30.273  24.343  23.126  1.00  0.00     0.153 C 
ATOM     23  N   UNL A   1      30.590  25.090  24.310  1.00  0.00    -0.313 N 
ATOM     24  C   UNL A   1      30.180  26.383  24.528  1.00  0.00     0.187 A 
ATOM     25  N   UNL A   1      30.459  26.686  25.779  1.00  0.00    -0.129 NA
ATOM     26  N   UNL A   1      31.168  25.646  26.333  1.00  0.00    -0.135 NA
BRANCH  24  27
ATOM     27  C   UNL A   1      29.621  27.284  23.461  1.00  0.00     0.341 C 
BRANCH  27  28
ATOM     28  N   UNL A   1      29.157  28.640  23.819  1.00  0.00    -0.329 N 
ATOM     29  C   UNL A   1      27.928  28.995  23.122  1.00  0.00     0.262 C 
ATOM     30  C   UNL A   1      30.038  29.765  23.521  1.00  0.00     0.262 C 
ATOM     31  H   UNL A   1      29.077  28.535  24.830  1.00  0.00     0.348 HD
ATOM     32  C   UNL A   1      28.371  29.617  21.802  1.00  0.00     0.067 C 
ATOM     33  C   UNL A   1      29.774  30.140  22.069  1.00  0.00     0.067 C 
ENDBRANCH  27  28
ENDBRANCH  24  27
ENDBRANCH  16  21
ENDBRANCH  10  15
ENDBRANCH   7   9
ENDBRANCH   6   7
ENDBRANCH   5   6
ENDBRANCH   4   5
ENDBRANCH   3   4
ENDBRANCH   2   3
ENDBRANCH   1   2
BRANCH   1  34
ATOM     34  O   UNL A   1      33.670  34.652  29.028  1.00  0.00    -0.377 OA
BRANCH  34  35
ATOM     35  C   UNL A   1      34.257  34.533  30.314  1.00  0.00     0.188 C 
BRANCH  35  36
ATOM     36  C   UNL A   1      33.572  35.299  31.457  1.00  0.00     0.188 C 
BRANCH  36  37
ATOM     37  O   UNL A   1      33.933  35.027  32.811  1.00  0.00    -0.376 OA
BRANCH  37  38
ATOM     38  C   UNL A   1      33.948  33.681  33.257  1.00  0.00     0.202 C 
BRANCH  38  39
ATOM     39  C   UNL A   1      35.262  33.085  33.737  1.00  0.00     0.261 C 
BRANCH  39  40
ATOM     40  O   UNL A   1      36.152  32.989  32.619  1.00  0.00    -0.460 OA
BRANCH  40  41
ATOM     41  C   UNL A   1      36.360  31.732  32.197  1.00  0.00     0.338 C 
ATOM     42  O   UNL A   1      35.531  30.843  32.045  1.00  0.00    -0.246 OA
BRANCH  41  43
ATOM     43  C   UNL A   1      37.728  31.634  31.691  1.00  0.00     0.060 A 
ATOM     44  C   UNL A   1      37.909  32.019  30.361  1.00  0.00     0.016 A 
ATOM     45  C   UNL A   1      38.780  31.121  32.455  1.00  0.00     0.016 A 
ATOM     46  C   UNL A   1      39.130  31.813  29.752  1.00  0.00     0.010 A 
ATOM     47  C   UNL A   1      40.008  30.889  31.832  1.00  0.00     0.010 A 
ATOM     48  C   UNL A   1      40.155  31.181  30.464  1.00  0.00    -0.014 A 
BRANCH  48  49
ATOM     49  C   UNL A   1      41.256  30.615  29.661  1.00  0.00     0.031 A 
ATOM     50  C   UNL A   1      42.477  31.465  29.444  1.00  0.00     0.074 A 
ATOM     51  C   UNL A   1      41.229  29.321  29.308  1.00  0.00     0.049 A 
ATOM     52  N   UNL A   1      43.613  31.154  28.878  1.00  0.00    -0.248 NA
ATOM     53  C   UNL A   1      42.418  32.848  29.950  1.00  0.00     0.031 C 
ATOM     54  C   UNL A   1      40.119  28.402  29.557  1.00  0.00     0.029 A 
ATOM     55  N   UNL A   1      42.177  28.551  28.693  1.00  0.00    -0.354 N 
ATOM     56  C   UNL A   1      44.402  32.294  28.970  1.00  0.00     0.074 A 
ATOM     57  C   UNL A   1      43.607  33.317  29.609  1.00  0.00     0.031 C 
ATOM     58  C   UNL A   1      40.453  27.184  29.097  1.00  0.00     0.029 A 
ATOM     59  C   UNL A   1      41.783  27.252  28.497  1.00  0.00     0.049 A 
ATOM     60  H   UNL A   1      43.058  28.896  28.416  1.00  0.00     0.167 HD
ATOM     61  C   UNL A   1      45.682  32.463  28.568  1.00  0.00     0.037 A 
ATOM     62  C   UNL A   1      42.426  26.242  27.884  1.00  0.00     0.037 A 
ATOM     63  C   UNL A   1      46.458  31.431  27.931  1.00  0.00     0.049 A 
ATOM     64  C   UNL A   1      43.816  26.488  27.361  1.00  0.00     0.074 A 
ATOM     65  C   UNL A   1      47.756  31.495  27.459  1.00  0.00     0.029 A 
ATOM     66  N   UNL A   1      45.999  30.147  27.678  1.00  0.00    -0.354 N 
ATOM     67  N   UNL A   1      44.553  27.571  27.440  1.00  0.00    -0.248 NA
ATOM     68  C   UNL A   1      44.467  25.368  26.669  1.00  0.00     0.031 C 
ATOM     69  C   UNL A   1      48.063  30.265  26.869  1.00  0.00     0.029 A 
ATOM     70  C   UNL A   1      46.980  29.415  27.031  1.00  0.00     0.049 A 
ATOM     71  H   UNL A   1      45.107  29.808  27.922  1.00  0.00     0.167 HD
ATOM     72  C   UNL A   1      45.761  27.256  26.833  1.00  0.00     0.074 A 
ATOM     73  C   UNL A   1      45.667  25.871  26.417  1.00  0.00     0.031 C 
ATOM     74  C   UNL A   1      46.852  28.037  26.628  1.00  0.00     0.037 A 
BRANCH  61  75
ATOM     75  C   UNL A   1      46.307  33.812  28.774  1.00  0.00     0.057 A 
ATOM     76  C   UNL A   1      47.045  34.124  29.923  1.00  0.00     0.134 A 
ATOM     77  C   UNL A   1      46.197  34.803  27.790  1.00  0.00     0.134 A 
ATOM     78  F   UNL A   1      47.171  33.229  30.914  1.00  0.00    -0.206 F 
ATOM     79  C   UNL A   1      47.641  35.376  30.090  1.00  0.00     0.040 A 
ATOM     80  C   UNL A   1      46.810  36.048  27.934  1.00  0.00     0.040 A 
ATOM     81  F   UNL A   1      45.500  34.573  26.667  1.00  0.00    -0.206 F 
ATOM     82  C   UNL A   1      47.533  36.339  29.088  1.00  0.00     0.006 A 
ENDBRANCH  61  75
BRANCH  62  83
ATOM     83  C   UNL A   1      41.754  24.931  27.696  1.00  0.00     0.057 A 
ATOM     84  C   UNL A   1      40.759  24.744  26.730  1.00  0.00     0.134 A 
ATOM     85  C   UNL A   1      42.069  23.838  28.513  1.00  0.00     0.134 A 
ATOM     86  F   UNL A   1      40.399  25.756  25.927  1.00  0.00    -0.206 F 
ATOM     87  C   UNL A   1      40.078  23.532  26.605  1.00  0.00     0.040 A 
ATOM     88  C   UNL A   1      41.421  22.610  28.378  1.00  0.00     0.040 A 
ATOM     89  F   UNL A   1      43.017  23.946  29.456  1.00  0.00    -0.206 F 
ATOM     90  C   UNL A   1      40.412  22.458  27.429  1.00  0.00     0.006 A 
ENDBRANCH  62  83
BRANCH  74  91
ATOM     91  C   UNL A   1      48.030  27.393  25.954  1.00  0.00     0.057 A 
ATOM     92  C   UNL A   1      49.081  26.822  26.683  1.00  0.00     0.134 A 
ATOM     93  C   UNL A   1      48.106  27.337  24.556  1.00  0.00     0.134 A 
ATOM     94  F   UNL A   1      49.073  26.851  28.025  1.00  0.00    -0.206 F 
ATOM     95  C   UNL A   1      50.186  26.258  26.046  1.00  0.00     0.040 A 
ATOM     96  C   UNL A   1      49.189  26.742  23.909  1.00  0.00     0.040 A 
ATOM     97  F   UNL A   1      47.126  27.851  23.798  1.00  0.00    -0.206 F 
ATOM     98  C   UNL A   1      50.239  26.213  24.654  1.00  0.00     0.006 A 
ENDBRANCH  74  91
ENDBRANCH  48  49
ENDBRANCH  41  43
ENDBRANCH  40  41
ENDBRANCH  39  40
ENDBRANCH  38  39
ENDBRANCH  37  38
ENDBRANCH  36  37
ENDBRANCH  35  36
ENDBRANCH  34  35
ENDBRANCH   1  34
TORSDOF 24
ENDMDL
MODEL 2
REMARK VINA RESULT:      -9.5      3.895      5.715
REMARK SMILES Cn1c(C[NH+]2CCCC2)nnc1[C@@H]1CCCN(c2cccc(C(=O)OCCOCCOCCOCCOC(=O)c3ccc(-c4c5nc(c(-c6c(F)cccc6F)c6ccc([nH]6)c(-c6c(F)cccc6F)c6nc(c(-c7c(F)cccc7F)c7ccc4[nH]7)C=C6)C=C5)cc3)n2)C1
REMARK SMILES IDX 30 1 29 2 28 3 27 4 26 5 25 6 23 7 24 8 22 9 18 10 19 11
REMARK SMILES IDX 94 12 20 13 21 14 17 15 13 16 14 17 95 18 15 19 16 20 12 21
REMARK SMILES IDX 1 22 2 23 3 24 10 25 11 26 4 27 5 28 6 29 9 30 7 32 8 33
REMARK SMILES IDX 31 34 32 35 33 36 34 37 35 38 36 39 37 40 38 41 39 42 40 43
REMARK SMILES IDX 41 44 93 45 42 46 92 47 43 48 44 49 45 50 86 51 46 52 91 53
REMARK SMILES IDX 85 54 87 55 47 56 90 57 84 58 83 59 48 61 74 62 57 63 73 64
REMARK SMILES IDX 58 65 61 66 72 67 88 68 59 69 60 70 71 72 89 73 62 74 49 75
REMARK SMILES IDX 50 76 55 77 51 78 52 79 54 80 56 81 53 82 75 83 76 84 81 85
REMARK SMILES IDX 77 86 78 87 80 88 82 89 79 90 63 91 64 92 69 93 65 94 66 95
REMARK SMILES IDX 68 96 70 97 67 98
REMARK H PARENT 5 31 87 60 61 71
REMARK Flexibility Score: inf
ROOT
ATOM      1  C   UNL A   1      36.008  33.167  27.980  1.00  0.00     0.188 C 
ENDROOT
BRANCH   1   2
ATOM      2  C   UNL A   1      35.490  31.748  28.255  1.00  0.00     0.188 C 
BRANCH   2   3
ATOM      3  O   UNL A   1      34.459  31.208  27.440  1.00  0.00    -0.376 OA
BRANCH   3   4
ATOM      4  C   UNL A   1      34.412  29.805  27.254  1.00  0.00     0.202 C 
BRANCH   4   5
ATOM      5  C   UNL A   1      33.399  29.207  26.258  1.00  0.00     0.261 C 
BRANCH   5   6
ATOM      6  O   UNL A   1      32.000  29.188  26.630  1.00  0.00    -0.459 OA
BRANCH   6   7
ATOM      7  C   UNL A   1      31.483  28.019  27.132  1.00  0.00     0.357 C 
ATOM      8  O   UNL A   1      31.422  27.743  28.320  1.00  0.00    -0.244 OA
BRANCH   7   9
ATOM      9  C   UNL A   1      31.057  27.079  26.017  1.00  0.00     0.150 A 
ATOM     10  C   UNL A   1      30.851  26.710  23.692  1.00  0.00     0.129 A 
ATOM     11  C   UNL A   1      30.246  25.482  23.938  1.00  0.00     0.047 A 
ATOM     12  N   UNL A   1      31.218  27.512  24.725  1.00  0.00    -0.224 NA
ATOM     13  C   UNL A   1      30.009  25.076  25.255  1.00  0.00     0.006 A 
ATOM     14  C   UNL A   1      30.433  25.876  26.312  1.00  0.00     0.036 A 
BRANCH  10  15
ATOM     15  N   UNL A   1      31.002  27.137  22.361  1.00  0.00    -0.356 N 
ATOM     16  C   UNL A   1      33.382  26.531  21.991  1.00  0.00     0.077 C 
ATOM     17  C   UNL A   1      33.710  28.022  22.320  1.00  0.00     0.015 C 
ATOM     18  C   UNL A   1      31.951  26.493  21.444  1.00  0.00     0.129 C 
ATOM     19  C   UNL A   1      32.537  29.045  22.471  1.00  0.00     0.022 C 
ATOM     20  C   UNL A   1      31.102  28.574  22.223  1.00  0.00     0.118 C 
BRANCH  16  21
ATOM     21  C   UNL A   1      33.590  25.538  23.117  1.00  0.00     0.137 A 
ATOM     22  C   UNL A   1      33.137  23.345  21.892  1.00  0.00     0.153 C 
ATOM     23  N   UNL A   1      33.352  24.178  23.041  1.00  0.00    -0.313 N 
ATOM     24  C   UNL A   1      33.286  23.724  24.336  1.00  0.00     0.187 A 
ATOM     25  N   UNL A   1      33.736  24.682  25.119  1.00  0.00    -0.129 NA
ATOM     26  N   UNL A   1      33.966  25.801  24.354  1.00  0.00    -0.135 NA
BRANCH  24  27
ATOM     27  C   UNL A   1      32.692  22.403  24.739  1.00  0.00     0.341 C 
BRANCH  27  28
ATOM     28  N   UNL A   1      33.572  21.231  24.925  1.00  0.00    -0.329 N 
ATOM     29  C   UNL A   1      33.387  20.614  26.231  1.00  0.00     0.262 C 
ATOM     30  C   UNL A   1      35.015  21.443  24.865  1.00  0.00     0.262 C 
ATOM     31  H   UNL A   1      33.282  20.668  24.125  1.00  0.00     0.348 HD
ATOM     32  C   UNL A   1      34.346  21.342  27.167  1.00  0.00     0.067 C 
ATOM     33  C   UNL A   1      35.438  21.887  26.259  1.00  0.00     0.067 C 
ENDBRANCH  27  28
ENDBRANCH  24  27
ENDBRANCH  16  21
ENDBRANCH  10  15
ENDBRANCH   7   9
ENDBRANCH   6   7
ENDBRANCH   5   6
ENDBRANCH   4   5
ENDBRANCH   3   4
ENDBRANCH   2   3
ENDBRANCH   1   2
BRANCH   1  34
ATOM     34  O   UNL A   1      35.692  34.158  28.941  1.00  0.00    -0.377 OA
BRANCH  34  35
ATOM     35  C   UNL A   1      34.649  35.075  28.652  1.00  0.00     0.188 C 
BRANCH  35  36
ATOM     36  C   UNL A   1      33.212  34.576  28.871  1.00  0.00     0.188 C 
BRANCH  36  37
ATOM     37  O   UNL A   1      32.436  35.094  29.951  1.00  0.00    -0.376 OA
BRANCH  37  38
ATOM     38  C   UNL A   1      32.918  36.224  30.659  1.00  0.00     0.202 C 
BRANCH  38  39
ATOM     39  C   UNL A   1      33.202  36.089  32.146  1.00  0.00     0.261 C 
BRANCH  39  40
ATOM     40  O   UNL A   1      33.870  34.841  32.370  1.00  0.00    -0.460 OA
BRANCH  40  41
ATOM     41  C   UNL A   1      34.936  34.934  33.180  1.00  0.00     0.338 C 
ATOM     42  O   UNL A   1      34.987  35.422  34.303  1.00  0.00    -0.246 OA
BRANCH  41  43
ATOM     43  C   UNL A   1      36.015  34.124  32.619  1.00  0.00     0.060 A 
ATOM     44  C   UNL A   1      36.014  32.777  32.985  1.00  0.00     0.016 A 
ATOM     45  C   UNL A   1      37.030  34.667  31.825  1.00  0.00     0.016 A 
ATOM     46  C   UNL A   1      37.078  31.974  32.632  1.00  0.00     0.010 A 
ATOM     47  C   UNL A   1      38.120  33.861  31.490  1.00  0.00     0.010 A 
ATOM     48  C   UNL A   1      38.165  32.532  31.950  1.00  0.00    -0.014 A 
BRANCH  48  49
ATOM     49  C   UNL A   1      39.421  31.759  31.976  1.00  0.00     0.031 A 
ATOM     50  C   UNL A   1      40.401  32.045  33.079  1.00  0.00     0.074 A 
ATOM     51  C   UNL A   1      39.579  30.714  31.150  1.00  0.00     0.049 A 
ATOM     52  N   UNL A   1      41.511  31.426  33.383  1.00  0.00    -0.248 NA
ATOM     53  C   UNL A   1      40.076  33.170  33.976  1.00  0.00     0.031 C 
ATOM     54  C   UNL A   1      38.635  30.313  30.106  1.00  0.00     0.029 A 
ATOM     55  N   UNL A   1      40.578  29.782  31.082  1.00  0.00    -0.354 N 
ATOM     56  C   UNL A   1      42.009  32.078  34.505  1.00  0.00     0.074 A 
ATOM     57  C   UNL A   1      41.105  33.163  34.808  1.00  0.00     0.031 C 
ATOM     58  C   UNL A   1      39.103  29.209  29.500  1.00  0.00     0.029 A 
ATOM     59  C   UNL A   1      40.388  28.849  30.093  1.00  0.00     0.049 A 
ATOM     60  H   UNL A   1      41.358  29.780  31.684  1.00  0.00     0.167 HD
ATOM     61  C   UNL A   1      43.115  31.783  35.224  1.00  0.00     0.037 A 
ATOM     62  C   UNL A   1      41.181  27.834  29.708  1.00  0.00     0.037 A 
ATOM     63  C   UNL A   1      44.005  30.698  34.905  1.00  0.00     0.049 A 
ATOM     64  C   UNL A   1      42.456  27.589  30.469  1.00  0.00     0.074 A 
ATOM     65  C   UNL A   1      45.170  30.320  35.546  1.00  0.00     0.029 A 
ATOM     66  N   UNL A   1      43.824  29.819  33.846  1.00  0.00    -0.354 N 
ATOM     67  N   UNL A   1      42.928  28.214  31.522  1.00  0.00    -0.248 NA
ATOM     68  C   UNL A   1      43.307  26.491  29.992  1.00  0.00     0.031 C 
ATOM     69  C   UNL A   1      45.723  29.246  34.842  1.00  0.00     0.029 A 
ATOM     70  C   UNL A   1      44.870  28.914  33.801  1.00  0.00     0.049 A 
ATOM     71  H   UNL A   1      43.063  29.838  33.221  1.00  0.00     0.167 HD
ATOM     72  C   UNL A   1      44.114  27.572  31.848  1.00  0.00     0.074 A 
ATOM     73  C   UNL A   1      44.274  26.490  30.898  1.00  0.00     0.031 C 
ATOM     74  C   UNL A   1      45.000  27.849  32.839  1.00  0.00     0.037 A 
BRANCH  61  75
ATOM     75  C   UNL A   1      43.440  32.661  36.398  1.00  0.00     0.057 A 
ATOM     76  C   UNL A   1      43.003  32.362  37.694  1.00  0.00     0.134 A 
ATOM     77  C   UNL A   1      44.232  33.803  36.232  1.00  0.00     0.134 A 
ATOM     78  F   UNL A   1      42.222  31.295  37.921  1.00  0.00    -0.206 F 
ATOM     79  C   UNL A   1      43.333  33.175  38.781  1.00  0.00     0.040 A 
ATOM     80  C   UNL A   1      44.591  34.608  37.314  1.00  0.00     0.040 A 
ATOM     81  F   UNL A   1      44.681  34.150  35.016  1.00  0.00    -0.206 F 
ATOM     82  C   UNL A   1      44.138  34.297  38.593  1.00  0.00     0.006 A 
ENDBRANCH  61  75
BRANCH  62  83
ATOM     83  C   UNL A   1      40.817  27.006  28.530  1.00  0.00     0.057 A 
ATOM     84  C   UNL A   1      41.463  27.153  27.297  1.00  0.00     0.134 A 
ATOM     85  C   UNL A   1      39.778  26.069  28.602  1.00  0.00     0.134 A 
ATOM     86  F   UNL A   1      42.454  28.045  27.156  1.00  0.00    -0.206 F 
ATOM     87  C   UNL A   1      41.068  26.425  26.173  1.00  0.00     0.040 A 
ATOM     88  C   UNL A   1      39.395  25.310  27.496  1.00  0.00     0.040 A 
ATOM     89  F   UNL A   1      39.119  25.874  29.755  1.00  0.00    -0.206 F 
ATOM     90  C   UNL A   1      40.033  25.497  26.272  1.00  0.00     0.006 A 
ENDBRANCH  62  83
BRANCH  74  91
ATOM     91  C   UNL A   1      46.194  26.945  32.952  1.00  0.00     0.057 A 
ATOM     92  C   UNL A   1      47.382  27.194  32.252  1.00  0.00     0.134 A 
ATOM     93  C   UNL A   1      46.156  25.816  33.780  1.00  0.00     0.134 A 
ATOM     94  F   UNL A   1      47.480  28.255  31.434  1.00  0.00    -0.206 F 
ATOM     95  C   UNL A   1      48.473  26.330  32.337  1.00  0.00     0.040 A 
ATOM     96  C   UNL A   1      47.254  24.964  33.902  1.00  0.00     0.040 A 
ATOM     97  F   UNL A   1      45.056  25.527  34.491  1.00  0.00    -0.206 F 
ATOM     98  C   UNL A   1      48.412  25.213  33.169  1.00  0.00     0.006 A 
ENDBRANCH  74  91
ENDBRANCH  48  49
ENDBRANCH  41  43
ENDBRANCH  40  41
ENDBRANCH  39  40
ENDBRANCH  38  39
ENDBRANCH  37  38
ENDBRANCH  36  37
ENDBRANCH  35  36
ENDBRANCH  34  35
ENDBRANCH   1  34
TORSDOF 24
ENDMDL
MODEL 3
REMARK VINA RESULT:      -9.3      1.581      2.572
REMARK SMILES Cn1c(C[NH+]2CCCC2)nnc1[C@@H]1CCCN(c2cccc(C(=O)OCCOCCOCCOCCOC(=O)c3ccc(-c4c5nc(c(-c6c(F)cccc6F)c6ccc([nH]6)c(-c6c(F)cccc6F)c6nc(c(-c7c(F)cccc7F)c7ccc4[nH]7)C=C6)C=C5)cc3)n2)C1
REMARK SMILES IDX 30 1 29 2 28 3 27 4 26 5 25 6 23 7 24 8 22 9 18 10 19 11
REMARK SMILES IDX 94 12 20 13 21 14 17 15 13 16 14 17 95 18 15 19 16 20 12 21
REMARK SMILES IDX 1 22 2 23 3 24 10 25 11 26 4 27 5 28 6 29 9 30 7 32 8 33
REMARK SMILES IDX 31 34 32 35 33 36 34 37 35 38 36 39 37 40 38 41 39 42 40 43
REMARK SMILES IDX 41 44 93 45 42 46 92 47 43 48 44 49 45 50 86 51 46 52 91 53
REMARK SMILES IDX 85 54 87 55 47 56 90 57 84 58 83 59 48 61 74 62 57 63 73 64
REMARK SMILES IDX 58 65 61 66 72 67 88 68 59 69 60 70 71 72 89 73 62 74 49 75
REMARK SMILES IDX 50 76 55 77 51 78 52 79 54 80 56 81 53 82 75 83 76 84 81 85
REMARK SMILES IDX 77 86 78 87 80 88 82 89 79 90 63 91 64 92 69 93 65 94 66 95
REMARK SMILES IDX 68 96 70 97 67 98
REMARK H PARENT 5 31 87 60 61 71
REMARK Flexibility Score: inf
ROOT
ATOM      1  C   UNL A   1      33.383  34.210  28.877  1.00  0.00     0.188 C 
ENDROOT
BRANCH   1   2
ATOM      2  C   UNL A   1      34.382  33.422  28.016  1.00  0.00     0.188 C 
BRANCH   2   3
ATOM      3  O   UNL A   1      33.990  32.180  27.448  1.00  0.00    -0.376 OA
BRANCH   3   4
ATOM      4  C   UNL A   1      34.467  30.987  28.041  1.00  0.00     0.202 C 
BRANCH   4   5
ATOM      5  C   UNL A   1      34.443  29.675  27.231  1.00  0.00     0.261 C 
BRANCH   5   6
ATOM      6  O   UNL A   1      33.902  29.707  25.889  1.00  0.00    -0.459 OA
BRANCH   6   7
ATOM      7  C   UNL A   1      32.579  29.379  25.720  1.00  0.00     0.357 C 
ATOM      8  O   UNL A   1      31.694  30.182  25.471  1.00  0.00    -0.244 OA
BRANCH   7   9
ATOM      9  C   UNL A   1      32.344  27.895  25.949  1.00  0.00     0.150 A 
ATOM     10  C   UNL A   1      32.941  25.675  25.402  1.00  0.00     0.129 A 
ATOM     11  C   UNL A   1      31.938  25.197  26.239  1.00  0.00     0.047 A 
ATOM     12  N   UNL A   1      33.114  27.013  25.236  1.00  0.00    -0.224 NA
ATOM     13  C   UNL A   1      31.102  26.097  26.905  1.00  0.00     0.006 A 
ATOM     14  C   UNL A   1      31.314  27.467  26.773  1.00  0.00     0.036 A 
BRANCH  10  15
ATOM     15  N   UNL A   1      33.716  24.754  24.676  1.00  0.00    -0.356 N 
ATOM     16  C   UNL A   1      32.029  23.998  23.018  1.00  0.00     0.077 C 
ATOM     17  C   UNL A   1      31.789  22.779  23.965  1.00  0.00     0.015 C 
ATOM     18  C   UNL A   1      33.464  24.481  23.255  1.00  0.00     0.129 C 
ATOM     19  C   UNL A   1      32.746  22.560  25.182  1.00  0.00     0.022 C 
ATOM     20  C   UNL A   1      33.936  23.506  25.373  1.00  0.00     0.118 C 
BRANCH  16  21
ATOM     21  C   UNL A   1      31.023  25.127  23.116  1.00  0.00     0.137 A 
ATOM     22  C   UNL A   1      31.924  26.711  21.329  1.00  0.00     0.153 C 
ATOM     23  N   UNL A   1      31.099  26.331  22.441  1.00  0.00    -0.313 N 
ATOM     24  C   UNL A   1      30.245  27.192  23.086  1.00  0.00     0.187 A 
ATOM     25  N   UNL A   1      29.500  26.478  23.904  1.00  0.00    -0.129 NA
ATOM     26  N   UNL A   1      29.957  25.182  23.893  1.00  0.00    -0.135 NA
BRANCH  24  27
ATOM     27  C   UNL A   1      30.276  28.688  22.930  1.00  0.00     0.341 C 
BRANCH  27  28
ATOM     28  N   UNL A   1      29.270  29.355  22.079  1.00  0.00    -0.329 N 
ATOM     29  C   UNL A   1      29.509  30.788  21.978  1.00  0.00     0.262 C 
ATOM     30  C   UNL A   1      27.872  29.285  22.489  1.00  0.00     0.262 C 
ATOM     31  H   UNL A   1      29.394  28.825  21.216  1.00  0.00     0.348 HD
ATOM     32  C   UNL A   1      28.763  31.411  23.154  1.00  0.00     0.067 C 
ATOM     33  C   UNL A   1      27.664  30.414  23.490  1.00  0.00     0.067 C 
ENDBRANCH  27  28
ENDBRANCH  24  27
ENDBRANCH  16  21
ENDBRANCH  10  15
ENDBRANCH   7   9
ENDBRANCH   6   7
ENDBRANCH   5   6
ENDBRANCH   4   5
ENDBRANCH   3   4
ENDBRANCH   2   3
ENDBRANCH   1   2
BRANCH   1  34
ATOM     34  O   UNL A   1      33.690  34.336  30.253  1.00  0.00    -0.377 OA
BRANCH  34  35
ATOM     35  C   UNL A   1      34.769  33.581  30.780  1.00  0.00     0.188 C 
BRANCH  35  36
ATOM     36  C   UNL A   1      36.138  34.279  30.833  1.00  0.00     0.188 C 
BRANCH  36  37
ATOM     37  O   UNL A   1      37.176  33.746  31.655  1.00  0.00    -0.376 OA
BRANCH  37  38
ATOM     38  C   UNL A   1      36.906  33.506  33.026  1.00  0.00     0.202 C 
BRANCH  38  39
ATOM     39  C   UNL A   1      36.625  32.081  33.478  1.00  0.00     0.261 C 
BRANCH  39  40
ATOM     40  O   UNL A   1      37.435  31.191  32.701  1.00  0.00    -0.460 OA
BRANCH  40  41
ATOM     41  C   UNL A   1      36.734  30.417  31.858  1.00  0.00     0.338 C 
ATOM     42  O   UNL A   1      35.532  30.455  31.624  1.00  0.00    -0.246 OA
BRANCH  41  43
ATOM     43  C   UNL A   1      37.676  29.653  31.041  1.00  0.00     0.060 A 
ATOM     44  C   UNL A   1      38.706  29.019  31.739  1.00  0.00     0.016 A 
ATOM     45  C   UNL A   1      37.604  29.613  29.646  1.00  0.00     0.016 A 
ATOM     46  C   UNL A   1      39.728  28.409  31.041  1.00  0.00     0.010 A 
ATOM     47  C   UNL A   1      38.651  29.018  28.939  1.00  0.00     0.010 A 
ATOM     48  C   UNL A   1      39.739  28.473  29.643  1.00  0.00    -0.014 A 
BRANCH  48  49
ATOM     49  C   UNL A   1      41.030  28.190  28.986  1.00  0.00     0.031 A 
ATOM     50  C   UNL A   1      42.060  29.283  28.960  1.00  0.00     0.074 A 
ATOM     51  C   UNL A   1      41.323  26.939  28.601  1.00  0.00     0.049 A 
ATOM     52  N   UNL A   1      43.301  29.244  28.550  1.00  0.00    -0.248 NA
ATOM     53  C   UNL A   1      41.645  30.596  29.488  1.00  0.00     0.031 C 
ATOM     54  C   UNL A   1      40.409  25.798  28.672  1.00  0.00     0.029 A 
ATOM     55  N   UNL A   1      42.484  26.415  28.103  1.00  0.00    -0.354 N 
ATOM     56  C   UNL A   1      43.812  30.516  28.777  1.00  0.00     0.074 A 
ATOM     57  C   UNL A   1      42.742  31.317  29.325  1.00  0.00     0.031 C 
ATOM     58  C   UNL A   1      41.049  24.702  28.232  1.00  0.00     0.029 A 
ATOM     59  C   UNL A   1      42.402  25.074  27.823  1.00  0.00     0.049 A 
ATOM     60  H   UNL A   1      43.299  26.948  27.959  1.00  0.00     0.167 HD
ATOM     61  C   UNL A   1      45.068  30.966  28.560  1.00  0.00     0.037 A 
ATOM     62  C   UNL A   1      43.318  24.253  27.280  1.00  0.00     0.037 A 
ATOM     63  C   UNL A   1      46.121  30.152  28.011  1.00  0.00     0.049 A 
ATOM     64  C   UNL A   1      44.680  24.807  26.960  1.00  0.00     0.074 A 
ATOM     65  C   UNL A   1      47.425  30.507  27.724  1.00  0.00     0.029 A 
ATOM     66  N   UNL A   1      45.980  28.816  27.665  1.00  0.00    -0.354 N 
ATOM     67  N   UNL A   1      45.155  26.014  27.167  1.00  0.00    -0.248 NA
ATOM     68  C   UNL A   1      45.637  23.884  26.337  1.00  0.00     0.031 C 
ATOM     69  C   UNL A   1      48.059  29.399  27.151  1.00  0.00     0.029 A 
ATOM     70  C   UNL A   1      47.169  28.337  27.142  1.00  0.00     0.049 A 
ATOM     71  H   UNL A   1      45.156  28.287  27.775  1.00  0.00     0.167 HD
ATOM     72  C   UNL A   1      46.470  25.987  26.723  1.00  0.00     0.074 A 
ATOM     73  C   UNL A   1      46.725  24.637  26.265  1.00  0.00     0.031 C 
ATOM     74  C   UNL A   1      47.389  26.986  26.691  1.00  0.00     0.037 A 
BRANCH  61  75
ATOM     75  C   UNL A   1      45.361  32.402  28.883  1.00  0.00     0.057 A 
ATOM     76  C   UNL A   1      45.149  33.432  27.957  1.00  0.00     0.134 A 
ATOM     77  C   UNL A   1      45.830  32.763  30.152  1.00  0.00     0.134 A 
ATOM     78  F   UNL A   1      44.723  33.154  26.716  1.00  0.00    -0.206 F 
ATOM     79  C   UNL A   1      45.404  34.767  28.279  1.00  0.00     0.040 A 
ATOM     80  C   UNL A   1      46.062  34.096  30.494  1.00  0.00     0.040 A 
ATOM     81  F   UNL A   1      46.059  31.826  31.085  1.00  0.00    -0.206 F 
ATOM     82  C   UNL A   1      45.853  35.103  29.556  1.00  0.00     0.006 A 
ENDBRANCH  61  75
BRANCH  62  83
ATOM     83  C   UNL A   1      42.968  22.843  26.968  1.00  0.00     0.057 A 
ATOM     84  C   UNL A   1      42.756  22.409  25.655  1.00  0.00     0.134 A 
ATOM     85  C   UNL A   1      42.798  21.901  27.991  1.00  0.00     0.134 A 
ATOM     86  F   UNL A   1      42.886  23.266  24.631  1.00  0.00    -0.206 F 
ATOM     87  C   UNL A   1      42.356  21.102  25.372  1.00  0.00     0.040 A 
ATOM     88  C   UNL A   1      42.431  20.583  27.722  1.00  0.00     0.040 A 
ATOM     89  F   UNL A   1      42.990  22.249  29.272  1.00  0.00    -0.206 F 
ATOM     90  C   UNL A   1      42.196  20.183  26.408  1.00  0.00     0.006 A 
ENDBRANCH  62  83
BRANCH  74  91
ATOM     91  C   UNL A   1      48.753  26.635  26.169  1.00  0.00     0.057 A 
ATOM     92  C   UNL A   1      49.128  26.890  24.844  1.00  0.00     0.134 A 
ATOM     93  C   UNL A   1      49.705  26.043  27.009  1.00  0.00     0.134 A 
ATOM     94  F   UNL A   1      48.259  27.447  23.985  1.00  0.00    -0.206 F 
ATOM     95  C   UNL A   1      50.385  26.528  24.360  1.00  0.00     0.040 A 
ATOM     96  C   UNL A   1      50.978  25.711  26.547  1.00  0.00     0.040 A 
ATOM     97  F   UNL A   1      49.417  25.786  28.294  1.00  0.00    -0.206 F 
ATOM     98  C   UNL A   1      51.317  25.941  25.215  1.00  0.00     0.006 A 
ENDBRANCH  74  91
ENDBRANCH  48  49
ENDBRANCH  41  43
ENDBRANCH  40  41
ENDBRANCH  39  40
ENDBRANCH  38  39
ENDBRANCH  37  38
ENDBRANCH  36  37
ENDBRANCH  35  36
ENDBRANCH  34  35
ENDBRANCH   1  34
TORSDOF 24
ENDMDL
