MODEL 1
REMARK VINA RESULT:      -9.0      0.000      0.000
REMARK SMILES CCC1(CC)C[NH+]([C@H](C)CCC(=O)OCCOCCOCCOCCOC(=O)c2ccc(-c3c4nc(c(-c5c(F)cccc5F)c5ccc([nH]5)c(-c5c(F)cccc5F)c5nc(c(-c6c(F)cccc6F)c6ccc3[nH]6)C=C5)C=C4)cc2)C1
REMARK SMILES IDX 19 1 18 2 17 3 16 4 15 5 14 6 12 7 13 8 11 9 10 10 8 11 9 12
REMARK SMILES IDX 7 13 3 14 6 15 83 16 2 18 1 19 4 20 5 21 20 22 21 23 22 24
REMARK SMILES IDX 23 25 24 26 25 27 26 28 27 29 28 30 29 31 30 32 82 33 31 34
REMARK SMILES IDX 81 35 32 36 33 37 34 38 75 39 35 40 80 41 74 42 76 43 36 44
REMARK SMILES IDX 79 45 73 46 72 47 37 49 63 50 46 51 62 52 47 53 50 54 61 55
REMARK SMILES IDX 77 56 48 57 49 58 60 60 78 61 51 62 38 63 39 64 44 65 40 66
REMARK SMILES IDX 41 67 43 68 45 69 42 70 64 71 65 72 70 73 66 74 67 75 69 76
REMARK SMILES IDX 71 77 68 78 52 79 53 80 58 81 54 82 55 83 57 84 59 85 56 86
REMARK H PARENT 7 17 76 48 50 59
REMARK Flexibility Score: inf
ROOT
ATOM      1  C   UNL A   1      34.402  32.722  28.680  1.00  0.00     0.188 C 
ENDROOT
BRANCH   1   2
ATOM      2  C   UNL A   1      34.464  31.586  27.656  1.00  0.00     0.188 C 
BRANCH   2   3
ATOM      3  O   UNL A   1      33.477  30.580  27.723  1.00  0.00    -0.376 OA
BRANCH   3   4
ATOM      4  C   UNL A   1      33.156  29.787  26.591  1.00  0.00     0.202 C 
BRANCH   4   5
ATOM      5  C   UNL A   1      31.738  29.500  26.051  1.00  0.00     0.261 C 
BRANCH   5   6
ATOM      6  O   UNL A   1      31.560  28.364  25.195  1.00  0.00    -0.463 OA
BRANCH   6   7
ATOM      7  C   UNL A   1      30.706  28.505  24.162  1.00  0.00     0.306 C 
ATOM      8  O   UNL A   1      30.351  29.589  23.707  1.00  0.00    -0.252 OA
BRANCH   7   9
ATOM      9  C   UNL A   1      30.261  27.209  23.514  1.00  0.00     0.129 C 
BRANCH   9  10
ATOM     10  C   UNL A   1      30.837  26.654  22.204  1.00  0.00     0.076 C 
BRANCH  10  11
ATOM     11  C   UNL A   1      31.720  25.387  22.245  1.00  0.00     0.181 C 
ATOM     12  C   UNL A   1      32.954  25.593  21.351  1.00  0.00     0.075 C 
BRANCH  11  13
ATOM     13  N   UNL A   1      31.915  24.993  23.658  1.00  0.00    -0.331 N 
ATOM     14  C   UNL A   1      32.804  23.382  24.738  1.00  0.00     0.068 C 
ATOM     15  C   UNL A   1      33.288  24.695  24.050  1.00  0.00     0.275 C 
ATOM     16  C   UNL A   1      31.448  23.647  24.003  1.00  0.00     0.275 C 
ATOM     17  H   UNL A   1      31.454  25.798  24.082  1.00  0.00     0.348 HD
BRANCH  14  18
ATOM     18  C   UNL A   1      33.624  22.182  24.230  1.00  0.00     0.015 C 
ATOM     19  C   UNL A   1      32.748  20.964  23.955  1.00  0.00     0.005 C 
ENDBRANCH  14  18
BRANCH  14  20
ATOM     20  C   UNL A   1      32.649  23.448  26.272  1.00  0.00     0.015 C 
ATOM     21  C   UNL A   1      33.814  22.783  27.000  1.00  0.00     0.005 C 
ENDBRANCH  14  20
ENDBRANCH  11  13
ENDBRANCH  10  11
ENDBRANCH   9  10
ENDBRANCH   7   9
ENDBRANCH   6   7
ENDBRANCH   5   6
ENDBRANCH   4   5
ENDBRANCH   3   4
ENDBRANCH   2   3
ENDBRANCH   1   2
BRANCH   1  22
ATOM     22  O   UNL A   1      33.637  33.851  28.314  1.00  0.00    -0.377 OA
BRANCH  22  23
ATOM     23  C   UNL A   1      33.903  35.106  28.924  1.00  0.00     0.188 C 
BRANCH  23  24
ATOM     24  C   UNL A   1      32.911  35.739  29.920  1.00  0.00     0.188 C 
BRANCH  24  25
ATOM     25  O   UNL A   1      32.885  35.150  31.210  1.00  0.00    -0.376 OA
BRANCH  25  26
ATOM     26  C   UNL A   1      34.105  34.697  31.778  1.00  0.00     0.202 C 
BRANCH  26  27
ATOM     27  C   UNL A   1      34.081  33.387  32.581  1.00  0.00     0.261 C 
BRANCH  27  28
ATOM     28  O   UNL A   1      35.122  32.443  32.292  1.00  0.00    -0.460 OA
BRANCH  28  29
ATOM     29  C   UNL A   1      36.368  32.720  32.724  1.00  0.00     0.338 C 
ATOM     30  O   UNL A   1      36.690  33.450  33.649  1.00  0.00    -0.246 OA
BRANCH  29  31
ATOM     31  C   UNL A   1      37.299  31.846  31.988  1.00  0.00     0.060 A 
ATOM     32  C   UNL A   1      38.065  30.911  32.697  1.00  0.00     0.016 A 
ATOM     33  C   UNL A   1      37.422  31.962  30.602  1.00  0.00     0.016 A 
ATOM     34  C   UNL A   1      38.998  30.119  32.024  1.00  0.00     0.010 A 
ATOM     35  C   UNL A   1      38.370  31.186  29.934  1.00  0.00     0.010 A 
ATOM     36  C   UNL A   1      39.190  30.294  30.648  1.00  0.00    -0.014 A 
BRANCH  36  37
ATOM     37  C   UNL A   1      40.396  29.737  29.989  1.00  0.00     0.031 A 
ATOM     38  C   UNL A   1      41.562  30.661  29.767  1.00  0.00     0.074 A 
ATOM     39  C   UNL A   1      40.459  28.457  29.587  1.00  0.00     0.049 A 
ATOM     40  N   UNL A   1      42.669  30.462  29.103  1.00  0.00    -0.248 NA
ATOM     41  C   UNL A   1      41.454  32.000  30.373  1.00  0.00     0.031 C 
ATOM     42  C   UNL A   1      39.422  27.449  29.799  1.00  0.00     0.029 A 
ATOM     43  N   UNL A   1      41.441  27.793  28.896  1.00  0.00    -0.354 N 
ATOM     44  C   UNL A   1      43.381  31.652  29.196  1.00  0.00     0.074 A 
ATOM     45  C   UNL A   1      42.570  32.577  29.955  1.00  0.00     0.031 C 
ATOM     46  C   UNL A   1      39.815  26.297  29.227  1.00  0.00     0.029 A 
ATOM     47  C   UNL A   1      41.107  26.500  28.574  1.00  0.00     0.049 A 
ATOM     48  H   UNL A   1      42.303  28.204  28.655  1.00  0.00     0.167 HD
ATOM     49  C   UNL A   1      44.602  31.947  28.693  1.00  0.00     0.037 A 
ATOM     50  C   UNL A   1      41.759  25.602  27.808  1.00  0.00     0.037 A 
ATOM     51  C   UNL A   1      45.402  31.026  27.932  1.00  0.00     0.049 A 
ATOM     52  C   UNL A   1      43.077  25.982  27.182  1.00  0.00     0.074 A 
ATOM     53  C   UNL A   1      46.655  31.222  27.381  1.00  0.00     0.029 A 
ATOM     54  N   UNL A   1      45.019  29.732  27.609  1.00  0.00    -0.354 N 
ATOM     55  N   UNL A   1      43.748  27.105  27.276  1.00  0.00    -0.248 NA
ATOM     56  C   UNL A   1      43.730  24.967  26.341  1.00  0.00     0.031 C 
ATOM     57  C   UNL A   1      47.004  30.069  26.673  1.00  0.00     0.029 A 
ATOM     58  C   UNL A   1      46.001  29.128  26.844  1.00  0.00     0.049 A 
ATOM     59  H   UNL A   1      44.173  29.308  27.882  1.00  0.00     0.167 HD
ATOM     60  C   UNL A   1      44.917  26.917  26.547  1.00  0.00     0.074 A 
ATOM     61  C   UNL A   1      44.865  25.572  26.015  1.00  0.00     0.031 C 
ATOM     62  C   UNL A   1      45.945  27.778  26.343  1.00  0.00     0.037 A 
BRANCH  49  63
ATOM     63  C   UNL A   1      45.127  33.336  28.919  1.00  0.00     0.057 A 
ATOM     64  C   UNL A   1      45.829  33.689  30.079  1.00  0.00     0.134 A 
ATOM     65  C   UNL A   1      44.938  34.332  27.952  1.00  0.00     0.134 A 
ATOM     66  F   UNL A   1      46.030  32.787  31.054  1.00  0.00    -0.206 F 
ATOM     67  C   UNL A   1      46.302  34.987  30.281  1.00  0.00     0.040 A 
ATOM     68  C   UNL A   1      45.433  35.625  28.128  1.00  0.00     0.040 A 
ATOM     69  F   UNL A   1      44.277  34.063  26.816  1.00  0.00    -0.206 F 
ATOM     70  C   UNL A   1      46.110  35.957  29.300  1.00  0.00     0.006 A 
ENDBRANCH  49  63
BRANCH  50  71
ATOM     71  C   UNL A   1      41.170  24.259  27.569  1.00  0.00     0.057 A 
ATOM     72  C   UNL A   1      41.657  23.124  28.230  1.00  0.00     0.134 A 
ATOM     73  C   UNL A   1      40.126  24.070  26.654  1.00  0.00     0.134 A 
ATOM     74  F   UNL A   1      42.671  23.235  29.100  1.00  0.00    -0.206 F 
ATOM     75  C   UNL A   1      41.145  21.851  27.975  1.00  0.00     0.040 A 
ATOM     76  C   UNL A   1      39.585  22.806  26.411  1.00  0.00     0.040 A 
ATOM     77  F   UNL A   1      39.613  25.113  25.986  1.00  0.00    -0.206 F 
ATOM     78  C   UNL A   1      40.101  21.690  27.066  1.00  0.00     0.006 A 
ENDBRANCH  50  71
BRANCH  62  79
ATOM     79  C   UNL A   1      47.135  27.277  25.574  1.00  0.00     0.057 A 
ATOM     80  C   UNL A   1      47.311  27.542  24.211  1.00  0.00     0.134 A 
ATOM     81  C   UNL A   1      48.155  26.578  26.233  1.00  0.00     0.134 A 
ATOM     82  F   UNL A   1      46.369  28.198  23.517  1.00  0.00    -0.206 F 
ATOM     83  C   UNL A   1      48.452  27.114  23.527  1.00  0.00     0.040 A 
ATOM     84  C   UNL A   1      49.312  26.171  25.568  1.00  0.00     0.040 A 
ATOM     85  F   UNL A   1      48.056  26.300  27.542  1.00  0.00    -0.206 F 
ATOM     86  C   UNL A   1      49.461  26.436  24.209  1.00  0.00     0.006 A 
ENDBRANCH  62  79
ENDBRANCH  36  37
ENDBRANCH  29  31
ENDBRANCH  28  29
ENDBRANCH  27  28
ENDBRANCH  26  27
ENDBRANCH  25  26
ENDBRANCH  24  25
ENDBRANCH  23  24
ENDBRANCH  22  23
ENDBRANCH   1  22
TORSDOF 25
ENDMDL
MODEL 2
REMARK VINA RESULT:      -8.4      1.932      6.647
REMARK SMILES CCC1(CC)C[NH+]([C@H](C)CCC(=O)OCCOCCOCCOCCOC(=O)c2ccc(-c3c4nc(c(-c5c(F)cccc5F)c5ccc([nH]5)c(-c5c(F)cccc5F)c5nc(c(-c6c(F)cccc6F)c6ccc3[nH]6)C=C5)C=C4)cc2)C1
REMARK SMILES IDX 19 1 18 2 17 3 16 4 15 5 14 6 12 7 13 8 11 9 10 10 8 11 9 12
REMARK SMILES IDX 7 13 3 14 6 15 83 16 2 18 1 19 4 20 5 21 20 22 21 23 22 24
REMARK SMILES IDX 23 25 24 26 25 27 26 28 27 29 28 30 29 31 30 32 82 33 31 34
REMARK SMILES IDX 81 35 32 36 33 37 34 38 75 39 35 40 80 41 74 42 76 43 36 44
REMARK SMILES IDX 79 45 73 46 72 47 37 49 63 50 46 51 62 52 47 53 50 54 61 55
REMARK SMILES IDX 77 56 48 57 49 58 60 60 78 61 51 62 38 63 39 64 44 65 40 66
REMARK SMILES IDX 41 67 43 68 45 69 42 70 64 71 65 72 70 73 66 74 67 75 69 76
REMARK SMILES IDX 71 77 68 78 52 79 53 80 58 81 54 82 55 83 57 84 59 85 56 86
REMARK H PARENT 7 17 76 48 50 59
REMARK Flexibility Score: inf
ROOT
ATOM      1  C   UNL A   1      34.053  31.559  27.885  1.00  0.00     0.188 C 
ENDROOT
BRANCH   1   2
ATOM      2  C   UNL A   1      33.454  30.548  26.903  1.00  0.00     0.188 C 
BRANCH   2   3
ATOM      3  O   UNL A   1      32.715  29.469  27.433  1.00  0.00    -0.376 OA
BRANCH   3   4
ATOM      4  C   UNL A   1      32.257  28.412  26.605  1.00  0.00     0.202 C 
BRANCH   4   5
ATOM      5  C   UNL A   1      32.968  27.061  26.374  1.00  0.00     0.261 C 
BRANCH   5   6
ATOM      6  O   UNL A   1      32.268  26.048  25.639  1.00  0.00    -0.463 OA
BRANCH   6   7
ATOM      7  C   UNL A   1      31.874  24.958  26.325  1.00  0.00     0.306 C 
ATOM      8  O   UNL A   1      30.751  24.813  26.800  1.00  0.00    -0.252 OA
BRANCH   7   9
ATOM      9  C   UNL A   1      32.900  23.845  26.407  1.00  0.00     0.129 C 
BRANCH   9  10
ATOM     10  C   UNL A   1      32.671  22.417  25.892  1.00  0.00     0.076 C 
BRANCH  10  11
ATOM     11  C   UNL A   1      33.010  22.081  24.422  1.00  0.00     0.181 C 
ATOM     12  C   UNL A   1      32.467  23.189  23.505  1.00  0.00     0.075 C 
BRANCH  11  13
ATOM     13  N   UNL A   1      34.442  21.718  24.340  1.00  0.00    -0.331 N 
ATOM     14  C   UNL A   1      36.311  22.519  24.985  1.00  0.00     0.068 C 
ATOM     15  C   UNL A   1      35.160  21.675  25.609  1.00  0.00     0.275 C 
ATOM     16  C   UNL A   1      35.321  22.758  23.797  1.00  0.00     0.275 C 
ATOM     17  H   UNL A   1      34.326  20.849  23.819  1.00  0.00     0.348 HD
BRANCH  14  18
ATOM     18  C   UNL A   1      36.612  23.744  25.869  1.00  0.00     0.015 C 
ATOM     19  C   UNL A   1      38.089  23.833  26.241  1.00  0.00     0.005 C 
ENDBRANCH  14  18
BRANCH  14  20
ATOM     20  C   UNL A   1      37.560  21.726  24.543  1.00  0.00     0.015 C 
ATOM     21  C   UNL A   1      37.551  20.294  25.070  1.00  0.00     0.005 C 
ENDBRANCH  14  20
ENDBRANCH  11  13
ENDBRANCH  10  11
ENDBRANCH   9  10
ENDBRANCH   7   9
ENDBRANCH   6   7
ENDBRANCH   5   6
ENDBRANCH   4   5
ENDBRANCH   3   4
ENDBRANCH   2   3
ENDBRANCH   1   2
BRANCH   1  22
ATOM     22  O   UNL A   1      33.395  32.806  27.975  1.00  0.00    -0.377 OA
BRANCH  22  23
ATOM     23  C   UNL A   1      34.111  33.946  28.425  1.00  0.00     0.188 C 
BRANCH  23  24
ATOM     24  C   UNL A   1      33.697  34.697  29.707  1.00  0.00     0.188 C 
BRANCH  24  25
ATOM     25  O   UNL A   1      34.360  34.288  30.892  1.00  0.00    -0.376 OA
BRANCH  25  26
ATOM     26  C   UNL A   1      35.482  33.425  30.783  1.00  0.00     0.202 C 
BRANCH  26  27
ATOM     27  C   UNL A   1      35.350  32.001  31.349  1.00  0.00     0.261 C 
BRANCH  27  28
ATOM     28  O   UNL A   1      36.101  30.978  30.680  1.00  0.00    -0.460 OA
BRANCH  28  29
ATOM     29  C   UNL A   1      36.862  30.157  31.429  1.00  0.00     0.338 C 
ATOM     30  O   UNL A   1      36.498  29.433  32.344  1.00  0.00    -0.246 OA
BRANCH  29  31
ATOM     31  C   UNL A   1      38.214  30.144  30.843  1.00  0.00     0.060 A 
ATOM     32  C   UNL A   1      38.358  30.224  29.451  1.00  0.00     0.016 A 
ATOM     33  C   UNL A   1      39.336  30.041  31.669  1.00  0.00     0.016 A 
ATOM     34  C   UNL A   1      39.627  30.149  28.875  1.00  0.00     0.010 A 
ATOM     35  C   UNL A   1      40.602  29.945  31.091  1.00  0.00     0.010 A 
ATOM     36  C   UNL A   1      40.749  29.955  29.692  1.00  0.00    -0.014 A 
BRANCH  36  37
ATOM     37  C   UNL A   1      42.036  29.522  29.098  1.00  0.00     0.031 A 
ATOM     38  C   UNL A   1      42.155  28.089  28.656  1.00  0.00     0.074 A 
ATOM     39  C   UNL A   1      43.074  30.363  28.962  1.00  0.00     0.049 A 
ATOM     40  N   UNL A   1      43.201  27.431  28.233  1.00  0.00    -0.248 NA
ATOM     41  C   UNL A   1      40.919  27.289  28.709  1.00  0.00     0.031 C 
ATOM     42  C   UNL A   1      43.064  31.785  29.295  1.00  0.00     0.029 A 
ATOM     43  N   UNL A   1      44.352  30.127  28.519  1.00  0.00    -0.354 N 
ATOM     44  C   UNL A   1      42.757  26.138  27.987  1.00  0.00     0.074 A 
ATOM     45  C   UNL A   1      41.353  26.095  28.333  1.00  0.00     0.031 C 
ATOM     46  C   UNL A   1      44.288  32.292  29.066  1.00  0.00     0.029 A 
ATOM     47  C   UNL A   1      45.176  31.222  28.613  1.00  0.00     0.049 A 
ATOM     48  H   UNL A   1      44.649  29.257  28.168  1.00  0.00     0.167 HD
ATOM     49  C   UNL A   1      43.455  25.080  27.513  1.00  0.00     0.037 A 
ATOM     50  C   UNL A   1      46.501  31.332  28.392  1.00  0.00     0.037 A 
ATOM     51  C   UNL A   1      44.852  25.126  27.177  1.00  0.00     0.049 A 
ATOM     52  C   UNL A   1      47.280  30.118  27.952  1.00  0.00     0.074 A 
ATOM     53  C   UNL A   1      45.655  24.113  26.684  1.00  0.00     0.029 A 
ATOM     54  N   UNL A   1      45.657  26.248  27.307  1.00  0.00    -0.354 N 
ATOM     55  N   UNL A   1      46.855  28.899  27.716  1.00  0.00    -0.248 NA
ATOM     56  C   UNL A   1      48.725  30.294  27.746  1.00  0.00     0.031 C 
ATOM     57  C   UNL A   1      46.958  24.605  26.574  1.00  0.00     0.029 A 
ATOM     58  C   UNL A   1      46.952  25.945  26.928  1.00  0.00     0.049 A 
ATOM     59  H   UNL A   1      45.351  27.130  27.622  1.00  0.00     0.167 HD
ATOM     60  C   UNL A   1      47.967  28.179  27.294  1.00  0.00     0.074 A 
ATOM     61  C   UNL A   1      49.086  29.096  27.306  1.00  0.00     0.031 C 
ATOM     62  C   UNL A   1      48.052  26.877  26.921  1.00  0.00     0.037 A 
BRANCH  49  63
ATOM     63  C   UNL A   1      42.725  23.776  27.370  1.00  0.00     0.057 A 
ATOM     64  C   UNL A   1      42.533  22.906  28.451  1.00  0.00     0.134 A 
ATOM     65  C   UNL A   1      42.191  23.394  26.133  1.00  0.00     0.134 A 
ATOM     66  F   UNL A   1      43.034  23.203  29.661  1.00  0.00    -0.206 F 
ATOM     67  C   UNL A   1      41.861  21.691  28.302  1.00  0.00     0.040 A 
ATOM     68  C   UNL A   1      41.490  22.197  25.977  1.00  0.00     0.040 A 
ATOM     69  F   UNL A   1      42.334  24.180  25.055  1.00  0.00    -0.206 F 
ATOM     70  C   UNL A   1      41.331  21.337  27.062  1.00  0.00     0.006 A 
ENDBRANCH  49  63
BRANCH  50  71
ATOM     71  C   UNL A   1      47.188  32.633  28.602  1.00  0.00     0.057 A 
ATOM     72  C   UNL A   1      47.778  32.951  29.832  1.00  0.00     0.134 A 
ATOM     73  C   UNL A   1      47.246  33.600  27.591  1.00  0.00     0.134 A 
ATOM     74  F   UNL A   1      47.734  32.077  30.848  1.00  0.00    -0.206 F 
ATOM     75  C   UNL A   1      48.382  34.190  30.055  1.00  0.00     0.040 A 
ATOM     76  C   UNL A   1      47.872  34.832  27.793  1.00  0.00     0.040 A 
ATOM     77  F   UNL A   1      46.701  33.361  26.391  1.00  0.00    -0.206 F 
ATOM     78  C   UNL A   1      48.435  35.133  29.031  1.00  0.00     0.006 A 
ENDBRANCH  50  71
BRANCH  62  79
ATOM     79  C   UNL A   1      49.378  26.377  26.424  1.00  0.00     0.057 A 
ATOM     80  C   UNL A   1      49.842  26.640  25.130  1.00  0.00     0.134 A 
ATOM     81  C   UNL A   1      50.234  25.677  27.286  1.00  0.00     0.134 A 
ATOM     82  F   UNL A   1      49.069  27.295  24.250  1.00  0.00    -0.206 F 
ATOM     83  C   UNL A   1      51.102  26.211  24.706  1.00  0.00     0.040 A 
ATOM     84  C   UNL A   1      51.506  25.271  26.885  1.00  0.00     0.040 A 
ATOM     85  F   UNL A   1      49.857  25.402  28.544  1.00  0.00    -0.206 F 
ATOM     86  C   UNL A   1      51.942  25.534  25.589  1.00  0.00     0.006 A 
ENDBRANCH  62  79
ENDBRANCH  36  37
ENDBRANCH  29  31
ENDBRANCH  28  29
ENDBRANCH  27  28
ENDBRANCH  26  27
ENDBRANCH  25  26
ENDBRANCH  24  25
ENDBRANCH  23  24
ENDBRANCH  22  23
ENDBRANCH   1  22
TORSDOF 25
ENDMDL
MODEL 3
REMARK VINA RESULT:      -8.3      4.136      7.097
REMARK SMILES CCC1(CC)C[NH+]([C@H](C)CCC(=O)OCCOCCOCCOCCOC(=O)c2ccc(-c3c4nc(c(-c5c(F)cccc5F)c5ccc([nH]5)c(-c5c(F)cccc5F)c5nc(c(-c6c(F)cccc6F)c6ccc3[nH]6)C=C5)C=C4)cc2)C1
REMARK SMILES IDX 19 1 18 2 17 3 16 4 15 5 14 6 12 7 13 8 11 9 10 10 8 11 9 12
REMARK SMILES IDX 7 13 3 14 6 15 83 16 2 18 1 19 4 20 5 21 20 22 21 23 22 24
REMARK SMILES IDX 23 25 24 26 25 27 26 28 27 29 28 30 29 31 30 32 82 33 31 34
REMARK SMILES IDX 81 35 32 36 33 37 34 38 75 39 35 40 80 41 74 42 76 43 36 44
REMARK SMILES IDX 79 45 73 46 72 47 37 49 63 50 46 51 62 52 47 53 50 54 61 55
REMARK SMILES IDX 77 56 48 57 49 58 60 60 78 61 51 62 38 63 39 64 44 65 40 66
REMARK SMILES IDX 41 67 43 68 45 69 42 70 64 71 65 72 70 73 66 74 67 75 69 76
REMARK SMILES IDX 71 77 68 78 52 79 53 80 58 81 54 82 55 83 57 84 59 85 56 86
REMARK H PARENT 7 17 76 48 50 59
REMARK Flexibility Score: inf
ROOT
ATOM      1  C   UNL A   1      33.583  34.640  32.953  1.00  0.00     0.188 C 
ENDROOT
BRANCH   1   2
ATOM      2  C   UNL A   1      34.880  34.709  33.766  1.00  0.00     0.188 C 
BRANCH   2   3
ATOM      3  O   UNL A   1      36.003  35.322  33.170  1.00  0.00    -0.376 OA
BRANCH   3   4
ATOM      4  C   UNL A   1      36.822  34.620  32.248  1.00  0.00     0.202 C 
BRANCH   4   5
ATOM      5  C   UNL A   1      37.831  33.503  32.591  1.00  0.00     0.261 C 
BRANCH   5   6
ATOM      6  O   UNL A   1      39.213  33.726  32.279  1.00  0.00    -0.463 OA
BRANCH   6   7
ATOM      7  C   UNL A   1      40.081  33.715  33.310  1.00  0.00     0.306 C 
ATOM      8  O   UNL A   1      40.456  34.723  33.902  1.00  0.00    -0.252 OA
BRANCH   7   9
ATOM      9  C   UNL A   1      40.515  32.338  33.770  1.00  0.00     0.129 C 
BRANCH   9  10
ATOM     10  C   UNL A   1      41.867  32.032  34.430  1.00  0.00     0.076 C 
BRANCH  10  11
ATOM     11  C   UNL A   1      41.903  31.603  35.914  1.00  0.00     0.181 C 
ATOM     12  C   UNL A   1      40.597  32.031  36.603  1.00  0.00     0.075 C 
BRANCH  11  13
ATOM     13  N   UNL A   1      42.320  30.184  35.984  1.00  0.00    -0.331 N 
ATOM     14  C   UNL A   1      41.949  28.377  34.914  1.00  0.00     0.068 C 
ATOM     15  C   UNL A   1      42.870  29.623  34.755  1.00  0.00     0.275 C 
ATOM     16  C   UNL A   1      41.225  29.211  36.023  1.00  0.00     0.275 C 
ATOM     17  H   UNL A   1      42.933  30.270  36.794  1.00  0.00     0.348 HD
BRANCH  14  18
ATOM     18  C   UNL A   1      41.149  28.138  33.620  1.00  0.00     0.015 C 
ATOM     19  C   UNL A   1      42.056  27.798  32.441  1.00  0.00     0.005 C 
ENDBRANCH  14  18
BRANCH  14  20
ATOM     20  C   UNL A   1      42.623  27.114  35.492  1.00  0.00     0.015 C 
ATOM     21  C   UNL A   1      41.763  25.866  35.313  1.00  0.00     0.005 C 
ENDBRANCH  14  20
ENDBRANCH  11  13
ENDBRANCH  10  11
ENDBRANCH   9  10
ENDBRANCH   7   9
ENDBRANCH   6   7
ENDBRANCH   5   6
ENDBRANCH   4   5
ENDBRANCH   3   4
ENDBRANCH   2   3
ENDBRANCH   1   2
BRANCH   1  22
ATOM     22  O   UNL A   1      33.042  35.875  32.536  1.00  0.00    -0.377 OA
BRANCH  22  23
ATOM     23  C   UNL A   1      32.809  36.107  31.154  1.00  0.00     0.188 C 
BRANCH  23  24
ATOM     24  C   UNL A   1      33.488  35.244  30.072  1.00  0.00     0.188 C 
BRANCH  24  25
ATOM     25  O   UNL A   1      32.703  34.986  28.919  1.00  0.00    -0.376 OA
BRANCH  25  26
ATOM     26  C   UNL A   1      33.085  33.925  28.056  1.00  0.00     0.202 C 
BRANCH  26  27
ATOM     27  C   UNL A   1      34.559  33.485  28.069  1.00  0.00     0.261 C 
BRANCH  27  28
ATOM     28  O   UNL A   1      34.811  32.119  28.430  1.00  0.00    -0.460 OA
BRANCH  28  29
ATOM     29  C   UNL A   1      35.250  31.863  29.677  1.00  0.00     0.338 C 
ATOM     30  O   UNL A   1      34.698  32.138  30.732  1.00  0.00    -0.246 OA
BRANCH  29  31
ATOM     31  C   UNL A   1      36.458  31.025  29.562  1.00  0.00     0.060 A 
ATOM     32  C   UNL A   1      36.955  30.379  30.702  1.00  0.00     0.016 A 
ATOM     33  C   UNL A   1      37.103  30.892  28.330  1.00  0.00     0.016 A 
ATOM     34  C   UNL A   1      38.132  29.634  30.624  1.00  0.00     0.010 A 
ATOM     35  C   UNL A   1      38.291  30.165  28.259  1.00  0.00     0.010 A 
ATOM     36  C   UNL A   1      38.833  29.570  29.412  1.00  0.00    -0.014 A 
BRANCH  36  37
ATOM     37  C   UNL A   1      40.238  29.098  29.390  1.00  0.00     0.031 A 
ATOM     38  C   UNL A   1      41.313  30.086  29.751  1.00  0.00     0.074 A 
ATOM     39  C   UNL A   1      40.559  27.839  29.051  1.00  0.00     0.049 A 
ATOM     40  N   UNL A   1      42.613  29.967  29.682  1.00  0.00    -0.248 NA
ATOM     41  C   UNL A   1      40.853  31.393  30.250  1.00  0.00     0.031 C 
ATOM     42  C   UNL A   1      39.607  26.774  28.741  1.00  0.00     0.029 A 
ATOM     43  N   UNL A   1      41.789  27.250  28.894  1.00  0.00    -0.354 N 
ATOM     44  C   UNL A   1      43.124  31.185  30.110  1.00  0.00     0.074 A 
ATOM     45  C   UNL A   1      41.997  32.040  30.411  1.00  0.00     0.031 C 
ATOM     46  C   UNL A   1      40.292  25.666  28.408  1.00  0.00     0.029 A 
ATOM     47  C   UNL A   1      41.724  25.956  28.439  1.00  0.00     0.049 A 
ATOM     48  H   UNL A   1      42.636  27.712  29.089  1.00  0.00     0.167 HD
ATOM     49  C   UNL A   1      44.418  31.558  30.243  1.00  0.00     0.037 A 
ATOM     50  C   UNL A   1      42.711  25.120  28.059  1.00  0.00     0.037 A 
ATOM     51  C   UNL A   1      45.535  30.707  29.936  1.00  0.00     0.049 A 
ATOM     52  C   UNL A   1      44.143  25.588  28.128  1.00  0.00     0.074 A 
ATOM     53  C   UNL A   1      46.886  30.985  30.039  1.00  0.00     0.029 A 
ATOM     54  N   UNL A   1      45.427  29.410  29.456  1.00  0.00    -0.354 N 
ATOM     55  N   UNL A   1      44.622  26.738  28.538  1.00  0.00    -0.248 NA
ATOM     56  C   UNL A   1      45.174  24.639  27.681  1.00  0.00     0.031 C 
ATOM     57  C   UNL A   1      47.596  29.879  29.565  1.00  0.00     0.029 A 
ATOM     58  C   UNL A   1      46.688  28.884  29.235  1.00  0.00     0.049 A 
ATOM     59  H   UNL A   1      44.580  28.934  29.297  1.00  0.00     0.167 HD
ATOM     60  C   UNL A   1      46.006  26.635  28.440  1.00  0.00     0.074 A 
ATOM     61  C   UNL A   1      46.291  25.311  27.932  1.00  0.00     0.031 C 
ATOM     62  C   UNL A   1      46.956  27.552  28.752  1.00  0.00     0.037 A 
BRANCH  49  63
ATOM     63  C   UNL A   1      44.690  32.961  30.703  1.00  0.00     0.057 A 
ATOM     64  C   UNL A   1      44.909  33.275  32.051  1.00  0.00     0.134 A 
ATOM     65  C   UNL A   1      44.749  34.013  29.779  1.00  0.00     0.134 A 
ATOM     66  F   UNL A   1      44.848  32.318  32.991  1.00  0.00    -0.206 F 
ATOM     67  C   UNL A   1      45.150  34.586  32.467  1.00  0.00     0.040 A 
ATOM     68  C   UNL A   1      45.021  35.323  30.178  1.00  0.00     0.040 A 
ATOM     69  F   UNL A   1      44.552  33.784  28.472  1.00  0.00    -0.206 F 
ATOM     70  C   UNL A   1      45.213  35.613  31.528  1.00  0.00     0.006 A 
ENDBRANCH  49  63
BRANCH  50  71
ATOM     71  C   UNL A   1      42.386  23.760  27.557  1.00  0.00     0.057 A 
ATOM     72  C   UNL A   1      42.239  22.679  28.434  1.00  0.00     0.134 A 
ATOM     73  C   UNL A   1      42.242  23.501  26.187  1.00  0.00     0.134 A 
ATOM     74  F   UNL A   1      42.389  22.856  29.754  1.00  0.00    -0.206 F 
ATOM     75  C   UNL A   1      41.984  21.387  27.969  1.00  0.00     0.040 A 
ATOM     76  C   UNL A   1      41.957  22.219  25.711  1.00  0.00     0.040 A 
ATOM     77  F   UNL A   1      42.371  24.491  25.293  1.00  0.00    -0.206 F 
ATOM     78  C   UNL A   1      41.836  21.156  26.603  1.00  0.00     0.006 A 
ENDBRANCH  50  71
BRANCH  62  79
ATOM     79  C   UNL A   1      48.395  27.141  28.626  1.00  0.00     0.057 A 
ATOM     80  C   UNL A   1      49.165  27.446  27.497  1.00  0.00     0.134 A 
ATOM     81  C   UNL A   1      49.036  26.488  29.687  1.00  0.00     0.134 A 
ATOM     82  F   UNL A   1      48.611  28.060  26.441  1.00  0.00    -0.206 F 
ATOM     83  C   UNL A   1      50.517  27.101  27.423  1.00  0.00     0.040 A 
ATOM     84  C   UNL A   1      50.392  26.165  29.638  1.00  0.00     0.040 A 
ATOM     85  F   UNL A   1      48.359  26.176  30.804  1.00  0.00    -0.206 F 
ATOM     86  C   UNL A   1      51.136  26.468  28.500  1.00  0.00     0.006 A 
ENDBRANCH  62  79
ENDBRANCH  36  37
ENDBRANCH  29  31
ENDBRANCH  28  29
ENDBRANCH  27  28
ENDBRANCH  26  27
ENDBRANCH  25  26
ENDBRANCH  24  25
ENDBRANCH  23  24
ENDBRANCH  22  23
ENDBRANCH   1  22
TORSDOF 25
ENDMDL
