MODEL 1
REMARK VINA RESULT:     -11.0      0.000      0.000
REMARK SMILES O=C(OCCOCCOCCOCCOC(=O)[C@H](c1c[nH]c2cc(F)ccc12)[NH+]1CC[NH+](CC(=O)N2CCOCC2)CC1)c1ccc(-c2c3nc(c(-c4c(F)cccc4F)c4ccc([nH]4)c(-c4c(F)cccc4F)c4nc(c(-c5c(F)cccc5F)c5ccc2[nH]5)C=C4)C=C3)cc1
REMARK SMILES IDX 10 1 9 2 8 3 7 4 6 5 5 6 4 7 3 8 2 9 1 10 44 11 45 12 97 13
REMARK SMILES IDX 46 14 96 15 47 16 48 17 49 18 90 19 50 20 95 21 89 22 91 23
REMARK SMILES IDX 51 24 94 25 88 26 87 27 52 29 78 30 61 31 77 32 62 33 65 34
REMARK SMILES IDX 76 35 92 36 63 37 64 38 75 40 93 41 66 42 53 43 54 44 59 45
REMARK SMILES IDX 55 46 56 47 58 48 60 49 57 50 79 51 80 52 85 53 81 54 82 55
REMARK SMILES IDX 84 56 86 57 83 58 67 59 68 60 73 61 69 62 70 63 72 64 74 65
REMARK SMILES IDX 71 66 11 67 12 68 13 69 14 70 15 71 16 72 17 73 18 74 29 75
REMARK SMILES IDX 30 76 43 77 31 79 42 80 32 81 33 83 34 84 35 85 36 86 37 87
REMARK SMILES IDX 41 88 38 89 40 90 39 91 19 92 20 93 28 94 21 95 22 96 27 97
REMARK SMILES IDX 23 99 26 100 24 101 25 102
REMARK H PARENT 91 28 65 39 29 78 32 82 21 98
REMARK Flexibility Score: inf
ROOT
ATOM      1  C   UNL A   1      33.674  21.036  26.244  1.00  0.00     0.188 C 
ENDROOT
BRANCH   1   2
ATOM      2  O   UNL A   1      34.179  21.441  24.982  1.00  0.00    -0.377 OA
BRANCH   2   3
ATOM      3  C   UNL A   1      35.063  22.547  25.007  1.00  0.00     0.188 C 
BRANCH   3   4
ATOM      4  C   UNL A   1      36.059  22.582  23.852  1.00  0.00     0.188 C 
BRANCH   4   5
ATOM      5  O   UNL A   1      37.396  22.322  24.284  1.00  0.00    -0.376 OA
BRANCH   5   6
ATOM      6  C   UNL A   1      37.604  21.112  25.011  1.00  0.00     0.202 C 
BRANCH   6   7
ATOM      7  C   UNL A   1      38.849  21.150  25.887  1.00  0.00     0.261 C 
BRANCH   7   8
ATOM      8  O   UNL A   1      39.641  19.956  25.802  1.00  0.00    -0.460 OA
BRANCH   8   9
ATOM      9  C   UNL A   1      40.969  19.797  26.031  1.00  0.00     0.338 C 
ATOM     10  O   UNL A   1      41.453  18.687  25.797  1.00  0.00    -0.246 OA
BRANCH   9  11
ATOM     11  C   UNL A   1      41.905  20.870  26.521  1.00  0.00     0.060 A 
ATOM     12  C   UNL A   1      42.173  21.195  27.854  1.00  0.00     0.016 A 
ATOM     13  C   UNL A   1      42.551  21.631  25.525  1.00  0.00     0.016 A 
ATOM     14  C   UNL A   1      42.967  22.280  28.195  1.00  0.00     0.010 A 
ATOM     15  C   UNL A   1      43.322  22.750  25.851  1.00  0.00     0.010 A 
ATOM     16  C   UNL A   1      43.457  23.110  27.193  1.00  0.00    -0.014 A 
BRANCH  16  17
ATOM     17  C   UNL A   1      43.732  24.500  27.594  1.00  0.00     0.031 A 
ATOM     18  C   UNL A   1      45.138  24.992  27.377  1.00  0.00     0.074 A 
ATOM     19  C   UNL A   1      42.724  25.328  27.907  1.00  0.00     0.049 A 
ATOM     20  N   UNL A   1      45.652  26.172  27.586  1.00  0.00    -0.248 NA
ATOM     21  C   UNL A   1      46.093  24.019  26.808  1.00  0.00     0.031 C 
ATOM     22  C   UNL A   1      41.310  24.952  27.955  1.00  0.00     0.029 A 
ATOM     23  N   UNL A   1      42.732  26.663  28.194  1.00  0.00    -0.354 N 
ATOM     24  C   UNL A   1      46.986  26.071  27.206  1.00  0.00     0.074 A 
ATOM     25  C   UNL A   1      47.209  24.722  26.751  1.00  0.00     0.031 C 
ATOM     26  C   UNL A   1      40.581  26.045  28.243  1.00  0.00     0.029 A 
ATOM     27  C   UNL A   1      41.483  27.172  28.454  1.00  0.00     0.049 A 
ATOM     28  H   UNL A   1      43.552  27.208  28.213  1.00  0.00     0.167 HD
ATOM     29  C   UNL A   1      47.941  27.025  27.247  1.00  0.00     0.037 A 
ATOM     30  C   UNL A   1      41.137  28.411  28.849  1.00  0.00     0.037 A 
ATOM     31  C   UNL A   1      47.681  28.356  27.714  1.00  0.00     0.049 A 
ATOM     32  C   UNL A   1      42.240  29.424  29.008  1.00  0.00     0.074 A 
ATOM     33  C   UNL A   1      48.562  29.403  27.895  1.00  0.00     0.029 A 
ATOM     34  N   UNL A   1      46.421  28.815  28.080  1.00  0.00    -0.354 N 
ATOM     35  N   UNL A   1      43.520  29.306  28.736  1.00  0.00    -0.248 NA
ATOM     36  C   UNL A   1      41.856  30.737  29.537  1.00  0.00     0.031 C 
ATOM     37  C   UNL A   1      47.841  30.480  28.422  1.00  0.00     0.029 A 
ATOM     38  C   UNL A   1      46.500  30.126  28.505  1.00  0.00     0.049 A 
ATOM     39  H   UNL A   1      45.593  28.283  28.041  1.00  0.00     0.167 HD
ATOM     40  C   UNL A   1      44.091  30.535  29.031  1.00  0.00     0.074 A 
ATOM     41  C   UNL A   1      43.010  31.389  29.491  1.00  0.00     0.031 C 
ATOM     42  C   UNL A   1      45.385  30.933  28.936  1.00  0.00     0.037 A 
BRANCH  29  43
ATOM     43  C   UNL A   1      49.337  26.608  26.884  1.00  0.00     0.057 A 
ATOM     44  C   UNL A   1      49.857  26.748  25.589  1.00  0.00     0.134 A 
ATOM     45  C   UNL A   1      50.152  25.986  27.840  1.00  0.00     0.134 A 
ATOM     46  F   UNL A   1      49.118  27.299  24.615  1.00  0.00    -0.206 F 
ATOM     47  C   UNL A   1      51.121  26.253  25.252  1.00  0.00     0.040 A 
ATOM     48  C   UNL A   1      51.426  25.513  27.521  1.00  0.00     0.040 A 
ATOM     49  F   UNL A   1      49.714  25.807  29.094  1.00  0.00    -0.206 F 
ATOM     50  C   UNL A   1      51.910  25.636  26.220  1.00  0.00     0.006 A 
ENDBRANCH  29  43
BRANCH  30  51
ATOM     51  C   UNL A   1      39.721  28.738  29.163  1.00  0.00     0.057 A 
ATOM     52  C   UNL A   1      38.850  29.242  28.191  1.00  0.00     0.134 A 
ATOM     53  C   UNL A   1      39.209  28.578  30.458  1.00  0.00     0.134 A 
ATOM     54  F   UNL A   1      39.278  29.438  26.935  1.00  0.00    -0.206 F 
ATOM     55  C   UNL A   1      37.531  29.594  28.498  1.00  0.00     0.040 A 
ATOM     56  C   UNL A   1      37.887  28.895  30.772  1.00  0.00     0.040 A 
ATOM     57  F   UNL A   1      39.987  28.100  31.441  1.00  0.00    -0.206 F 
ATOM     58  C   UNL A   1      37.046  29.415  29.791  1.00  0.00     0.006 A 
ENDBRANCH  30  51
BRANCH  42  59
ATOM     59  C   UNL A   1      45.677  32.363  29.275  1.00  0.00     0.057 A 
ATOM     60  C   UNL A   1      45.595  33.386  28.323  1.00  0.00     0.134 A 
ATOM     61  C   UNL A   1      46.003  32.720  30.590  1.00  0.00     0.134 A 
ATOM     62  F   UNL A   1      45.298  33.104  27.045  1.00  0.00    -0.206 F 
ATOM     63  C   UNL A   1      45.857  34.712  28.661  1.00  0.00     0.040 A 
ATOM     64  C   UNL A   1      46.232  34.046  30.948  1.00  0.00     0.040 A 
ATOM     65  F   UNL A   1      46.082  31.786  31.550  1.00  0.00    -0.206 F 
ATOM     66  C   UNL A   1      46.169  35.046  29.978  1.00  0.00     0.006 A 
ENDBRANCH  42  59
ENDBRANCH  16  17
ENDBRANCH   9  11
ENDBRANCH   8   9
ENDBRANCH   7   8
ENDBRANCH   6   7
ENDBRANCH   5   6
ENDBRANCH   4   5
ENDBRANCH   3   4
ENDBRANCH   2   3
ENDBRANCH   1   2
BRANCH   1  67
ATOM     67  C   UNL A   1      33.903  21.953  27.477  1.00  0.00     0.188 C 
BRANCH  67  68
ATOM     68  O   UNL A   1      32.714  22.376  28.123  1.00  0.00    -0.376 OA
BRANCH  68  69
ATOM     69  C   UNL A   1      31.708  22.915  27.275  1.00  0.00     0.202 C 
BRANCH  69  70
ATOM     70  C   UNL A   1      32.056  24.259  26.618  1.00  0.00     0.261 C 
BRANCH  70  71
ATOM     71  O   UNL A   1      31.244  25.396  26.977  1.00  0.00    -0.459 OA
BRANCH  71  72
ATOM     72  C   UNL A   1      30.532  26.047  26.009  1.00  0.00     0.370 C 
ATOM     73  O   UNL A   1      29.455  25.666  25.585  1.00  0.00    -0.245 OA
BRANCH  72  74
ATOM     74  C   UNL A   1      31.264  27.356  25.585  1.00  0.00     0.328 C 
BRANCH  74  75
ATOM     75  N   UNL A   1      32.233  27.766  26.610  1.00  0.00    -0.310 N 
ATOM     76  C   UNL A   1      33.624  28.079  26.239  1.00  0.00     0.325 C 
ATOM     77  C   UNL A   1      31.744  28.760  27.546  1.00  0.00     0.325 C 
ATOM     78  H   UNL A   1      32.310  26.854  27.060  1.00  0.00     0.349 HD
ATOM     79  C   UNL A   1      33.874  29.558  25.859  1.00  0.00     0.325 C 
ATOM     80  C   UNL A   1      31.946  30.234  27.127  1.00  0.00     0.325 C 
ATOM     81  N   UNL A   1      33.326  30.554  26.800  1.00  0.00    -0.318 N 
ATOM     82  H   UNL A   1      33.363  31.433  26.283  1.00  0.00     0.348 HD
BRANCH  81  83
ATOM     83  C   UNL A   1      34.134  30.901  27.979  1.00  0.00     0.364 C 
BRANCH  83  84
ATOM     84  C   UNL A   1      34.453  32.378  28.253  1.00  0.00     0.277 C 
ATOM     85  O   UNL A   1      34.519  33.151  27.288  1.00  0.00    -0.268 OA
ATOM     86  N   UNL A   1      34.552  32.868  29.565  1.00  0.00    -0.333 N 
ATOM     87  C   UNL A   1      35.049  32.155  30.759  1.00  0.00     0.148 C 
ATOM     88  C   UNL A   1      34.600  34.321  29.710  1.00  0.00     0.148 C 
ATOM     89  C   UNL A   1      34.643  32.738  32.111  1.00  0.00     0.181 C 
ATOM     90  C   UNL A   1      34.035  34.746  31.064  1.00  0.00     0.181 C 
ATOM     91  O   UNL A   1      34.787  34.160  32.134  1.00  0.00    -0.378 OA
ENDBRANCH  83  84
ENDBRANCH  81  83
ENDBRANCH  74  75
BRANCH  74  92
ATOM     92  C   UNL A   1      31.850  27.349  24.142  1.00  0.00     0.046 A 
ATOM     93  C   UNL A   1      32.002  28.438  23.295  1.00  0.00     0.094 A 
ATOM     94  C   UNL A   1      32.281  26.195  23.350  1.00  0.00     0.009 A 
ATOM     95  N   UNL A   1      32.315  27.998  22.037  1.00  0.00    -0.361 N 
ATOM     96  C   UNL A   1      32.486  26.637  22.036  1.00  0.00     0.049 A 
ATOM     97  C   UNL A   1      32.458  24.809  23.599  1.00  0.00     0.014 A 
ATOM     98  H   UNL A   1      32.405  28.577  21.246  1.00  0.00     0.166 HD
ATOM     99  C   UNL A   1      32.788  25.777  20.969  1.00  0.00     0.065 A 
ATOM    100  C   UNL A   1      32.811  23.941  22.548  1.00  0.00     0.040 A 
ATOM    101  C   UNL A   1      32.950  24.426  21.256  1.00  0.00     0.125 A 
ATOM    102  F   UNL A   1      33.253  23.579  20.262  1.00  0.00    -0.207 F 
ENDBRANCH  74  92
ENDBRANCH  72  74
ENDBRANCH  71  72
ENDBRANCH  70  71
ENDBRANCH  69  70
ENDBRANCH  68  69
ENDBRANCH  67  68
ENDBRANCH   1  67
TORSDOF 24
ENDMDL
MODEL 2
REMARK VINA RESULT:     -10.9      2.701      9.250
REMARK SMILES O=C(OCCOCCOCCOCCOC(=O)[C@H](c1c[nH]c2cc(F)ccc12)[NH+]1CC[NH+](CC(=O)N2CCOCC2)CC1)c1ccc(-c2c3nc(c(-c4c(F)cccc4F)c4ccc([nH]4)c(-c4c(F)cccc4F)c4nc(c(-c5c(F)cccc5F)c5ccc2[nH]5)C=C4)C=C3)cc1
REMARK SMILES IDX 10 1 9 2 8 3 7 4 6 5 5 6 4 7 3 8 2 9 1 10 44 11 45 12 97 13
REMARK SMILES IDX 46 14 96 15 47 16 48 17 49 18 90 19 50 20 95 21 89 22 91 23
REMARK SMILES IDX 51 24 94 25 88 26 87 27 52 29 78 30 61 31 77 32 62 33 65 34
REMARK SMILES IDX 76 35 92 36 63 37 64 38 75 40 93 41 66 42 53 43 54 44 59 45
REMARK SMILES IDX 55 46 56 47 58 48 60 49 57 50 79 51 80 52 85 53 81 54 82 55
REMARK SMILES IDX 84 56 86 57 83 58 67 59 68 60 73 61 69 62 70 63 72 64 74 65
REMARK SMILES IDX 71 66 11 67 12 68 13 69 14 70 15 71 16 72 17 73 18 74 29 75
REMARK SMILES IDX 30 76 43 77 31 79 42 80 32 81 33 83 34 84 35 85 36 86 37 87
REMARK SMILES IDX 41 88 38 89 40 90 39 91 19 92 20 93 28 94 21 95 22 96 27 97
REMARK SMILES IDX 23 99 26 100 24 101 25 102
REMARK H PARENT 91 28 65 39 29 78 32 82 21 98
REMARK Flexibility Score: inf
ROOT
ATOM      1  C   UNL A   1      35.001  33.580  28.398  1.00  0.00     0.188 C 
ENDROOT
BRANCH   1   2
ATOM      2  O   UNL A   1      34.392  34.793  27.984  1.00  0.00    -0.377 OA
BRANCH   2   3
ATOM      3  C   UNL A   1      33.351  35.267  28.818  1.00  0.00     0.188 C 
BRANCH   3   4
ATOM      4  C   UNL A   1      33.780  35.565  30.251  1.00  0.00     0.188 C 
BRANCH   4   5
ATOM      5  O   UNL A   1      32.971  34.881  31.210  1.00  0.00    -0.376 OA
BRANCH   5   6
ATOM      6  C   UNL A   1      33.664  34.140  32.212  1.00  0.00     0.202 C 
BRANCH   6   7
ATOM      7  C   UNL A   1      35.042  34.707  32.525  1.00  0.00     0.261 C 
BRANCH   7   8
ATOM      8  O   UNL A   1      36.018  33.698  32.824  1.00  0.00    -0.460 OA
BRANCH   8   9
ATOM      9  C   UNL A   1      37.340  33.675  32.522  1.00  0.00     0.338 C 
ATOM     10  O   UNL A   1      38.005  34.668  32.823  1.00  0.00    -0.246 OA
BRANCH   9  11
ATOM     11  C   UNL A   1      38.068  32.526  31.874  1.00  0.00     0.060 A 
ATOM     12  C   UNL A   1      39.007  31.687  32.482  1.00  0.00     0.016 A 
ATOM     13  C   UNL A   1      37.780  32.300  30.512  1.00  0.00     0.016 A 
ATOM     14  C   UNL A   1      39.703  30.729  31.761  1.00  0.00     0.010 A 
ATOM     15  C   UNL A   1      38.500  31.366  29.763  1.00  0.00     0.010 A 
ATOM     16  C   UNL A   1      39.518  30.640  30.385  1.00  0.00    -0.014 A 
BRANCH  16  17
ATOM     17  C   UNL A   1      40.654  30.096  29.623  1.00  0.00     0.031 A 
ATOM     18  C   UNL A   1      41.873  30.973  29.525  1.00  0.00     0.074 A 
ATOM     19  C   UNL A   1      40.669  28.806  29.255  1.00  0.00     0.049 A 
ATOM     20  N   UNL A   1      43.029  30.739  28.968  1.00  0.00    -0.248 NA
ATOM     21  C   UNL A   1      41.786  32.293  30.182  1.00  0.00     0.031 C 
ATOM     22  C   UNL A   1      39.584  27.851  29.487  1.00  0.00     0.029 A 
ATOM     23  N   UNL A   1      41.647  28.069  28.651  1.00  0.00    -0.354 N 
ATOM     24  C   UNL A   1      43.785  31.887  29.180  1.00  0.00     0.074 A 
ATOM     25  C   UNL A   1      42.969  32.817  29.918  1.00  0.00     0.031 C 
ATOM     26  C   UNL A   1      39.967  26.643  29.041  1.00  0.00     0.029 A 
ATOM     27  C   UNL A   1      41.293  26.759  28.442  1.00  0.00     0.049 A 
ATOM     28  H   UNL A   1      42.521  28.440  28.391  1.00  0.00     0.167 HD
ATOM     29  C   UNL A   1      45.051  32.140  28.780  1.00  0.00     0.037 A 
ATOM     30  C   UNL A   1      41.971  25.787  27.807  1.00  0.00     0.037 A 
ATOM     31  C   UNL A   1      45.829  31.188  28.042  1.00  0.00     0.049 A 
ATOM     32  C   UNL A   1      43.332  26.131  27.259  1.00  0.00     0.074 A 
ATOM     33  C   UNL A   1      47.089  31.331  27.495  1.00  0.00     0.029 A 
ATOM     34  N   UNL A   1      45.400  29.900  27.745  1.00  0.00    -0.354 N 
ATOM     35  N   UNL A   1      44.016  27.248  27.379  1.00  0.00    -0.248 NA
ATOM     36  C   UNL A   1      44.012  25.091  26.481  1.00  0.00     0.031 C 
ATOM     37  C   UNL A   1      47.398  30.145  26.821  1.00  0.00     0.029 A 
ATOM     38  C   UNL A   1      46.360  29.240  27.006  1.00  0.00     0.049 A 
ATOM     39  H   UNL A   1      44.537  29.515  28.022  1.00  0.00     0.167 HD
ATOM     40  C   UNL A   1      45.217  27.035  26.720  1.00  0.00     0.074 A 
ATOM     41  C   UNL A   1      45.172  25.675  26.213  1.00  0.00     0.031 C 
ATOM     42  C   UNL A   1      46.267  27.877  26.542  1.00  0.00     0.037 A 
BRANCH  29  43
ATOM     43  C   UNL A   1      45.587  33.516  29.046  1.00  0.00     0.057 A 
ATOM     44  C   UNL A   1      45.304  34.612  28.217  1.00  0.00     0.134 A 
ATOM     45  C   UNL A   1      46.466  33.731  30.116  1.00  0.00     0.134 A 
ATOM     46  F   UNL A   1      44.502  34.470  27.151  1.00  0.00    -0.206 F 
ATOM     47  C   UNL A   1      45.902  35.859  28.425  1.00  0.00     0.040 A 
ATOM     48  C   UNL A   1      47.048  34.978  30.349  1.00  0.00     0.040 A 
ATOM     49  F   UNL A   1      46.791  32.724  30.940  1.00  0.00    -0.206 F 
ATOM     50  C   UNL A   1      46.776  36.044  29.495  1.00  0.00     0.006 A 
ENDBRANCH  29  43
BRANCH  30  51
ATOM     51  C   UNL A   1      41.367  24.443  27.612  1.00  0.00     0.057 A 
ATOM     52  C   UNL A   1      40.323  24.229  26.705  1.00  0.00     0.134 A 
ATOM     53  C   UNL A   1      41.805  23.335  28.352  1.00  0.00     0.134 A 
ATOM     54  F   UNL A   1      39.843  25.248  25.976  1.00  0.00    -0.206 F 
ATOM     55  C   UNL A   1      39.724  22.975  26.556  1.00  0.00     0.040 A 
ATOM     56  C   UNL A   1      41.237  22.071  28.193  1.00  0.00     0.040 A 
ATOM     57  F   UNL A   1      42.801  23.465  29.241  1.00  0.00    -0.206 F 
ATOM     58  C   UNL A   1      40.186  21.890  27.298  1.00  0.00     0.006 A 
ENDBRANCH  30  51
BRANCH  42  59
ATOM     59  C   UNL A   1      47.462  27.323  25.828  1.00  0.00     0.057 A 
ATOM     60  C   UNL A   1      47.643  27.478  24.449  1.00  0.00     0.134 A 
ATOM     61  C   UNL A   1      48.465  26.661  26.548  1.00  0.00     0.134 A 
ATOM     62  F   UNL A   1      46.711  28.094  23.705  1.00  0.00    -0.206 F 
ATOM     63  C   UNL A   1      48.769  26.968  23.805  1.00  0.00     0.040 A 
ATOM     64  C   UNL A   1      49.611  26.178  25.921  1.00  0.00     0.040 A 
ATOM     65  F   UNL A   1      48.355  26.494  27.875  1.00  0.00    -0.206 F 
ATOM     66  C   UNL A   1      49.760  26.322  24.542  1.00  0.00     0.006 A 
ENDBRANCH  42  59
ENDBRANCH  16  17
ENDBRANCH   9  11
ENDBRANCH   8   9
ENDBRANCH   7   8
ENDBRANCH   6   7
ENDBRANCH   5   6
ENDBRANCH   4   5
ENDBRANCH   3   4
ENDBRANCH   2   3
ENDBRANCH   1   2
BRANCH   1  67
ATOM     67  C   UNL A   1      34.112  32.324  28.605  1.00  0.00     0.188 C 
BRANCH  67  68
ATOM     68  O   UNL A   1      33.880  31.568  27.428  1.00  0.00    -0.376 OA
BRANCH  68  69
ATOM     69  C   UNL A   1      34.476  30.278  27.395  1.00  0.00     0.202 C 
BRANCH  69  70
ATOM     70  C   UNL A   1      33.822  29.278  26.431  1.00  0.00     0.261 C 
BRANCH  70  71
ATOM     71  O   UNL A   1      33.413  28.007  26.979  1.00  0.00    -0.459 OA
BRANCH  71  72
ATOM     72  C   UNL A   1      32.225  27.457  26.588  1.00  0.00     0.370 C 
ATOM     73  O   UNL A   1      31.178  27.597  27.197  1.00  0.00    -0.245 OA
BRANCH  72  74
ATOM     74  C   UNL A   1      32.397  26.694  25.240  1.00  0.00     0.328 C 
BRANCH  74  75
ATOM     75  N   UNL A   1      31.713  25.395  25.285  1.00  0.00    -0.310 N 
ATOM     76  C   UNL A   1      31.356  24.697  24.038  1.00  0.00     0.325 C 
ATOM     77  C   UNL A   1      32.269  24.447  26.231  1.00  0.00     0.325 C 
ATOM     78  H   UNL A   1      30.818  25.754  25.617  1.00  0.00     0.349 HD
ATOM     79  C   UNL A   1      32.450  23.748  23.493  1.00  0.00     0.325 C 
ATOM     80  C   UNL A   1      33.403  23.547  25.691  1.00  0.00     0.325 C 
ATOM     81  N   UNL A   1      33.037  22.825  24.483  1.00  0.00    -0.318 N 
ATOM     82  H   UNL A   1      33.877  22.469  24.026  1.00  0.00     0.348 HD
BRANCH  81  83
ATOM     83  C   UNL A   1      32.325  21.567  24.755  1.00  0.00     0.364 C 
BRANCH  83  84
ATOM     84  C   UNL A   1      32.302  20.477  23.672  1.00  0.00     0.277 C 
ATOM     85  O   UNL A   1      32.110  20.822  22.499  1.00  0.00    -0.268 OA
ATOM     86  N   UNL A   1      32.606  19.142  23.981  1.00  0.00    -0.333 N 
ATOM     87  C   UNL A   1      32.326  18.420  25.238  1.00  0.00     0.148 C 
ATOM     88  C   UNL A   1      32.808  18.246  22.844  1.00  0.00     0.148 C 
ATOM     89  C   UNL A   1      33.136  17.149  25.482  1.00  0.00     0.181 C 
ATOM     90  C   UNL A   1      33.748  17.103  23.220  1.00  0.00     0.181 C 
ATOM     91  O   UNL A   1      33.211  16.339  24.307  1.00  0.00    -0.378 OA
ENDBRANCH  83  84
ENDBRANCH  81  83
ENDBRANCH  74  75
BRANCH  74  92
ATOM     92  C   UNL A   1      32.072  27.526  23.964  1.00  0.00     0.046 A 
ATOM     93  C   UNL A   1      32.978  28.039  23.046  1.00  0.00     0.094 A 
ATOM     94  C   UNL A   1      30.766  28.009  23.511  1.00  0.00     0.009 A 
ATOM     95  N   UNL A   1      32.337  28.912  22.209  1.00  0.00    -0.361 N 
ATOM     96  C   UNL A   1      30.989  28.920  22.470  1.00  0.00     0.049 A 
ATOM     97  C   UNL A   1      29.421  27.812  23.918  1.00  0.00     0.014 A 
ATOM     98  H   UNL A   1      32.779  29.456  21.519  1.00  0.00     0.166 HD
ATOM     99  C   UNL A   1      29.971  29.679  21.873  1.00  0.00     0.065 A 
ATOM    100  C   UNL A   1      28.382  28.529  23.294  1.00  0.00     0.040 A 
ATOM    101  C   UNL A   1      28.667  29.457  22.305  1.00  0.00     0.125 A 
ATOM    102  F   UNL A   1      27.667  30.155  21.745  1.00  0.00    -0.207 F 
ENDBRANCH  74  92
ENDBRANCH  72  74
ENDBRANCH  71  72
ENDBRANCH  70  71
ENDBRANCH  69  70
ENDBRANCH  68  69
ENDBRANCH  67  68
ENDBRANCH   1  67
TORSDOF 24
ENDMDL
MODEL 3
REMARK VINA RESULT:     -10.5      2.553      8.992
REMARK SMILES O=C(OCCOCCOCCOCCOC(=O)[C@H](c1c[nH]c2cc(F)ccc12)[NH+]1CC[NH+](CC(=O)N2CCOCC2)CC1)c1ccc(-c2c3nc(c(-c4c(F)cccc4F)c4ccc([nH]4)c(-c4c(F)cccc4F)c4nc(c(-c5c(F)cccc5F)c5ccc2[nH]5)C=C4)C=C3)cc1
REMARK SMILES IDX 10 1 9 2 8 3 7 4 6 5 5 6 4 7 3 8 2 9 1 10 44 11 45 12 97 13
REMARK SMILES IDX 46 14 96 15 47 16 48 17 49 18 90 19 50 20 95 21 89 22 91 23
REMARK SMILES IDX 51 24 94 25 88 26 87 27 52 29 78 30 61 31 77 32 62 33 65 34
REMARK SMILES IDX 76 35 92 36 63 37 64 38 75 40 93 41 66 42 53 43 54 44 59 45
REMARK SMILES IDX 55 46 56 47 58 48 60 49 57 50 79 51 80 52 85 53 81 54 82 55
REMARK SMILES IDX 84 56 86 57 83 58 67 59 68 60 73 61 69 62 70 63 72 64 74 65
REMARK SMILES IDX 71 66 11 67 12 68 13 69 14 70 15 71 16 72 17 73 18 74 29 75
REMARK SMILES IDX 30 76 43 77 31 79 42 80 32 81 33 83 34 84 35 85 36 86 37 87
REMARK SMILES IDX 41 88 38 89 40 90 39 91 19 92 20 93 28 94 21 95 22 96 27 97
REMARK SMILES IDX 23 99 26 100 24 101 25 102
REMARK H PARENT 91 28 65 39 29 78 32 82 21 98
REMARK Flexibility Score: inf
ROOT
ATOM      1  C   UNL A   1      31.402  31.872  26.813  1.00  0.00     0.188 C 
ENDROOT
BRANCH   1   2
ATOM      2  O   UNL A   1      32.067  33.044  27.256  1.00  0.00    -0.377 OA
BRANCH   2   3
ATOM      3  C   UNL A   1      33.281  32.828  27.953  1.00  0.00     0.188 C 
BRANCH   3   4
ATOM      4  C   UNL A   1      34.203  34.042  28.001  1.00  0.00     0.188 C 
BRANCH   4   5
ATOM      5  O   UNL A   1      34.339  34.564  29.325  1.00  0.00    -0.376 OA
BRANCH   5   6
ATOM      6  C   UNL A   1      34.866  33.674  30.307  1.00  0.00     0.202 C 
BRANCH   6   7
ATOM      7  C   UNL A   1      36.168  33.014  29.873  1.00  0.00     0.261 C 
BRANCH   7   8
ATOM      8  O   UNL A   1      36.799  32.261  30.919  1.00  0.00    -0.460 OA
BRANCH   8   9
ATOM      9  C   UNL A   1      36.831  30.917  31.101  1.00  0.00     0.338 C 
ATOM     10  O   UNL A   1      35.903  30.412  31.737  1.00  0.00    -0.246 OA
BRANCH   9  11
ATOM     11  C   UNL A   1      37.890  29.988  30.568  1.00  0.00     0.060 A 
ATOM     12  C   UNL A   1      38.674  29.103  31.315  1.00  0.00     0.016 A 
ATOM     13  C   UNL A   1      38.119  30.044  29.178  1.00  0.00     0.016 A 
ATOM     14  C   UNL A   1      39.702  28.375  30.737  1.00  0.00     0.010 A 
ATOM     15  C   UNL A   1      39.176  29.346  28.587  1.00  0.00     0.010 A 
ATOM     16  C   UNL A   1      40.012  28.573  29.396  1.00  0.00    -0.014 A 
BRANCH  16  17
ATOM     17  C   UNL A   1      41.404  28.286  29.015  1.00  0.00     0.031 A 
ATOM     18  C   UNL A   1      41.683  26.901  28.495  1.00  0.00     0.074 A 
ATOM     19  C   UNL A   1      42.300  29.280  28.918  1.00  0.00     0.049 A 
ATOM     20  N   UNL A   1      42.791  26.385  28.041  1.00  0.00    -0.248 NA
ATOM     21  C   UNL A   1      40.532  25.975  28.449  1.00  0.00     0.031 C 
ATOM     22  C   UNL A   1      42.037  30.685  29.234  1.00  0.00     0.029 A 
ATOM     23  N   UNL A   1      43.595  29.265  28.482  1.00  0.00    -0.354 N 
ATOM     24  C   UNL A   1      42.477  25.076  27.690  1.00  0.00     0.074 A 
ATOM     25  C   UNL A   1      41.080  24.870  27.975  1.00  0.00     0.031 C 
ATOM     26  C   UNL A   1      43.141  31.403  28.965  1.00  0.00     0.029 A 
ATOM     27  C   UNL A   1      44.196  30.500  28.517  1.00  0.00     0.049 A 
ATOM     28  H   UNL A   1      44.052  28.451  28.172  1.00  0.00     0.167 HD
ATOM     29  C   UNL A   1      43.295  24.128  27.182  1.00  0.00     0.037 A 
ATOM     30  C   UNL A   1      45.470  30.832  28.243  1.00  0.00     0.037 A 
ATOM     31  C   UNL A   1      44.684  24.371  26.917  1.00  0.00     0.049 A 
ATOM     32  C   UNL A   1      46.396  29.730  27.798  1.00  0.00     0.074 A 
ATOM     33  C   UNL A   1      45.655  23.490  26.486  1.00  0.00     0.029 A 
ATOM     34  N   UNL A   1      45.296  25.610  27.070  1.00  0.00    -0.354 N 
ATOM     35  N   UNL A   1      46.124  28.468  27.551  1.00  0.00    -0.248 NA
ATOM     36  C   UNL A   1      47.804  30.091  27.603  1.00  0.00     0.031 C 
ATOM     37  C   UNL A   1      46.867  24.185  26.430  1.00  0.00     0.029 A 
ATOM     38  C   UNL A   1      46.638  25.515  26.760  1.00  0.00     0.049 A 
ATOM     39  H   UNL A   1      44.839  26.434  27.357  1.00  0.00     0.167 HD
ATOM     40  C   UNL A   1      47.317  27.890  27.142  1.00  0.00     0.074 A 
ATOM     41  C   UNL A   1      48.312  28.947  27.163  1.00  0.00     0.031 C 
ATOM     42  C   UNL A   1      47.579  26.608  26.782  1.00  0.00     0.037 A 
BRANCH  29  43
ATOM     43  C   UNL A   1      42.717  22.754  27.003  1.00  0.00     0.057 A 
ATOM     44  C   UNL A   1      42.409  22.221  25.743  1.00  0.00     0.134 A 
ATOM     45  C   UNL A   1      42.396  21.978  28.125  1.00  0.00     0.134 A 
ATOM     46  F   UNL A   1      42.653  22.925  24.627  1.00  0.00    -0.206 F 
ATOM     47  C   UNL A   1      41.772  20.983  25.609  1.00  0.00     0.040 A 
ATOM     48  C   UNL A   1      41.785  20.729  28.002  1.00  0.00     0.040 A 
ATOM     49  F   UNL A   1      42.650  22.433  29.360  1.00  0.00    -0.206 F 
ATOM     50  C   UNL A   1      41.461  20.233  26.742  1.00  0.00     0.006 A 
ENDBRANCH  29  43
BRANCH  30  51
ATOM     51  C   UNL A   1      45.947  32.227  28.428  1.00  0.00     0.057 A 
ATOM     52  C   UNL A   1      46.488  32.665  29.641  1.00  0.00     0.134 A 
ATOM     53  C   UNL A   1      45.849  33.171  27.396  1.00  0.00     0.134 A 
ATOM     54  F   UNL A   1      46.595  31.820  30.678  1.00  0.00    -0.206 F 
ATOM     55  C   UNL A   1      46.894  33.990  29.830  1.00  0.00     0.040 A 
ATOM     56  C   UNL A   1      46.278  34.489  27.558  1.00  0.00     0.040 A 
ATOM     57  F   UNL A   1      45.340  32.823  26.204  1.00  0.00    -0.206 F 
ATOM     58  C   UNL A   1      46.794  34.904  28.783  1.00  0.00     0.006 A 
ENDBRANCH  30  51
BRANCH  42  59
ATOM     59  C   UNL A   1      48.974  26.307  26.326  1.00  0.00     0.057 A 
ATOM     60  C   UNL A   1      49.413  26.602  25.029  1.00  0.00     0.134 A 
ATOM     61  C   UNL A   1      49.901  25.754  27.219  1.00  0.00     0.134 A 
ATOM     62  F   UNL A   1      48.567  27.123  24.126  1.00  0.00    -0.206 F 
ATOM     63  C   UNL A   1      50.719  26.328  24.628  1.00  0.00     0.040 A 
ATOM     64  C   UNL A   1      51.218  25.509  26.839  1.00  0.00     0.040 A 
ATOM     65  F   UNL A   1      49.544  25.464  28.479  1.00  0.00    -0.206 F 
ATOM     66  C   UNL A   1      51.627  25.787  25.536  1.00  0.00     0.006 A 
ENDBRANCH  42  59
ENDBRANCH  16  17
ENDBRANCH   9  11
ENDBRANCH   8   9
ENDBRANCH   7   8
ENDBRANCH   6   7
ENDBRANCH   5   6
ENDBRANCH   4   5
ENDBRANCH   3   4
ENDBRANCH   2   3
ENDBRANCH   1   2
BRANCH   1  67
ATOM     67  C   UNL A   1      32.138  30.910  25.842  1.00  0.00     0.188 C 
BRANCH  67  68
ATOM     68  O   UNL A   1      31.788  29.543  25.993  1.00  0.00    -0.376 OA
BRANCH  68  69
ATOM     69  C   UNL A   1      32.504  28.829  26.991  1.00  0.00     0.202 C 
BRANCH  69  70
ATOM     70  C   UNL A   1      32.018  27.395  27.247  1.00  0.00     0.261 C 
BRANCH  70  71
ATOM     71  O   UNL A   1      30.653  27.091  26.891  1.00  0.00    -0.459 OA
BRANCH  71  72
ATOM     72  C   UNL A   1      30.374  25.926  26.232  1.00  0.00     0.370 C 
ATOM     73  O   UNL A   1      29.430  25.204  26.500  1.00  0.00    -0.245 OA
BRANCH  72  74
ATOM     74  C   UNL A   1      31.389  25.703  25.070  1.00  0.00     0.328 C 
BRANCH  74  75
ATOM     75  N   UNL A   1      31.319  24.322  24.575  1.00  0.00    -0.310 N 
ATOM     76  C   UNL A   1      32.155  23.893  23.440  1.00  0.00     0.325 C 
ATOM     77  C   UNL A   1      31.341  23.304  25.608  1.00  0.00     0.325 C 
ATOM     78  H   UNL A   1      30.388  24.400  24.165  1.00  0.00     0.349 HD
ATOM     79  C   UNL A   1      33.548  23.349  23.835  1.00  0.00     0.325 C 
ATOM     80  C   UNL A   1      32.742  22.813  26.035  1.00  0.00     0.325 C 
ATOM     81  N   UNL A   1      33.554  22.350  24.921  1.00  0.00    -0.318 N 
ATOM     82  H   UNL A   1      34.532  22.295  25.205  1.00  0.00     0.348 HD
BRANCH  81  83
ATOM     83  C   UNL A   1      33.298  20.947  24.563  1.00  0.00     0.364 C 
BRANCH  83  84
ATOM     84  C   UNL A   1      34.456  19.940  24.629  1.00  0.00     0.277 C 
ATOM     85  O   UNL A   1      35.576  20.357  24.952  1.00  0.00    -0.268 OA
ATOM     86  N   UNL A   1      34.235  18.566  24.443  1.00  0.00    -0.333 N 
ATOM     87  C   UNL A   1      33.236  17.923  23.566  1.00  0.00     0.148 C 
ATOM     88  C   UNL A   1      35.348  17.681  24.781  1.00  0.00     0.148 C 
ATOM     89  C   UNL A   1      32.903  16.466  23.877  1.00  0.00     0.181 C 
ATOM     90  C   UNL A   1      34.834  16.305  25.197  1.00  0.00     0.181 C 
ATOM     91  O   UNL A   1      34.083  15.701  24.136  1.00  0.00    -0.378 OA
ENDBRANCH  83  84
ENDBRANCH  81  83
ENDBRANCH  74  75
BRANCH  74  92
ATOM     92  C   UNL A   1      31.344  26.774  23.939  1.00  0.00     0.046 A 
ATOM     93  C   UNL A   1      32.420  27.284  23.227  1.00  0.00     0.094 A 
ATOM     94  C   UNL A   1      30.183  27.520  23.450  1.00  0.00     0.009 A 
ATOM     95  N   UNL A   1      32.014  28.371  22.501  1.00  0.00    -0.361 N 
ATOM     96  C   UNL A   1      30.658  28.545  22.620  1.00  0.00     0.049 A 
ATOM     97  C   UNL A   1      28.783  27.469  23.674  1.00  0.00     0.014 A 
ATOM     98  H   UNL A   1      32.610  28.947  21.970  1.00  0.00     0.166 HD
ATOM     99  C   UNL A   1      29.835  29.539  22.069  1.00  0.00     0.065 A 
ATOM    100  C   UNL A   1      27.937  28.430  23.087  1.00  0.00     0.040 A 
ATOM    101  C   UNL A   1      28.468  29.453  22.317  1.00  0.00     0.125 A 
ATOM    102  F   UNL A   1      27.652  30.379  21.794  1.00  0.00    -0.207 F 
ENDBRANCH  74  92
ENDBRANCH  72  74
ENDBRANCH  71  72
ENDBRANCH  70  71
ENDBRANCH  69  70
ENDBRANCH  68  69
ENDBRANCH  67  68
ENDBRANCH   1  67
TORSDOF 24
ENDMDL
