MODEL 1
REMARK VINA RESULT:      -9.2      0.000      0.000
REMARK SMILES C[C@@H]1C[N@@H+](CC(C)(C)C(=O)OCCOCCOCCOCCOC(=O)c2ccc(-c3c4nc(c(-c5c(F)cccc5F)c5ccc([nH]5)c(-c5c(F)cccc5F)c5nc(c(-c6c(F)cccc6F)c6ccc3[nH]6)C=C5)C=C4)cc2)CC[C@@H]1[NH3+]
REMARK SMILES IDX 16 1 15 2 14 3 13 4 12 5 11 6 9 7 10 8 6 9 7 10 8 11 5 12
REMARK SMILES IDX 4 13 1 14 2 15 3 16 82 17 81 18 80 19 83 21 17 25 18 26
REMARK SMILES IDX 19 27 20 28 21 29 22 30 23 31 24 32 25 33 26 34 27 35 79 36
REMARK SMILES IDX 28 37 78 38 29 39 30 40 31 41 72 42 32 43 77 44 71 45 73 46
REMARK SMILES IDX 33 47 76 48 70 49 69 50 34 52 60 53 43 54 59 55 44 56 47 57
REMARK SMILES IDX 58 58 74 59 45 60 46 61 57 63 75 64 48 65 35 66 36 67 41 68
REMARK SMILES IDX 37 69 38 70 40 71 42 72 39 73 61 74 62 75 67 76 63 77 64 78
REMARK SMILES IDX 66 79 68 80 65 81 49 82 50 83 55 84 51 85 52 86 54 87 56 88
REMARK SMILES IDX 53 89
REMARK H PARENT 4 20 83 22 83 23 83 24 73 51 47 62
REMARK Flexibility Score: inf
ROOT
ATOM      1  C   UNL A   1      33.954  22.573  26.447  1.00  0.00     0.188 C 
ENDROOT
BRANCH   1   2
ATOM      2  C   UNL A   1      33.163  22.573  27.760  1.00  0.00     0.188 C 
BRANCH   2   3
ATOM      3  O   UNL A   1      31.803  22.951  27.633  1.00  0.00    -0.376 OA
BRANCH   3   4
ATOM      4  C   UNL A   1      31.476  23.846  26.578  1.00  0.00     0.202 C 
BRANCH   4   5
ATOM      5  C   UNL A   1      30.640  23.299  25.409  1.00  0.00     0.261 C 
BRANCH   5   6
ATOM      6  O   UNL A   1      31.330  23.322  24.146  1.00  0.00    -0.463 OA
BRANCH   6   7
ATOM      7  C   UNL A   1      31.450  24.510  23.516  1.00  0.00     0.317 C 
ATOM      8  O   UNL A   1      30.547  25.337  23.478  1.00  0.00    -0.251 OA
BRANCH   7   9
ATOM      9  C   UNL A   1      32.840  24.734  22.892  1.00  0.00     0.111 C 
ATOM     10  C   UNL A   1      32.570  25.248  21.461  1.00  0.00     0.029 C 
ATOM     11  C   UNL A   1      33.667  23.431  22.672  1.00  0.00     0.029 C 
BRANCH   9  12
ATOM     12  C   UNL A   1      33.701  25.708  23.796  1.00  0.00     0.280 C 
BRANCH  12  13
ATOM     13  N   UNL A   1      33.127  26.735  24.695  1.00  0.00    -0.333 N 
ATOM     14  C   UNL A   1      31.487  29.838  25.231  1.00  0.00     0.020 C 
ATOM     15  C   UNL A   1      32.884  29.337  24.848  1.00  0.00     0.099 C 
ATOM     16  C   UNL A   1      32.839  28.018  24.046  1.00  0.00     0.271 C 
ATOM     17  C   UNL A   1      33.855  29.198  26.027  1.00  0.00     0.194 C 
ATOM     18  C   UNL A   1      33.462  27.983  26.863  1.00  0.00     0.126 C 
ATOM     19  C   UNL A   1      33.677  26.725  26.038  1.00  0.00     0.268 C 
ATOM     20  H   UNL A   1      32.172  26.443  24.903  1.00  0.00     0.348 HD
BRANCH  17  21
ATOM     21  N   UNL A   1      33.933  30.411  26.841  1.00  0.00    -0.355 N 
ATOM     22  H   UNL A   1      34.892  30.758  26.844  1.00  0.00     0.344 HD
ATOM     23  H   UNL A   1      33.646  30.200  27.797  1.00  0.00     0.344 HD
ATOM     24  H   UNL A   1      33.316  31.124  26.451  1.00  0.00     0.344 HD
ENDBRANCH  17  21
ENDBRANCH  12  13
ENDBRANCH   9  12
ENDBRANCH   7   9
ENDBRANCH   6   7
ENDBRANCH   5   6
ENDBRANCH   4   5
ENDBRANCH   3   4
ENDBRANCH   2   3
ENDBRANCH   1   2
BRANCH   1  25
ATOM     25  O   UNL A   1      35.367  22.501  26.514  1.00  0.00    -0.377 OA
BRANCH  25  26
ATOM     26  C   UNL A   1      36.132  23.562  25.949  1.00  0.00     0.188 C 
BRANCH  26  27
ATOM     27  C   UNL A   1      37.347  23.274  25.036  1.00  0.00     0.188 C 
BRANCH  27  28
ATOM     28  O   UNL A   1      37.700  21.907  24.902  1.00  0.00    -0.376 OA
BRANCH  28  29
ATOM     29  C   UNL A   1      38.728  21.411  25.744  1.00  0.00     0.202 C 
BRANCH  29  30
ATOM     30  C   UNL A   1      39.343  20.049  25.379  1.00  0.00     0.261 C 
BRANCH  30  31
ATOM     31  O   UNL A   1      40.093  19.389  26.412  1.00  0.00    -0.460 OA
BRANCH  31  32
ATOM     32  C   UNL A   1      41.430  19.265  26.241  1.00  0.00     0.338 C 
ATOM     33  O   UNL A   1      42.028  18.338  25.748  1.00  0.00    -0.246 OA
BRANCH  32  34
ATOM     34  C   UNL A   1      42.038  20.574  26.578  1.00  0.00     0.060 A 
ATOM     35  C   UNL A   1      41.978  21.029  27.903  1.00  0.00     0.016 A 
ATOM     36  C   UNL A   1      42.680  21.330  25.597  1.00  0.00     0.016 A 
ATOM     37  C   UNL A   1      42.530  22.264  28.243  1.00  0.00     0.010 A 
ATOM     38  C   UNL A   1      43.206  22.581  25.931  1.00  0.00     0.010 A 
ATOM     39  C   UNL A   1      43.097  23.067  27.247  1.00  0.00    -0.014 A 
BRANCH  39  40
ATOM     40  C   UNL A   1      43.349  24.501  27.523  1.00  0.00     0.031 A 
ATOM     41  C   UNL A   1      44.768  24.993  27.442  1.00  0.00     0.074 A 
ATOM     42  C   UNL A   1      42.351  25.353  27.815  1.00  0.00     0.049 A 
ATOM     43  N   UNL A   1      45.254  26.183  27.679  1.00  0.00    -0.248 NA
ATOM     44  C   UNL A   1      45.778  23.999  27.039  1.00  0.00     0.031 C 
ATOM     45  C   UNL A   1      40.932  25.013  27.869  1.00  0.00     0.029 A 
ATOM     46  N   UNL A   1      42.393  26.690  28.126  1.00  0.00    -0.354 N 
ATOM     47  C   UNL A   1      46.623  26.077  27.473  1.00  0.00     0.074 A 
ATOM     48  C   UNL A   1      46.896  24.703  27.116  1.00  0.00     0.031 C 
ATOM     49  C   UNL A   1      40.235  26.114  28.199  1.00  0.00     0.029 A 
ATOM     50  C   UNL A   1      41.161  27.225  28.415  1.00  0.00     0.049 A 
ATOM     51  H   UNL A   1      43.225  27.215  28.140  1.00  0.00     0.167 HD
ATOM     52  C   UNL A   1      47.570  27.039  27.569  1.00  0.00     0.037 A 
ATOM     53  C   UNL A   1      40.830  28.465  28.825  1.00  0.00     0.037 A 
ATOM     54  C   UNL A   1      47.296  28.406  27.925  1.00  0.00     0.049 A 
ATOM     55  C   UNL A   1      41.913  29.498  29.010  1.00  0.00     0.074 A 
ATOM     56  C   UNL A   1      48.180  29.465  28.020  1.00  0.00     0.029 A 
ATOM     57  N   UNL A   1      46.043  28.896  28.260  1.00  0.00    -0.354 N 
ATOM     58  N   UNL A   1      43.201  29.400  28.783  1.00  0.00    -0.248 NA
ATOM     59  C   UNL A   1      41.493  30.815  29.510  1.00  0.00     0.031 C 
ATOM     60  C   UNL A   1      47.474  30.582  28.476  1.00  0.00     0.029 A 
ATOM     61  C   UNL A   1      46.137  30.236  28.600  1.00  0.00     0.049 A 
ATOM     62  H   UNL A   1      45.211  28.372  28.256  1.00  0.00     0.167 HD
ATOM     63  C   UNL A   1      43.739  30.649  29.077  1.00  0.00     0.074 A 
ATOM     64  C   UNL A   1      42.635  31.489  29.491  1.00  0.00     0.031 C 
ATOM     65  C   UNL A   1      45.028  31.063  29.004  1.00  0.00     0.037 A 
BRANCH  52  66
ATOM     66  C   UNL A   1      48.995  26.630  27.334  1.00  0.00     0.057 A 
ATOM     67  C   UNL A   1      49.855  26.271  28.381  1.00  0.00     0.134 A 
ATOM     68  C   UNL A   1      49.514  26.591  26.034  1.00  0.00     0.134 A 
ATOM     69  F   UNL A   1      49.428  26.304  29.653  1.00  0.00    -0.206 F 
ATOM     70  C   UNL A   1      51.186  25.919  28.146  1.00  0.00     0.040 A 
ATOM     71  C   UNL A   1      50.833  26.210  25.782  1.00  0.00     0.040 A 
ATOM     72  F   UNL A   1      48.747  26.922  24.983  1.00  0.00    -0.206 F 
ATOM     73  C   UNL A   1      51.676  25.882  26.842  1.00  0.00     0.006 A 
ENDBRANCH  52  66
BRANCH  53  74
ATOM     74  C   UNL A   1      39.410  28.809  29.095  1.00  0.00     0.057 A 
ATOM     75  C   UNL A   1      38.600  29.365  28.098  1.00  0.00     0.134 A 
ATOM     76  C   UNL A   1      38.836  28.614  30.358  1.00  0.00     0.134 A 
ATOM     77  F   UNL A   1      39.099  29.600  26.876  1.00  0.00    -0.206 F 
ATOM     78  C   UNL A   1      37.276  29.730  28.350  1.00  0.00     0.040 A 
ATOM     79  C   UNL A   1      37.505  28.951  30.615  1.00  0.00     0.040 A 
ATOM     80  F   UNL A   1      39.558  28.089  31.358  1.00  0.00    -0.206 F 
ATOM     81  C   UNL A   1      36.723  29.517  29.611  1.00  0.00     0.006 A 
ENDBRANCH  53  74
BRANCH  65  82
ATOM     82  C   UNL A   1      45.314  32.502  29.334  1.00  0.00     0.057 A 
ATOM     83  C   UNL A   1      45.216  33.520  28.377  1.00  0.00     0.134 A 
ATOM     84  C   UNL A   1      45.647  32.877  30.643  1.00  0.00     0.134 A 
ATOM     85  F   UNL A   1      44.911  33.230  27.104  1.00  0.00    -0.206 F 
ATOM     86  C   UNL A   1      45.464  34.855  28.705  1.00  0.00     0.040 A 
ATOM     87  C   UNL A   1      45.866  34.211  30.989  1.00  0.00     0.040 A 
ATOM     88  F   UNL A   1      45.746  31.954  31.612  1.00  0.00    -0.206 F 
ATOM     89  C   UNL A   1      45.782  35.204  30.016  1.00  0.00     0.006 A 
ENDBRANCH  65  82
ENDBRANCH  39  40
ENDBRANCH  32  34
ENDBRANCH  31  32
ENDBRANCH  30  31
ENDBRANCH  29  30
ENDBRANCH  28  29
ENDBRANCH  27  28
ENDBRANCH  26  27
ENDBRANCH  25  26
ENDBRANCH   1  25
TORSDOF 23
ENDMDL
MODEL 2
REMARK VINA RESULT:      -9.2      4.041      5.995
REMARK SMILES C[C@@H]1C[N@@H+](CC(C)(C)C(=O)OCCOCCOCCOCCOC(=O)c2ccc(-c3c4nc(c(-c5c(F)cccc5F)c5ccc([nH]5)c(-c5c(F)cccc5F)c5nc(c(-c6c(F)cccc6F)c6ccc3[nH]6)C=C5)C=C4)cc2)CC[C@@H]1[NH3+]
REMARK SMILES IDX 16 1 15 2 14 3 13 4 12 5 11 6 9 7 10 8 6 9 7 10 8 11 5 12
REMARK SMILES IDX 4 13 1 14 2 15 3 16 82 17 81 18 80 19 83 21 17 25 18 26
REMARK SMILES IDX 19 27 20 28 21 29 22 30 23 31 24 32 25 33 26 34 27 35 79 36
REMARK SMILES IDX 28 37 78 38 29 39 30 40 31 41 72 42 32 43 77 44 71 45 73 46
REMARK SMILES IDX 33 47 76 48 70 49 69 50 34 52 60 53 43 54 59 55 44 56 47 57
REMARK SMILES IDX 58 58 74 59 45 60 46 61 57 63 75 64 48 65 35 66 36 67 41 68
REMARK SMILES IDX 37 69 38 70 40 71 42 72 39 73 61 74 62 75 67 76 63 77 64 78
REMARK SMILES IDX 66 79 68 80 65 81 49 82 50 83 55 84 51 85 52 86 54 87 56 88
REMARK SMILES IDX 53 89
REMARK H PARENT 4 20 83 22 83 23 83 24 73 51 47 62
REMARK Flexibility Score: inf
ROOT
ATOM      1  C   UNL A   1      37.343  21.391  24.502  1.00  0.00     0.188 C 
ENDROOT
BRANCH   1   2
ATOM      2  C   UNL A   1      36.254  20.751  25.371  1.00  0.00     0.188 C 
BRANCH   2   3
ATOM      3  O   UNL A   1      34.993  21.397  25.312  1.00  0.00    -0.376 OA
BRANCH   3   4
ATOM      4  C   UNL A   1      34.684  22.104  24.117  1.00  0.00     0.202 C 
BRANCH   4   5
ATOM      5  C   UNL A   1      33.352  21.782  23.420  1.00  0.00     0.261 C 
BRANCH   5   6
ATOM      6  O   UNL A   1      32.318  22.750  23.675  1.00  0.00    -0.463 OA
BRANCH   6   7
ATOM      7  C   UNL A   1      31.648  22.663  24.844  1.00  0.00     0.317 C 
ATOM      8  O   UNL A   1      31.419  21.596  25.401  1.00  0.00    -0.251 OA
BRANCH   7   9
ATOM      9  C   UNL A   1      31.240  24.031  25.419  1.00  0.00     0.111 C 
ATOM     10  C   UNL A   1      32.466  24.523  26.219  1.00  0.00     0.029 C 
ATOM     11  C   UNL A   1      30.100  23.974  26.480  1.00  0.00     0.029 C 
BRANCH   9  12
ATOM     12  C   UNL A   1      30.773  25.002  24.258  1.00  0.00     0.280 C 
BRANCH  12  13
ATOM     13  N   UNL A   1      31.286  26.377  24.066  1.00  0.00    -0.333 N 
ATOM     14  C   UNL A   1      31.176  29.863  24.732  1.00  0.00     0.020 C 
ATOM     15  C   UNL A   1      30.392  28.833  23.911  1.00  0.00     0.099 C 
ATOM     16  C   UNL A   1      30.396  27.432  24.562  1.00  0.00     0.271 C 
ATOM     17  C   UNL A   1      30.823  28.728  22.443  1.00  0.00     0.194 C 
ATOM     18  C   UNL A   1      32.172  28.018  22.364  1.00  0.00     0.126 C 
ATOM     19  C   UNL A   1      31.999  26.577  22.818  1.00  0.00     0.268 C 
ATOM     20  H   UNL A   1      32.058  26.498  24.721  1.00  0.00     0.348 HD
BRANCH  17  21
ATOM     21  N   UNL A   1      30.857  30.027  21.769  1.00  0.00    -0.355 N 
ATOM     22  H   UNL A   1      30.390  29.953  20.865  1.00  0.00     0.344 HD
ATOM     23  H   UNL A   1      31.825  30.313  21.630  1.00  0.00     0.344 HD
ATOM     24  H   UNL A   1      30.376  30.720  22.343  1.00  0.00     0.344 HD
ENDBRANCH  17  21
ENDBRANCH  12  13
ENDBRANCH   9  12
ENDBRANCH   7   9
ENDBRANCH   6   7
ENDBRANCH   5   6
ENDBRANCH   4   5
ENDBRANCH   3   4
ENDBRANCH   2   3
ENDBRANCH   1   2
BRANCH   1  25
ATOM     25  O   UNL A   1      38.404  22.071  25.149  1.00  0.00    -0.377 OA
BRANCH  25  26
ATOM     26  C   UNL A   1      39.353  21.307  25.889  1.00  0.00     0.188 C 
BRANCH  26  27
ATOM     27  C   UNL A   1      40.163  21.940  27.045  1.00  0.00     0.188 C 
BRANCH  27  28
ATOM     28  O   UNL A   1      41.334  21.238  27.425  1.00  0.00    -0.376 OA
BRANCH  28  29
ATOM     29  C   UNL A   1      42.159  20.729  26.388  1.00  0.00     0.202 C 
BRANCH  29  30
ATOM     30  C   UNL A   1      43.241  21.664  25.825  1.00  0.00     0.261 C 
BRANCH  30  31
ATOM     31  O   UNL A   1      42.780  22.763  25.021  1.00  0.00    -0.460 OA
BRANCH  31  32
ATOM     32  C   UNL A   1      43.563  23.864  24.946  1.00  0.00     0.338 C 
ATOM     33  O   UNL A   1      44.486  24.064  24.191  1.00  0.00    -0.246 OA
BRANCH  32  34
ATOM     34  C   UNL A   1      42.959  24.892  25.826  1.00  0.00     0.060 A 
ATOM     35  C   UNL A   1      43.687  26.055  26.111  1.00  0.00     0.016 A 
ATOM     36  C   UNL A   1      41.674  24.715  26.342  1.00  0.00     0.016 A 
ATOM     37  C   UNL A   1      43.146  27.031  26.948  1.00  0.00     0.010 A 
ATOM     38  C   UNL A   1      41.145  25.677  27.205  1.00  0.00     0.010 A 
ATOM     39  C   UNL A   1      41.895  26.820  27.540  1.00  0.00    -0.014 A 
BRANCH  39  40
ATOM     40  C   UNL A   1      41.483  27.658  28.691  1.00  0.00     0.031 A 
ATOM     41  C   UNL A   1      42.263  27.526  29.970  1.00  0.00     0.074 A 
ATOM     42  C   UNL A   1      40.463  28.528  28.605  1.00  0.00     0.049 A 
ATOM     43  N   UNL A   1      42.077  28.110  31.125  1.00  0.00    -0.248 NA
ATOM     44  C   UNL A   1      43.410  26.602  29.939  1.00  0.00     0.031 C 
ATOM     45  C   UNL A   1      39.667  28.789  27.409  1.00  0.00     0.029 A 
ATOM     46  N   UNL A   1      39.923  29.355  29.559  1.00  0.00    -0.354 N 
ATOM     47  C   UNL A   1      43.069  27.613  31.960  1.00  0.00     0.074 A 
ATOM     48  C   UNL A   1      43.838  26.661  31.190  1.00  0.00     0.031 C 
ATOM     49  C   UNL A   1      38.734  29.712  27.701  1.00  0.00     0.029 A 
ATOM     50  C   UNL A   1      38.844  30.078  29.113  1.00  0.00     0.049 A 
ATOM     51  H   UNL A   1      40.275  29.423  30.476  1.00  0.00     0.167 HD
ATOM     52  C   UNL A   1      43.320  27.922  33.253  1.00  0.00     0.037 A 
ATOM     53  C   UNL A   1      38.032  30.922  29.778  1.00  0.00     0.037 A 
ATOM     54  C   UNL A   1      42.553  28.869  34.018  1.00  0.00     0.049 A 
ATOM     55  C   UNL A   1      38.277  31.186  31.242  1.00  0.00     0.074 A 
ATOM     56  C   UNL A   1      42.744  29.277  35.326  1.00  0.00     0.029 A 
ATOM     57  N   UNL A   1      41.436  29.543  33.545  1.00  0.00    -0.354 N 
ATOM     58  N   UNL A   1      39.236  30.737  32.018  1.00  0.00    -0.248 NA
ATOM     59  C   UNL A   1      37.324  32.075  31.924  1.00  0.00     0.031 C 
ATOM     60  C   UNL A   1      41.704  30.149  35.665  1.00  0.00     0.029 A 
ATOM     61  C   UNL A   1      40.904  30.336  34.549  1.00  0.00     0.049 A 
ATOM     62  H   UNL A   1      41.076  29.469  32.633  1.00  0.00     0.167 HD
ATOM     63  C   UNL A   1      39.023  31.316  33.265  1.00  0.00     0.074 A 
ATOM     64  C   UNL A   1      37.849  32.154  33.139  1.00  0.00     0.031 C 
ATOM     65  C   UNL A   1      39.738  31.172  34.407  1.00  0.00     0.037 A 
BRANCH  52  66
ATOM     66  C   UNL A   1      44.441  27.191  33.933  1.00  0.00     0.057 A 
ATOM     67  C   UNL A   1      45.748  27.697  33.977  1.00  0.00     0.134 A 
ATOM     68  C   UNL A   1      44.206  25.960  34.557  1.00  0.00     0.134 A 
ATOM     69  F   UNL A   1      46.047  28.863  33.383  1.00  0.00    -0.206 F 
ATOM     70  C   UNL A   1      46.784  26.990  34.591  1.00  0.00     0.040 A 
ATOM     71  C   UNL A   1      45.227  25.259  35.201  1.00  0.00     0.040 A 
ATOM     72  F   UNL A   1      42.979  25.417  34.553  1.00  0.00    -0.206 F 
ATOM     73  C   UNL A   1      46.523  25.770  35.211  1.00  0.00     0.006 A 
ENDBRANCH  52  66
BRANCH  53  74
ATOM     74  C   UNL A   1      36.903  31.584  29.074  1.00  0.00     0.057 A 
ATOM     75  C   UNL A   1      37.004  32.909  28.634  1.00  0.00     0.134 A 
ATOM     76  C   UNL A   1      35.691  30.921  28.847  1.00  0.00     0.134 A 
ATOM     77  F   UNL A   1      38.130  33.607  28.846  1.00  0.00    -0.206 F 
ATOM     78  C   UNL A   1      35.937  33.556  28.007  1.00  0.00     0.040 A 
ATOM     79  C   UNL A   1      34.625  31.548  28.198  1.00  0.00     0.040 A 
ATOM     80  F   UNL A   1      35.527  29.652  29.247  1.00  0.00    -0.206 F 
ATOM     81  C   UNL A   1      34.744  32.872  27.783  1.00  0.00     0.006 A 
ENDBRANCH  53  74
BRANCH  65  82
ATOM     82  C   UNL A   1      39.303  31.971  35.605  1.00  0.00     0.057 A 
ATOM     83  C   UNL A   1      39.746  33.280  35.828  1.00  0.00     0.134 A 
ATOM     84  C   UNL A   1      38.389  31.434  36.522  1.00  0.00     0.134 A 
ATOM     85  F   UNL A   1      40.629  33.851  34.995  1.00  0.00    -0.206 F 
ATOM     86  C   UNL A   1      39.316  34.017  36.934  1.00  0.00     0.040 A 
ATOM     87  C   UNL A   1      37.927  32.172  37.613  1.00  0.00     0.040 A 
ATOM     88  F   UNL A   1      37.914  30.189  36.361  1.00  0.00    -0.206 F 
ATOM     89  C   UNL A   1      38.397  33.466  37.825  1.00  0.00     0.006 A 
ENDBRANCH  65  82
ENDBRANCH  39  40
ENDBRANCH  32  34
ENDBRANCH  31  32
ENDBRANCH  30  31
ENDBRANCH  29  30
ENDBRANCH  28  29
ENDBRANCH  27  28
ENDBRANCH  26  27
ENDBRANCH  25  26
ENDBRANCH   1  25
TORSDOF 23
ENDMDL
MODEL 3
REMARK VINA RESULT:      -9.1      0.493      6.105
REMARK SMILES C[C@@H]1C[N@@H+](CC(C)(C)C(=O)OCCOCCOCCOCCOC(=O)c2ccc(-c3c4nc(c(-c5c(F)cccc5F)c5ccc([nH]5)c(-c5c(F)cccc5F)c5nc(c(-c6c(F)cccc6F)c6ccc3[nH]6)C=C5)C=C4)cc2)CC[C@@H]1[NH3+]
REMARK SMILES IDX 16 1 15 2 14 3 13 4 12 5 11 6 9 7 10 8 6 9 7 10 8 11 5 12
REMARK SMILES IDX 4 13 1 14 2 15 3 16 82 17 81 18 80 19 83 21 17 25 18 26
REMARK SMILES IDX 19 27 20 28 21 29 22 30 23 31 24 32 25 33 26 34 27 35 79 36
REMARK SMILES IDX 28 37 78 38 29 39 30 40 31 41 72 42 32 43 77 44 71 45 73 46
REMARK SMILES IDX 33 47 76 48 70 49 69 50 34 52 60 53 43 54 59 55 44 56 47 57
REMARK SMILES IDX 58 58 74 59 45 60 46 61 57 63 75 64 48 65 35 66 36 67 41 68
REMARK SMILES IDX 37 69 38 70 40 71 42 72 39 73 61 74 62 75 67 76 63 77 64 78
REMARK SMILES IDX 66 79 68 80 65 81 49 82 50 83 55 84 51 85 52 86 54 87 56 88
REMARK SMILES IDX 53 89
REMARK H PARENT 4 20 83 22 83 23 83 24 73 51 47 62
REMARK Flexibility Score: inf
ROOT
ATOM      1  C   UNL A   1      33.811  22.385  26.504  1.00  0.00     0.188 C 
ENDROOT
BRANCH   1   2
ATOM      2  C   UNL A   1      32.969  22.347  27.784  1.00  0.00     0.188 C 
BRANCH   2   3
ATOM      3  O   UNL A   1      31.718  23.008  27.690  1.00  0.00    -0.376 OA
BRANCH   3   4
ATOM      4  C   UNL A   1      31.598  24.028  26.706  1.00  0.00     0.202 C 
BRANCH   4   5
ATOM      5  C   UNL A   1      30.710  23.741  25.485  1.00  0.00     0.261 C 
BRANCH   5   6
ATOM      6  O   UNL A   1      31.440  23.658  24.247  1.00  0.00    -0.463 OA
BRANCH   6   7
ATOM      7  C   UNL A   1      31.510  24.768  23.481  1.00  0.00     0.317 C 
ATOM      8  O   UNL A   1      30.570  25.542  23.345  1.00  0.00    -0.251 OA
BRANCH   7   9
ATOM      9  C   UNL A   1      32.891  24.981  22.836  1.00  0.00     0.111 C 
ATOM     10  C   UNL A   1      32.604  25.487  21.406  1.00  0.00     0.029 C 
ATOM     11  C   UNL A   1      33.709  23.673  22.613  1.00  0.00     0.029 C 
BRANCH   9  12
ATOM     12  C   UNL A   1      33.770  25.957  23.721  1.00  0.00     0.280 C 
BRANCH  12  13
ATOM     13  N   UNL A   1      33.214  26.951  24.667  1.00  0.00    -0.333 N 
ATOM     14  C   UNL A   1      31.578  30.030  25.344  1.00  0.00     0.020 C 
ATOM     15  C   UNL A   1      32.969  29.546  24.913  1.00  0.00     0.099 C 
ATOM     16  C   UNL A   1      32.908  28.254  24.068  1.00  0.00     0.271 C 
ATOM     17  C   UNL A   1      33.966  29.371  26.064  1.00  0.00     0.194 C 
ATOM     18  C   UNL A   1      33.594  28.128  26.868  1.00  0.00     0.126 C 
ATOM     19  C   UNL A   1      33.793  26.898  25.996  1.00  0.00     0.268 C 
ATOM     20  H   UNL A   1      32.264  26.650  24.886  1.00  0.00     0.348 HD
BRANCH  17  21
ATOM     21  N   UNL A   1      34.059  30.556  26.917  1.00  0.00    -0.355 N 
ATOM     22  H   UNL A   1      34.398  31.345  26.367  1.00  0.00     0.344 HD
ATOM     23  H   UNL A   1      34.705  30.374  27.685  1.00  0.00     0.344 HD
ATOM     24  H   UNL A   1      33.137  30.778  27.294  1.00  0.00     0.344 HD
ENDBRANCH  17  21
ENDBRANCH  12  13
ENDBRANCH   9  12
ENDBRANCH   7   9
ENDBRANCH   6   7
ENDBRANCH   5   6
ENDBRANCH   4   5
ENDBRANCH   3   4
ENDBRANCH   2   3
ENDBRANCH   1   2
BRANCH   1  25
ATOM     25  O   UNL A   1      35.194  22.668  26.619  1.00  0.00    -0.377 OA
BRANCH  25  26
ATOM     26  C   UNL A   1      35.737  23.740  25.853  1.00  0.00     0.188 C 
BRANCH  26  27
ATOM     27  C   UNL A   1      37.034  23.560  25.030  1.00  0.00     0.188 C 
BRANCH  27  28
ATOM     28  O   UNL A   1      37.506  22.228  24.920  1.00  0.00    -0.376 OA
BRANCH  28  29
ATOM     29  C   UNL A   1      38.636  21.867  25.699  1.00  0.00     0.202 C 
BRANCH  29  30
ATOM     30  C   UNL A   1      39.109  20.405  25.621  1.00  0.00     0.261 C 
BRANCH  30  31
ATOM     31  O   UNL A   1      40.005  19.969  26.657  1.00  0.00    -0.460 OA
BRANCH  31  32
ATOM     32  C   UNL A   1      41.295  19.736  26.320  1.00  0.00     0.338 C 
ATOM     33  O   UNL A   1      41.737  18.803  25.692  1.00  0.00    -0.246 OA
BRANCH  32  34
ATOM     34  C   UNL A   1      42.067  20.949  26.679  1.00  0.00     0.060 A 
ATOM     35  C   UNL A   1      42.136  21.335  28.025  1.00  0.00     0.016 A 
ATOM     36  C   UNL A   1      42.734  21.681  25.696  1.00  0.00     0.016 A 
ATOM     37  C   UNL A   1      42.843  22.481  28.388  1.00  0.00     0.010 A 
ATOM     38  C   UNL A   1      43.417  22.846  26.056  1.00  0.00     0.010 A 
ATOM     39  C   UNL A   1      43.441  23.269  27.398  1.00  0.00    -0.014 A 
BRANCH  39  40
ATOM     40  C   UNL A   1      43.870  24.649  27.725  1.00  0.00     0.031 A 
ATOM     41  C   UNL A   1      42.805  25.650  28.079  1.00  0.00     0.074 A 
ATOM     42  C   UNL A   1      45.165  25.006  27.732  1.00  0.00     0.049 A 
ATOM     43  N   UNL A   1      42.914  26.922  28.358  1.00  0.00    -0.248 NA
ATOM     44  C   UNL A   1      41.423  25.141  28.117  1.00  0.00     0.031 C 
ATOM     45  C   UNL A   1      46.293  24.118  27.463  1.00  0.00     0.029 A 
ATOM     46  N   UNL A   1      45.744  26.227  27.975  1.00  0.00    -0.354 N 
ATOM     47  C   UNL A   1      41.619  27.368  28.589  1.00  0.00     0.074 A 
ATOM     48  C   UNL A   1      40.737  26.239  28.391  1.00  0.00     0.031 C 
ATOM     49  C   UNL A   1      47.433  24.826  27.551  1.00  0.00     0.029 A 
ATOM     50  C   UNL A   1      47.112  26.222  27.847  1.00  0.00     0.049 A 
ATOM     51  H   UNL A   1      45.230  27.030  28.219  1.00  0.00     0.167 HD
ATOM     52  C   UNL A   1      41.200  28.607  28.936  1.00  0.00     0.037 A 
ATOM     53  C   UNL A   1      47.995  27.235  27.938  1.00  0.00     0.037 A 
ATOM     54  C   UNL A   1      42.080  29.729  29.132  1.00  0.00     0.049 A 
ATOM     55  C   UNL A   1      47.496  28.626  28.241  1.00  0.00     0.074 A 
ATOM     56  C   UNL A   1      41.759  31.018  29.515  1.00  0.00     0.029 A 
ATOM     57  N   UNL A   1      43.453  29.695  28.942  1.00  0.00    -0.354 N 
ATOM     58  N   UNL A   1      46.275  29.035  28.489  1.00  0.00    -0.248 NA
ATOM     59  C   UNL A   1      48.503  29.697  28.275  1.00  0.00     0.031 C 
ATOM     60  C   UNL A   1      42.930  31.783  29.494  1.00  0.00     0.029 A 
ATOM     61  C   UNL A   1      43.990  30.953  29.163  1.00  0.00     0.049 A 
ATOM     62  H   UNL A   1      43.969  28.897  28.688  1.00  0.00     0.167 HD
ATOM     63  C   UNL A   1      46.371  30.399  28.743  1.00  0.00     0.074 A 
ATOM     64  C   UNL A   1      47.772  30.746  28.628  1.00  0.00     0.031 C 
ATOM     65  C   UNL A   1      45.389  31.282  29.051  1.00  0.00     0.037 A 
BRANCH  52  66
ATOM     66  C   UNL A   1      39.721  28.821  29.077  1.00  0.00     0.057 A 
ATOM     67  C   UNL A   1      39.052  28.649  30.297  1.00  0.00     0.134 A 
ATOM     68  C   UNL A   1      38.954  29.210  27.972  1.00  0.00     0.134 A 
ATOM     69  F   UNL A   1      39.723  28.258  31.392  1.00  0.00    -0.206 F 
ATOM     70  C   UNL A   1      37.670  28.826  30.404  1.00  0.00     0.040 A 
ATOM     71  C   UNL A   1      37.578  29.421  28.073  1.00  0.00     0.040 A 
ATOM     72  F   UNL A   1      39.530  29.394  26.774  1.00  0.00    -0.206 F 
ATOM     73  C   UNL A   1      36.931  29.220  29.290  1.00  0.00     0.006 A 
ENDBRANCH  52  66
BRANCH  53  74
ATOM     74  C   UNL A   1      49.446  26.984  27.740  1.00  0.00     0.057 A 
ATOM     75  C   UNL A   1      50.283  26.694  28.825  1.00  0.00     0.134 A 
ATOM     76  C   UNL A   1      50.035  27.052  26.472  1.00  0.00     0.134 A 
ATOM     77  F   UNL A   1      49.783  26.641  30.068  1.00  0.00    -0.206 F 
ATOM     78  C   UNL A   1      51.654  26.495  28.658  1.00  0.00     0.040 A 
ATOM     79  C   UNL A   1      51.401  26.829  26.288  1.00  0.00     0.040 A 
ATOM     80  F   UNL A   1      49.290  27.329  25.392  1.00  0.00    -0.206 F 
ATOM     81  C   UNL A   1      52.217  26.557  27.384  1.00  0.00     0.006 A 
ENDBRANCH  53  74
BRANCH  65  82
ATOM     82  C   UNL A   1      45.796  32.703  29.332  1.00  0.00     0.057 A 
ATOM     83  C   UNL A   1      45.811  33.685  28.335  1.00  0.00     0.134 A 
ATOM     84  C   UNL A   1      46.132  33.100  30.634  1.00  0.00     0.134 A 
ATOM     85  F   UNL A   1      45.510  33.371  27.066  1.00  0.00    -0.206 F 
ATOM     86  C   UNL A   1      46.171  35.005  28.617  1.00  0.00     0.040 A 
ATOM     87  C   UNL A   1      46.463  34.422  30.934  1.00  0.00     0.040 A 
ATOM     88  F   UNL A   1      46.126  32.212  31.640  1.00  0.00    -0.206 F 
ATOM     89  C   UNL A   1      46.490  35.378  29.921  1.00  0.00     0.006 A 
ENDBRANCH  65  82
ENDBRANCH  39  40
ENDBRANCH  32  34
ENDBRANCH  31  32
ENDBRANCH  30  31
ENDBRANCH  29  30
ENDBRANCH  28  29
ENDBRANCH  27  28
ENDBRANCH  26  27
ENDBRANCH  25  26
ENDBRANCH   1  25
TORSDOF 23
ENDMDL
