MODEL 1
REMARK VINA RESULT:     -11.1      0.000      0.000
REMARK SMILES C#Cc1cccc(NS(=O)(=O)c2cc(C)c(C(=O)OCCOCCOCCOCCOC(=O)c3ccc(-c4c5nc(c(-c6c(F)cccc6F)c6ccc([nH]6)c(-c6c(F)cccc6F)c6nc(c(-c7c(F)cccc7F)c7ccc4[nH]7)C=C6)C=C5)cc3)s2)c1
REMARK SMILES IDX 24 1 23 2 22 3 21 4 20 5 19 6 17 7 18 8 16 9 12 10 13 11
REMARK SMILES IDX 88 12 14 13 15 14 9 15 10 16 11 17 8 18 7 20 3 21 4 22 89 23
REMARK SMILES IDX 5 24 6 25 2 26 1 27 25 28 26 29 27 30 28 31 29 32 30 33
REMARK SMILES IDX 31 34 32 35 33 36 34 37 35 38 87 39 36 40 86 41 37 42 38 43
REMARK SMILES IDX 39 44 80 45 40 46 85 47 79 48 81 49 41 50 84 51 78 52 77 53
REMARK SMILES IDX 42 55 68 56 51 57 67 58 52 59 55 60 66 61 82 62 53 63 54 64
REMARK SMILES IDX 65 66 83 67 56 68 43 69 44 70 49 71 45 72 46 73 48 74 50 75
REMARK SMILES IDX 47 76 69 77 70 78 75 79 71 80 72 81 74 82 76 83 73 84 57 85
REMARK SMILES IDX 58 86 63 87 59 88 60 89 62 90 64 91 61 92
REMARK H PARENT 8 19 81 54 55 65
REMARK Flexibility Score: inf
ROOT
ATOM      1  C   UNL A   1      41.121  20.326  27.143  1.00  0.00     0.188 C 
ENDROOT
BRANCH   1   2
ATOM      2  C   UNL A   1      40.409  21.248  26.125  1.00  0.00     0.188 C 
BRANCH   2   3
ATOM      3  O   UNL A   1      39.236  21.880  26.586  1.00  0.00    -0.376 OA
BRANCH   3   4
ATOM      4  C   UNL A   1      38.268  22.470  25.751  1.00  0.00     0.202 C 
BRANCH   4   5
ATOM      5  C   UNL A   1      37.111  21.695  25.119  1.00  0.00     0.261 C 
BRANCH   5   6
ATOM      6  O   UNL A   1      35.904  22.411  24.904  1.00  0.00    -0.459 OA
BRANCH   6   7
ATOM      7  C   UNL A   1      34.783  21.695  24.637  1.00  0.00     0.348 C 
ATOM      8  O   UNL A   1      34.564  20.575  25.081  1.00  0.00    -0.245 OA
BRANCH   7   9
ATOM      9  C   UNL A   1      33.888  22.507  23.831  1.00  0.00     0.116 A 
ATOM     10  C   UNL A   1      32.930  24.390  22.531  1.00  0.00     0.141 A 
ATOM     11  C   UNL A   1      32.037  23.367  22.769  1.00  0.00     0.038 A 
ATOM     12  S   UNL A   1      34.328  24.145  23.496  1.00  0.00    -0.115 S 
ATOM     13  C   UNL A   1      32.733  22.170  23.137  1.00  0.00    -0.024 A 
ATOM     14  C   UNL A   1      32.196  20.814  22.799  1.00  0.00     0.046 C 
BRANCH  10  15
ATOM     15  S   UNL A   1      32.934  25.802  21.443  1.00  0.00     0.271 S 
ATOM     16  O   UNL A   1      32.925  25.234  20.111  1.00  0.00    -0.200 OA
ATOM     17  O   UNL A   1      34.023  26.636  21.904  1.00  0.00    -0.200 OA
BRANCH  15  18
ATOM     18  N   UNL A   1      31.549  26.759  21.580  1.00  0.00    -0.279 N 
ATOM     19  H   UNL A   1      30.895  26.717  20.845  1.00  0.00     0.180 HD
BRANCH  18  20
ATOM     20  C   UNL A   1      31.251  27.621  22.674  1.00  0.00     0.050 A 
ATOM     21  C   UNL A   1      30.076  29.592  23.462  1.00  0.00     0.026 A 
ATOM     22  C   UNL A   1      30.870  29.605  24.608  1.00  0.00     0.017 A 
ATOM     23  C   UNL A   1      30.284  28.616  22.481  1.00  0.00     0.044 A 
ATOM     24  C   UNL A   1      31.732  28.543  24.857  1.00  0.00     0.003 A 
ATOM     25  C   UNL A   1      31.855  27.507  23.926  1.00  0.00     0.027 A 
BRANCH  21  26
ATOM     26  C   UNL A   1      29.008  30.542  23.371  1.00  0.00    -0.070 C 
ATOM     27  C   UNL A   1      28.209  31.415  23.190  1.00  0.00     0.010 C 
ENDBRANCH  21  26
ENDBRANCH  18  20
ENDBRANCH  15  18
ENDBRANCH  10  15
ENDBRANCH   7   9
ENDBRANCH   6   7
ENDBRANCH   5   6
ENDBRANCH   4   5
ENDBRANCH   3   4
ENDBRANCH   2   3
ENDBRANCH   1   2
BRANCH   1  28
ATOM     28  O   UNL A   1      42.440  19.852  26.910  1.00  0.00    -0.377 OA
BRANCH  28  29
ATOM     29  C   UNL A   1      42.750  19.094  25.746  1.00  0.00     0.188 C 
BRANCH  29  30
ATOM     30  C   UNL A   1      44.155  19.100  25.096  1.00  0.00     0.188 C 
BRANCH  30  31
ATOM     31  O   UNL A   1      44.548  20.337  24.551  1.00  0.00    -0.376 OA
BRANCH  31  32
ATOM     32  C   UNL A   1      45.692  21.011  25.024  1.00  0.00     0.202 C 
BRANCH  32  33
ATOM     33  C   UNL A   1      45.570  22.175  26.017  1.00  0.00     0.261 C 
BRANCH  33  34
ATOM     34  O   UNL A   1      44.259  22.698  26.259  1.00  0.00    -0.460 OA
BRANCH  34  35
ATOM     35  C   UNL A   1      43.853  23.715  25.466  1.00  0.00     0.338 C 
ATOM     36  O   UNL A   1      43.862  23.754  24.250  1.00  0.00    -0.246 OA
BRANCH  35  37
ATOM     37  C   UNL A   1      43.208  24.722  26.335  1.00  0.00     0.060 A 
ATOM     38  C   UNL A   1      43.720  26.027  26.371  1.00  0.00     0.016 A 
ATOM     39  C   UNL A   1      42.100  24.373  27.107  1.00  0.00     0.016 A 
ATOM     40  C   UNL A   1      43.140  26.981  27.204  1.00  0.00     0.010 A 
ATOM     41  C   UNL A   1      41.537  25.322  27.963  1.00  0.00     0.010 A 
ATOM     42  C   UNL A   1      42.077  26.620  28.039  1.00  0.00    -0.014 A 
BRANCH  42  43
ATOM     43  C   UNL A   1      41.653  27.531  29.128  1.00  0.00     0.031 A 
ATOM     44  C   UNL A   1      42.398  27.480  30.432  1.00  0.00     0.074 A 
ATOM     45  C   UNL A   1      40.636  28.393  28.962  1.00  0.00     0.049 A 
ATOM     46  N   UNL A   1      42.168  28.119  31.549  1.00  0.00    -0.248 NA
ATOM     47  C   UNL A   1      43.559  26.576  30.482  1.00  0.00     0.031 C 
ATOM     48  C   UNL A   1      39.869  28.569  27.731  1.00  0.00     0.029 A 
ATOM     49  N   UNL A   1      40.068  29.275  29.846  1.00  0.00    -0.354 N 
ATOM     50  C   UNL A   1      43.143  27.685  32.437  1.00  0.00     0.074 A 
ATOM     51  C   UNL A   1      43.944  26.702  31.741  1.00  0.00     0.031 C 
ATOM     52  C   UNL A   1      38.917  29.494  27.943  1.00  0.00     0.029 A 
ATOM     53  C   UNL A   1      38.982  29.942  29.333  1.00  0.00     0.049 A 
ATOM     54  H   UNL A   1      40.406  29.417  30.760  1.00  0.00     0.167 HD
ATOM     55  C   UNL A   1      43.356  28.077  33.715  1.00  0.00     0.037 A 
ATOM     56  C   UNL A   1      38.124  30.792  29.930  1.00  0.00     0.037 A 
ATOM     57  C   UNL A   1      42.548  29.049  34.404  1.00  0.00     0.049 A 
ATOM     58  C   UNL A   1      38.325  31.148  31.381  1.00  0.00     0.074 A 
ATOM     59  C   UNL A   1      42.688  29.528  35.694  1.00  0.00     0.029 A 
ATOM     60  N   UNL A   1      41.436  29.678  33.863  1.00  0.00    -0.354 N 
ATOM     61  N   UNL A   1      39.263  30.752  32.210  1.00  0.00    -0.248 NA
ATOM     62  C   UNL A   1      37.350  32.071  31.978  1.00  0.00     0.031 C 
ATOM     63  C   UNL A   1      41.619  30.389  35.958  1.00  0.00     0.029 A 
ATOM     64  C   UNL A   1      40.859  30.513  34.805  1.00  0.00     0.049 A 
ATOM     65  H   UNL A   1      41.105  29.550  32.943  1.00  0.00     0.167 HD
ATOM     66  C   UNL A   1      39.012  31.406  33.412  1.00  0.00     0.074 A 
ATOM     67  C   UNL A   1      37.841  32.230  33.199  1.00  0.00     0.031 C 
ATOM     68  C   UNL A   1      39.694  31.334  34.581  1.00  0.00     0.037 A 
BRANCH  55  69
ATOM     69  C   UNL A   1      44.481  27.419  34.463  1.00  0.00     0.057 A 
ATOM     70  C   UNL A   1      45.791  27.917  34.434  1.00  0.00     0.134 A 
ATOM     71  C   UNL A   1      44.247  26.272  35.233  1.00  0.00     0.134 A 
ATOM     72  F   UNL A   1      46.091  29.003  33.706  1.00  0.00    -0.206 F 
ATOM     73  C   UNL A   1      46.832  27.279  35.114  1.00  0.00     0.040 A 
ATOM     74  C   UNL A   1      45.271  25.648  35.947  1.00  0.00     0.040 A 
ATOM     75  F   UNL A   1      43.017  25.742  35.311  1.00  0.00    -0.206 F 
ATOM     76  C   UNL A   1      46.570  26.145  35.878  1.00  0.00     0.006 A 
ENDBRANCH  55  69
BRANCH  56  77
ATOM     77  C   UNL A   1      36.984  31.356  29.161  1.00  0.00     0.057 A 
ATOM     78  C   UNL A   1      36.985  32.689  28.734  1.00  0.00     0.134 A 
ATOM     79  C   UNL A   1      35.861  30.581  28.847  1.00  0.00     0.134 A 
ATOM     80  F   UNL A   1      38.022  33.490  29.023  1.00  0.00    -0.206 F 
ATOM     81  C   UNL A   1      35.904  33.236  28.040  1.00  0.00     0.040 A 
ATOM     82  C   UNL A   1      34.787  31.106  28.127  1.00  0.00     0.040 A 
ATOM     83  F   UNL A   1      35.797  29.295  29.225  1.00  0.00    -0.206 F 
ATOM     84  C   UNL A   1      34.804  32.440  27.729  1.00  0.00     0.006 A 
ENDBRANCH  56  77
BRANCH  68  85
ATOM     85  C   UNL A   1      39.227  32.208  35.714  1.00  0.00     0.057 A 
ATOM     86  C   UNL A   1      39.620  33.547  35.840  1.00  0.00     0.134 A 
ATOM     87  C   UNL A   1      38.330  31.709  36.670  1.00  0.00     0.134 A 
ATOM     88  F   UNL A   1      40.483  34.087  34.966  1.00  0.00    -0.206 F 
ATOM     89  C   UNL A   1      39.163  34.347  36.889  1.00  0.00     0.040 A 
ATOM     90  C   UNL A   1      37.839  32.510  37.702  1.00  0.00     0.040 A 
ATOM     91  F   UNL A   1      37.901  30.439  36.605  1.00  0.00    -0.206 F 
ATOM     92  C   UNL A   1      38.263  33.830  37.818  1.00  0.00     0.006 A 
ENDBRANCH  68  85
ENDBRANCH  42  43
ENDBRANCH  35  37
ENDBRANCH  34  35
ENDBRANCH  33  34
ENDBRANCH  32  33
ENDBRANCH  31  32
ENDBRANCH  30  31
ENDBRANCH  29  30
ENDBRANCH  28  29
ENDBRANCH   1  28
TORSDOF 24
ENDMDL
MODEL 2
REMARK VINA RESULT:     -11.0      1.757      2.031
REMARK SMILES C#Cc1cccc(NS(=O)(=O)c2cc(C)c(C(=O)OCCOCCOCCOCCOC(=O)c3ccc(-c4c5nc(c(-c6c(F)cccc6F)c6ccc([nH]6)c(-c6c(F)cccc6F)c6nc(c(-c7c(F)cccc7F)c7ccc4[nH]7)C=C6)C=C5)cc3)s2)c1
REMARK SMILES IDX 24 1 23 2 22 3 21 4 20 5 19 6 17 7 18 8 16 9 12 10 13 11
REMARK SMILES IDX 88 12 14 13 15 14 9 15 10 16 11 17 8 18 7 20 3 21 4 22 89 23
REMARK SMILES IDX 5 24 6 25 2 26 1 27 25 28 26 29 27 30 28 31 29 32 30 33
REMARK SMILES IDX 31 34 32 35 33 36 34 37 35 38 87 39 36 40 86 41 37 42 38 43
REMARK SMILES IDX 39 44 80 45 40 46 85 47 79 48 81 49 41 50 84 51 78 52 77 53
REMARK SMILES IDX 42 55 68 56 51 57 67 58 52 59 55 60 66 61 82 62 53 63 54 64
REMARK SMILES IDX 65 66 83 67 56 68 43 69 44 70 49 71 45 72 46 73 48 74 50 75
REMARK SMILES IDX 47 76 69 77 70 78 75 79 71 80 72 81 74 82 76 83 73 84 57 85
REMARK SMILES IDX 58 86 63 87 59 88 60 89 62 90 64 91 61 92
REMARK H PARENT 8 19 81 54 55 65
REMARK Flexibility Score: inf
ROOT
ATOM      1  C   UNL A   1      39.724  22.409  26.631  1.00  0.00     0.188 C 
ENDROOT
BRANCH   1   2
ATOM      2  C   UNL A   1      38.637  23.446  26.262  1.00  0.00     0.188 C 
BRANCH   2   3
ATOM      3  O   UNL A   1      37.651  23.004  25.356  1.00  0.00    -0.376 OA
BRANCH   3   4
ATOM      4  C   UNL A   1      36.416  22.445  25.733  1.00  0.00     0.202 C 
BRANCH   4   5
ATOM      5  C   UNL A   1      35.882  21.123  25.179  1.00  0.00     0.261 C 
BRANCH   5   6
ATOM      6  O   UNL A   1      34.591  20.722  25.615  1.00  0.00    -0.459 OA
BRANCH   6   7
ATOM      7  C   UNL A   1      33.625  20.572  24.674  1.00  0.00     0.348 C 
ATOM      8  O   UNL A   1      33.400  19.523  24.085  1.00  0.00    -0.245 OA
BRANCH   7   9
ATOM      9  C   UNL A   1      32.879  21.814  24.565  1.00  0.00     0.116 A 
ATOM     10  C   UNL A   1      31.342  23.698  25.050  1.00  0.00     0.141 A 
ATOM     11  C   UNL A   1      31.852  23.712  23.769  1.00  0.00     0.038 A 
ATOM     12  S   UNL A   1      31.708  22.189  25.780  1.00  0.00    -0.115 S 
ATOM     13  C   UNL A   1      33.015  22.880  23.684  1.00  0.00    -0.024 A 
ATOM     14  C   UNL A   1      34.134  23.187  22.739  1.00  0.00     0.046 C 
BRANCH  10  15
ATOM     15  S   UNL A   1      30.473  24.893  26.049  1.00  0.00     0.271 S 
ATOM     16  O   UNL A   1      29.786  24.099  27.047  1.00  0.00    -0.200 OA
ATOM     17  O   UNL A   1      29.750  25.722  25.110  1.00  0.00    -0.200 OA
BRANCH  15  18
ATOM     18  N   UNL A   1      31.500  25.947  26.879  1.00  0.00    -0.279 N 
ATOM     19  H   UNL A   1      31.654  25.768  27.835  1.00  0.00     0.180 HD
BRANCH  18  20
ATOM     20  C   UNL A   1      32.160  27.072  26.306  1.00  0.00     0.050 A 
ATOM     21  C   UNL A   1      32.165  29.470  25.941  1.00  0.00     0.026 A 
ATOM     22  C   UNL A   1      33.120  29.313  24.938  1.00  0.00     0.017 A 
ATOM     23  C   UNL A   1      31.663  28.347  26.608  1.00  0.00     0.044 A 
ATOM     24  C   UNL A   1      33.705  28.068  24.737  1.00  0.00     0.003 A 
ATOM     25  C   UNL A   1      33.282  26.966  25.486  1.00  0.00     0.027 A 
BRANCH  21  26
ATOM     26  C   UNL A   1      31.789  30.801  26.312  1.00  0.00    -0.070 C 
ATOM     27  C   UNL A   1      31.369  31.906  26.500  1.00  0.00     0.010 C 
ENDBRANCH  21  26
ENDBRANCH  18  20
ENDBRANCH  15  18
ENDBRANCH  10  15
ENDBRANCH   7   9
ENDBRANCH   6   7
ENDBRANCH   5   6
ENDBRANCH   4   5
ENDBRANCH   3   4
ENDBRANCH   2   3
ENDBRANCH   1   2
BRANCH   1  28
ATOM     28  O   UNL A   1      39.730  21.111  26.053  1.00  0.00    -0.377 OA
BRANCH  28  29
ATOM     29  C   UNL A   1      40.529  20.069  26.601  1.00  0.00     0.188 C 
BRANCH  29  30
ATOM     30  C   UNL A   1      42.076  20.106  26.582  1.00  0.00     0.188 C 
BRANCH  30  31
ATOM     31  O   UNL A   1      42.641  20.651  25.412  1.00  0.00    -0.376 OA
BRANCH  31  32
ATOM     32  C   UNL A   1      44.006  20.998  25.355  1.00  0.00     0.202 C 
BRANCH  32  33
ATOM     33  C   UNL A   1      44.474  22.243  24.590  1.00  0.00     0.261 C 
BRANCH  33  34
ATOM     34  O   UNL A   1      43.791  23.474  24.857  1.00  0.00    -0.460 OA
BRANCH  34  35
ATOM     35  C   UNL A   1      44.561  24.548  25.143  1.00  0.00     0.338 C 
ATOM     36  O   UNL A   1      45.617  24.859  24.625  1.00  0.00    -0.246 OA
BRANCH  35  37
ATOM     37  C   UNL A   1      43.799  25.401  26.078  1.00  0.00     0.060 A 
ATOM     38  C   UNL A   1      43.981  26.792  26.042  1.00  0.00     0.016 A 
ATOM     39  C   UNL A   1      42.908  24.826  26.983  1.00  0.00     0.016 A 
ATOM     40  C   UNL A   1      43.291  27.608  26.935  1.00  0.00     0.010 A 
ATOM     41  C   UNL A   1      42.239  25.643  27.896  1.00  0.00     0.010 A 
ATOM     42  C   UNL A   1      42.454  27.033  27.898  1.00  0.00    -0.014 A 
BRANCH  42  43
ATOM     43  C   UNL A   1      41.955  27.855  29.024  1.00  0.00     0.031 A 
ATOM     44  C   UNL A   1      42.680  27.781  30.338  1.00  0.00     0.074 A 
ATOM     45  C   UNL A   1      40.887  28.659  28.885  1.00  0.00     0.049 A 
ATOM     46  N   UNL A   1      42.391  28.342  31.483  1.00  0.00    -0.248 NA
ATOM     47  C   UNL A   1      43.896  26.950  30.363  1.00  0.00     0.031 C 
ATOM     48  C   UNL A   1      40.131  28.854  27.650  1.00  0.00     0.029 A 
ATOM     49  N   UNL A   1      40.249  29.454  29.803  1.00  0.00    -0.354 N 
ATOM     50  C   UNL A   1      43.377  27.923  32.367  1.00  0.00     0.074 A 
ATOM     51  C   UNL A   1      44.251  27.032  31.635  1.00  0.00     0.031 C 
ATOM     52  C   UNL A   1      39.118  29.703  27.892  1.00  0.00     0.029 A 
ATOM     53  C   UNL A   1      39.132  30.078  29.305  1.00  0.00     0.049 A 
ATOM     54  H   UNL A   1      40.562  29.567  30.730  1.00  0.00     0.167 HD
ATOM     55  C   UNL A   1      43.544  28.257  33.668  1.00  0.00     0.037 A 
ATOM     56  C   UNL A   1      38.211  30.838  29.930  1.00  0.00     0.037 A 
ATOM     57  C   UNL A   1      42.663  29.137  34.391  1.00  0.00     0.049 A 
ATOM     58  C   UNL A   1      38.365  31.126  31.401  1.00  0.00     0.074 A 
ATOM     59  C   UNL A   1      42.751  29.554  35.707  1.00  0.00     0.029 A 
ATOM     60  N   UNL A   1      41.522  29.723  33.862  1.00  0.00    -0.354 N 
ATOM     61  N   UNL A   1      39.312  30.746  32.226  1.00  0.00    -0.248 NA
ATOM     62  C   UNL A   1      37.323  31.953  32.027  1.00  0.00     0.031 C 
ATOM     63  C   UNL A   1      41.625  30.329  35.996  1.00  0.00     0.029 A 
ATOM     64  C   UNL A   1      40.878  30.468  34.836  1.00  0.00     0.049 A 
ATOM     65  H   UNL A   1      41.216  29.625  32.931  1.00  0.00     0.167 HD
ATOM     66  C   UNL A   1      39.001  31.317  33.456  1.00  0.00     0.074 A 
ATOM     67  C   UNL A   1      37.783  32.075  33.264  1.00  0.00     0.031 C 
ATOM     68  C   UNL A   1      39.667  31.224  34.633  1.00  0.00     0.037 A 
BRANCH  55  69
ATOM     69  C   UNL A   1      44.696  27.632  34.401  1.00  0.00     0.057 A 
ATOM     70  C   UNL A   1      45.953  28.246  34.483  1.00  0.00     0.134 A 
ATOM     71  C   UNL A   1      44.542  26.398  35.046  1.00  0.00     0.134 A 
ATOM     72  F   UNL A   1      46.177  29.423  33.878  1.00  0.00    -0.206 F 
ATOM     73  C   UNL A   1      47.022  27.641  35.147  1.00  0.00     0.040 A 
ATOM     74  C   UNL A   1      45.592  25.799  35.744  1.00  0.00     0.040 A 
ATOM     75  F   UNL A   1      43.365  25.753  35.013  1.00  0.00    -0.206 F 
ATOM     76  C   UNL A   1      46.840  26.416  35.785  1.00  0.00     0.006 A 
ENDBRANCH  55  69
BRANCH  56  77
ATOM     77  C   UNL A   1      37.050  31.370  29.169  1.00  0.00     0.057 A 
ATOM     78  C   UNL A   1      37.036  32.685  28.691  1.00  0.00     0.134 A 
ATOM     79  C   UNL A   1      35.921  30.582  28.915  1.00  0.00     0.134 A 
ATOM     80  F   UNL A   1      38.078  33.499  28.921  1.00  0.00    -0.206 F 
ATOM     81  C   UNL A   1      35.936  33.203  28.005  1.00  0.00     0.040 A 
ATOM     82  C   UNL A   1      34.827  31.076  28.203  1.00  0.00     0.040 A 
ATOM     83  F   UNL A   1      35.870  29.312  29.344  1.00  0.00    -0.206 F 
ATOM     84  C   UNL A   1      34.830  32.394  27.753  1.00  0.00     0.006 A 
ENDBRANCH  56  77
BRANCH  68  85
ATOM     85  C   UNL A   1      39.126  32.004  35.802  1.00  0.00     0.057 A 
ATOM     86  C   UNL A   1      39.497  33.331  36.054  1.00  0.00     0.134 A 
ATOM     87  C   UNL A   1      38.180  31.426  36.661  1.00  0.00     0.134 A 
ATOM     88  F   UNL A   1      40.403  33.943  35.277  1.00  0.00    -0.206 F 
ATOM     89  C   UNL A   1      38.972  34.044  37.134  1.00  0.00     0.040 A 
ATOM     90  C   UNL A   1      37.622  32.141  37.723  1.00  0.00     0.040 A 
ATOM     91  F   UNL A   1      37.769  30.163  36.472  1.00  0.00    -0.206 F 
ATOM     92  C   UNL A   1      38.025  33.451  37.966  1.00  0.00     0.006 A 
ENDBRANCH  68  85
ENDBRANCH  42  43
ENDBRANCH  35  37
ENDBRANCH  34  35
ENDBRANCH  33  34
ENDBRANCH  32  33
ENDBRANCH  31  32
ENDBRANCH  30  31
ENDBRANCH  29  30
ENDBRANCH  28  29
ENDBRANCH   1  28
TORSDOF 24
ENDMDL
MODEL 3
REMARK VINA RESULT:     -10.6      1.885      6.281
REMARK SMILES C#Cc1cccc(NS(=O)(=O)c2cc(C)c(C(=O)OCCOCCOCCOCCOC(=O)c3ccc(-c4c5nc(c(-c6c(F)cccc6F)c6ccc([nH]6)c(-c6c(F)cccc6F)c6nc(c(-c7c(F)cccc7F)c7ccc4[nH]7)C=C6)C=C5)cc3)s2)c1
REMARK SMILES IDX 24 1 23 2 22 3 21 4 20 5 19 6 17 7 18 8 16 9 12 10 13 11
REMARK SMILES IDX 88 12 14 13 15 14 9 15 10 16 11 17 8 18 7 20 3 21 4 22 89 23
REMARK SMILES IDX 5 24 6 25 2 26 1 27 25 28 26 29 27 30 28 31 29 32 30 33
REMARK SMILES IDX 31 34 32 35 33 36 34 37 35 38 87 39 36 40 86 41 37 42 38 43
REMARK SMILES IDX 39 44 80 45 40 46 85 47 79 48 81 49 41 50 84 51 78 52 77 53
REMARK SMILES IDX 42 55 68 56 51 57 67 58 52 59 55 60 66 61 82 62 53 63 54 64
REMARK SMILES IDX 65 66 83 67 56 68 43 69 44 70 49 71 45 72 46 73 48 74 50 75
REMARK SMILES IDX 47 76 69 77 70 78 75 79 71 80 72 81 74 82 76 83 73 84 57 85
REMARK SMILES IDX 58 86 63 87 59 88 60 89 62 90 64 91 61 92
REMARK H PARENT 8 19 81 54 55 65
REMARK Flexibility Score: inf
ROOT
ATOM      1  C   UNL A   1      40.028  23.001  27.166  1.00  0.00     0.188 C 
ENDROOT
BRANCH   1   2
ATOM      2  C   UNL A   1      38.969  24.071  26.807  1.00  0.00     0.188 C 
BRANCH   2   3
ATOM      3  O   UNL A   1      38.045  23.708  25.807  1.00  0.00    -0.376 OA
BRANCH   3   4
ATOM      4  C   UNL A   1      36.804  23.091  26.053  1.00  0.00     0.202 C 
BRANCH   4   5
ATOM      5  C   UNL A   1      36.448  21.685  25.568  1.00  0.00     0.261 C 
BRANCH   5   6
ATOM      6  O   UNL A   1      35.207  21.152  26.009  1.00  0.00    -0.459 OA
BRANCH   6   7
ATOM      7  C   UNL A   1      34.295  20.810  25.063  1.00  0.00     0.348 C 
ATOM      8  O   UNL A   1      34.244  19.709  24.528  1.00  0.00    -0.245 OA
BRANCH   7   9
ATOM      9  C   UNL A   1      33.374  21.917  24.877  1.00  0.00     0.116 A 
ATOM     10  C   UNL A   1      31.560  23.569  25.236  1.00  0.00     0.141 A 
ATOM     11  C   UNL A   1      32.092  23.595  23.965  1.00  0.00     0.038 A 
ATOM     12  S   UNL A   1      32.132  22.172  26.052  1.00  0.00    -0.115 S 
ATOM     13  C   UNL A   1      33.368  22.945  23.942  1.00  0.00    -0.024 A 
ATOM     14  C   UNL A   1      34.449  23.371  22.999  1.00  0.00     0.046 C 
BRANCH  10  15
ATOM     15  S   UNL A   1      30.498  24.667  26.157  1.00  0.00     0.271 S 
ATOM     16  O   UNL A   1      29.880  23.820  27.157  1.00  0.00    -0.200 OA
ATOM     17  O   UNL A   1      29.712  25.362  25.161  1.00  0.00    -0.200 OA
BRANCH  15  18
ATOM     18  N   UNL A   1      31.339  25.874  26.987  1.00  0.00    -0.279 N 
ATOM     19  H   UNL A   1      31.544  25.713  27.936  1.00  0.00     0.180 HD
BRANCH  18  20
ATOM     20  C   UNL A   1      31.776  27.107  26.421  1.00  0.00     0.050 A 
ATOM     21  C   UNL A   1      32.962  28.224  24.623  1.00  0.00     0.026 A 
ATOM     22  C   UNL A   1      33.019  29.388  25.387  1.00  0.00     0.017 A 
ATOM     23  C   UNL A   1      32.365  27.073  25.150  1.00  0.00     0.044 A 
ATOM     24  C   UNL A   1      32.319  29.457  26.586  1.00  0.00     0.003 A 
ATOM     25  C   UNL A   1      31.626  28.338  27.058  1.00  0.00     0.027 A 
BRANCH  21  26
ATOM     26  C   UNL A   1      33.451  28.274  23.278  1.00  0.00    -0.070 C 
ATOM     27  C   UNL A   1      34.007  28.310  22.218  1.00  0.00     0.010 C 
ENDBRANCH  21  26
ENDBRANCH  18  20
ENDBRANCH  15  18
ENDBRANCH  10  15
ENDBRANCH   7   9
ENDBRANCH   6   7
ENDBRANCH   5   6
ENDBRANCH   4   5
ENDBRANCH   3   4
ENDBRANCH   2   3
ENDBRANCH   1   2
BRANCH   1  28
ATOM     28  O   UNL A   1      39.990  21.705  26.586  1.00  0.00    -0.377 OA
BRANCH  28  29
ATOM     29  C   UNL A   1      40.943  20.712  26.950  1.00  0.00     0.188 C 
BRANCH  29  30
ATOM     30  C   UNL A   1      42.446  20.828  26.599  1.00  0.00     0.188 C 
BRANCH  30  31
ATOM     31  O   UNL A   1      42.723  21.544  25.417  1.00  0.00    -0.376 OA
BRANCH  31  32
ATOM     32  C   UNL A   1      44.049  21.783  25.005  1.00  0.00     0.202 C 
BRANCH  32  33
ATOM     33  C   UNL A   1      44.441  23.103  24.327  1.00  0.00     0.261 C 
BRANCH  33  34
ATOM     34  O   UNL A   1      43.777  24.292  24.770  1.00  0.00    -0.460 OA
BRANCH  34  35
ATOM     35  C   UNL A   1      44.562  25.299  25.213  1.00  0.00     0.338 C 
ATOM     36  O   UNL A   1      45.628  25.662  24.753  1.00  0.00    -0.246 OA
BRANCH  35  37
ATOM     37  C   UNL A   1      43.807  26.023  26.256  1.00  0.00     0.060 A 
ATOM     38  C   UNL A   1      44.080  27.379  26.486  1.00  0.00     0.016 A 
ATOM     39  C   UNL A   1      42.831  25.360  27.001  1.00  0.00     0.016 A 
ATOM     40  C   UNL A   1      43.396  28.069  27.484  1.00  0.00     0.010 A 
ATOM     41  C   UNL A   1      42.166  26.045  28.019  1.00  0.00     0.010 A 
ATOM     42  C   UNL A   1      42.470  27.393  28.287  1.00  0.00    -0.014 A 
BRANCH  42  43
ATOM     43  C   UNL A   1      41.964  28.031  29.524  1.00  0.00     0.031 A 
ATOM     44  C   UNL A   1      40.713  28.860  29.439  1.00  0.00     0.074 A 
ATOM     45  C   UNL A   1      42.592  27.872  30.701  1.00  0.00     0.049 A 
ATOM     46  N   UNL A   1      40.122  29.574  30.361  1.00  0.00    -0.248 NA
ATOM     47  C   UNL A   1      40.042  28.891  28.128  1.00  0.00     0.031 C 
ATOM     48  C   UNL A   1      43.783  27.056  30.920  1.00  0.00     0.029 A 
ATOM     49  N   UNL A   1      42.315  28.407  31.934  1.00  0.00    -0.354 N 
ATOM     50  C   UNL A   1      39.021  30.151  29.741  1.00  0.00     0.074 A 
ATOM     51  C   UNL A   1      39.046  29.732  28.356  1.00  0.00     0.031 C 
ATOM     52  C   UNL A   1      44.146  27.156  32.210  1.00  0.00     0.029 A 
ATOM     53  C   UNL A   1      43.238  28.075  32.895  1.00  0.00     0.049 A 
ATOM     54  H   UNL A   1      41.530  28.975  32.112  1.00  0.00     0.167 HD
ATOM     55  C   UNL A   1      38.070  30.950  30.279  1.00  0.00     0.037 A 
ATOM     56  C   UNL A   1      43.351  28.492  34.171  1.00  0.00     0.037 A 
ATOM     57  C   UNL A   1      38.058  31.370  31.656  1.00  0.00     0.049 A 
ATOM     58  C   UNL A   1      42.332  29.453  34.728  1.00  0.00     0.074 A 
ATOM     59  C   UNL A   1      37.132  32.166  32.307  1.00  0.00     0.029 A 
ATOM     60  N   UNL A   1      39.029  31.040  32.591  1.00  0.00    -0.354 N 
ATOM     61  N   UNL A   1      41.280  29.977  34.143  1.00  0.00    -0.248 NA
ATOM     62  C   UNL A   1      42.514  29.879  36.123  1.00  0.00     0.031 C 
ATOM     63  C   UNL A   1      37.581  32.379  33.613  1.00  0.00     0.029 A 
ATOM     64  C   UNL A   1      38.743  31.647  33.804  1.00  0.00     0.049 A 
ATOM     65  H   UNL A   1      39.806  30.460  32.419  1.00  0.00     0.167 HD
ATOM     66  C   UNL A   1      40.657  30.761  35.108  1.00  0.00     0.074 A 
ATOM     67  C   UNL A   1      41.444  30.636  36.316  1.00  0.00     0.031 C 
ATOM     68  C   UNL A   1      39.532  31.512  35.003  1.00  0.00     0.037 A 
BRANCH  55  69
ATOM     69  C   UNL A   1      36.992  31.457  29.363  1.00  0.00     0.057 A 
ATOM     70  C   UNL A   1      35.916  30.655  28.959  1.00  0.00     0.134 A 
ATOM     71  C   UNL A   1      37.027  32.774  28.887  1.00  0.00     0.134 A 
ATOM     72  F   UNL A   1      35.825  29.380  29.366  1.00  0.00    -0.206 F 
ATOM     73  C   UNL A   1      34.934  31.134  28.087  1.00  0.00     0.040 A 
ATOM     74  C   UNL A   1      36.033  33.274  28.045  1.00  0.00     0.040 A 
ATOM     75  F   UNL A   1      38.025  33.600  29.236  1.00  0.00    -0.206 F 
ATOM     76  C   UNL A   1      34.989  32.449  27.634  1.00  0.00     0.006 A 
ENDBRANCH  55  69
BRANCH  56  77
ATOM     77  C   UNL A   1      44.481  28.014  35.010  1.00  0.00     0.057 A 
ATOM     78  C   UNL A   1      45.678  28.733  35.096  1.00  0.00     0.134 A 
ATOM     79  C   UNL A   1      44.396  26.818  35.735  1.00  0.00     0.134 A 
ATOM     80  F   UNL A   1      45.830  29.875  34.407  1.00  0.00    -0.206 F 
ATOM     81  C   UNL A   1      46.756  28.274  35.855  1.00  0.00     0.040 A 
ATOM     82  C   UNL A   1      45.454  26.363  36.523  1.00  0.00     0.040 A 
ATOM     83  F   UNL A   1      43.276  26.081  35.699  1.00  0.00    -0.206 F 
ATOM     84  C   UNL A   1      46.641  27.088  36.578  1.00  0.00     0.006 A 
ENDBRANCH  56  77
BRANCH  68  85
ATOM     85  C   UNL A   1      39.049  32.218  36.241  1.00  0.00     0.057 A 
ATOM     86  C   UNL A   1      39.416  33.536  36.544  1.00  0.00     0.134 A 
ATOM     87  C   UNL A   1      38.162  31.580  37.120  1.00  0.00     0.134 A 
ATOM     88  F   UNL A   1      40.269  34.204  35.751  1.00  0.00    -0.206 F 
ATOM     89  C   UNL A   1      38.945  34.181  37.689  1.00  0.00     0.040 A 
ATOM     90  C   UNL A   1      37.656  32.228  38.249  1.00  0.00     0.040 A 
ATOM     91  F   UNL A   1      37.757  30.323  36.886  1.00  0.00    -0.206 F 
ATOM     92  C   UNL A   1      38.055  33.529  38.540  1.00  0.00     0.006 A 
ENDBRANCH  68  85
ENDBRANCH  42  43
ENDBRANCH  35  37
ENDBRANCH  34  35
ENDBRANCH  33  34
ENDBRANCH  32  33
ENDBRANCH  31  32
ENDBRANCH  30  31
ENDBRANCH  29  30
ENDBRANCH  28  29
ENDBRANCH   1  28
TORSDOF 24
ENDMDL
