MODEL 1
REMARK VINA RESULT:     -12.1      0.000      0.000
REMARK SMILES O=C(OCCOCCOCCOCCOC(=O)c1ccc(-c2c3nc(c(-c4c(F)cccc4F)c4ccc([nH]4)c(-c4c(F)cccc4F)c4nc(c(-c5c(F)cccc5F)c5ccc2[nH]5)C=C4)C=C3)cc1)C1=Cc2cc(Cl)cc(Cl)c2O[C@@H]1C(F)(F)F
REMARK SMILES IDX 10 1 9 2 8 3 7 4 6 5 5 6 4 7 3 8 2 9 1 10 72 11 73 12 83 13
REMARK SMILES IDX 74 14 82 15 75 16 81 17 76 18 79 19 77 20 78 21 80 22 84 23
REMARK SMILES IDX 85 24 86 25 87 26 11 27 12 28 13 29 14 30 15 31 16 32 17 33
REMARK SMILES IDX 18 34 19 35 71 36 20 37 70 38 21 39 22 40 23 41 64 42 24 43
REMARK SMILES IDX 69 44 63 45 65 46 25 47 68 48 62 49 61 50 26 52 52 53 35 54
REMARK SMILES IDX 51 55 36 56 39 57 50 58 66 59 37 60 38 61 49 63 67 64 40 65
REMARK SMILES IDX 27 66 28 67 33 68 29 69 30 70 32 71 34 72 31 73 53 74 54 75
REMARK SMILES IDX 59 76 55 77 56 78 58 79 60 80 57 81 41 82 42 83 47 84 43 85
REMARK SMILES IDX 44 86 46 87 48 88 45 89
REMARK H PARENT 65 51 39 62
REMARK Flexibility Score: inf
ROOT
ATOM      1  C   UNL A   1      33.293  36.620  29.346  1.00  0.00     0.188 C 
ENDROOT
BRANCH   1   2
ATOM      2  O   UNL A   1      32.558  35.585  28.739  1.00  0.00    -0.377 OA
BRANCH   2   3
ATOM      3  C   UNL A   1      33.251  34.360  28.770  1.00  0.00     0.188 C 
BRANCH   3   4
ATOM      4  C   UNL A   1      34.623  34.374  28.083  1.00  0.00     0.188 C 
BRANCH   4   5
ATOM      5  O   UNL A   1      35.330  33.173  27.617  1.00  0.00    -0.376 OA
BRANCH   5   6
ATOM      6  C   UNL A   1      34.950  31.561  27.593  1.00  0.00     0.202 C 
BRANCH   6   7
ATOM      7  C   UNL A   1      32.983  30.672  27.263  1.00  0.00     0.261 C 
BRANCH   7   8
ATOM      8  O   UNL A   1      32.518  29.947  26.024  1.00  0.00    -0.460 OA
BRANCH   8   9
ATOM      9  C   UNL A   1      31.982  28.753  26.306  1.00  0.00     0.338 C 
ATOM     10  O   UNL A   1      31.677  28.312  27.385  1.00  0.00    -0.246 OA
BRANCH   9  11
ATOM     11  C   UNL A   1      32.368  28.084  25.072  1.00  0.00     0.087 C 
ATOM     12  C   UNL A   1      33.571  27.249  25.183  1.00  0.00     0.027 C 
ATOM     13  C   UNL A   1      30.595  27.411  24.770  1.00  0.00     0.316 C 
ATOM     14  C   UNL A   1      33.554  25.451  25.298  1.00  0.00     0.020 A 
ATOM     15  O   UNL A   1      30.517  25.480  25.034  1.00  0.00    -0.474 OA
ATOM     16  C   UNL A   1      34.738  24.785  25.473  1.00  0.00     0.032 A 
ATOM     17  C   UNL A   1      32.075  24.545  25.338  1.00  0.00     0.146 A 
ATOM     18  C   UNL A   1      34.623  23.396  25.663  1.00  0.00     0.043 A 
ATOM     19  C   UNL A   1      32.072  23.195  25.598  1.00  0.00     0.085 A 
ATOM     20  Cl  UNL A   1      36.103  22.518  25.889  1.00  0.00    -0.084 Cl
ATOM     21  C   UNL A   1      33.376  22.647  25.728  1.00  0.00     0.045 A 
ATOM     22  Cl  UNL A   1      30.703  22.228  25.891  1.00  0.00    -0.080 Cl
BRANCH  13  23
ATOM     23  C   UNL A   1      30.376  28.378  23.420  1.00  0.00     0.430 C 
ATOM     24  F   UNL A   1      31.284  28.310  22.432  1.00  0.00    -0.167 F 
ATOM     25  F   UNL A   1      29.214  27.958  22.830  1.00  0.00    -0.167 F 
ATOM     26  F   UNL A   1      30.156  29.691  23.684  1.00  0.00    -0.167 F 
ENDBRANCH  13  23
ENDBRANCH   9  11
ENDBRANCH   8   9
ENDBRANCH   7   8
ENDBRANCH   6   7
ENDBRANCH   5   6
ENDBRANCH   4   5
ENDBRANCH   3   4
ENDBRANCH   2   3
ENDBRANCH   1   2
BRANCH   1  27
ATOM     27  C   UNL A   1      33.134  36.777  30.862  1.00  0.00     0.188 C 
BRANCH  27  28
ATOM     28  O   UNL A   1      32.636  35.751  31.700  1.00  0.00    -0.376 OA
BRANCH  28  29
ATOM     29  C   UNL A   1      33.494  34.980  32.519  1.00  0.00     0.202 C 
BRANCH  29  30
ATOM     30  C   UNL A   1      34.967  34.736  32.151  1.00  0.00     0.261 C 
BRANCH  30  31
ATOM     31  O   UNL A   1      35.308  33.418  31.704  1.00  0.00    -0.460 OA
BRANCH  31  32
ATOM     32  C   UNL A   1      36.002  32.665  32.584  1.00  0.00     0.338 C 
ATOM     33  O   UNL A   1      35.820  32.585  33.786  1.00  0.00    -0.246 OA
BRANCH  32  34
ATOM     34  C   UNL A   1      36.930  31.775  31.850  1.00  0.00     0.060 A 
ATOM     35  C   UNL A   1      37.793  30.958  32.599  1.00  0.00     0.016 A 
ATOM     36  C   UNL A   1      36.973  31.749  30.456  1.00  0.00     0.016 A 
ATOM     37  C   UNL A   1      38.730  30.150  31.965  1.00  0.00     0.010 A 
ATOM     38  C   UNL A   1      37.948  30.976  29.818  1.00  0.00     0.010 A 
ATOM     39  C   UNL A   1      38.858  30.214  30.575  1.00  0.00    -0.014 A 
BRANCH  39  40
ATOM     40  C   UNL A   1      40.097  29.700  29.947  1.00  0.00     0.031 A 
ATOM     41  C   UNL A   1      41.249  30.653  29.787  1.00  0.00     0.074 A 
ATOM     42  C   UNL A   1      40.214  28.418  29.566  1.00  0.00     0.049 A 
ATOM     43  N   UNL A   1      42.404  30.471  29.204  1.00  0.00    -0.248 NA
ATOM     44  C   UNL A   1      41.066  31.999  30.357  1.00  0.00     0.031 C 
ATOM     45  C   UNL A   1      39.189  27.393  29.728  1.00  0.00     0.029 A 
ATOM     46  N   UNL A   1      41.252  27.768  28.947  1.00  0.00    -0.354 N 
ATOM     47  C   UNL A   1      43.075  31.682  29.318  1.00  0.00     0.074 A 
ATOM     48  C   UNL A   1      42.189  32.599  29.998  1.00  0.00     0.031 C 
ATOM     49  C   UNL A   1      39.639  26.241  29.200  1.00  0.00     0.029 A 
ATOM     50  C   UNL A   1      40.965  26.464  28.625  1.00  0.00     0.049 A 
ATOM     51  H   UNL A   1      42.117  28.195  28.752  1.00  0.00     0.167 HD
ATOM     52  C   UNL A   1      44.320  31.998  28.894  1.00  0.00     0.037 A 
ATOM     53  C   UNL A   1      41.677  25.572  27.912  1.00  0.00     0.037 A 
ATOM     54  C   UNL A   1      45.190  31.078  28.209  1.00  0.00     0.049 A 
ATOM     55  C   UNL A   1      43.025  25.973  27.368  1.00  0.00     0.074 A 
ATOM     56  C   UNL A   1      46.477  31.290  27.750  1.00  0.00     0.029 A 
ATOM     57  N   UNL A   1      44.852  29.776  27.870  1.00  0.00    -0.354 N 
ATOM     58  N   UNL A   1      43.664  27.112  27.494  1.00  0.00    -0.248 NA
ATOM     59  C   UNL A   1      43.752  24.965  26.584  1.00  0.00     0.031 C 
ATOM     60  C   UNL A   1      46.887  30.144  27.064  1.00  0.00     0.029 A 
ATOM     61  C   UNL A   1      45.892  29.186  27.173  1.00  0.00     0.049 A 
ATOM     62  H   UNL A   1      43.999  29.337  28.093  1.00  0.00     0.167 HD
ATOM     63  C   UNL A   1      44.879  26.945  26.838  1.00  0.00     0.074 A 
ATOM     64  C   UNL A   1      44.892  25.591  26.327  1.00  0.00     0.031 C 
ATOM     65  C   UNL A   1      45.894  27.831  26.677  1.00  0.00     0.037 A 
BRANCH  52  66
ATOM     66  C   UNL A   1      44.792  33.408  29.112  1.00  0.00     0.057 A 
ATOM     67  C   UNL A   1      44.488  34.446  28.222  1.00  0.00     0.134 A 
ATOM     68  C   UNL A   1      45.551  33.733  30.244  1.00  0.00     0.134 A 
ATOM     69  F   UNL A   1      43.777  34.204  27.110  1.00  0.00    -0.206 F 
ATOM     70  C   UNL A   1      44.948  35.748  28.432  1.00  0.00     0.040 A 
ATOM     71  C   UNL A   1      45.986  35.037  30.484  1.00  0.00     0.040 A 
ATOM     72  F   UNL A   1      45.877  32.790  31.141  1.00  0.00    -0.206 F 
ATOM     73  C   UNL A   1      45.692  36.047  29.572  1.00  0.00     0.006 A 
ENDBRANCH  52  66
BRANCH  53  74
ATOM     74  C   UNL A   1      41.122  24.220  27.640  1.00  0.00     0.057 A 
ATOM     75  C   UNL A   1      41.597  23.088  28.312  1.00  0.00     0.134 A 
ATOM     76  C   UNL A   1      40.117  24.023  26.683  1.00  0.00     0.134 A 
ATOM     77  F   UNL A   1      42.573  23.204  29.225  1.00  0.00    -0.206 F 
ATOM     78  C   UNL A   1      41.113  21.810  28.027  1.00  0.00     0.040 A 
ATOM     79  C   UNL A   1      39.600  22.755  26.412  1.00  0.00     0.040 A 
ATOM     80  F   UNL A   1      39.615  25.064  26.003  1.00  0.00    -0.206 F 
ATOM     81  C   UNL A   1      40.107  21.642  27.078  1.00  0.00     0.006 A 
ENDBRANCH  53  74
BRANCH  65  82
ATOM     82  C   UNL A   1      47.128  27.352  25.964  1.00  0.00     0.057 A 
ATOM     83  C   UNL A   1      48.156  26.667  26.624  1.00  0.00     0.134 A 
ATOM     84  C   UNL A   1      47.264  27.538  24.581  1.00  0.00     0.134 A 
ATOM     85  F   UNL A   1      48.096  26.461  27.949  1.00  0.00    -0.206 F 
ATOM     86  C   UNL A   1      49.286  26.212  25.941  1.00  0.00     0.040 A 
ATOM     87  C   UNL A   1      48.370  27.055  23.882  1.00  0.00     0.040 A 
ATOM     88  F   UNL A   1      46.310  28.174  23.882  1.00  0.00    -0.206 F 
ATOM     89  C   UNL A   1      49.389  26.398  24.564  1.00  0.00     0.006 A 
ENDBRANCH  65  82
ENDBRANCH  39  40
ENDBRANCH  32  34
ENDBRANCH  31  32
ENDBRANCH  30  31
ENDBRANCH  29  30
ENDBRANCH  28  29
ENDBRANCH  27  28
ENDBRANCH   1  27
TORSDOF 21
ENDMDL
MODEL 2
REMARK VINA RESULT:     -11.6      4.861     10.243
REMARK SMILES O=C(OCCOCCOCCOCCOC(=O)c1ccc(-c2c3nc(c(-c4c(F)cccc4F)c4ccc([nH]4)c(-c4c(F)cccc4F)c4nc(c(-c5c(F)cccc5F)c5ccc2[nH]5)C=C4)C=C3)cc1)C1=Cc2cc(Cl)cc(Cl)c2O[C@@H]1C(F)(F)F
REMARK SMILES IDX 10 1 9 2 8 3 7 4 6 5 5 6 4 7 3 8 2 9 1 10 72 11 73 12 83 13
REMARK SMILES IDX 74 14 82 15 75 16 81 17 76 18 79 19 77 20 78 21 80 22 84 23
REMARK SMILES IDX 85 24 86 25 87 26 11 27 12 28 13 29 14 30 15 31 16 32 17 33
REMARK SMILES IDX 18 34 19 35 71 36 20 37 70 38 21 39 22 40 23 41 64 42 24 43
REMARK SMILES IDX 69 44 63 45 65 46 25 47 68 48 62 49 61 50 26 52 52 53 35 54
REMARK SMILES IDX 51 55 36 56 39 57 50 58 66 59 37 60 38 61 49 63 67 64 40 65
REMARK SMILES IDX 27 66 28 67 33 68 29 69 30 70 32 71 34 72 31 73 53 74 54 75
REMARK SMILES IDX 59 76 55 77 56 78 58 79 60 80 57 81 41 82 42 83 47 84 43 85
REMARK SMILES IDX 44 86 46 87 48 88 45 89
REMARK H PARENT 65 51 39 62
REMARK Flexibility Score: inf
ROOT
ATOM      1  C   UNL A   1      41.106  20.839  27.160  1.00  0.00     0.188 C 
ENDROOT
BRANCH   1   2
ATOM      2  O   UNL A   1      39.864  21.475  27.348  1.00  0.00    -0.377 OA
BRANCH   2   3
ATOM      3  C   UNL A   1      39.289  21.875  26.127  1.00  0.00     0.188 C 
BRANCH   3   4
ATOM      4  C   UNL A   1      38.553  23.220  26.166  1.00  0.00     0.188 C 
BRANCH   4   5
ATOM      5  O   UNL A   1      37.577  23.662  25.161  1.00  0.00    -0.376 OA
BRANCH   5   6
ATOM      6  C   UNL A   1      35.922  23.654  25.095  1.00  0.00     0.202 C 
BRANCH   6   7
ATOM      7  C   UNL A   1      34.668  24.037  23.349  1.00  0.00     0.261 C 
BRANCH   7   8
ATOM      8  O   UNL A   1      34.247  25.386  22.821  1.00  0.00    -0.460 OA
BRANCH   8   9
ATOM      9  C   UNL A   1      32.918  25.487  22.689  1.00  0.00     0.338 C 
ATOM     10  O   UNL A   1      32.220  25.019  21.824  1.00  0.00    -0.246 OA
BRANCH   9  11
ATOM     11  C   UNL A   1      32.739  26.656  23.537  1.00  0.00     0.087 C 
ATOM     12  C   UNL A   1      32.361  27.879  22.815  1.00  0.00     0.027 C 
ATOM     13  C   UNL A   1      31.597  25.712  24.760  1.00  0.00     0.316 C 
ATOM     14  C   UNL A   1      30.691  28.558  22.770  1.00  0.00     0.020 A 
ATOM     15  O   UNL A   1      29.752  26.328  24.624  1.00  0.00    -0.474 OA
ATOM     16  C   UNL A   1      30.446  29.664  22.001  1.00  0.00     0.032 A 
ATOM     17  C   UNL A   1      29.356  27.773  23.552  1.00  0.00     0.146 A 
ATOM     18  C   UNL A   1      29.098  30.061  21.935  1.00  0.00     0.043 A 
ATOM     19  C   UNL A   1      28.066  28.207  23.365  1.00  0.00     0.085 A 
ATOM     20  Cl  UNL A   1      28.747  31.460  20.969  1.00  0.00    -0.084 Cl
ATOM     21  C   UNL A   1      27.978  29.378  22.568  1.00  0.00     0.045 A 
ATOM     22  Cl  UNL A   1      26.651  27.411  23.877  1.00  0.00    -0.080 Cl
BRANCH  13  23
ATOM     23  C   UNL A   1      32.728  25.791  25.993  1.00  0.00     0.430 C 
ATOM     24  F   UNL A   1      33.894  26.414  25.751  1.00  0.00    -0.167 F 
ATOM     25  F   UNL A   1      32.158  26.534  26.992  1.00  0.00    -0.167 F 
ATOM     26  F   UNL A   1      33.013  24.605  26.587  1.00  0.00    -0.167 F 
ENDBRANCH  13  23
ENDBRANCH   9  11
ENDBRANCH   8   9
ENDBRANCH   7   8
ENDBRANCH   6   7
ENDBRANCH   5   6
ENDBRANCH   4   5
ENDBRANCH   3   4
ENDBRANCH   2   3
ENDBRANCH   1   2
BRANCH   1  27
ATOM     27  C   UNL A   1      41.963  21.339  25.992  1.00  0.00     0.188 C 
BRANCH  27  28
ATOM     28  O   UNL A   1      42.964  20.552  25.373  1.00  0.00    -0.376 OA
BRANCH  28  29
ATOM     29  C   UNL A   1      44.242  21.080  25.072  1.00  0.00     0.202 C 
BRANCH  29  30
ATOM     30  C   UNL A   1      44.419  22.350  24.223  1.00  0.00     0.261 C 
BRANCH  30  31
ATOM     31  O   UNL A   1      43.613  23.480  24.580  1.00  0.00    -0.460 OA
BRANCH  31  32
ATOM     32  C   UNL A   1      44.291  24.569  25.001  1.00  0.00     0.338 C 
ATOM     33  O   UNL A   1      45.393  24.936  24.633  1.00  0.00    -0.246 OA
BRANCH  32  34
ATOM     34  C   UNL A   1      43.416  25.393  25.866  1.00  0.00     0.060 A 
ATOM     35  C   UNL A   1      43.550  26.790  25.802  1.00  0.00     0.016 A 
ATOM     36  C   UNL A   1      42.492  24.816  26.737  1.00  0.00     0.016 A 
ATOM     37  C   UNL A   1      42.801  27.611  26.637  1.00  0.00     0.010 A 
ATOM     38  C   UNL A   1      41.776  25.637  27.613  1.00  0.00     0.010 A 
ATOM     39  C   UNL A   1      41.965  27.031  27.595  1.00  0.00    -0.014 A 
BRANCH  39  40
ATOM     40  C   UNL A   1      41.506  27.857  28.736  1.00  0.00     0.031 A 
ATOM     41  C   UNL A   1      42.268  27.752  30.028  1.00  0.00     0.074 A 
ATOM     42  C   UNL A   1      40.470  28.704  28.621  1.00  0.00     0.049 A 
ATOM     43  N   UNL A   1      42.022  28.308  31.185  1.00  0.00    -0.248 NA
ATOM     44  C   UNL A   1      43.466  26.897  30.011  1.00  0.00     0.031 C 
ATOM     45  C   UNL A   1      39.700  28.933  27.403  1.00  0.00     0.029 A 
ATOM     46  N   UNL A   1      39.883  29.518  29.555  1.00  0.00    -0.354 N 
ATOM     47  C   UNL A   1      43.021  27.852  32.037  1.00  0.00     0.074 A 
ATOM     48  C   UNL A   1      43.857  26.954  31.274  1.00  0.00     0.031 C 
ATOM     49  C   UNL A   1      38.721  29.815  27.669  1.00  0.00     0.029 A 
ATOM     50  C   UNL A   1      38.772  30.175  29.085  1.00  0.00     0.049 A 
ATOM     51  H   UNL A   1      40.223  29.620  30.473  1.00  0.00     0.167 HD
ATOM     52  C   UNL A   1      43.221  28.159  33.340  1.00  0.00     0.037 A 
ATOM     53  C   UNL A   1      37.881  30.945  29.738  1.00  0.00     0.037 A 
ATOM     54  C   UNL A   1      42.375  29.048  34.091  1.00  0.00     0.049 A 
ATOM     55  C   UNL A   1      38.070  31.201  31.212  1.00  0.00     0.074 A 
ATOM     56  C   UNL A   1      42.497  29.440  35.411  1.00  0.00     0.029 A 
ATOM     57  N   UNL A   1      41.240  29.670  33.591  1.00  0.00    -0.354 N 
ATOM     58  N   UNL A   1      39.025  30.785  32.009  1.00  0.00    -0.248 NA
ATOM     59  C   UNL A   1      37.059  32.034  31.877  1.00  0.00     0.031 C 
ATOM     60  C   UNL A   1      41.393  30.234  35.732  1.00  0.00     0.029 A 
ATOM     61  C   UNL A   1      40.631  30.411  34.589  1.00  0.00     0.049 A 
ATOM     62  H   UNL A   1      40.916  29.594  32.664  1.00  0.00     0.167 HD
ATOM     63  C   UNL A   1      38.750  31.333  33.257  1.00  0.00     0.074 A 
ATOM     64  C   UNL A   1      37.546  32.123  33.106  1.00  0.00     0.031 C 
ATOM     65  C   UNL A   1      39.434  31.200  34.421  1.00  0.00     0.037 A 
BRANCH  52  66
ATOM     66  C   UNL A   1      44.366  27.488  34.044  1.00  0.00     0.057 A 
ATOM     67  C   UNL A   1      45.631  28.080  34.150  1.00  0.00     0.134 A 
ATOM     68  C   UNL A   1      44.192  26.232  34.640  1.00  0.00     0.134 A 
ATOM     69  F   UNL A   1      45.873  29.276  33.590  1.00  0.00    -0.206 F 
ATOM     70  C   UNL A   1      46.689  27.436  34.795  1.00  0.00     0.040 A 
ATOM     71  C   UNL A   1      45.230  25.594  35.318  1.00  0.00     0.040 A 
ATOM     72  F   UNL A   1      43.006  25.606  34.581  1.00  0.00    -0.206 F 
ATOM     73  C   UNL A   1      46.486  26.192  35.389  1.00  0.00     0.006 A 
ENDBRANCH  52  66
BRANCH  53  74
ATOM     74  C   UNL A   1      36.709  31.506  29.015  1.00  0.00     0.057 A 
ATOM     75  C   UNL A   1      36.662  32.853  28.637  1.00  0.00     0.134 A 
ATOM     76  C   UNL A   1      35.595  30.713  28.706  1.00  0.00     0.134 A 
ATOM     77  F   UNL A   1      37.686  33.671  28.923  1.00  0.00    -0.206 F 
ATOM     78  C   UNL A   1      35.544  33.396  28.001  1.00  0.00     0.040 A 
ATOM     79  C   UNL A   1      34.485  31.236  28.040  1.00  0.00     0.040 A 
ATOM     80  F   UNL A   1      35.575  29.414  29.037  1.00  0.00    -0.206 F 
ATOM     81  C   UNL A   1      34.454  32.584  27.696  1.00  0.00     0.006 A 
ENDBRANCH  53  74
BRANCH  65  82
ATOM     82  C   UNL A   1      38.931  31.964  35.615  1.00  0.00     0.057 A 
ATOM     83  C   UNL A   1      38.153  31.366  36.614  1.00  0.00     0.134 A 
ATOM     84  C   UNL A   1      39.278  33.311  35.789  1.00  0.00     0.134 A 
ATOM     85  F   UNL A   1      37.778  30.082  36.508  1.00  0.00    -0.206 F 
ATOM     86  C   UNL A   1      37.712  32.087  37.726  1.00  0.00     0.040 A 
ATOM     87  C   UNL A   1      38.876  34.032  36.914  1.00  0.00     0.040 A 
ATOM     88  F   UNL A   1      40.033  33.944  34.878  1.00  0.00    -0.206 F 
ATOM     89  C   UNL A   1      38.083  33.422  37.881  1.00  0.00     0.006 A 
ENDBRANCH  65  82
ENDBRANCH  39  40
ENDBRANCH  32  34
ENDBRANCH  31  32
ENDBRANCH  30  31
ENDBRANCH  29  30
ENDBRANCH  28  29
ENDBRANCH  27  28
ENDBRANCH   1  27
TORSDOF 21
ENDMDL
MODEL 3
REMARK VINA RESULT:     -11.2      4.981     10.317
REMARK SMILES O=C(OCCOCCOCCOCCOC(=O)c1ccc(-c2c3nc(c(-c4c(F)cccc4F)c4ccc([nH]4)c(-c4c(F)cccc4F)c4nc(c(-c5c(F)cccc5F)c5ccc2[nH]5)C=C4)C=C3)cc1)C1=Cc2cc(Cl)cc(Cl)c2O[C@@H]1C(F)(F)F
REMARK SMILES IDX 10 1 9 2 8 3 7 4 6 5 5 6 4 7 3 8 2 9 1 10 72 11 73 12 83 13
REMARK SMILES IDX 74 14 82 15 75 16 81 17 76 18 79 19 77 20 78 21 80 22 84 23
REMARK SMILES IDX 85 24 86 25 87 26 11 27 12 28 13 29 14 30 15 31 16 32 17 33
REMARK SMILES IDX 18 34 19 35 71 36 20 37 70 38 21 39 22 40 23 41 64 42 24 43
REMARK SMILES IDX 69 44 63 45 65 46 25 47 68 48 62 49 61 50 26 52 52 53 35 54
REMARK SMILES IDX 51 55 36 56 39 57 50 58 66 59 37 60 38 61 49 63 67 64 40 65
REMARK SMILES IDX 27 66 28 67 33 68 29 69 30 70 32 71 34 72 31 73 53 74 54 75
REMARK SMILES IDX 59 76 55 77 56 78 58 79 60 80 57 81 41 82 42 83 47 84 43 85
REMARK SMILES IDX 44 86 46 87 48 88 45 89
REMARK H PARENT 65 51 39 62
REMARK Flexibility Score: inf
ROOT
ATOM      1  C   UNL A   1      41.415  21.001  27.166  1.00  0.00     0.188 C 
ENDROOT
BRANCH   1   2
ATOM      2  O   UNL A   1      40.120  21.502  27.396  1.00  0.00    -0.377 OA
BRANCH   2   3
ATOM      3  C   UNL A   1      39.477  21.866  26.197  1.00  0.00     0.188 C 
BRANCH   3   4
ATOM      4  C   UNL A   1      38.665  23.165  26.265  1.00  0.00     0.188 C 
BRANCH   4   5
ATOM      5  O   UNL A   1      37.663  23.570  25.270  1.00  0.00    -0.376 OA
BRANCH   5   6
ATOM      6  C   UNL A   1      36.019  23.391  25.166  1.00  0.00     0.202 C 
BRANCH   6   7
ATOM      7  C   UNL A   1      34.773  23.636  23.389  1.00  0.00     0.261 C 
BRANCH   7   8
ATOM      8  O   UNL A   1      34.273  24.938  22.813  1.00  0.00    -0.460 OA
BRANCH   8   9
ATOM      9  C   UNL A   1      32.936  24.997  22.778  1.00  0.00     0.338 C 
ATOM     10  O   UNL A   1      32.192  24.511  21.963  1.00  0.00    -0.246 OA
BRANCH   9  11
ATOM     11  C   UNL A   1      32.782  26.155  23.647  1.00  0.00     0.087 C 
ATOM     12  C   UNL A   1      32.408  27.392  22.948  1.00  0.00     0.027 C 
ATOM     13  C   UNL A   1      31.647  25.206  24.871  1.00  0.00     0.316 C 
ATOM     14  C   UNL A   1      30.746  28.091  22.937  1.00  0.00     0.020 A 
ATOM     15  O   UNL A   1      29.807  25.844  24.770  1.00  0.00    -0.474 OA
ATOM     16  C   UNL A   1      30.502  29.212  22.188  1.00  0.00     0.032 A 
ATOM     17  C   UNL A   1      29.414  27.309  23.726  1.00  0.00     0.146 A 
ATOM     18  C   UNL A   1      29.159  29.624  22.147  1.00  0.00     0.043 A 
ATOM     19  C   UNL A   1      28.125  27.761  23.564  1.00  0.00     0.085 A 
ATOM     20  Cl  UNL A   1      28.811  31.042  21.207  1.00  0.00    -0.084 Cl
ATOM     21  C   UNL A   1      28.040  28.945  22.785  1.00  0.00     0.045 A 
ATOM     22  Cl  UNL A   1      26.709  26.974  24.083  1.00  0.00    -0.080 Cl
BRANCH  13  23
ATOM     23  C   UNL A   1      32.796  25.253  26.089  1.00  0.00     0.430 C 
ATOM     24  F   UNL A   1      33.983  25.824  25.825  1.00  0.00    -0.167 F 
ATOM     25  F   UNL A   1      32.269  26.032  27.085  1.00  0.00    -0.167 F 
ATOM     26  F   UNL A   1      33.039  24.063  26.695  1.00  0.00    -0.167 F 
ENDBRANCH  13  23
ENDBRANCH   9  11
ENDBRANCH   8   9
ENDBRANCH   7   8
ENDBRANCH   6   7
ENDBRANCH   5   6
ENDBRANCH   4   5
ENDBRANCH   3   4
ENDBRANCH   2   3
ENDBRANCH   1   2
BRANCH   1  27
ATOM     27  C   UNL A   1      42.227  21.678  26.056  1.00  0.00     0.188 C 
BRANCH  27  28
ATOM     28  O   UNL A   1      43.246  21.019  25.328  1.00  0.00    -0.376 OA
BRANCH  28  29
ATOM     29  C   UNL A   1      44.491  21.638  25.069  1.00  0.00     0.202 C 
BRANCH  29  30
ATOM     30  C   UNL A   1      44.597  22.959  24.290  1.00  0.00     0.261 C 
BRANCH  30  31
ATOM     31  O   UNL A   1      43.786  24.045  24.754  1.00  0.00    -0.460 OA
BRANCH  31  32
ATOM     32  C   UNL A   1      44.461  25.127  25.199  1.00  0.00     0.338 C 
ATOM     33  O   UNL A   1      45.532  25.543  24.793  1.00  0.00    -0.246 OA
BRANCH  32  34
ATOM     34  C   UNL A   1      43.616  25.879  26.154  1.00  0.00     0.060 A 
ATOM     35  C   UNL A   1      43.914  27.234  26.376  1.00  0.00     0.016 A 
ATOM     36  C   UNL A   1      42.562  25.271  26.838  1.00  0.00     0.016 A 
ATOM     37  C   UNL A   1      43.195  27.972  27.310  1.00  0.00     0.010 A 
ATOM     38  C   UNL A   1      41.873  25.997  27.813  1.00  0.00     0.010 A 
ATOM     39  C   UNL A   1      42.222  27.334  28.083  1.00  0.00    -0.014 A 
BRANCH  39  40
ATOM     40  C   UNL A   1      41.765  27.981  29.334  1.00  0.00     0.031 A 
ATOM     41  C   UNL A   1      40.521  28.824  29.274  1.00  0.00     0.074 A 
ATOM     42  C   UNL A   1      42.408  27.798  30.498  1.00  0.00     0.049 A 
ATOM     43  N   UNL A   1      39.964  29.552  30.205  1.00  0.00    -0.248 NA
ATOM     44  C   UNL A   1      39.816  28.854  27.981  1.00  0.00     0.031 C 
ATOM     45  C   UNL A   1      43.584  26.954  30.688  1.00  0.00     0.029 A 
ATOM     46  N   UNL A   1      42.164  28.327  31.739  1.00  0.00    -0.354 N 
ATOM     47  C   UNL A   1      38.858  30.142  29.606  1.00  0.00     0.074 A 
ATOM     48  C   UNL A   1      38.839  29.712  28.226  1.00  0.00     0.031 C 
ATOM     49  C   UNL A   1      43.977  27.040  31.971  1.00  0.00     0.029 A 
ATOM     50  C   UNL A   1      43.106  27.978  32.677  1.00  0.00     0.049 A 
ATOM     51  H   UNL A   1      41.391  28.902  31.939  1.00  0.00     0.167 HD
ATOM     52  C   UNL A   1      37.940  30.967  30.160  1.00  0.00     0.037 A 
ATOM     53  C   UNL A   1      43.264  28.402  33.945  1.00  0.00     0.037 A 
ATOM     54  C   UNL A   1      37.975  31.396  31.533  1.00  0.00     0.049 A 
ATOM     55  C   UNL A   1      42.282  29.394  34.516  1.00  0.00     0.074 A 
ATOM     56  C   UNL A   1      37.087  32.218  32.201  1.00  0.00     0.029 A 
ATOM     57  N   UNL A   1      38.963  31.048  32.444  1.00  0.00    -0.354 N 
ATOM     58  N   UNL A   1      41.228  29.934  33.954  1.00  0.00    -0.248 NA
ATOM     59  C   UNL A   1      42.511  29.834  35.899  1.00  0.00     0.031 C 
ATOM     60  C   UNL A   1      37.579  32.432  33.491  1.00  0.00     0.029 A 
ATOM     61  C   UNL A   1      38.725  31.672  33.656  1.00  0.00     0.049 A 
ATOM     62  H   UNL A   1      39.720  30.448  32.255  1.00  0.00     0.167 HD
ATOM     63  C   UNL A   1      40.650  30.748  34.922  1.00  0.00     0.074 A 
ATOM     64  C   UNL A   1      41.465  30.618  36.112  1.00  0.00     0.031 C 
ATOM     65  C   UNL A   1      39.543  31.528  34.836  1.00  0.00     0.037 A 
BRANCH  52  66
ATOM     66  C   UNL A   1      36.855  31.500  29.267  1.00  0.00     0.057 A 
ATOM     67  C   UNL A   1      36.875  32.806  28.760  1.00  0.00     0.134 A 
ATOM     68  C   UNL A   1      35.780  30.683  28.895  1.00  0.00     0.134 A 
ATOM     69  F   UNL A   1      37.868  33.648  29.086  1.00  0.00    -0.206 F 
ATOM     70  C   UNL A   1      35.850  33.290  27.944  1.00  0.00     0.040 A 
ATOM     71  C   UNL A   1      34.768  31.142  28.052  1.00  0.00     0.040 A 
ATOM     72  F   UNL A   1      35.697  29.419  29.341  1.00  0.00    -0.206 F 
ATOM     73  C   UNL A   1      34.797  32.452  27.581  1.00  0.00     0.006 A 
ENDBRANCH  52  66
BRANCH  53  74
ATOM     74  C   UNL A   1      44.412  27.918  34.755  1.00  0.00     0.057 A 
ATOM     75  C   UNL A   1      44.294  26.805  35.595  1.00  0.00     0.134 A 
ATOM     76  C   UNL A   1      45.651  28.574  34.729  1.00  0.00     0.134 A 
ATOM     77  F   UNL A   1      43.130  26.145  35.684  1.00  0.00    -0.206 F 
ATOM     78  C   UNL A   1      45.355  26.375  36.395  1.00  0.00     0.040 A 
ATOM     79  C   UNL A   1      46.730  28.135  35.498  1.00  0.00     0.040 A 
ATOM     80  F   UNL A   1      45.833  29.646  33.945  1.00  0.00    -0.206 F 
ATOM     81  C   UNL A   1      46.579  27.038  36.342  1.00  0.00     0.006 A 
ENDBRANCH  53  74
BRANCH  65  82
ATOM     82  C   UNL A   1      39.112  32.262  36.076  1.00  0.00     0.057 A 
ATOM     83  C   UNL A   1      38.245  31.697  37.019  1.00  0.00     0.134 A 
ATOM     84  C   UNL A   1      39.618  33.541  36.352  1.00  0.00     0.134 A 
ATOM     85  F   UNL A   1      37.717  30.480  36.815  1.00  0.00    -0.206 F 
ATOM     86  C   UNL A   1      37.873  32.387  38.175  1.00  0.00     0.040 A 
ATOM     87  C   UNL A   1      39.283  34.224  37.521  1.00  0.00     0.040 A 
ATOM     88  F   UNL A   1      40.465  34.137  35.498  1.00  0.00    -0.206 F 
ATOM     89  C   UNL A   1      38.401  33.651  38.431  1.00  0.00     0.006 A 
ENDBRANCH  65  82
ENDBRANCH  39  40
ENDBRANCH  32  34
ENDBRANCH  31  32
ENDBRANCH  30  31
ENDBRANCH  29  30
ENDBRANCH  28  29
ENDBRANCH  27  28
ENDBRANCH   1  27
TORSDOF 21
ENDMDL
