MODEL 1
REMARK VINA RESULT:     -10.2      0.000      0.000
REMARK SMILES O=C(OCCOCCOCCOCCOC(=O)c1cc(-c2cccc(OC(F)(F)F)c2)cnc1Cl)c1ccc(-c2c3nc(c(-c4c(F)cccc4F)c4ccc([nH]4)c(-c4c(F)cccc4F)c4nc(c(-c5c(F)cccc5F)c5ccc2[nH]5)C=C4)C=C3)cc1
REMARK SMILES IDX 10 1 9 2 8 3 7 4 6 5 5 6 4 7 3 8 2 9 1 10 36 11 37 12 89 13
REMARK SMILES IDX 38 14 88 15 39 16 40 17 41 18 82 19 42 20 87 21 81 22 83 23
REMARK SMILES IDX 43 24 86 25 80 26 79 27 44 29 70 30 53 31 69 32 54 33 57 34
REMARK SMILES IDX 68 35 84 36 55 37 56 38 67 40 85 41 58 42 45 43 46 44 51 45
REMARK SMILES IDX 47 46 48 47 50 48 52 49 49 50 71 51 72 52 77 53 73 54 74 55
REMARK SMILES IDX 76 56 78 57 75 58 59 59 60 60 65 61 61 62 62 63 64 64 66 65
REMARK SMILES IDX 63 66 11 67 12 68 13 69 14 70 15 71 16 72 17 73 18 74 19 75
REMARK SMILES IDX 34 76 20 77 33 78 35 79 32 80 21 81 22 82 31 83 23 84 25 85
REMARK SMILES IDX 24 86 26 87 27 88 28 89 29 90 30 91
REMARK H PARENT 83 28 57 39
REMARK Flexibility Score: inf
ROOT
ATOM      1  C   UNL A   1      35.983  21.590  24.650  1.00  0.00     0.188 C 
ENDROOT
BRANCH   1   2
ATOM      2  O   UNL A   1      36.743  22.016  25.774  1.00  0.00    -0.377 OA
BRANCH   2   3
ATOM      3  C   UNL A   1      38.160  21.884  25.673  1.00  0.00     0.188 C 
BRANCH   3   4
ATOM      4  C   UNL A   1      38.956  22.924  26.460  1.00  0.00     0.188 C 
BRANCH   4   5
ATOM      5  O   UNL A   1      40.059  22.304  27.131  1.00  0.00    -0.376 OA
BRANCH   5   6
ATOM      6  C   UNL A   1      41.318  22.414  26.466  1.00  0.00     0.202 C 
BRANCH   6   7
ATOM      7  C   UNL A   1      42.411  23.099  27.285  1.00  0.00     0.261 C 
BRANCH   7   8
ATOM      8  O   UNL A   1      42.889  24.292  26.654  1.00  0.00    -0.460 OA
BRANCH   8   9
ATOM      9  C   UNL A   1      42.180  25.403  26.337  1.00  0.00     0.338 C 
ATOM     10  O   UNL A   1      41.857  25.562  25.160  1.00  0.00    -0.246 OA
BRANCH   9  11
ATOM     11  C   UNL A   1      41.746  26.449  27.321  1.00  0.00     0.060 A 
ATOM     12  C   UNL A   1      42.320  27.711  27.501  1.00  0.00     0.016 A 
ATOM     13  C   UNL A   1      40.619  26.132  28.101  1.00  0.00     0.016 A 
ATOM     14  C   UNL A   1      41.850  28.605  28.455  1.00  0.00     0.010 A 
ATOM     15  C   UNL A   1      40.136  27.018  29.065  1.00  0.00     0.010 A 
ATOM     16  C   UNL A   1      40.785  28.240  29.266  1.00  0.00    -0.014 A 
BRANCH  16  17
ATOM     17  C   UNL A   1      40.541  29.027  30.484  1.00  0.00     0.031 A 
ATOM     18  C   UNL A   1      39.411  30.008  30.438  1.00  0.00     0.074 A 
ATOM     19  C   UNL A   1      41.236  28.795  31.607  1.00  0.00     0.049 A 
ATOM     20  N   UNL A   1      39.076  30.934  31.292  1.00  0.00    -0.248 NA
ATOM     21  C   UNL A   1      38.530  29.926  29.258  1.00  0.00     0.031 C 
ATOM     22  C   UNL A   1      42.241  27.746  31.776  1.00  0.00     0.029 A 
ATOM     23  N   UNL A   1      41.196  29.427  32.817  1.00  0.00    -0.354 N 
ATOM     24  C   UNL A   1      37.982  31.578  30.728  1.00  0.00     0.074 A 
ATOM     25  C   UNL A   1      37.699  30.931  29.468  1.00  0.00     0.031 C 
ATOM     26  C   UNL A   1      42.736  27.817  33.022  1.00  0.00     0.029 A 
ATOM     27  C   UNL A   1      42.132  28.958  33.705  1.00  0.00     0.049 A 
ATOM     28  H   UNL A   1      40.559  30.147  33.033  1.00  0.00     0.167 HD
ATOM     29  C   UNL A   1      37.298  32.635  31.218  1.00  0.00     0.037 A 
ATOM     30  C   UNL A   1      42.487  29.447  34.907  1.00  0.00     0.037 A 
ATOM     31  C   UNL A   1      37.622  33.248  32.475  1.00  0.00     0.049 A 
ATOM     32  C   UNL A   1      41.776  30.677  35.404  1.00  0.00     0.074 A 
ATOM     33  C   UNL A   1      37.070  34.367  33.068  1.00  0.00     0.029 A 
ATOM     34  N   UNL A   1      38.605  32.774  33.337  1.00  0.00    -0.354 N 
ATOM     35  N   UNL A   1      40.806  31.355  34.832  1.00  0.00    -0.248 NA
ATOM     36  C   UNL A   1      42.214  31.224  36.692  1.00  0.00     0.031 C 
ATOM     37  C   UNL A   1      37.748  34.591  34.272  1.00  0.00     0.029 A 
ATOM     38  C   UNL A   1      38.685  33.582  34.453  1.00  0.00     0.049 A 
ATOM     39  H   UNL A   1      39.162  31.978  33.175  1.00  0.00     0.167 HD
ATOM     40  C   UNL A   1      40.502  32.396  35.698  1.00  0.00     0.074 A 
ATOM     41  C   UNL A   1      41.390  32.254  36.838  1.00  0.00     0.031 C 
ATOM     42  C   UNL A   1      39.579  33.381  35.569  1.00  0.00     0.037 A 
BRANCH  29  43
ATOM     43  C   UNL A   1      36.234  33.217  30.337  1.00  0.00     0.057 A 
ATOM     44  C   UNL A   1      34.871  32.946  30.523  1.00  0.00     0.134 A 
ATOM     45  C   UNL A   1      36.589  33.990  29.225  1.00  0.00     0.134 A 
ATOM     46  F   UNL A   1      34.465  32.179  31.547  1.00  0.00    -0.206 F 
ATOM     47  C   UNL A   1      33.907  33.386  29.613  1.00  0.00     0.040 A 
ATOM     48  C   UNL A   1      35.633  34.458  28.323  1.00  0.00     0.040 A 
ATOM     49  F   UNL A   1      37.875  34.280  28.979  1.00  0.00    -0.206 F 
ATOM     50  C   UNL A   1      34.288  34.145  28.508  1.00  0.00     0.006 A 
ENDBRANCH  29  43
BRANCH  30  51
ATOM     51  C   UNL A   1      43.591  28.807  35.670  1.00  0.00     0.057 A 
ATOM     52  C   UNL A   1      43.371  27.683  36.472  1.00  0.00     0.134 A 
ATOM     53  C   UNL A   1      44.905  29.288  35.585  1.00  0.00     0.134 A 
ATOM     54  F   UNL A   1      42.134  27.185  36.611  1.00  0.00    -0.206 F 
ATOM     55  C   UNL A   1      44.415  27.058  37.160  1.00  0.00     0.040 A 
ATOM     56  C   UNL A   1      45.962  28.659  36.246  1.00  0.00     0.040 A 
ATOM     57  F   UNL A   1      45.187  30.362  34.833  1.00  0.00    -0.206 F 
ATOM     58  C   UNL A   1      45.717  27.541  37.039  1.00  0.00     0.006 A 
ENDBRANCH  30  51
BRANCH  42  59
ATOM     59  C   UNL A   1      39.450  34.343  36.708  1.00  0.00     0.057 A 
ATOM     60  C   UNL A   1      38.757  34.013  37.878  1.00  0.00     0.134 A 
ATOM     61  C   UNL A   1      40.108  35.579  36.662  1.00  0.00     0.134 A 
ATOM     62  F   UNL A   1      38.101  32.847  37.974  1.00  0.00    -0.206 F 
ATOM     63  C   UNL A   1      38.719  34.886  38.965  1.00  0.00     0.040 A 
ATOM     64  C   UNL A   1      40.096  36.448  37.751  1.00  0.00     0.040 A 
ATOM     65  F   UNL A   1      40.798  35.943  35.570  1.00  0.00    -0.206 F 
ATOM     66  C   UNL A   1      39.398  36.102  38.907  1.00  0.00     0.006 A 
ENDBRANCH  42  59
ENDBRANCH  16  17
ENDBRANCH   9  11
ENDBRANCH   8   9
ENDBRANCH   7   8
ENDBRANCH   6   7
ENDBRANCH   5   6
ENDBRANCH   4   5
ENDBRANCH   3   4
ENDBRANCH   2   3
ENDBRANCH   1   2
BRANCH   1  67
ATOM     67  C   UNL A   1      35.770  22.592  23.494  1.00  0.00     0.188 C 
BRANCH  67  68
ATOM     68  O   UNL A   1      34.424  22.996  23.359  1.00  0.00    -0.376 OA
BRANCH  68  69
ATOM     69  C   UNL A   1      33.412  22.024  23.571  1.00  0.00     0.202 C 
BRANCH  69  70
ATOM     70  C   UNL A   1      32.529  22.031  24.835  1.00  0.00     0.261 C 
BRANCH  70  71
ATOM     71  O   UNL A   1      32.915  22.898  25.910  1.00  0.00    -0.460 OA
BRANCH  71  72
ATOM     72  C   UNL A   1      32.063  23.842  26.368  1.00  0.00     0.341 C 
ATOM     73  O   UNL A   1      31.411  23.813  27.397  1.00  0.00    -0.246 OA
BRANCH  72  74
ATOM     74  C   UNL A   1      32.248  25.024  25.508  1.00  0.00     0.098 A 
ATOM     75  C   UNL A   1      31.121  25.669  24.959  1.00  0.00     0.029 A 
ATOM     76  C   UNL A   1      33.483  25.643  25.393  1.00  0.00     0.143 A 
ATOM     77  C   UNL A   1      31.256  26.950  24.401  1.00  0.00     0.001 A 
ATOM     78  N   UNL A   1      33.662  26.844  24.796  1.00  0.00    -0.243 NA
ATOM     79  Cl  UNL A   1      34.949  24.969  25.987  1.00  0.00    -0.061 Cl
ATOM     80  C   UNL A   1      32.551  27.471  24.340  1.00  0.00     0.121 A 
BRANCH  77  81
ATOM     81  C   UNL A   1      30.123  27.748  23.915  1.00  0.00    -0.013 A 
ATOM     82  C   UNL A   1      28.851  27.164  23.837  1.00  0.00     0.009 A 
ATOM     83  C   UNL A   1      30.299  29.059  23.415  1.00  0.00     0.055 A 
ATOM     84  C   UNL A   1      27.786  27.851  23.255  1.00  0.00     0.004 A 
ATOM     85  C   UNL A   1      29.232  29.748  22.821  1.00  0.00     0.130 A 
ATOM     86  C   UNL A   1      27.982  29.132  22.746  1.00  0.00     0.047 A 
BRANCH  85  87
ATOM     87  O   UNL A   1      29.257  30.988  22.248  1.00  0.00    -0.406 OA
BRANCH  87  88
ATOM     88  C   UNL A   1      28.705  32.079  22.955  1.00  0.00     0.573 C 
ATOM     89  F   UNL A   1      27.422  32.285  22.587  1.00  0.00    -0.132 F 
ATOM     90  F   UNL A   1      28.767  31.888  24.289  1.00  0.00    -0.132 F 
ATOM     91  F   UNL A   1      29.407  33.195  22.655  1.00  0.00    -0.132 F 
ENDBRANCH  87  88
ENDBRANCH  85  87
ENDBRANCH  77  81
ENDBRANCH  72  74
ENDBRANCH  71  72
ENDBRANCH  70  71
ENDBRANCH  69  70
ENDBRANCH  68  69
ENDBRANCH  67  68
ENDBRANCH   1  67
TORSDOF 23
ENDMDL
MODEL 2
REMARK VINA RESULT:     -10.0      3.835      8.914
REMARK SMILES O=C(OCCOCCOCCOCCOC(=O)c1cc(-c2cccc(OC(F)(F)F)c2)cnc1Cl)c1ccc(-c2c3nc(c(-c4c(F)cccc4F)c4ccc([nH]4)c(-c4c(F)cccc4F)c4nc(c(-c5c(F)cccc5F)c5ccc2[nH]5)C=C4)C=C3)cc1
REMARK SMILES IDX 10 1 9 2 8 3 7 4 6 5 5 6 4 7 3 8 2 9 1 10 36 11 37 12 89 13
REMARK SMILES IDX 38 14 88 15 39 16 40 17 41 18 82 19 42 20 87 21 81 22 83 23
REMARK SMILES IDX 43 24 86 25 80 26 79 27 44 29 70 30 53 31 69 32 54 33 57 34
REMARK SMILES IDX 68 35 84 36 55 37 56 38 67 40 85 41 58 42 45 43 46 44 51 45
REMARK SMILES IDX 47 46 48 47 50 48 52 49 49 50 71 51 72 52 77 53 73 54 74 55
REMARK SMILES IDX 76 56 78 57 75 58 59 59 60 60 65 61 61 62 62 63 64 64 66 65
REMARK SMILES IDX 63 66 11 67 12 68 13 69 14 70 15 71 16 72 17 73 18 74 19 75
REMARK SMILES IDX 34 76 20 77 33 78 35 79 32 80 21 81 22 82 31 83 23 84 25 85
REMARK SMILES IDX 24 86 26 87 27 88 28 89 29 90 30 91
REMARK H PARENT 83 28 57 39
REMARK Flexibility Score: inf
ROOT
ATOM      1  C   UNL A   1      28.685  26.702  23.795  1.00  0.00     0.188 C 
ENDROOT
BRANCH   1   2
ATOM      2  O   UNL A   1      29.038  28.024  23.406  1.00  0.00    -0.377 OA
BRANCH   2   3
ATOM      3  C   UNL A   1      30.103  28.148  22.465  1.00  0.00     0.188 C 
BRANCH   3   4
ATOM      4  C   UNL A   1      31.291  28.977  22.952  1.00  0.00     0.188 C 
BRANCH   4   5
ATOM      5  O   UNL A   1      31.436  28.852  24.371  1.00  0.00    -0.376 OA
BRANCH   5   6
ATOM      6  C   UNL A   1      31.634  30.078  25.076  1.00  0.00     0.202 C 
BRANCH   6   7
ATOM      7  C   UNL A   1      32.623  29.991  26.238  1.00  0.00     0.261 C 
BRANCH   7   8
ATOM      8  O   UNL A   1      32.593  31.164  27.060  1.00  0.00    -0.460 OA
BRANCH   8   9
ATOM      9  C   UNL A   1      33.647  31.849  27.564  1.00  0.00     0.338 C 
ATOM     10  O   UNL A   1      33.552  33.073  27.644  1.00  0.00    -0.246 OA
BRANCH   9  11
ATOM     11  C   UNL A   1      34.922  31.221  28.048  1.00  0.00     0.060 A 
ATOM     12  C   UNL A   1      35.151  29.857  28.254  1.00  0.00     0.016 A 
ATOM     13  C   UNL A   1      35.998  32.100  28.267  1.00  0.00     0.016 A 
ATOM     14  C   UNL A   1      36.368  29.377  28.721  1.00  0.00     0.010 A 
ATOM     15  C   UNL A   1      37.226  31.633  28.737  1.00  0.00     0.010 A 
ATOM     16  C   UNL A   1      37.391  30.270  29.003  1.00  0.00    -0.014 A 
BRANCH  16  17
ATOM     17  C   UNL A   1      38.517  29.797  29.821  1.00  0.00     0.031 A 
ATOM     18  C   UNL A   1      38.581  30.293  31.233  1.00  0.00     0.074 A 
ATOM     19  C   UNL A   1      39.379  28.885  29.349  1.00  0.00     0.049 A 
ATOM     20  N   UNL A   1      39.531  30.173  32.116  1.00  0.00    -0.248 NA
ATOM     21  C   UNL A   1      37.395  31.026  31.715  1.00  0.00     0.031 C 
ATOM     22  C   UNL A   1      39.287  28.234  28.042  1.00  0.00     0.029 A 
ATOM     23  N   UNL A   1      40.498  28.347  29.920  1.00  0.00    -0.354 N 
ATOM     24  C   UNL A   1      39.082  30.860  33.236  1.00  0.00     0.074 A 
ATOM     25  C   UNL A   1      37.771  31.381  32.930  1.00  0.00     0.031 C 
ATOM     26  C   UNL A   1      40.323  27.390  27.905  1.00  0.00     0.029 A 
ATOM     27  C   UNL A   1      41.180  27.500  29.082  1.00  0.00     0.049 A 
ATOM     28  H   UNL A   1      40.786  28.546  30.840  1.00  0.00     0.167 HD
ATOM     29  C   UNL A   1      39.731  31.054  34.406  1.00  0.00     0.037 A 
ATOM     30  C   UNL A   1      42.389  26.933  29.243  1.00  0.00     0.037 A 
ATOM     31  C   UNL A   1      41.039  30.518  34.661  1.00  0.00     0.049 A 
ATOM     32  C   UNL A   1      43.140  27.226  30.515  1.00  0.00     0.074 A 
ATOM     33  C   UNL A   1      41.851  30.690  35.765  1.00  0.00     0.029 A 
ATOM     34  N   UNL A   1      41.724  29.694  33.776  1.00  0.00    -0.354 N 
ATOM     35  N   UNL A   1      42.767  27.957  31.541  1.00  0.00    -0.248 NA
ATOM     36  C   UNL A   1      44.478  26.641  30.649  1.00  0.00     0.031 C 
ATOM     37  C   UNL A   1      43.045  29.999  35.528  1.00  0.00     0.029 A 
ATOM     38  C   UNL A   1      42.955  29.355  34.300  1.00  0.00     0.049 A 
ATOM     39  H   UNL A   1      41.381  29.395  32.902  1.00  0.00     0.167 HD
ATOM     40  C   UNL A   1      43.813  27.906  32.452  1.00  0.00     0.074 A 
ATOM     41  C   UNL A   1      44.834  27.063  31.855  1.00  0.00     0.031 C 
ATOM     42  C   UNL A   1      43.926  28.496  33.667  1.00  0.00     0.037 A 
BRANCH  29  43
ATOM     43  C   UNL A   1      39.064  31.949  35.407  1.00  0.00     0.057 A 
ATOM     44  C   UNL A   1      39.268  33.336  35.430  1.00  0.00     0.134 A 
ATOM     45  C   UNL A   1      38.273  31.399  36.423  1.00  0.00     0.134 A 
ATOM     46  F   UNL A   1      40.046  33.924  34.508  1.00  0.00    -0.206 F 
ATOM     47  C   UNL A   1      38.746  34.134  36.451  1.00  0.00     0.040 A 
ATOM     48  C   UNL A   1      37.724  32.189  37.433  1.00  0.00     0.040 A 
ATOM     49  F   UNL A   1      38.045  30.078  36.469  1.00  0.00    -0.206 F 
ATOM     50  C   UNL A   1      37.972  33.560  37.457  1.00  0.00     0.006 A 
ENDBRANCH  29  43
BRANCH  30  51
ATOM     51  C   UNL A   1      42.966  26.097  28.158  1.00  0.00     0.057 A 
ATOM     52  C   UNL A   1      43.784  26.647  27.166  1.00  0.00     0.134 A 
ATOM     53  C   UNL A   1      42.741  24.714  28.110  1.00  0.00     0.134 A 
ATOM     54  F   UNL A   1      44.024  27.966  27.145  1.00  0.00    -0.206 F 
ATOM     55  C   UNL A   1      44.358  25.856  26.168  1.00  0.00     0.040 A 
ATOM     56  C   UNL A   1      43.328  23.907  27.133  1.00  0.00     0.040 A 
ATOM     57  F   UNL A   1      41.967  24.121  29.031  1.00  0.00    -0.206 F 
ATOM     58  C   UNL A   1      44.138  24.479  26.156  1.00  0.00     0.006 A 
ENDBRANCH  30  51
BRANCH  42  59
ATOM     59  C   UNL A   1      45.171  28.208  34.447  1.00  0.00     0.057 A 
ATOM     60  C   UNL A   1      46.286  29.051  34.393  1.00  0.00     0.134 A 
ATOM     61  C   UNL A   1      45.211  27.123  35.332  1.00  0.00     0.134 A 
ATOM     62  F   UNL A   1      46.307  30.101  33.558  1.00  0.00    -0.206 F 
ATOM     63  C   UNL A   1      47.406  28.818  35.191  1.00  0.00     0.040 A 
ATOM     64  C   UNL A   1      46.315  26.895  36.149  1.00  0.00     0.040 A 
ATOM     65  F   UNL A   1      44.165  26.288  35.433  1.00  0.00    -0.206 F 
ATOM     66  C   UNL A   1      47.418  27.744  36.079  1.00  0.00     0.006 A 
ENDBRANCH  42  59
ENDBRANCH  16  17
ENDBRANCH   9  11
ENDBRANCH   8   9
ENDBRANCH   7   8
ENDBRANCH   6   7
ENDBRANCH   5   6
ENDBRANCH   4   5
ENDBRANCH   3   4
ENDBRANCH   2   3
ENDBRANCH   1   2
BRANCH   1  67
ATOM     67  C   UNL A   1      29.337  26.119  25.067  1.00  0.00     0.188 C 
BRANCH  67  68
ATOM     68  O   UNL A   1      30.344  25.170  24.783  1.00  0.00    -0.376 OA
BRANCH  68  69
ATOM     69  C   UNL A   1      30.329  24.545  23.510  1.00  0.00     0.202 C 
BRANCH  69  70
ATOM     70  C   UNL A   1      31.539  23.749  22.980  1.00  0.00     0.261 C 
BRANCH  70  71
ATOM     71  O   UNL A   1      32.610  23.483  23.894  1.00  0.00    -0.460 OA
BRANCH  71  72
ATOM     72  C   UNL A   1      32.527  22.454  24.767  1.00  0.00     0.341 C 
ATOM     73  O   UNL A   1      31.535  22.061  25.354  1.00  0.00    -0.246 OA
BRANCH  72  74
ATOM     74  C   UNL A   1      33.816  21.743  24.697  1.00  0.00     0.098 A 
ATOM     75  C   UNL A   1      35.002  22.412  25.060  1.00  0.00     0.029 A 
ATOM     76  C   UNL A   1      33.870  20.373  24.487  1.00  0.00     0.143 A 
ATOM     77  C   UNL A   1      36.174  21.675  25.290  1.00  0.00     0.001 A 
ATOM     78  N   UNL A   1      34.999  19.641  24.627  1.00  0.00    -0.243 NA
ATOM     79  Cl  UNL A   1      32.515  19.425  24.015  1.00  0.00    -0.061 Cl
ATOM     80  C   UNL A   1      36.106  20.301  25.044  1.00  0.00     0.121 A 
BRANCH  77  81
ATOM     81  C   UNL A   1      37.422  22.269  25.786  1.00  0.00    -0.013 A 
ATOM     82  C   UNL A   1      37.444  23.620  26.158  1.00  0.00     0.009 A 
ATOM     83  C   UNL A   1      38.638  21.544  25.791  1.00  0.00     0.055 A 
ATOM     84  C   UNL A   1      38.642  24.245  26.503  1.00  0.00     0.004 A 
ATOM     85  C   UNL A   1      39.844  22.173  26.130  1.00  0.00     0.130 A 
ATOM     86  C   UNL A   1      39.832  23.524  26.481  1.00  0.00     0.047 A 
BRANCH  85  87
ATOM     87  O   UNL A   1      41.096  21.627  26.130  1.00  0.00    -0.406 OA
BRANCH  87  88
ATOM     88  C   UNL A   1      41.454  20.739  27.167  1.00  0.00     0.573 C 
ATOM     89  F   UNL A   1      42.781  20.485  27.141  1.00  0.00    -0.132 F 
ATOM     90  F   UNL A   1      41.113  21.226  28.378  1.00  0.00    -0.132 F 
ATOM     91  F   UNL A   1      40.805  19.568  26.985  1.00  0.00    -0.132 F 
ENDBRANCH  87  88
ENDBRANCH  85  87
ENDBRANCH  77  81
ENDBRANCH  72  74
ENDBRANCH  71  72
ENDBRANCH  70  71
ENDBRANCH  69  70
ENDBRANCH  68  69
ENDBRANCH  67  68
ENDBRANCH   1  67
TORSDOF 23
ENDMDL
MODEL 3
REMARK VINA RESULT:     -10.0      6.930      9.385
REMARK SMILES O=C(OCCOCCOCCOCCOC(=O)c1cc(-c2cccc(OC(F)(F)F)c2)cnc1Cl)c1ccc(-c2c3nc(c(-c4c(F)cccc4F)c4ccc([nH]4)c(-c4c(F)cccc4F)c4nc(c(-c5c(F)cccc5F)c5ccc2[nH]5)C=C4)C=C3)cc1
REMARK SMILES IDX 10 1 9 2 8 3 7 4 6 5 5 6 4 7 3 8 2 9 1 10 36 11 37 12 89 13
REMARK SMILES IDX 38 14 88 15 39 16 40 17 41 18 82 19 42 20 87 21 81 22 83 23
REMARK SMILES IDX 43 24 86 25 80 26 79 27 44 29 70 30 53 31 69 32 54 33 57 34
REMARK SMILES IDX 68 35 84 36 55 37 56 38 67 40 85 41 58 42 45 43 46 44 51 45
REMARK SMILES IDX 47 46 48 47 50 48 52 49 49 50 71 51 72 52 77 53 73 54 74 55
REMARK SMILES IDX 76 56 78 57 75 58 59 59 60 60 65 61 61 62 62 63 64 64 66 65
REMARK SMILES IDX 63 66 11 67 12 68 13 69 14 70 15 71 16 72 17 73 18 74 19 75
REMARK SMILES IDX 34 76 20 77 33 78 35 79 32 80 21 81 22 82 31 83 23 84 25 85
REMARK SMILES IDX 24 86 26 87 27 88 28 89 29 90 30 91
REMARK H PARENT 83 28 57 39
REMARK Flexibility Score: inf
ROOT
ATOM      1  C   UNL A   1      36.733  20.584  25.013  1.00  0.00     0.188 C 
ENDROOT
BRANCH   1   2
ATOM      2  O   UNL A   1      37.735  21.254  25.769  1.00  0.00    -0.377 OA
BRANCH   2   3
ATOM      3  C   UNL A   1      38.188  22.506  25.256  1.00  0.00     0.188 C 
BRANCH   3   4
ATOM      4  C   UNL A   1      37.810  23.718  26.107  1.00  0.00     0.188 C 
BRANCH   4   5
ATOM      5  O   UNL A   1      38.684  23.823  27.238  1.00  0.00    -0.376 OA
BRANCH   5   6
ATOM      6  C   UNL A   1      40.070  23.965  26.927  1.00  0.00     0.202 C 
BRANCH   6   7
ATOM      7  C   UNL A   1      41.015  23.253  27.894  1.00  0.00     0.261 C 
BRANCH   7   8
ATOM      8  O   UNL A   1      42.158  22.705  27.226  1.00  0.00    -0.460 OA
BRANCH   8   9
ATOM      9  C   UNL A   1      42.810  23.211  26.152  1.00  0.00     0.338 C 
ATOM     10  O   UNL A   1      42.745  22.586  25.093  1.00  0.00    -0.246 OA
BRANCH   9  11
ATOM     11  C   UNL A   1      43.596  24.490  26.153  1.00  0.00     0.060 A 
ATOM     12  C   UNL A   1      43.997  25.221  25.030  1.00  0.00     0.016 A 
ATOM     13  C   UNL A   1      43.914  25.017  27.418  1.00  0.00     0.016 A 
ATOM     14  C   UNL A   1      44.739  26.390  25.139  1.00  0.00     0.010 A 
ATOM     15  C   UNL A   1      44.660  26.189  27.544  1.00  0.00     0.010 A 
ATOM     16  C   UNL A   1      45.107  26.851  26.396  1.00  0.00    -0.014 A 
BRANCH  16  17
ATOM     17  C   UNL A   1      46.173  27.859  26.478  1.00  0.00     0.031 A 
ATOM     18  C   UNL A   1      45.744  29.284  26.644  1.00  0.00     0.074 A 
ATOM     19  C   UNL A   1      47.464  27.498  26.506  1.00  0.00     0.049 A 
ATOM     20  N   UNL A   1      46.447  30.378  26.583  1.00  0.00    -0.248 NA
ATOM     21  C   UNL A   1      44.312  29.499  26.926  1.00  0.00     0.031 C 
ATOM     22  C   UNL A   1      47.956  26.120  26.512  1.00  0.00     0.029 A 
ATOM     23  N   UNL A   1      48.596  28.264  26.540  1.00  0.00    -0.354 N 
ATOM     24  C   UNL A   1      45.537  31.412  26.763  1.00  0.00     0.074 A 
ATOM     25  C   UNL A   1      44.235  30.817  26.951  1.00  0.00     0.031 C 
ATOM     26  C   UNL A   1      49.298  26.139  26.532  1.00  0.00     0.029 A 
ATOM     27  C   UNL A   1      49.751  27.526  26.468  1.00  0.00     0.049 A 
ATOM     28  H   UNL A   1      48.584  29.246  26.609  1.00  0.00     0.167 HD
ATOM     29  C   UNL A   1      45.778  32.742  26.745  1.00  0.00     0.037 A 
ATOM     30  C   UNL A   1      51.020  27.944  26.310  1.00  0.00     0.037 A 
ATOM     31  C   UNL A   1      47.092  33.286  26.549  1.00  0.00     0.049 A 
ATOM     32  C   UNL A   1      51.265  29.425  26.205  1.00  0.00     0.074 A 
ATOM     33  C   UNL A   1      47.480  34.606  26.434  1.00  0.00     0.029 A 
ATOM     34  N   UNL A   1      48.241  32.512  26.440  1.00  0.00    -0.354 N 
ATOM     35  N   UNL A   1      50.398  30.410  26.274  1.00  0.00    -0.248 NA
ATOM     36  C   UNL A   1      52.649  29.857  25.981  1.00  0.00     0.031 C 
ATOM     37  C   UNL A   1      48.863  34.627  26.215  1.00  0.00     0.029 A 
ATOM     38  C   UNL A   1      49.341  33.323  26.247  1.00  0.00     0.049 A 
ATOM     39  H   UNL A   1      48.267  31.529  26.493  1.00  0.00     0.167 HD
ATOM     40  C   UNL A   1      51.130  31.579  26.122  1.00  0.00     0.074 A 
ATOM     41  C   UNL A   1      52.516  31.177  25.964  1.00  0.00     0.031 C 
ATOM     42  C   UNL A   1      50.704  32.867  26.113  1.00  0.00     0.037 A 
BRANCH  29  43
ATOM     43  C   UNL A   1      44.584  33.644  26.839  1.00  0.00     0.057 A 
ATOM     44  C   UNL A   1      43.914  34.127  25.706  1.00  0.00     0.134 A 
ATOM     45  C   UNL A   1      44.153  34.111  28.087  1.00  0.00     0.134 A 
ATOM     46  F   UNL A   1      44.300  33.750  24.477  1.00  0.00    -0.206 F 
ATOM     47  C   UNL A   1      42.890  35.072  25.809  1.00  0.00     0.040 A 
ATOM     48  C   UNL A   1      43.114  35.035  28.205  1.00  0.00     0.040 A 
ATOM     49  F   UNL A   1      44.755  33.700  29.213  1.00  0.00    -0.206 F 
ATOM     50  C   UNL A   1      42.488  35.529  27.063  1.00  0.00     0.006 A 
ENDBRANCH  29  43
BRANCH  30  51
ATOM     51  C   UNL A   1      52.118  26.949  26.187  1.00  0.00     0.057 A 
ATOM     52  C   UNL A   1      52.918  26.602  27.279  1.00  0.00     0.134 A 
ATOM     53  C   UNL A   1      52.368  26.292  24.973  1.00  0.00     0.134 A 
ATOM     54  F   UNL A   1      52.744  27.207  28.463  1.00  0.00    -0.206 F 
ATOM     55  C   UNL A   1      53.926  25.639  27.173  1.00  0.00     0.040 A 
ATOM     56  C   UNL A   1      53.353  25.310  24.859  1.00  0.00     0.040 A 
ATOM     57  F   UNL A   1      51.636  26.575  23.886  1.00  0.00    -0.206 F 
ATOM     58  C   UNL A   1      54.138  24.983  25.961  1.00  0.00     0.006 A 
ENDBRANCH  30  51
BRANCH  42  59
ATOM     59  C   UNL A   1      51.752  33.927  25.978  1.00  0.00     0.057 A 
ATOM     60  C   UNL A   1      52.191  34.375  24.728  1.00  0.00     0.134 A 
ATOM     61  C   UNL A   1      52.256  34.567  27.118  1.00  0.00     0.134 A 
ATOM     62  F   UNL A   1      51.750  33.793  23.603  1.00  0.00    -0.206 F 
ATOM     63  C   UNL A   1      53.105  35.423  24.616  1.00  0.00     0.040 A 
ATOM     64  C   UNL A   1      53.150  35.630  27.017  1.00  0.00     0.040 A 
ATOM     65  F   UNL A   1      51.860  34.186  28.343  1.00  0.00    -0.206 F 
ATOM     66  C   UNL A   1      53.578  36.060  25.762  1.00  0.00     0.006 A 
ENDBRANCH  42  59
ENDBRANCH  16  17
ENDBRANCH   9  11
ENDBRANCH   8   9
ENDBRANCH   7   8
ENDBRANCH   6   7
ENDBRANCH   5   6
ENDBRANCH   4   5
ENDBRANCH   3   4
ENDBRANCH   2   3
ENDBRANCH   1   2
BRANCH   1  67
ATOM     67  C   UNL A   1      35.279  21.095  25.117  1.00  0.00     0.188 C 
BRANCH  67  68
ATOM     68  O   UNL A   1      34.326  20.117  24.761  1.00  0.00    -0.376 OA
BRANCH  68  69
ATOM     69  C   UNL A   1      32.982  20.315  25.172  1.00  0.00     0.202 C 
BRANCH  69  70
ATOM     70  C   UNL A   1      32.574  21.493  26.080  1.00  0.00     0.261 C 
BRANCH  70  71
ATOM     71  O   UNL A   1      31.914  22.606  25.466  1.00  0.00    -0.460 OA
BRANCH  71  72
ATOM     72  C   UNL A   1      31.610  23.707  26.188  1.00  0.00     0.341 C 
ATOM     73  O   UNL A   1      31.394  23.769  27.386  1.00  0.00    -0.246 OA
BRANCH  72  74
ATOM     74  C   UNL A   1      31.822  24.863  25.299  1.00  0.00     0.098 A 
ATOM     75  C   UNL A   1      30.711  25.587  24.821  1.00  0.00     0.029 A 
ATOM     76  C   UNL A   1      33.089  25.384  25.088  1.00  0.00     0.143 A 
ATOM     77  C   UNL A   1      30.903  26.847  24.234  1.00  0.00     0.001 A 
ATOM     78  N   UNL A   1      33.316  26.561  24.461  1.00  0.00    -0.243 NA
ATOM     79  Cl  UNL A   1      34.539  24.605  25.587  1.00  0.00    -0.061 Cl
ATOM     80  C   UNL A   1      32.226  27.267  24.074  1.00  0.00     0.121 A 
BRANCH  77  81
ATOM     81  C   UNL A   1      29.801  27.725  23.818  1.00  0.00    -0.013 A 
ATOM     82  C   UNL A   1      28.499  27.212  23.745  1.00  0.00     0.009 A 
ATOM     83  C   UNL A   1      30.035  29.049  23.376  1.00  0.00     0.055 A 
ATOM     84  C   UNL A   1      27.458  27.980  23.225  1.00  0.00     0.004 A 
ATOM     85  C   UNL A   1      28.991  29.820  22.844  1.00  0.00     0.130 A 
ATOM     86  C   UNL A   1      27.709  29.273  22.773  1.00  0.00     0.047 A 
BRANCH  85  87
ATOM     87  O   UNL A   1      29.067  31.083  22.330  1.00  0.00    -0.406 OA
BRANCH  87  88
ATOM     88  C   UNL A   1      28.761  32.180  23.165  1.00  0.00     0.573 C 
ATOM     89  F   UNL A   1      27.428  32.262  23.374  1.00  0.00    -0.132 F 
ATOM     90  F   UNL A   1      29.398  32.095  24.351  1.00  0.00    -0.132 F 
ATOM     91  F   UNL A   1      29.155  33.319  22.554  1.00  0.00    -0.132 F 
ENDBRANCH  87  88
ENDBRANCH  85  87
ENDBRANCH  77  81
ENDBRANCH  72  74
ENDBRANCH  71  72
ENDBRANCH  70  71
ENDBRANCH  69  70
ENDBRANCH  68  69
ENDBRANCH  67  68
ENDBRANCH   1  67
TORSDOF 23
ENDMDL
