MODEL 1
REMARK VINA RESULT:     -10.8      0.000      0.000
REMARK SMILES COc1cccc(NC(=O)[C@@H]2[C@@H](C(=O)OCCOCCOCCOCCOC(=O)c3ccc(-c4c5nc(c(-c6c(F)cccc6F)c6ccc([nH]6)c(-c6c(F)cccc6F)c6nc(c(-c7c(F)cccc7F)c7ccc4[nH]7)C=C6)C=C5)cc3)[C@H]3C=C[C@@H]2C3)c1
REMARK SMILES IDX 20 1 19 2 18 3 17 4 16 5 15 6 13 7 14 8 12 9 11 10 87 11
REMARK SMILES IDX 84 12 86 13 88 14 85 15 9 16 8 17 10 19 7 20 3 21 4 22 89 23
REMARK SMILES IDX 5 24 6 25 2 26 1 27 21 28 22 29 23 30 24 31 25 32 26 33
REMARK SMILES IDX 27 34 28 35 29 36 30 37 31 38 83 39 32 40 82 41 33 42 34 43
REMARK SMILES IDX 35 44 76 45 36 46 81 47 75 48 77 49 37 50 80 51 74 52 73 53
REMARK SMILES IDX 38 55 64 56 47 57 63 58 48 59 51 60 62 61 78 62 49 63 50 64
REMARK SMILES IDX 61 66 79 67 52 68 39 69 40 70 45 71 41 72 42 73 44 74 46 75
REMARK SMILES IDX 43 76 65 77 66 78 71 79 67 80 68 81 70 82 72 83 69 84 53 85
REMARK SMILES IDX 54 86 59 87 55 88 56 89 58 90 60 91 57 92
REMARK H PARENT 8 18 77 54 51 65
REMARK Flexibility Score: inf
ROOT
ATOM      1  C   UNL A   1      38.325  19.954  25.220  1.00  0.00     0.188 C 
ENDROOT
BRANCH   1   2
ATOM      2  C   UNL A   1      38.416  21.469  25.516  1.00  0.00     0.188 C 
BRANCH   2   3
ATOM      3  O   UNL A   1      37.184  22.075  25.875  1.00  0.00    -0.376 OA
BRANCH   3   4
ATOM      4  C   UNL A   1      36.325  22.585  24.873  1.00  0.00     0.202 C 
BRANCH   4   5
ATOM      5  C   UNL A   1      35.985  24.088  24.904  1.00  0.00     0.261 C 
BRANCH   5   6
ATOM      6  O   UNL A   1      34.870  24.451  25.729  1.00  0.00    -0.463 OA
BRANCH   6   7
ATOM      7  C   UNL A   1      34.016  25.291  25.114  1.00  0.00     0.310 C 
ATOM      8  O   UNL A   1      33.975  25.392  23.899  1.00  0.00    -0.252 OA
BRANCH   7   9
ATOM      9  C   UNL A   1      33.024  25.965  26.020  1.00  0.00     0.119 C 
ATOM     10  C   UNL A   1      31.690  26.251  25.256  1.00  0.00     0.100 C 
ATOM     11  C   UNL A   1      31.485  27.762  25.573  1.00  0.00     0.025 C 
ATOM     12  C   UNL A   1      33.456  27.360  26.543  1.00  0.00     0.027 C 
ATOM     13  C   UNL A   1      32.539  28.517  24.784  1.00  0.00    -0.027 C 
ATOM     14  C   UNL A   1      32.101  27.921  26.971  1.00  0.00     0.017 C 
ATOM     15  C   UNL A   1      33.720  28.281  25.374  1.00  0.00    -0.027 C 
BRANCH  10  16
ATOM     16  C   UNL A   1      30.549  25.382  25.773  1.00  0.00     0.228 C 
ATOM     17  N   UNL A   1      30.463  24.031  25.591  1.00  0.00    -0.326 N 
ATOM     18  H   UNL A   1      29.716  23.642  26.101  1.00  0.00     0.169 HD
ATOM     19  O   UNL A   1      29.669  25.882  26.485  1.00  0.00    -0.274 OA
BRANCH  17  20
ATOM     20  C   UNL A   1      31.165  23.047  24.863  1.00  0.00     0.044 A 
ATOM     21  C   UNL A   1      32.616  21.095  24.994  1.00  0.00     0.120 A 
ATOM     22  C   UNL A   1      32.904  21.185  23.641  1.00  0.00     0.046 A 
ATOM     23  C   UNL A   1      31.775  22.028  25.611  1.00  0.00     0.072 A 
ATOM     24  C   UNL A   1      32.224  22.123  22.877  1.00  0.00     0.006 A 
ATOM     25  C   UNL A   1      31.312  23.003  23.481  1.00  0.00     0.026 A 
BRANCH  21  26
ATOM     26  O   UNL A   1      33.229  20.102  25.708  1.00  0.00    -0.497 OA
ATOM     27  C   UNL A   1      32.743  18.825  25.290  1.00  0.00     0.278 C 
ENDBRANCH  21  26
ENDBRANCH  17  20
ENDBRANCH  10  16
ENDBRANCH   7   9
ENDBRANCH   6   7
ENDBRANCH   5   6
ENDBRANCH   4   5
ENDBRANCH   3   4
ENDBRANCH   2   3
ENDBRANCH   1   2
BRANCH   1  28
ATOM     28  O   UNL A   1      39.472  19.130  25.377  1.00  0.00    -0.377 OA
BRANCH  28  29
ATOM     29  C   UNL A   1      40.614  19.629  26.066  1.00  0.00     0.188 C 
BRANCH  29  30
ATOM     30  C   UNL A   1      41.926  18.813  26.144  1.00  0.00     0.188 C 
BRANCH  30  31
ATOM     31  O   UNL A   1      43.108  19.592  26.153  1.00  0.00    -0.376 OA
BRANCH  31  32
ATOM     32  C   UNL A   1      42.970  21.000  26.164  1.00  0.00     0.202 C 
BRANCH  32  33
ATOM     33  C   UNL A   1      43.693  21.792  25.064  1.00  0.00     0.261 C 
BRANCH  33  34
ATOM     34  O   UNL A   1      43.182  23.104  24.780  1.00  0.00    -0.460 OA
BRANCH  34  35
ATOM     35  C   UNL A   1      43.995  24.155  25.016  1.00  0.00     0.338 C 
ATOM     36  O   UNL A   1      45.059  24.403  24.470  1.00  0.00    -0.246 OA
BRANCH  35  37
ATOM     37  C   UNL A   1      43.278  25.083  25.916  1.00  0.00     0.060 A 
ATOM     38  C   UNL A   1      43.667  26.430  25.963  1.00  0.00     0.016 A 
ATOM     39  C   UNL A   1      42.210  24.628  26.692  1.00  0.00     0.016 A 
ATOM     40  C   UNL A   1      43.009  27.318  26.814  1.00  0.00     0.010 A 
ATOM     41  C   UNL A   1      41.572  25.512  27.566  1.00  0.00     0.010 A 
ATOM     42  C   UNL A   1      41.992  26.851  27.656  1.00  0.00    -0.014 A 
BRANCH  42  43
ATOM     43  C   UNL A   1      41.526  27.699  28.779  1.00  0.00     0.031 A 
ATOM     44  C   UNL A   1      42.270  27.612  30.084  1.00  0.00     0.074 A 
ATOM     45  C   UNL A   1      40.487  28.542  28.644  1.00  0.00     0.049 A 
ATOM     46  N   UNL A   1      42.029  28.209  31.222  1.00  0.00    -0.248 NA
ATOM     47  C   UNL A   1      43.446  26.725  30.108  1.00  0.00     0.031 C 
ATOM     48  C   UNL A   1      39.717  28.752  27.420  1.00  0.00     0.029 A 
ATOM     49  N   UNL A   1      39.895  29.374  29.562  1.00  0.00    -0.354 N 
ATOM     50  C   UNL A   1      43.008  27.759  32.098  1.00  0.00     0.074 A 
ATOM     51  C   UNL A   1      43.836  26.824  31.370  1.00  0.00     0.031 C 
ATOM     52  C   UNL A   1      38.744  29.648  27.666  1.00  0.00     0.029 A 
ATOM     53  C   UNL A   1      38.800  30.046  29.072  1.00  0.00     0.049 A 
ATOM     54  H   UNL A   1      40.223  29.480  30.484  1.00  0.00     0.167 HD
ATOM     55  C   UNL A   1      43.200  28.095  33.394  1.00  0.00     0.037 A 
ATOM     56  C   UNL A   1      37.933  30.864  29.699  1.00  0.00     0.037 A 
ATOM     57  C   UNL A   1      42.381  29.034  34.113  1.00  0.00     0.049 A 
ATOM     58  C   UNL A   1      38.129  31.162  31.166  1.00  0.00     0.074 A 
ATOM     59  C   UNL A   1      42.520  29.473  35.418  1.00  0.00     0.029 A 
ATOM     60  N   UNL A   1      41.263  29.668  33.592  1.00  0.00    -0.354 N 
ATOM     61  N   UNL A   1      39.083  30.767  31.974  1.00  0.00    -0.248 NA
ATOM     62  C   UNL A   1      37.122  32.022  31.807  1.00  0.00     0.031 C 
ATOM     63  C   UNL A   1      41.447  30.321  35.708  1.00  0.00     0.029 A 
ATOM     64  C   UNL A   1      40.680  30.465  34.563  1.00  0.00     0.049 A 
ATOM     65  H   UNL A   1      40.934  29.566  32.670  1.00  0.00     0.167 HD
ATOM     66  C   UNL A   1      38.815  31.363  33.202  1.00  0.00     0.074 A 
ATOM     67  C   UNL A   1      37.616  32.156  33.029  1.00  0.00     0.031 C 
ATOM     68  C   UNL A   1      39.498  31.265  34.369  1.00  0.00     0.037 A 
BRANCH  55  69
ATOM     69  C   UNL A   1      44.316  27.420  34.136  1.00  0.00     0.057 A 
ATOM     70  C   UNL A   1      44.141  26.204  34.806  1.00  0.00     0.134 A 
ATOM     71  C   UNL A   1      45.604  27.973  34.126  1.00  0.00     0.134 A 
ATOM     72  F   UNL A   1      42.929  25.629  34.868  1.00  0.00    -0.206 F 
ATOM     73  C   UNL A   1      45.203  25.568  35.452  1.00  0.00     0.040 A 
ATOM     74  C   UNL A   1      46.679  27.333  34.742  1.00  0.00     0.040 A 
ATOM     75  F   UNL A   1      45.841  29.136  33.499  1.00  0.00    -0.206 F 
ATOM     76  C   UNL A   1      46.478  26.128  35.411  1.00  0.00     0.006 A 
ENDBRANCH  55  69
BRANCH  56  77
ATOM     77  C   UNL A   1      36.777  31.449  28.969  1.00  0.00     0.057 A 
ATOM     78  C   UNL A   1      36.746  32.806  28.624  1.00  0.00     0.134 A 
ATOM     79  C   UNL A   1      35.645  30.685  28.660  1.00  0.00     0.134 A 
ATOM     80  F   UNL A   1      37.787  33.600  28.916  1.00  0.00    -0.206 F 
ATOM     81  C   UNL A   1      35.623  33.389  28.033  1.00  0.00     0.040 A 
ATOM     82  C   UNL A   1      34.527  31.246  28.040  1.00  0.00     0.040 A 
ATOM     83  F   UNL A   1      35.606  29.379  28.963  1.00  0.00    -0.206 F 
ATOM     84  C   UNL A   1      34.508  32.605  27.738  1.00  0.00     0.006 A 
ENDBRANCH  56  77
BRANCH  68  85
ATOM     85  C   UNL A   1      39.003  32.074  35.534  1.00  0.00     0.057 A 
ATOM     86  C   UNL A   1      38.214  31.518  36.549  1.00  0.00     0.134 A 
ATOM     87  C   UNL A   1      39.359  33.424  35.662  1.00  0.00     0.134 A 
ATOM     88  F   UNL A   1      37.830  30.234  36.484  1.00  0.00    -0.206 F 
ATOM     89  C   UNL A   1      37.772  32.282  37.631  1.00  0.00     0.040 A 
ATOM     90  C   UNL A   1      38.952  34.189  36.755  1.00  0.00     0.040 A 
ATOM     91  F   UNL A   1      40.124  34.018  34.733  1.00  0.00    -0.206 F 
ATOM     92  C   UNL A   1      38.147  33.619  37.740  1.00  0.00     0.006 A 
ENDBRANCH  68  85
ENDBRANCH  42  43
ENDBRANCH  35  37
ENDBRANCH  34  35
ENDBRANCH  33  34
ENDBRANCH  32  33
ENDBRANCH  31  32
ENDBRANCH  30  31
ENDBRANCH  29  30
ENDBRANCH  28  29
ENDBRANCH   1  28
TORSDOF 23
ENDMDL
MODEL 2
REMARK VINA RESULT:     -10.6      1.028      3.002
REMARK SMILES COc1cccc(NC(=O)[C@@H]2[C@@H](C(=O)OCCOCCOCCOCCOC(=O)c3ccc(-c4c5nc(c(-c6c(F)cccc6F)c6ccc([nH]6)c(-c6c(F)cccc6F)c6nc(c(-c7c(F)cccc7F)c7ccc4[nH]7)C=C6)C=C5)cc3)[C@H]3C=C[C@@H]2C3)c1
REMARK SMILES IDX 20 1 19 2 18 3 17 4 16 5 15 6 13 7 14 8 12 9 11 10 87 11
REMARK SMILES IDX 84 12 86 13 88 14 85 15 9 16 8 17 10 19 7 20 3 21 4 22 89 23
REMARK SMILES IDX 5 24 6 25 2 26 1 27 21 28 22 29 23 30 24 31 25 32 26 33
REMARK SMILES IDX 27 34 28 35 29 36 30 37 31 38 83 39 32 40 82 41 33 42 34 43
REMARK SMILES IDX 35 44 76 45 36 46 81 47 75 48 77 49 37 50 80 51 74 52 73 53
REMARK SMILES IDX 38 55 64 56 47 57 63 58 48 59 51 60 62 61 78 62 49 63 50 64
REMARK SMILES IDX 61 66 79 67 52 68 39 69 40 70 45 71 41 72 42 73 44 74 46 75
REMARK SMILES IDX 43 76 65 77 66 78 71 79 67 80 68 81 70 82 72 83 69 84 53 85
REMARK SMILES IDX 54 86 59 87 55 88 56 89 58 90 60 91 57 92
REMARK H PARENT 8 18 77 54 51 65
REMARK Flexibility Score: inf
ROOT
ATOM      1  C   UNL A   1      40.133  21.893  26.762  1.00  0.00     0.188 C 
ENDROOT
BRANCH   1   2
ATOM      2  C   UNL A   1      38.744  22.092  26.113  1.00  0.00     0.188 C 
BRANCH   2   3
ATOM      3  O   UNL A   1      38.287  23.436  26.095  1.00  0.00    -0.376 OA
BRANCH   3   4
ATOM      4  C   UNL A   1      36.900  23.713  26.101  1.00  0.00     0.202 C 
BRANCH   4   5
ATOM      5  C   UNL A   1      36.223  24.060  24.760  1.00  0.00     0.261 C 
BRANCH   5   6
ATOM      6  O   UNL A   1      34.833  24.402  24.842  1.00  0.00    -0.463 OA
BRANCH   6   7
ATOM      7  C   UNL A   1      34.103  23.868  23.843  1.00  0.00     0.310 C 
ATOM      8  O   UNL A   1      34.425  23.994  22.673  1.00  0.00    -0.252 OA
BRANCH   7   9
ATOM      9  C   UNL A   1      32.970  22.986  24.284  1.00  0.00     0.119 C 
ATOM     10  C   UNL A   1      32.764  23.089  25.831  1.00  0.00     0.100 C 
ATOM     11  C   UNL A   1      32.760  21.584  26.231  1.00  0.00     0.025 C 
ATOM     12  C   UNL A   1      33.185  21.470  24.041  1.00  0.00     0.027 C 
ATOM     13  C   UNL A   1      34.186  21.089  26.072  1.00  0.00    -0.027 C 
ATOM     14  C   UNL A   1      32.150  20.890  25.003  1.00  0.00     0.017 C 
ATOM     15  C   UNL A   1      34.435  21.013  24.757  1.00  0.00    -0.027 C 
BRANCH  10  16
ATOM     16  C   UNL A   1      31.458  23.794  26.179  1.00  0.00     0.228 C 
ATOM     17  N   UNL A   1      31.244  25.136  26.044  1.00  0.00    -0.326 N 
ATOM     18  H   UNL A   1      30.303  25.373  26.209  1.00  0.00     0.169 HD
ATOM     19  O   UNL A   1      30.474  23.128  26.527  1.00  0.00    -0.274 OA
BRANCH  17  20
ATOM     20  C   UNL A   1      32.019  26.272  25.730  1.00  0.00     0.044 A 
ATOM     21  C   UNL A   1      32.524  27.969  24.057  1.00  0.00     0.120 A 
ATOM     22  C   UNL A   1      33.668  28.345  24.743  1.00  0.00     0.046 A 
ATOM     23  C   UNL A   1      31.715  26.927  24.526  1.00  0.00     0.072 A 
ATOM     24  C   UNL A   1      33.917  27.775  25.983  1.00  0.00     0.006 A 
ATOM     25  C   UNL A   1      33.057  26.791  26.497  1.00  0.00     0.026 A 
BRANCH  21  26
ATOM     26  O   UNL A   1      32.250  28.612  22.880  1.00  0.00    -0.497 OA
ATOM     27  C   UNL A   1      30.857  28.922  22.802  1.00  0.00     0.278 C 
ENDBRANCH  21  26
ENDBRANCH  17  20
ENDBRANCH  10  16
ENDBRANCH   7   9
ENDBRANCH   6   7
ENDBRANCH   5   6
ENDBRANCH   4   5
ENDBRANCH   3   4
ENDBRANCH   2   3
ENDBRANCH   1   2
BRANCH   1  28
ATOM     28  O   UNL A   1      41.143  21.174  26.070  1.00  0.00    -0.377 OA
BRANCH  28  29
ATOM     29  C   UNL A   1      41.351  19.793  26.352  1.00  0.00     0.188 C 
BRANCH  29  30
ATOM     30  C   UNL A   1      42.671  19.083  25.971  1.00  0.00     0.188 C 
BRANCH  30  31
ATOM     31  O   UNL A   1      43.345  19.645  24.859  1.00  0.00    -0.376 OA
BRANCH  31  32
ATOM     32  C   UNL A   1      44.439  20.504  25.115  1.00  0.00     0.202 C 
BRANCH  32  33
ATOM     33  C   UNL A   1      44.410  21.900  24.475  1.00  0.00     0.261 C 
BRANCH  33  34
ATOM     34  O   UNL A   1      43.820  22.950  25.258  1.00  0.00    -0.460 OA
BRANCH  34  35
ATOM     35  C   UNL A   1      44.468  24.133  25.305  1.00  0.00     0.338 C 
ATOM     36  O   UNL A   1      45.418  24.482  24.622  1.00  0.00    -0.246 OA
BRANCH  35  37
ATOM     37  C   UNL A   1      43.699  25.030  26.193  1.00  0.00     0.060 A 
ATOM     38  C   UNL A   1      43.976  26.405  26.184  1.00  0.00     0.016 A 
ATOM     39  C   UNL A   1      42.693  24.517  27.013  1.00  0.00     0.016 A 
ATOM     40  C   UNL A   1      43.268  27.267  27.022  1.00  0.00     0.010 A 
ATOM     41  C   UNL A   1      42.006  25.376  27.875  1.00  0.00     0.010 A 
ATOM     42  C   UNL A   1      42.315  26.748  27.908  1.00  0.00    -0.014 A 
BRANCH  42  43
ATOM     43  C   UNL A   1      41.809  27.595  29.015  1.00  0.00     0.031 A 
ATOM     44  C   UNL A   1      42.513  27.515  30.342  1.00  0.00     0.074 A 
ATOM     45  C   UNL A   1      40.768  28.429  28.846  1.00  0.00     0.049 A 
ATOM     46  N   UNL A   1      42.232  28.112  31.472  1.00  0.00    -0.248 NA
ATOM     47  C   UNL A   1      43.694  26.637  30.404  1.00  0.00     0.031 C 
ATOM     48  C   UNL A   1      40.035  28.632  27.599  1.00  0.00     0.029 A 
ATOM     49  N   UNL A   1      40.142  29.259  29.744  1.00  0.00    -0.354 N 
ATOM     50  C   UNL A   1      43.188  27.670  32.378  1.00  0.00     0.074 A 
ATOM     51  C   UNL A   1      44.044  26.740  31.678  1.00  0.00     0.031 C 
ATOM     52  C   UNL A   1      39.049  29.522  27.813  1.00  0.00     0.029 A 
ATOM     53  C   UNL A   1      39.059  29.922  29.220  1.00  0.00     0.049 A 
ATOM     54  H   UNL A   1      40.442  29.369  30.676  1.00  0.00     0.167 HD
ATOM     55  C   UNL A   1      43.337  28.010  33.679  1.00  0.00     0.037 A 
ATOM     56  C   UNL A   1      38.167  30.735  29.818  1.00  0.00     0.037 A 
ATOM     57  C   UNL A   1      42.490  28.944  34.370  1.00  0.00     0.049 A 
ATOM     58  C   UNL A   1      38.315  31.036  31.290  1.00  0.00     0.074 A 
ATOM     59  C   UNL A   1      42.586  29.386  35.677  1.00  0.00     0.029 A 
ATOM     60  N   UNL A   1      41.384  29.569  33.814  1.00  0.00    -0.354 N 
ATOM     61  N   UNL A   1      39.247  30.650  32.128  1.00  0.00    -0.248 NA
ATOM     62  C   UNL A   1      37.283  31.890  31.899  1.00  0.00     0.031 C 
ATOM     63  C   UNL A   1      41.498  30.227  35.933  1.00  0.00     0.029 A 
ATOM     64  C   UNL A   1      40.766  30.363  34.765  1.00  0.00     0.049 A 
ATOM     65  H   UNL A   1      41.084  29.463  32.882  1.00  0.00     0.167 HD
ATOM     66  C   UNL A   1      38.937  31.246  33.346  1.00  0.00     0.074 A 
ATOM     67  C   UNL A   1      37.739  32.030  33.135  1.00  0.00     0.031 C 
ATOM     68  C   UNL A   1      39.584  31.154  34.534  1.00  0.00     0.037 A 
BRANCH  55  69
ATOM     69  C   UNL A   1      44.434  27.344  34.455  1.00  0.00     0.057 A 
ATOM     70  C   UNL A   1      44.251  26.122  35.113  1.00  0.00     0.134 A 
ATOM     71  C   UNL A   1      45.715  27.913  34.494  1.00  0.00     0.134 A 
ATOM     72  F   UNL A   1      43.046  25.532  35.128  1.00  0.00    -0.206 F 
ATOM     73  C   UNL A   1      45.298  25.495  35.791  1.00  0.00     0.040 A 
ATOM     74  C   UNL A   1      46.776  27.283  35.144  1.00  0.00     0.040 A 
ATOM     75  F   UNL A   1      45.960  29.082  33.883  1.00  0.00    -0.206 F 
ATOM     76  C   UNL A   1      46.567  26.070  35.799  1.00  0.00     0.006 A 
ENDBRANCH  55  69
BRANCH  56  77
ATOM     77  C   UNL A   1      37.029  31.311  29.052  1.00  0.00     0.057 A 
ATOM     78  C   UNL A   1      37.029  32.652  28.649  1.00  0.00     0.134 A 
ATOM     79  C   UNL A   1      35.885  30.556  28.764  1.00  0.00     0.134 A 
ATOM     80  F   UNL A   1      38.082  33.437  28.917  1.00  0.00    -0.206 F 
ATOM     81  C   UNL A   1      35.923  33.230  28.022  1.00  0.00     0.040 A 
ATOM     82  C   UNL A   1      34.785  31.111  28.110  1.00  0.00     0.040 A 
ATOM     83  F   UNL A   1      35.818  29.265  29.122  1.00  0.00    -0.206 F 
ATOM     84  C   UNL A   1      34.796  32.457  27.750  1.00  0.00     0.006 A 
ENDBRANCH  56  77
BRANCH  68  85
ATOM     85  C   UNL A   1      39.048  31.962  35.681  1.00  0.00     0.057 A 
ATOM     86  C   UNL A   1      39.378  33.311  35.864  1.00  0.00     0.134 A 
ATOM     87  C   UNL A   1      38.153  31.388  36.596  1.00  0.00     0.134 A 
ATOM     88  F   UNL A   1      40.237  33.919  35.032  1.00  0.00    -0.206 F 
ATOM     89  C   UNL A   1      38.863  34.050  36.930  1.00  0.00     0.040 A 
ATOM     90  C   UNL A   1      37.605  32.126  37.645  1.00  0.00     0.040 A 
ATOM     91  F   UNL A   1      37.783  30.105  36.473  1.00  0.00    -0.206 F 
ATOM     92  C   UNL A   1      37.968  33.460  37.820  1.00  0.00     0.006 A 
ENDBRANCH  68  85
ENDBRANCH  42  43
ENDBRANCH  35  37
ENDBRANCH  34  35
ENDBRANCH  33  34
ENDBRANCH  32  33
ENDBRANCH  31  32
ENDBRANCH  30  31
ENDBRANCH  29  30
ENDBRANCH  28  29
ENDBRANCH   1  28
TORSDOF 23
ENDMDL
MODEL 3
REMARK VINA RESULT:     -10.2      2.392      8.436
REMARK SMILES COc1cccc(NC(=O)[C@@H]2[C@@H](C(=O)OCCOCCOCCOCCOC(=O)c3ccc(-c4c5nc(c(-c6c(F)cccc6F)c6ccc([nH]6)c(-c6c(F)cccc6F)c6nc(c(-c7c(F)cccc7F)c7ccc4[nH]7)C=C6)C=C5)cc3)[C@H]3C=C[C@@H]2C3)c1
REMARK SMILES IDX 20 1 19 2 18 3 17 4 16 5 15 6 13 7 14 8 12 9 11 10 87 11
REMARK SMILES IDX 84 12 86 13 88 14 85 15 9 16 8 17 10 19 7 20 3 21 4 22 89 23
REMARK SMILES IDX 5 24 6 25 2 26 1 27 21 28 22 29 23 30 24 31 25 32 26 33
REMARK SMILES IDX 27 34 28 35 29 36 30 37 31 38 83 39 32 40 82 41 33 42 34 43
REMARK SMILES IDX 35 44 76 45 36 46 81 47 75 48 77 49 37 50 80 51 74 52 73 53
REMARK SMILES IDX 38 55 64 56 47 57 63 58 48 59 51 60 62 61 78 62 49 63 50 64
REMARK SMILES IDX 61 66 79 67 52 68 39 69 40 70 45 71 41 72 42 73 44 74 46 75
REMARK SMILES IDX 43 76 65 77 66 78 71 79 67 80 68 81 70 82 72 83 69 84 53 85
REMARK SMILES IDX 54 86 59 87 55 88 56 89 58 90 60 91 57 92
REMARK H PARENT 8 18 77 54 51 65
REMARK Flexibility Score: inf
ROOT
ATOM      1  C   UNL A   1      32.810  28.436  24.328  1.00  0.00     0.188 C 
ENDROOT
BRANCH   1   2
ATOM      2  C   UNL A   1      31.454  28.519  23.591  1.00  0.00     0.188 C 
BRANCH   2   3
ATOM      3  O   UNL A   1      30.337  28.095  24.357  1.00  0.00    -0.376 OA
BRANCH   3   4
ATOM      4  C   UNL A   1      29.919  26.744  24.314  1.00  0.00     0.202 C 
BRANCH   4   5
ATOM      5  C   UNL A   1      30.385  25.803  25.443  1.00  0.00     0.261 C 
BRANCH   5   6
ATOM      6  O   UNL A   1      30.479  24.416  25.089  1.00  0.00    -0.463 OA
BRANCH   6   7
ATOM      7  C   UNL A   1      31.686  23.887  25.365  1.00  0.00     0.310 C 
ATOM      8  O   UNL A   1      32.175  23.946  26.481  1.00  0.00    -0.252 OA
BRANCH   7   9
ATOM      9  C   UNL A   1      32.303  23.093  24.248  1.00  0.00     0.119 C 
ATOM     10  C   UNL A   1      33.855  23.012  24.424  1.00  0.00     0.100 C 
ATOM     11  C   UNL A   1      34.338  23.468  23.015  1.00  0.00     0.025 C 
ATOM     12  C   UNL A   1      32.124  23.703  22.833  1.00  0.00     0.027 C 
ATOM     13  C   UNL A   1      34.047  24.955  22.918  1.00  0.00    -0.027 C 
ATOM     14  C   UNL A   1      33.229  22.966  22.078  1.00  0.00     0.017 C 
ATOM     15  C   UNL A   1      32.718  25.092  22.800  1.00  0.00    -0.027 C 
BRANCH  10  16
ATOM     16  C   UNL A   1      34.307  21.599  24.772  1.00  0.00     0.228 C 
ATOM     17  N   UNL A   1      35.527  21.285  25.301  1.00  0.00    -0.326 N 
ATOM     18  H   UNL A   1      35.578  20.337  25.562  1.00  0.00     0.169 HD
ATOM     19  O   UNL A   1      33.513  20.655  24.666  1.00  0.00    -0.274 OA
BRANCH  17  20
ATOM     20  C   UNL A   1      36.734  21.965  25.571  1.00  0.00     0.044 A 
ATOM     21  C   UNL A   1      39.109  21.740  26.059  1.00  0.00     0.120 A 
ATOM     22  C   UNL A   1      39.184  23.070  26.443  1.00  0.00     0.046 A 
ATOM     23  C   UNL A   1      37.894  21.179  25.649  1.00  0.00     0.072 A 
ATOM     24  C   UNL A   1      38.069  23.876  26.269  1.00  0.00     0.006 A 
ATOM     25  C   UNL A   1      36.872  23.334  25.773  1.00  0.00     0.026 A 
BRANCH  21  26
ATOM     26  O   UNL A   1      40.248  20.987  26.153  1.00  0.00    -0.497 OA
ATOM     27  C   UNL A   1      41.400  21.827  26.069  1.00  0.00     0.278 C 
ENDBRANCH  21  26
ENDBRANCH  17  20
ENDBRANCH  10  16
ENDBRANCH   7   9
ENDBRANCH   6   7
ENDBRANCH   5   6
ENDBRANCH   4   5
ENDBRANCH   3   4
ENDBRANCH   2   3
ENDBRANCH   1   2
BRANCH   1  28
ATOM     28  O   UNL A   1      32.844  28.339  25.745  1.00  0.00    -0.377 OA
BRANCH  28  29
ATOM     29  C   UNL A   1      33.693  29.201  26.496  1.00  0.00     0.188 C 
BRANCH  29  30
ATOM     30  C   UNL A   1      33.229  30.612  26.927  1.00  0.00     0.188 C 
BRANCH  30  31
ATOM     31  O   UNL A   1      31.890  30.923  26.590  1.00  0.00    -0.376 OA
BRANCH  31  32
ATOM     32  C   UNL A   1      31.432  32.236  26.850  1.00  0.00     0.202 C 
BRANCH  32  33
ATOM     33  C   UNL A   1      32.491  33.320  27.097  1.00  0.00     0.261 C 
BRANCH  33  34
ATOM     34  O   UNL A   1      32.314  34.131  28.270  1.00  0.00    -0.460 OA
BRANCH  34  35
ATOM     35  C   UNL A   1      33.367  34.867  28.684  1.00  0.00     0.338 C 
ATOM     36  O   UNL A   1      33.378  36.062  28.938  1.00  0.00    -0.246 OA
BRANCH  35  37
ATOM     37  C   UNL A   1      34.476  33.936  28.979  1.00  0.00     0.060 A 
ATOM     38  C   UNL A   1      34.202  32.733  29.646  1.00  0.00     0.016 A 
ATOM     39  C   UNL A   1      35.778  34.241  28.576  1.00  0.00     0.016 A 
ATOM     40  C   UNL A   1      35.238  31.846  29.942  1.00  0.00     0.010 A 
ATOM     41  C   UNL A   1      36.818  33.366  28.901  1.00  0.00     0.010 A 
ATOM     42  C   UNL A   1      36.557  32.184  29.616  1.00  0.00    -0.014 A 
BRANCH  42  43
ATOM     43  C   UNL A   1      37.677  31.418  30.214  1.00  0.00     0.031 A 
ATOM     44  C   UNL A   1      37.978  31.634  31.672  1.00  0.00     0.074 A 
ATOM     45  C   UNL A   1      38.394  30.537  29.494  1.00  0.00     0.049 A 
ATOM     46  N   UNL A   1      38.931  31.125  32.410  1.00  0.00    -0.248 NA
ATOM     47  C   UNL A   1      37.083  32.553  32.396  1.00  0.00     0.031 C 
ATOM     48  C   UNL A   1      38.170  30.205  28.090  1.00  0.00     0.029 A 
ATOM     49  N   UNL A   1      39.473  29.767  29.855  1.00  0.00    -0.354 N 
ATOM     50  C   UNL A   1      38.760  31.674  33.675  1.00  0.00     0.074 A 
ATOM     51  C   UNL A   1      37.628  32.569  33.604  1.00  0.00     0.031 C 
ATOM     52  C   UNL A   1      39.091  29.304  27.702  1.00  0.00     0.029 A 
ATOM     53  C   UNL A   1      39.992  29.025  28.821  1.00  0.00     0.049 A 
ATOM     54  H   UNL A   1      39.839  29.747  30.769  1.00  0.00     0.167 HD
ATOM     55  C   UNL A   1      39.484  31.451  34.796  1.00  0.00     0.037 A 
ATOM     56  C   UNL A   1      41.083  28.237  28.781  1.00  0.00     0.037 A 
ATOM     57  C   UNL A   1      40.604  30.551  34.867  1.00  0.00     0.049 A 
ATOM     58  C   UNL A   1      41.915  28.067  30.029  1.00  0.00     0.074 A 
ATOM     59  C   UNL A   1      41.376  30.225  35.967  1.00  0.00     0.029 A 
ATOM     60  N   UNL A   1      41.119  29.845  33.791  1.00  0.00    -0.354 N 
ATOM     61  N   UNL A   1      41.721  28.554  31.231  1.00  0.00    -0.248 NA
ATOM     62  C   UNL A   1      43.122  27.234  29.912  1.00  0.00     0.031 C 
ATOM     63  C   UNL A   1      42.401  29.373  35.543  1.00  0.00     0.029 A 
ATOM     64  C   UNL A   1      42.224  29.114  34.194  1.00  0.00     0.049 A 
ATOM     65  H   UNL A   1      40.753  29.861  32.876  1.00  0.00     0.167 HD
ATOM     66  C   UNL A   1      42.753  28.054  32.018  1.00  0.00     0.074 A 
ATOM     67  C   UNL A   1      43.563  27.215  31.161  1.00  0.00     0.031 C 
ATOM     68  C   UNL A   1      43.009  28.267  33.332  1.00  0.00     0.037 A 
BRANCH  55  69
ATOM     69  C   UNL A   1      39.115  32.217  36.032  1.00  0.00     0.057 A 
ATOM     70  C   UNL A   1      39.584  33.513  36.278  1.00  0.00     0.134 A 
ATOM     71  C   UNL A   1      38.225  31.664  36.963  1.00  0.00     0.134 A 
ATOM     72  F   UNL A   1      40.452  34.093  35.435  1.00  0.00    -0.206 F 
ATOM     73  C   UNL A   1      39.192  34.227  37.412  1.00  0.00     0.040 A 
ATOM     74  C   UNL A   1      37.804  32.378  38.085  1.00  0.00     0.040 A 
ATOM     75  F   UNL A   1      37.735  30.427  36.787  1.00  0.00    -0.206 F 
ATOM     76  C   UNL A   1      38.291  33.663  38.313  1.00  0.00     0.006 A 
ENDBRANCH  55  69
BRANCH  56  77
ATOM     77  C   UNL A   1      41.487  27.561  27.520  1.00  0.00     0.057 A 
ATOM     78  C   UNL A   1      41.205  26.207  27.298  1.00  0.00     0.134 A 
ATOM     79  C   UNL A   1      42.225  28.230  26.536  1.00  0.00     0.134 A 
ATOM     80  F   UNL A   1      40.525  25.501  28.213  1.00  0.00    -0.206 F 
ATOM     81  C   UNL A   1      41.671  25.536  26.166  1.00  0.00     0.040 A 
ATOM     82  C   UNL A   1      42.670  27.581  25.383  1.00  0.00     0.040 A 
ATOM     83  F   UNL A   1      42.532  29.528  26.684  1.00  0.00    -0.206 F 
ATOM     84  C   UNL A   1      42.405  26.225  25.202  1.00  0.00     0.006 A 
ENDBRANCH  56  77
BRANCH  68  85
ATOM     85  C   UNL A   1      44.176  27.543  33.940  1.00  0.00     0.057 A 
ATOM     86  C   UNL A   1      44.057  26.256  34.480  1.00  0.00     0.134 A 
ATOM     87  C   UNL A   1      45.450  28.129  33.946  1.00  0.00     0.134 A 
ATOM     88  F   UNL A   1      42.865  25.640  34.515  1.00  0.00    -0.206 F 
ATOM     89  C   UNL A   1      45.154  25.592  35.031  1.00  0.00     0.040 A 
ATOM     90  C   UNL A   1      46.560  27.462  34.464  1.00  0.00     0.040 A 
ATOM     91  F   UNL A   1      45.639  29.354  33.434  1.00  0.00    -0.206 F 
ATOM     92  C   UNL A   1      46.412  26.191  35.017  1.00  0.00     0.006 A 
ENDBRANCH  68  85
ENDBRANCH  42  43
ENDBRANCH  35  37
ENDBRANCH  34  35
ENDBRANCH  33  34
ENDBRANCH  32  33
ENDBRANCH  31  32
ENDBRANCH  30  31
ENDBRANCH  29  30
ENDBRANCH  28  29
ENDBRANCH   1  28
TORSDOF 23
ENDMDL
