MODEL 1
REMARK VINA RESULT:      -8.6      0.000      0.000
REMARK SMILES COc1ccccc1[C@H](C(=O)OCCOCCOCCOCCOC(=O)c1ccc(-c2c3nc(c(-c4c(F)cccc4F)c4ccc([nH]4)c(-c4c(F)cccc4F)c4nc(c(-c5c(F)cccc5F)c5ccc2[nH]5)C=C4)C=C3)cc1)[NH+](C)C
REMARK SMILES IDX 18 1 17 2 16 3 15 4 14 5 13 6 12 7 10 8 11 9 9 10 8 11 3 12
REMARK SMILES IDX 4 13 5 14 7 15 6 16 2 17 1 18 81 19 82 20 83 21 19 23 20 24
REMARK SMILES IDX 21 25 22 26 23 27 24 28 25 29 26 30 27 31 28 32 80 33 29 34
REMARK SMILES IDX 79 35 30 36 31 37 32 38 73 39 33 40 78 41 72 42 74 43 34 44
REMARK SMILES IDX 77 45 71 46 70 47 35 49 61 50 44 51 60 52 45 53 48 54 59 55
REMARK SMILES IDX 75 56 46 57 47 58 58 60 76 61 49 62 36 63 37 64 42 65 38 66
REMARK SMILES IDX 39 67 41 68 43 69 40 70 62 71 63 72 68 73 64 74 65 75 67 76
REMARK SMILES IDX 69 77 66 78 50 79 51 80 56 81 52 82 53 83 55 84 57 85 54 86
REMARK H PARENT 81 22 74 48 48 59
REMARK Flexibility Score: inf
ROOT
ATOM      1  O   UNL A   1      36.774  20.829  25.443  1.00  0.00    -0.377 OA
ENDROOT
BRANCH   1   2
ATOM      2  C   UNL A   1      35.598  21.528  25.802  1.00  0.00     0.188 C 
BRANCH   2   3
ATOM      3  C   UNL A   1      34.659  21.949  24.660  1.00  0.00     0.188 C 
BRANCH   3   4
ATOM      4  O   UNL A   1      35.338  22.541  23.563  1.00  0.00    -0.376 OA
BRANCH   4   5
ATOM      5  C   UNL A   1      34.609  23.427  22.729  1.00  0.00     0.202 C 
BRANCH   5   6
ATOM      6  C   UNL A   1      33.072  23.325  22.717  1.00  0.00     0.261 C 
BRANCH   6   7
ATOM      7  O   UNL A   1      32.364  24.562  22.563  1.00  0.00    -0.459 OA
BRANCH   7   8
ATOM      8  C   UNL A   1      31.201  24.681  23.259  1.00  0.00     0.370 C 
ATOM      9  O   UNL A   1      30.278  23.882  23.125  1.00  0.00    -0.245 OA
BRANCH   8  10
ATOM     10  C   UNL A   1      31.305  25.788  24.358  1.00  0.00     0.329 C 
BRANCH  10  11
ATOM     11  C   UNL A   1      30.704  27.146  23.969  1.00  0.00     0.063 A 
ATOM     12  C   UNL A   1      31.347  28.372  24.165  1.00  0.00     0.128 A 
ATOM     13  C   UNL A   1      30.691  29.588  23.914  1.00  0.00     0.047 A 
ATOM     14  C   UNL A   1      29.398  29.603  23.398  1.00  0.00     0.004 A 
ATOM     15  C   UNL A   1      29.406  27.192  23.406  1.00  0.00     0.014 A 
ATOM     16  C   UNL A   1      28.759  28.401  23.129  1.00  0.00     0.001 A 
BRANCH  12  17
ATOM     17  O   UNL A   1      32.629  28.412  24.644  1.00  0.00    -0.496 OA
ATOM     18  C   UNL A   1      32.885  29.700  25.216  1.00  0.00     0.278 C 
ENDBRANCH  12  17
ENDBRANCH  10  11
BRANCH  10  19
ATOM     19  N   UNL A   1      31.040  25.283  25.731  1.00  0.00    -0.324 N 
ATOM     20  C   UNL A   1      31.866  24.173  26.159  1.00  0.00     0.333 C 
ATOM     21  C   UNL A   1      30.747  26.273  26.750  1.00  0.00     0.333 C 
ATOM     22  H   UNL A   1      30.123  24.853  25.605  1.00  0.00     0.348 HD
ENDBRANCH  10  19
ENDBRANCH   8  10
ENDBRANCH   7   8
ENDBRANCH   6   7
ENDBRANCH   5   6
ENDBRANCH   4   5
ENDBRANCH   3   4
ENDBRANCH   2   3
ENDBRANCH   1   2
BRANCH   1  23
ATOM     23  C   UNL A   1      37.971  21.564  25.202  1.00  0.00     0.188 C 
BRANCH  23  24
ATOM     24  C   UNL A   1      39.210  21.461  26.128  1.00  0.00     0.188 C 
BRANCH  24  25
ATOM     25  O   UNL A   1      40.172  20.492  25.750  1.00  0.00    -0.376 OA
BRANCH  25  26
ATOM     26  C   UNL A   1      41.399  20.466  26.460  1.00  0.00     0.202 C 
BRANCH  26  27
ATOM     27  C   UNL A   1      42.516  21.377  25.934  1.00  0.00     0.261 C 
BRANCH  27  28
ATOM     28  O   UNL A   1      42.103  22.653  25.426  1.00  0.00    -0.460 OA
BRANCH  28  29
ATOM     29  C   UNL A   1      43.045  23.622  25.318  1.00  0.00     0.338 C 
ATOM     30  O   UNL A   1      43.796  23.824  24.395  1.00  0.00    -0.246 OA
BRANCH  29  31
ATOM     31  C   UNL A   1      42.861  24.524  26.478  1.00  0.00     0.060 A 
ATOM     32  C   UNL A   1      41.994  24.149  27.514  1.00  0.00     0.016 A 
ATOM     33  C   UNL A   1      43.575  25.721  26.545  1.00  0.00     0.016 A 
ATOM     34  C   UNL A   1      41.817  24.990  28.615  1.00  0.00     0.010 A 
ATOM     35  C   UNL A   1      43.374  26.574  27.628  1.00  0.00     0.010 A 
ATOM     36  C   UNL A   1      42.469  26.229  28.649  1.00  0.00    -0.014 A 
BRANCH  36  37
ATOM     37  C   UNL A   1      42.033  27.283  29.593  1.00  0.00     0.031 A 
ATOM     38  C   UNL A   1      42.709  27.326  30.936  1.00  0.00     0.074 A 
ATOM     39  C   UNL A   1      41.039  28.139  29.298  1.00  0.00     0.049 A 
ATOM     40  N   UNL A   1      42.400  28.014  32.001  1.00  0.00    -0.248 NA
ATOM     41  C   UNL A   1      43.889  26.458  31.099  1.00  0.00     0.031 C 
ATOM     42  C   UNL A   1      40.347  28.231  28.016  1.00  0.00     0.029 A 
ATOM     43  N   UNL A   1      40.422  29.081  30.084  1.00  0.00    -0.354 N 
ATOM     44  C   UNL A   1      43.324  27.638  32.968  1.00  0.00     0.074 A 
ATOM     45  C   UNL A   1      44.203  26.661  32.369  1.00  0.00     0.031 C 
ATOM     46  C   UNL A   1      39.376  29.158  28.112  1.00  0.00     0.029 A 
ATOM     47  C   UNL A   1      39.351  29.689  29.475  1.00  0.00     0.049 A 
ATOM     48  H   UNL A   1      40.719  29.301  30.997  1.00  0.00     0.167 HD
ATOM     49  C   UNL A   1      43.423  28.068  34.246  1.00  0.00     0.037 A 
ATOM     50  C   UNL A   1      38.433  30.537  29.980  1.00  0.00     0.037 A 
ATOM     51  C   UNL A   1      42.555  29.051  34.832  1.00  0.00     0.049 A 
ATOM     52  C   UNL A   1      38.526  30.944  31.432  1.00  0.00     0.074 A 
ATOM     53  C   UNL A   1      42.599  29.584  36.107  1.00  0.00     0.029 A 
ATOM     54  N   UNL A   1      41.482  29.640  34.182  1.00  0.00    -0.354 N 
ATOM     55  N   UNL A   1      39.422  30.613  32.333  1.00  0.00    -0.248 NA
ATOM     56  C   UNL A   1      37.475  31.838  31.943  1.00  0.00     0.031 C 
ATOM     57  C   UNL A   1      41.513  30.451  36.250  1.00  0.00     0.029 A 
ATOM     58  C   UNL A   1      40.835  30.508  35.043  1.00  0.00     0.049 A 
ATOM     59  H   UNL A   1      41.220  29.467  33.250  1.00  0.00     0.167 HD
ATOM     60  C   UNL A   1      39.069  31.294  33.492  1.00  0.00     0.074 A 
ATOM     61  C   UNL A   1      37.879  32.057  33.186  1.00  0.00     0.031 C 
ATOM     62  C   UNL A   1      39.675  31.290  34.705  1.00  0.00     0.037 A 
BRANCH  49  63
ATOM     63  C   UNL A   1      44.480  27.454  35.114  1.00  0.00     0.057 A 
ATOM     64  C   UNL A   1      45.768  27.991  35.213  1.00  0.00     0.134 A 
ATOM     65  C   UNL A   1      44.176  26.344  35.913  1.00  0.00     0.134 A 
ATOM     66  F   UNL A   1      46.127  29.042  34.461  1.00  0.00    -0.206 F 
ATOM     67  C   UNL A   1      46.721  27.442  36.073  1.00  0.00     0.040 A 
ATOM     68  C   UNL A   1      45.111  25.802  36.796  1.00  0.00     0.040 A 
ATOM     69  F   UNL A   1      42.959  25.781  35.863  1.00  0.00    -0.206 F 
ATOM     70  C   UNL A   1      46.389  26.353  36.877  1.00  0.00     0.006 A 
ENDBRANCH  49  63
BRANCH  50  71
ATOM     71  C   UNL A   1      37.314  31.040  29.139  1.00  0.00     0.057 A 
ATOM     72  C   UNL A   1      37.282  32.367  28.693  1.00  0.00     0.134 A 
ATOM     73  C   UNL A   1      36.213  30.232  28.827  1.00  0.00     0.134 A 
ATOM     74  F   UNL A   1      38.293  33.200  28.982  1.00  0.00    -0.206 F 
ATOM     75  C   UNL A   1      36.184  32.882  28.000  1.00  0.00     0.040 A 
ATOM     76  C   UNL A   1      35.123  30.725  28.108  1.00  0.00     0.040 A 
ATOM     77  F   UNL A   1      36.176  28.953  29.226  1.00  0.00    -0.206 F 
ATOM     78  C   UNL A   1      35.101  32.058  27.704  1.00  0.00     0.006 A 
ENDBRANCH  50  71
BRANCH  62  79
ATOM     79  C   UNL A   1      39.120  32.189  35.770  1.00  0.00     0.057 A 
ATOM     80  C   UNL A   1      38.235  31.728  36.751  1.00  0.00     0.134 A 
ATOM     81  C   UNL A   1      39.549  33.521  35.861  1.00  0.00     0.134 A 
ATOM     82  F   UNL A   1      37.779  30.466  36.717  1.00  0.00    -0.206 F 
ATOM     83  C   UNL A   1      37.784  32.561  37.776  1.00  0.00     0.040 A 
ATOM     84  C   UNL A   1      39.129  34.356  36.897  1.00  0.00     0.040 A 
ATOM     85  F   UNL A   1      40.408  34.022  34.960  1.00  0.00    -0.206 F 
ATOM     86  C   UNL A   1      38.241  33.877  37.857  1.00  0.00     0.006 A 
ENDBRANCH  62  79
ENDBRANCH  36  37
ENDBRANCH  29  31
ENDBRANCH  28  29
ENDBRANCH  27  28
ENDBRANCH  26  27
ENDBRANCH  25  26
ENDBRANCH  24  25
ENDBRANCH  23  24
ENDBRANCH   1  23
TORSDOF 23
ENDMDL
MODEL 2
REMARK VINA RESULT:      -8.6      2.218      7.733
REMARK SMILES COc1ccccc1[C@H](C(=O)OCCOCCOCCOCCOC(=O)c1ccc(-c2c3nc(c(-c4c(F)cccc4F)c4ccc([nH]4)c(-c4c(F)cccc4F)c4nc(c(-c5c(F)cccc5F)c5ccc2[nH]5)C=C4)C=C3)cc1)[NH+](C)C
REMARK SMILES IDX 18 1 17 2 16 3 15 4 14 5 13 6 12 7 10 8 11 9 9 10 8 11 3 12
REMARK SMILES IDX 4 13 5 14 7 15 6 16 2 17 1 18 81 19 82 20 83 21 19 23 20 24
REMARK SMILES IDX 21 25 22 26 23 27 24 28 25 29 26 30 27 31 28 32 80 33 29 34
REMARK SMILES IDX 79 35 30 36 31 37 32 38 73 39 33 40 78 41 72 42 74 43 34 44
REMARK SMILES IDX 77 45 71 46 70 47 35 49 61 50 44 51 60 52 45 53 48 54 59 55
REMARK SMILES IDX 75 56 46 57 47 58 58 60 76 61 49 62 36 63 37 64 42 65 38 66
REMARK SMILES IDX 39 67 41 68 43 69 40 70 62 71 63 72 68 73 64 74 65 75 67 76
REMARK SMILES IDX 69 77 66 78 50 79 51 80 56 81 52 82 53 83 55 84 57 85 54 86
REMARK H PARENT 81 22 74 48 48 59
REMARK Flexibility Score: inf
ROOT
ATOM      1  O   UNL A   1      33.227  28.635  22.951  1.00  0.00    -0.377 OA
ENDROOT
BRANCH   1   2
ATOM      2  C   UNL A   1      33.266  27.221  22.959  1.00  0.00     0.188 C 
BRANCH   2   3
ATOM      3  C   UNL A   1      33.614  26.523  21.634  1.00  0.00     0.188 C 
BRANCH   3   4
ATOM      4  O   UNL A   1      32.629  25.592  21.212  1.00  0.00    -0.376 OA
BRANCH   4   5
ATOM      5  C   UNL A   1      32.232  24.584  22.128  1.00  0.00     0.202 C 
BRANCH   5   6
ATOM      6  C   UNL A   1      32.914  23.205  22.042  1.00  0.00     0.261 C 
BRANCH   6   7
ATOM      7  O   UNL A   1      33.307  22.622  23.292  1.00  0.00    -0.459 OA
BRANCH   7   8
ATOM      8  C   UNL A   1      34.369  23.200  23.917  1.00  0.00     0.370 C 
ATOM      9  O   UNL A   1      35.319  23.661  23.292  1.00  0.00    -0.245 OA
BRANCH   8  10
ATOM     10  C   UNL A   1      34.100  23.380  25.446  1.00  0.00     0.329 C 
BRANCH  10  11
ATOM     11  C   UNL A   1      33.045  24.439  25.799  1.00  0.00     0.063 A 
ATOM     12  C   UNL A   1      31.667  24.205  25.785  1.00  0.00     0.128 A 
ATOM     13  C   UNL A   1      30.749  25.248  25.987  1.00  0.00     0.047 A 
ATOM     14  C   UNL A   1      31.190  26.537  26.272  1.00  0.00     0.004 A 
ATOM     15  C   UNL A   1      33.465  25.749  26.132  1.00  0.00     0.014 A 
ATOM     16  C   UNL A   1      32.553  26.786  26.359  1.00  0.00     0.001 A 
BRANCH  12  17
ATOM     17  O   UNL A   1      31.180  22.950  25.538  1.00  0.00    -0.496 OA
ATOM     18  C   UNL A   1      30.249  22.587  26.563  1.00  0.00     0.278 C 
ENDBRANCH  12  17
ENDBRANCH  10  11
BRANCH  10  19
ATOM     19  N   UNL A   1      34.067  22.096  26.194  1.00  0.00    -0.324 N 
ATOM     20  C   UNL A   1      34.988  21.078  25.732  1.00  0.00     0.333 C 
ATOM     21  C   UNL A   1      33.898  22.178  27.633  1.00  0.00     0.333 C 
ATOM     22  H   UNL A   1      33.157  21.730  25.910  1.00  0.00     0.348 HD
ENDBRANCH  10  19
ENDBRANCH   8  10
ENDBRANCH   7   8
ENDBRANCH   6   7
ENDBRANCH   5   6
ENDBRANCH   4   5
ENDBRANCH   3   4
ENDBRANCH   2   3
ENDBRANCH   1   2
BRANCH   1  23
ATOM     23  C   UNL A   1      31.985  29.293  22.723  1.00  0.00     0.188 C 
BRANCH  23  24
ATOM     24  C   UNL A   1      30.758  29.097  23.649  1.00  0.00     0.188 C 
BRANCH  24  25
ATOM     25  O   UNL A   1      30.618  30.055  24.684  1.00  0.00    -0.376 OA
BRANCH  25  26
ATOM     26  C   UNL A   1      31.677  30.180  25.618  1.00  0.00     0.202 C 
BRANCH  26  27
ATOM     27  C   UNL A   1      31.801  31.530  26.339  1.00  0.00     0.261 C 
BRANCH  27  28
ATOM     28  O   UNL A   1      32.601  31.537  27.530  1.00  0.00    -0.460 OA
BRANCH  28  29
ATOM     29  C   UNL A   1      33.578  32.472  27.625  1.00  0.00     0.338 C 
ATOM     30  O   UNL A   1      33.472  33.667  27.500  1.00  0.00    -0.246 OA
BRANCH  29  31
ATOM     31  C   UNL A   1      34.792  31.771  28.103  1.00  0.00     0.060 A 
ATOM     32  C   UNL A   1      34.757  30.383  28.295  1.00  0.00     0.016 A 
ATOM     33  C   UNL A   1      35.965  32.492  28.326  1.00  0.00     0.016 A 
ATOM     34  C   UNL A   1      35.898  29.711  28.740  1.00  0.00     0.010 A 
ATOM     35  C   UNL A   1      37.093  31.826  28.802  1.00  0.00     0.010 A 
ATOM     36  C   UNL A   1      37.053  30.440  29.044  1.00  0.00    -0.014 A 
BRANCH  36  37
ATOM     37  C   UNL A   1      38.137  29.832  29.851  1.00  0.00     0.031 A 
ATOM     38  C   UNL A   1      38.294  30.317  31.266  1.00  0.00     0.074 A 
ATOM     39  C   UNL A   1      38.985  28.925  29.338  1.00  0.00     0.049 A 
ATOM     40  N   UNL A   1      39.258  30.094  32.119  1.00  0.00    -0.248 NA
ATOM     41  C   UNL A   1      37.221  31.186  31.781  1.00  0.00     0.031 C 
ATOM     42  C   UNL A   1      38.902  28.340  28.003  1.00  0.00     0.029 A 
ATOM     43  N   UNL A   1      40.110  28.358  29.886  1.00  0.00    -0.354 N 
ATOM     44  C   UNL A   1      38.923  30.820  33.256  1.00  0.00     0.074 A 
ATOM     45  C   UNL A   1      37.673  31.492  32.987  1.00  0.00     0.031 C 
ATOM     46  C   UNL A   1      39.952  27.518  27.822  1.00  0.00     0.029 A 
ATOM     47  C   UNL A   1      40.804  27.557  29.011  1.00  0.00     0.049 A 
ATOM     48  H   UNL A   1      40.392  28.511  30.817  1.00  0.00     0.167 HD
ATOM     49  C   UNL A   1      39.606  30.920  34.418  1.00  0.00     0.037 A 
ATOM     50  C   UNL A   1      42.008  26.967  29.146  1.00  0.00     0.037 A 
ATOM     51  C   UNL A   1      40.841  30.237  34.685  1.00  0.00     0.049 A 
ATOM     52  C   UNL A   1      42.782  27.156  30.429  1.00  0.00     0.074 A 
ATOM     53  C   UNL A   1      41.591  30.241  35.847  1.00  0.00     0.029 A 
ATOM     54  N   UNL A   1      41.511  29.437  33.773  1.00  0.00    -0.354 N 
ATOM     55  N   UNL A   1      42.446  27.814  31.513  1.00  0.00    -0.248 NA
ATOM     56  C   UNL A   1      44.109  26.525  30.506  1.00  0.00     0.031 C 
ATOM     57  C   UNL A   1      42.748  29.492  35.617  1.00  0.00     0.029 A 
ATOM     58  C   UNL A   1      42.684  28.968  34.335  1.00  0.00     0.049 A 
ATOM     59  H   UNL A   1      41.199  29.234  32.862  1.00  0.00     0.167 HD
ATOM     60  C   UNL A   1      43.493  27.635  32.410  1.00  0.00     0.074 A 
ATOM     61  C   UNL A   1      44.477  26.807  31.748  1.00  0.00     0.031 C 
ATOM     62  C   UNL A   1      43.631  28.111  33.672  1.00  0.00     0.037 A 
BRANCH  49  63
ATOM     63  C   UNL A   1      39.059  31.827  35.478  1.00  0.00     0.057 A 
ATOM     64  C   UNL A   1      38.232  31.360  36.506  1.00  0.00     0.134 A 
ATOM     65  C   UNL A   1      39.425  33.179  35.504  1.00  0.00     0.134 A 
ATOM     66  F   UNL A   1      37.831  30.079  36.527  1.00  0.00    -0.206 F 
ATOM     67  C   UNL A   1      37.781  32.207  37.519  1.00  0.00     0.040 A 
ATOM     68  C   UNL A   1      39.003  34.030  36.526  1.00  0.00     0.040 A 
ATOM     69  F   UNL A   1      40.214  33.690  34.547  1.00  0.00    -0.206 F 
ATOM     70  C   UNL A   1      38.178  33.543  37.538  1.00  0.00     0.006 A 
ENDBRANCH  49  63
BRANCH  50  71
ATOM     71  C   UNL A   1      42.597  26.172  28.034  1.00  0.00     0.057 A 
ATOM     72  C   UNL A   1      43.414  26.773  27.068  1.00  0.00     0.134 A 
ATOM     73  C   UNL A   1      42.296  24.815  27.866  1.00  0.00     0.134 A 
ATOM     74  F   UNL A   1      43.717  28.076  27.157  1.00  0.00    -0.206 F 
ATOM     75  C   UNL A   1      43.879  26.064  25.958  1.00  0.00     0.040 A 
ATOM     76  C   UNL A   1      42.781  24.087  26.778  1.00  0.00     0.040 A 
ATOM     77  F   UNL A   1      41.517  24.178  28.751  1.00  0.00    -0.206 F 
ATOM     78  C   UNL A   1      43.564  24.715  25.812  1.00  0.00     0.006 A 
ENDBRANCH  50  71
BRANCH  62  79
ATOM     79  C   UNL A   1      44.842  27.693  34.453  1.00  0.00     0.057 A 
ATOM     80  C   UNL A   1      44.871  26.518  35.214  1.00  0.00     0.134 A 
ATOM     81  C   UNL A   1      46.025  28.439  34.370  1.00  0.00     0.134 A 
ATOM     82  F   UNL A   1      43.770  25.762  35.341  1.00  0.00    -0.206 F 
ATOM     83  C   UNL A   1      46.029  26.109  35.876  1.00  0.00     0.040 A 
ATOM     84  C   UNL A   1      47.197  28.026  35.003  1.00  0.00     0.040 A 
ATOM     85  F   UNL A   1      46.069  29.568  33.646  1.00  0.00    -0.206 F 
ATOM     86  C   UNL A   1      47.200  26.858  35.763  1.00  0.00     0.006 A 
ENDBRANCH  62  79
ENDBRANCH  36  37
ENDBRANCH  29  31
ENDBRANCH  28  29
ENDBRANCH  27  28
ENDBRANCH  26  27
ENDBRANCH  25  26
ENDBRANCH  24  25
ENDBRANCH  23  24
ENDBRANCH   1  23
TORSDOF 23
ENDMDL
MODEL 3
REMARK VINA RESULT:      -8.4      1.824      6.613
REMARK SMILES COc1ccccc1[C@H](C(=O)OCCOCCOCCOCCOC(=O)c1ccc(-c2c3nc(c(-c4c(F)cccc4F)c4ccc([nH]4)c(-c4c(F)cccc4F)c4nc(c(-c5c(F)cccc5F)c5ccc2[nH]5)C=C4)C=C3)cc1)[NH+](C)C
REMARK SMILES IDX 18 1 17 2 16 3 15 4 14 5 13 6 12 7 10 8 11 9 9 10 8 11 3 12
REMARK SMILES IDX 4 13 5 14 7 15 6 16 2 17 1 18 81 19 82 20 83 21 19 23 20 24
REMARK SMILES IDX 21 25 22 26 23 27 24 28 25 29 26 30 27 31 28 32 80 33 29 34
REMARK SMILES IDX 79 35 30 36 31 37 32 38 73 39 33 40 78 41 72 42 74 43 34 44
REMARK SMILES IDX 77 45 71 46 70 47 35 49 61 50 44 51 60 52 45 53 48 54 59 55
REMARK SMILES IDX 75 56 46 57 47 58 58 60 76 61 49 62 36 63 37 64 42 65 38 66
REMARK SMILES IDX 39 67 41 68 43 69 40 70 62 71 63 72 68 73 64 74 65 75 67 76
REMARK SMILES IDX 69 77 66 78 50 79 51 80 56 81 52 82 53 83 55 84 57 85 54 86
REMARK H PARENT 81 22 74 48 48 59
REMARK Flexibility Score: inf
ROOT
ATOM      1  O   UNL A   1      35.158  20.891  24.568  1.00  0.00    -0.377 OA
ENDROOT
BRANCH   1   2
ATOM      2  C   UNL A   1      33.998  20.087  24.662  1.00  0.00     0.188 C 
BRANCH   2   3
ATOM      3  C   UNL A   1      32.644  20.815  24.696  1.00  0.00     0.188 C 
BRANCH   3   4
ATOM      4  O   UNL A   1      32.762  22.211  24.926  1.00  0.00    -0.376 OA
BRANCH   4   5
ATOM      5  C   UNL A   1      32.181  22.743  26.105  1.00  0.00     0.202 C 
BRANCH   5   6
ATOM      6  C   UNL A   1      30.676  23.074  26.096  1.00  0.00     0.261 C 
BRANCH   6   7
ATOM      7  O   UNL A   1      30.333  24.416  25.728  1.00  0.00    -0.459 OA
BRANCH   7   8
ATOM      8  C   UNL A   1      30.758  24.831  24.503  1.00  0.00     0.370 C 
ATOM      9  O   UNL A   1      30.490  24.210  23.478  1.00  0.00    -0.245 OA
BRANCH   8  10
ATOM     10  C   UNL A   1      31.401  26.253  24.574  1.00  0.00     0.329 C 
BRANCH  10  11
ATOM     11  C   UNL A   1      30.624  27.355  23.840  1.00  0.00     0.063 A 
ATOM     12  C   UNL A   1      31.201  28.535  23.363  1.00  0.00     0.128 A 
ATOM     13  C   UNL A   1      30.415  29.564  22.820  1.00  0.00     0.047 A 
ATOM     14  C   UNL A   1      29.038  29.408  22.683  1.00  0.00     0.004 A 
ATOM     15  C   UNL A   1      29.229  27.207  23.650  1.00  0.00     0.014 A 
ATOM     16  C   UNL A   1      28.445  28.220  23.086  1.00  0.00     0.001 A 
BRANCH  12  17
ATOM     17  O   UNL A   1      32.554  28.728  23.448  1.00  0.00    -0.496 OA
ATOM     18  C   UNL A   1      33.196  28.118  22.323  1.00  0.00     0.278 C 
ENDBRANCH  12  17
ENDBRANCH  10  11
BRANCH  10  19
ATOM     19  N   UNL A   1      31.964  26.579  25.911  1.00  0.00    -0.324 N 
ATOM     20  C   UNL A   1      33.403  26.463  26.029  1.00  0.00     0.333 C 
ATOM     21  C   UNL A   1      31.368  27.695  26.621  1.00  0.00     0.333 C 
ATOM     22  H   UNL A   1      31.623  25.790  26.462  1.00  0.00     0.348 HD
ENDBRANCH  10  19
ENDBRANCH   8  10
ENDBRANCH   7   8
ENDBRANCH   6   7
ENDBRANCH   5   6
ENDBRANCH   4   5
ENDBRANCH   3   4
ENDBRANCH   2   3
ENDBRANCH   1   2
BRANCH   1  23
ATOM     23  C   UNL A   1      35.902  21.175  25.750  1.00  0.00     0.188 C 
BRANCH  23  24
ATOM     24  C   UNL A   1      36.864  22.386  25.854  1.00  0.00     0.188 C 
BRANCH  24  25
ATOM     25  O   UNL A   1      38.139  22.201  25.265  1.00  0.00    -0.376 OA
BRANCH  25  26
ATOM     26  C   UNL A   1      39.153  21.604  26.055  1.00  0.00     0.202 C 
BRANCH  26  27
ATOM     27  C   UNL A   1      40.271  22.531  26.553  1.00  0.00     0.261 C 
BRANCH  27  28
ATOM     28  O   UNL A   1      40.014  23.939  26.454  1.00  0.00    -0.460 OA
BRANCH  28  29
ATOM     29  C   UNL A   1      41.078  24.777  26.505  1.00  0.00     0.338 C 
ATOM     30  O   UNL A   1      42.050  24.783  25.790  1.00  0.00    -0.246 OA
BRANCH  29  31
ATOM     31  C   UNL A   1      40.746  25.826  27.497  1.00  0.00     0.060 A 
ATOM     32  C   UNL A   1      41.531  26.986  27.565  1.00  0.00     0.016 A 
ATOM     33  C   UNL A   1      39.639  25.665  28.330  1.00  0.00     0.016 A 
ATOM     34  C   UNL A   1      41.224  27.983  28.493  1.00  0.00     0.010 A 
ATOM     35  C   UNL A   1      39.352  26.645  29.278  1.00  0.00     0.010 A 
ATOM     36  C   UNL A   1      40.164  27.791  29.387  1.00  0.00    -0.014 A 
BRANCH  36  37
ATOM     37  C   UNL A   1      40.039  28.633  30.599  1.00  0.00     0.031 A 
ATOM     38  C   UNL A   1      39.034  29.751  30.557  1.00  0.00     0.074 A 
ATOM     39  C   UNL A   1      40.820  28.452  31.677  1.00  0.00     0.049 A 
ATOM     40  N   UNL A   1      38.852  30.738  31.393  1.00  0.00    -0.248 NA
ATOM     41  C   UNL A   1      38.119  29.763  29.401  1.00  0.00     0.031 C 
ATOM     42  C   UNL A   1      41.788  27.374  31.856  1.00  0.00     0.029 A 
ATOM     43  N   UNL A   1      40.934  29.204  32.821  1.00  0.00    -0.354 N 
ATOM     44  C   UNL A   1      37.828  31.503  30.849  1.00  0.00     0.074 A 
ATOM     45  C   UNL A   1      37.429  30.873  29.612  1.00  0.00     0.031 C 
ATOM     46  C   UNL A   1      42.423  27.551  33.030  1.00  0.00     0.029 A 
ATOM     47  C   UNL A   1      41.937  28.780  33.659  1.00  0.00     0.049 A 
ATOM     48  H   UNL A   1      40.353  29.973  33.022  1.00  0.00     0.167 HD
ATOM     49  C   UNL A   1      37.277  32.636  31.339  1.00  0.00     0.037 A 
ATOM     50  C   UNL A   1      42.431  29.349  34.777  1.00  0.00     0.037 A 
ATOM     51  C   UNL A   1      37.668  33.249  32.577  1.00  0.00     0.049 A 
ATOM     52  C   UNL A   1      41.843  30.654  35.260  1.00  0.00     0.074 A 
ATOM     53  C   UNL A   1      37.142  34.376  33.181  1.00  0.00     0.029 A 
ATOM     54  N   UNL A   1      38.688  32.790  33.394  1.00  0.00    -0.354 N 
ATOM     55  N   UNL A   1      40.853  31.355  34.762  1.00  0.00    -0.248 NA
ATOM     56  C   UNL A   1      42.448  31.253  36.461  1.00  0.00     0.031 C 
ATOM     57  C   UNL A   1      37.887  34.636  34.334  1.00  0.00     0.029 A 
ATOM     58  C   UNL A   1      38.830  33.631  34.483  1.00  0.00     0.049 A 
ATOM     59  H   UNL A   1      39.230  31.986  33.226  1.00  0.00     0.167 HD
ATOM     60  C   UNL A   1      40.688  32.443  35.612  1.00  0.00     0.074 A 
ATOM     61  C   UNL A   1      41.678  32.312  36.658  1.00  0.00     0.031 C 
ATOM     62  C   UNL A   1      39.796  33.461  35.536  1.00  0.00     0.037 A 
BRANCH  49  63
ATOM     63  C   UNL A   1      36.218  33.312  30.521  1.00  0.00     0.057 A 
ATOM     64  C   UNL A   1      36.521  34.043  29.366  1.00  0.00     0.134 A 
ATOM     65  C   UNL A   1      34.867  33.170  30.863  1.00  0.00     0.134 A 
ATOM     66  F   UNL A   1      37.796  34.232  28.995  1.00  0.00    -0.206 F 
ATOM     67  C   UNL A   1      35.517  34.615  28.583  1.00  0.00     0.040 A 
ATOM     68  C   UNL A   1      33.853  33.714  30.075  1.00  0.00     0.040 A 
ATOM     69  F   UNL A   1      34.511  32.482  31.959  1.00  0.00    -0.206 F 
ATOM     70  C   UNL A   1      34.178  34.440  28.930  1.00  0.00     0.006 A 
ENDBRANCH  49  63
BRANCH  50  71
ATOM     71  C   UNL A   1      43.569  28.731  35.509  1.00  0.00     0.057 A 
ATOM     72  C   UNL A   1      43.352  27.792  36.525  1.00  0.00     0.134 A 
ATOM     73  C   UNL A   1      44.893  29.118  35.265  1.00  0.00     0.134 A 
ATOM     74  F   UNL A   1      42.106  27.399  36.826  1.00  0.00    -0.206 F 
ATOM     75  C   UNL A   1      44.403  27.290  37.296  1.00  0.00     0.040 A 
ATOM     76  C   UNL A   1      45.956  28.600  36.008  1.00  0.00     0.040 A 
ATOM     77  F   UNL A   1      45.172  30.015  34.310  1.00  0.00    -0.206 F 
ATOM     78  C   UNL A   1      45.710  27.693  37.036  1.00  0.00     0.006 A 
ENDBRANCH  50  71
BRANCH  62  79
ATOM     79  C   UNL A   1      39.788  34.472  36.645  1.00  0.00     0.057 A 
ATOM     80  C   UNL A   1      40.406  35.722  36.521  1.00  0.00     0.134 A 
ATOM     81  C   UNL A   1      39.074  34.218  37.824  1.00  0.00     0.134 A 
ATOM     82  F   UNL A   1      41.112  36.025  35.421  1.00  0.00    -0.206 F 
ATOM     83  C   UNL A   1      40.328  36.677  37.535  1.00  0.00     0.040 A 
ATOM     84  C   UNL A   1      38.964  35.174  38.833  1.00  0.00     0.040 A 
ATOM     85  F   UNL A   1      38.447  33.045  38.001  1.00  0.00    -0.206 F 
ATOM     86  C   UNL A   1      39.595  36.408  38.692  1.00  0.00     0.006 A 
ENDBRANCH  62  79
ENDBRANCH  36  37
ENDBRANCH  29  31
ENDBRANCH  28  29
ENDBRANCH  27  28
ENDBRANCH  26  27
ENDBRANCH  25  26
ENDBRANCH  24  25
ENDBRANCH  23  24
ENDBRANCH   1  23
TORSDOF 23
ENDMDL
