MODEL 1
REMARK VINA RESULT:      -7.1      0.000      0.000
REMARK SMILES CC(C)[C@H](NC(=O)[C@H](C)NC(=O)CNC(=O)OCc1ccccc1)C(=O)OCCOCCOCCOCCOC(=O)c1ccc(-c2c3nc(c(-c4c(F)cccc4F)c4ccc([nH]4)c(-c4c(F)cccc4F)c4nc(c(-c5c(F)cccc5F)c5ccc2[nH]5)C=C4)C=C3)cc1
REMARK SMILES IDX 30 1 29 2 28 3 27 4 25 5 26 6 4 7 2 8 1 9 3 10 5 11 6 12
REMARK SMILES IDX 7 14 8 15 9 16 10 17 11 18 12 20 13 21 14 22 15 23 16 25
REMARK SMILES IDX 17 26 18 27 19 28 20 29 24 30 21 31 23 32 22 33 31 34 32 35
REMARK SMILES IDX 33 36 34 37 35 38 36 39 37 40 38 41 39 42 40 43 41 44 42 45
REMARK SMILES IDX 43 46 95 47 44 48 94 49 45 50 46 51 47 52 88 53 48 54 93 55
REMARK SMILES IDX 87 56 89 57 49 58 92 59 86 60 85 61 50 63 76 64 59 65 75 66
REMARK SMILES IDX 60 67 63 68 74 69 90 70 61 71 62 72 73 74 91 75 64 76 51 77
REMARK SMILES IDX 52 78 57 79 53 80 54 81 56 82 58 83 55 84 77 85 78 86 83 87
REMARK SMILES IDX 79 88 80 89 82 90 84 91 81 92 65 93 66 94 71 95 67 96 68 97
REMARK SMILES IDX 70 98 72 99 69 100
REMARK H PARENT 5 13 10 19 14 24 89 62 63 73
REMARK Flexibility Score: inf
ROOT
ATOM      1  O   UNL A   1      41.527  30.051  32.970  1.00  0.00    -0.376 OA
ENDROOT
BRANCH   1   2
ATOM      2  C   UNL A   1      41.253  29.560  34.281  1.00  0.00     0.202 C 
BRANCH   2   3
ATOM      3  C   UNL A   1      42.440  29.413  35.237  1.00  0.00     0.261 C 
BRANCH   3   4
ATOM      4  O   UNL A   1      42.867  28.034  35.343  1.00  0.00    -0.462 OA
BRANCH   4   5
ATOM      5  C   UNL A   1      42.351  27.300  36.362  1.00  0.00     0.328 C 
ATOM      6  O   UNL A   1      41.242  27.497  36.846  1.00  0.00    -0.250 OA
BRANCH   5   7
ATOM      7  C   UNL A   1      43.250  26.091  36.756  1.00  0.00     0.194 C 
BRANCH   7   8
ATOM      8  C   UNL A   1      42.820  24.769  36.058  1.00  0.00     0.017 C 
ATOM      9  C   UNL A   1      41.297  24.582  36.192  1.00  0.00     0.010 C 
ATOM     10  C   UNL A   1      43.156  24.659  34.565  1.00  0.00     0.010 C 
ENDBRANCH   7   8
BRANCH   7  11
ATOM     11  N   UNL A   1      43.718  25.928  38.135  1.00  0.00    -0.341 N 
ATOM     12  C   UNL A   1      44.648  25.164  38.759  1.00  0.00     0.242 C 
ATOM     13  H   UNL A   1      43.238  26.515  38.762  1.00  0.00     0.164 HD
ATOM     14  O   UNL A   1      44.775  25.384  39.971  1.00  0.00    -0.273 OA
BRANCH  12  15
ATOM     15  C   UNL A   1      45.372  23.972  38.080  1.00  0.00     0.168 C 
ATOM     16  C   UNL A   1      45.630  22.914  39.157  1.00  0.00     0.041 C 
BRANCH  15  17
ATOM     17  N   UNL A   1      46.640  24.349  37.464  1.00  0.00    -0.343 N 
ATOM     18  C   UNL A   1      47.167  24.066  36.245  1.00  0.00     0.240 C 
ATOM     19  H   UNL A   1      47.217  24.910  38.033  1.00  0.00     0.164 HD
ATOM     20  O   UNL A   1      48.265  24.566  35.985  1.00  0.00    -0.273 OA
BRANCH  18  21
ATOM     21  C   UNL A   1      46.408  23.248  35.195  1.00  0.00     0.219 C 
BRANCH  21  22
ATOM     22  N   UNL A   1      46.290  21.841  35.512  1.00  0.00    -0.312 N 
ATOM     23  C   UNL A   1      47.176  20.831  35.266  1.00  0.00     0.407 C 
ATOM     24  H   UNL A   1      45.457  21.576  35.964  1.00  0.00     0.167 HD
ATOM     25  O   UNL A   1      46.879  19.681  35.529  1.00  0.00    -0.225 OA
BRANCH  23  26
ATOM     26  O   UNL A   1      48.329  21.228  34.663  1.00  0.00    -0.445 OA
BRANCH  26  27
ATOM     27  C   UNL A   1      49.516  20.679  35.259  1.00  0.00     0.270 C 
BRANCH  27  28
ATOM     28  C   UNL A   1      50.742  20.550  34.383  1.00  0.00    -0.011 A 
ATOM     29  C   UNL A   1      51.746  19.603  34.604  1.00  0.00     0.007 A 
ATOM     30  C   UNL A   1      50.943  21.514  33.377  1.00  0.00     0.007 A 
ATOM     31  C   UNL A   1      52.912  19.613  33.826  1.00  0.00     0.000 A 
ATOM     32  C   UNL A   1      52.106  21.528  32.605  1.00  0.00     0.000 A 
ATOM     33  C   UNL A   1      53.092  20.574  32.831  1.00  0.00     0.000 A 
ENDBRANCH  27  28
ENDBRANCH  26  27
ENDBRANCH  23  26
ENDBRANCH  21  22
ENDBRANCH  18  21
ENDBRANCH  15  17
ENDBRANCH  12  15
ENDBRANCH   7  11
ENDBRANCH   5   7
ENDBRANCH   4   5
ENDBRANCH   3   4
ENDBRANCH   2   3
ENDBRANCH   1   2
BRANCH   1  34
ATOM     34  C   UNL A   1      40.441  30.153  32.055  1.00  0.00     0.188 C 
BRANCH  34  35
ATOM     35  C   UNL A   1      40.677  30.870  30.717  1.00  0.00     0.188 C 
BRANCH  35  36
ATOM     36  O   UNL A   1      39.771  30.479  29.689  1.00  0.00    -0.377 OA
BRANCH  36  37
ATOM     37  C   UNL A   1      38.534  29.957  30.168  1.00  0.00     0.188 C 
BRANCH  37  38
ATOM     38  C   UNL A   1      38.176  28.595  29.546  1.00  0.00     0.188 C 
BRANCH  38  39
ATOM     39  O   UNL A   1      39.013  27.556  30.035  1.00  0.00    -0.376 OA
BRANCH  39  40
ATOM     40  C   UNL A   1      39.902  26.946  29.106  1.00  0.00     0.202 C 
BRANCH  40  41
ATOM     41  C   UNL A   1      39.299  26.384  27.804  1.00  0.00     0.261 C 
BRANCH  41  42
ATOM     42  O   UNL A   1      40.206  25.695  26.915  1.00  0.00    -0.460 OA
BRANCH  42  43
ATOM     43  C   UNL A   1      41.140  24.897  27.471  1.00  0.00     0.338 C 
ATOM     44  O   UNL A   1      40.954  23.816  28.001  1.00  0.00    -0.246 OA
BRANCH  43  45
ATOM     45  C   UNL A   1      42.485  25.444  27.181  1.00  0.00     0.060 A 
ATOM     46  C   UNL A   1      43.321  25.756  28.260  1.00  0.00     0.016 A 
ATOM     47  C   UNL A   1      42.881  25.755  25.878  1.00  0.00     0.016 A 
ATOM     48  C   UNL A   1      44.508  26.459  28.049  1.00  0.00     0.010 A 
ATOM     49  C   UNL A   1      44.071  26.469  25.669  1.00  0.00     0.010 A 
ATOM     50  C   UNL A   1      44.861  26.878  26.759  1.00  0.00    -0.014 A 
BRANCH  50  51
ATOM     51  C   UNL A   1      45.923  27.911  26.603  1.00  0.00     0.031 A 
ATOM     52  C   UNL A   1      45.539  29.369  26.685  1.00  0.00     0.074 A 
ATOM     53  C   UNL A   1      47.222  27.577  26.493  1.00  0.00     0.049 A 
ATOM     54  N   UNL A   1      46.292  30.438  26.607  1.00  0.00    -0.248 NA
ATOM     55  C   UNL A   1      44.111  29.659  26.892  1.00  0.00     0.031 C 
ATOM     56  C   UNL A   1      47.747  26.214  26.469  1.00  0.00     0.029 A 
ATOM     57  N   UNL A   1      48.340  28.370  26.391  1.00  0.00    -0.354 N 
ATOM     58  C   UNL A   1      45.431  31.523  26.746  1.00  0.00     0.074 A 
ATOM     59  C   UNL A   1      44.095  30.983  26.879  1.00  0.00     0.031 C 
ATOM     60  C   UNL A   1      49.087  26.265  26.364  1.00  0.00     0.029 A 
ATOM     61  C   UNL A   1      49.511  27.662  26.277  1.00  0.00     0.049 A 
ATOM     62  H   UNL A   1      48.304  29.354  26.399  1.00  0.00     0.167 HD
ATOM     63  C   UNL A   1      45.721  32.846  26.773  1.00  0.00     0.037 A 
ATOM     64  C   UNL A   1      50.779  28.089  26.109  1.00  0.00     0.037 A 
ATOM     65  C   UNL A   1      47.049  33.393  26.646  1.00  0.00     0.049 A 
ATOM     66  C   UNL A   1      51.069  29.568  26.064  1.00  0.00     0.074 A 
ATOM     67  C   UNL A   1      47.440  34.721  26.661  1.00  0.00     0.029 A 
ATOM     68  N   UNL A   1      48.201  32.640  26.477  1.00  0.00    -0.354 N 
ATOM     69  N   UNL A   1      50.247  30.581  26.198  1.00  0.00    -0.248 NA
ATOM     70  C   UNL A   1      52.470  29.961  25.853  1.00  0.00     0.031 C 
ATOM     71  C   UNL A   1      48.821  34.773  26.443  1.00  0.00     0.029 A 
ATOM     72  C   UNL A   1      49.300  33.477  26.360  1.00  0.00     0.049 A 
ATOM     73  H   UNL A   1      48.233  31.656  26.444  1.00  0.00     0.167 HD
ATOM     74  C   UNL A   1      51.034  31.726  26.121  1.00  0.00     0.074 A 
ATOM     75  C   UNL A   1      52.400  31.281  25.948  1.00  0.00     0.031 C 
ATOM     76  C   UNL A   1      50.659  33.028  26.190  1.00  0.00     0.037 A 
BRANCH  63  77
ATOM     77  C   UNL A   1      44.570  33.803  26.911  1.00  0.00     0.057 A 
ATOM     78  C   UNL A   1      44.127  34.264  28.158  1.00  0.00     0.134 A 
ATOM     79  C   UNL A   1      43.911  34.290  25.774  1.00  0.00     0.134 A 
ATOM     80  F   UNL A   1      44.704  33.829  29.289  1.00  0.00    -0.206 F 
ATOM     81  C   UNL A   1      43.053  35.150  28.271  1.00  0.00     0.040 A 
ATOM     82  C   UNL A   1      42.856  35.199  25.873  1.00  0.00     0.040 A 
ATOM     83  F   UNL A   1      44.286  33.896  24.548  1.00  0.00    -0.206 F 
ATOM     84  C   UNL A   1      42.418  35.624  27.125  1.00  0.00     0.006 A 
ENDBRANCH  63  77
BRANCH  64  85
ATOM     85  C   UNL A   1      51.883  27.105  25.952  1.00  0.00     0.057 A 
ATOM     86  C   UNL A   1      52.199  26.552  24.705  1.00  0.00     0.134 A 
ATOM     87  C   UNL A   1      52.620  26.661  27.057  1.00  0.00     0.134 A 
ATOM     88  F   UNL A   1      51.509  26.909  23.612  1.00  0.00    -0.206 F 
ATOM     89  C   UNL A   1      53.192  25.579  24.566  1.00  0.00     0.040 A 
ATOM     90  C   UNL A   1      53.636  25.713  26.929  1.00  0.00     0.040 A 
ATOM     91  F   UNL A   1      52.363  27.145  28.282  1.00  0.00    -0.206 F 
ATOM     92  C   UNL A   1      53.918  25.162  25.680  1.00  0.00     0.006 A 
ENDBRANCH  64  85
BRANCH  76  93
ATOM     93  C   UNL A   1      51.749  34.063  26.126  1.00  0.00     0.057 A 
ATOM     94  C   UNL A   1      52.189  34.612  24.914  1.00  0.00     0.134 A 
ATOM     95  C   UNL A   1      52.363  34.523  27.299  1.00  0.00     0.134 A 
ATOM     96  F   UNL A   1      51.652  34.213  23.751  1.00  0.00    -0.206 F 
ATOM     97  C   UNL A   1      53.228  35.544  24.866  1.00  0.00     0.040 A 
ATOM     98  C   UNL A   1      53.379  35.481  27.267  1.00  0.00     0.040 A 
ATOM     99  F   UNL A   1      51.983  34.055  28.497  1.00  0.00    -0.206 F 
ATOM    100  C   UNL A   1      53.823  35.985  26.047  1.00  0.00     0.006 A 
ENDBRANCH  76  93
ENDBRANCH  50  51
ENDBRANCH  43  45
ENDBRANCH  42  43
ENDBRANCH  41  42
ENDBRANCH  40  41
ENDBRANCH  39  40
ENDBRANCH  38  39
ENDBRANCH  37  38
ENDBRANCH  36  37
ENDBRANCH  35  36
ENDBRANCH  34  35
ENDBRANCH   1  34
TORSDOF 29
ENDMDL
MODEL 2
REMARK VINA RESULT:      -7.1      6.094     14.619
REMARK SMILES CC(C)[C@H](NC(=O)[C@H](C)NC(=O)CNC(=O)OCc1ccccc1)C(=O)OCCOCCOCCOCCOC(=O)c1ccc(-c2c3nc(c(-c4c(F)cccc4F)c4ccc([nH]4)c(-c4c(F)cccc4F)c4nc(c(-c5c(F)cccc5F)c5ccc2[nH]5)C=C4)C=C3)cc1
REMARK SMILES IDX 30 1 29 2 28 3 27 4 25 5 26 6 4 7 2 8 1 9 3 10 5 11 6 12
REMARK SMILES IDX 7 14 8 15 9 16 10 17 11 18 12 20 13 21 14 22 15 23 16 25
REMARK SMILES IDX 17 26 18 27 19 28 20 29 24 30 21 31 23 32 22 33 31 34 32 35
REMARK SMILES IDX 33 36 34 37 35 38 36 39 37 40 38 41 39 42 40 43 41 44 42 45
REMARK SMILES IDX 43 46 95 47 44 48 94 49 45 50 46 51 47 52 88 53 48 54 93 55
REMARK SMILES IDX 87 56 89 57 49 58 92 59 86 60 85 61 50 63 76 64 59 65 75 66
REMARK SMILES IDX 60 67 63 68 74 69 90 70 61 71 62 72 73 74 91 75 64 76 51 77
REMARK SMILES IDX 52 78 57 79 53 80 54 81 56 82 58 83 55 84 77 85 78 86 83 87
REMARK SMILES IDX 79 88 80 89 82 90 84 91 81 92 65 93 66 94 71 95 67 96 68 97
REMARK SMILES IDX 70 98 72 99 69 100
REMARK H PARENT 5 13 10 19 14 24 89 62 63 73
REMARK Flexibility Score: inf
ROOT
ATOM      1  O   UNL A   1      47.949  26.854  24.062  1.00  0.00    -0.376 OA
ENDROOT
BRANCH   1   2
ATOM      2  C   UNL A   1      47.254  25.754  24.646  1.00  0.00     0.202 C 
BRANCH   2   3
ATOM      3  C   UNL A   1      45.870  26.033  25.239  1.00  0.00     0.261 C 
BRANCH   3   4
ATOM      4  O   UNL A   1      45.871  27.237  26.041  1.00  0.00    -0.462 OA
BRANCH   4   5
ATOM      5  C   UNL A   1      44.667  27.807  26.309  1.00  0.00     0.328 C 
ATOM      6  O   UNL A   1      44.408  28.982  26.082  1.00  0.00    -0.250 OA
BRANCH   5   7
ATOM      7  C   UNL A   1      43.605  26.778  26.798  1.00  0.00     0.194 C 
BRANCH   7   8
ATOM      8  C   UNL A   1      42.186  27.062  26.229  1.00  0.00     0.017 C 
ATOM      9  C   UNL A   1      41.739  25.890  25.335  1.00  0.00     0.010 C 
ATOM     10  C   UNL A   1      41.079  27.281  27.268  1.00  0.00     0.010 C 
ENDBRANCH   7   8
BRANCH   7  11
ATOM     11  N   UNL A   1      43.620  26.290  28.180  1.00  0.00    -0.341 N 
ATOM     12  C   UNL A   1      43.740  25.080  28.779  1.00  0.00     0.242 C 
ATOM     13  H   UNL A   1      43.518  27.020  28.833  1.00  0.00     0.164 HD
ATOM     14  O   UNL A   1      43.767  25.113  30.017  1.00  0.00    -0.273 OA
BRANCH  12  15
ATOM     15  C   UNL A   1      43.657  23.734  28.013  1.00  0.00     0.168 C 
ATOM     16  C   UNL A   1      43.252  22.654  29.020  1.00  0.00     0.041 C 
BRANCH  15  17
ATOM     17  N   UNL A   1      44.919  23.355  27.385  1.00  0.00    -0.343 N 
ATOM     18  C   UNL A   1      45.189  22.546  26.329  1.00  0.00     0.240 C 
ATOM     19  H   UNL A   1      45.716  23.759  27.800  1.00  0.00     0.164 HD
ATOM     20  O   UNL A   1      46.374  22.445  25.996  1.00  0.00    -0.273 OA
BRANCH  18  21
ATOM     21  C   UNL A   1      44.085  21.860  25.519  1.00  0.00     0.219 C 
BRANCH  21  22
ATOM     22  N   UNL A   1      43.805  20.501  25.931  1.00  0.00    -0.312 N 
ATOM     23  C   UNL A   1      42.596  19.878  26.060  1.00  0.00     0.407 C 
ATOM     24  H   UNL A   1      44.592  19.952  26.149  1.00  0.00     0.167 HD
ATOM     25  O   UNL A   1      42.538  18.745  26.500  1.00  0.00    -0.225 OA
BRANCH  23  26
ATOM     26  O   UNL A   1      41.526  20.650  25.728  1.00  0.00    -0.445 OA
BRANCH  26  27
ATOM     27  C   UNL A   1      41.003  21.419  26.823  1.00  0.00     0.270 C 
BRANCH  27  28
ATOM     28  C   UNL A   1      39.725  22.191  26.585  1.00  0.00    -0.011 A 
ATOM     29  C   UNL A   1      38.692  21.731  25.763  1.00  0.00     0.007 A 
ATOM     30  C   UNL A   1      39.628  23.493  27.113  1.00  0.00     0.007 A 
ATOM     31  C   UNL A   1      37.586  22.547  25.491  1.00  0.00     0.000 A 
ATOM     32  C   UNL A   1      38.529  24.309  26.838  1.00  0.00     0.000 A 
ATOM     33  C   UNL A   1      37.506  23.834  26.026  1.00  0.00     0.000 A 
ENDBRANCH  27  28
ENDBRANCH  26  27
ENDBRANCH  23  26
ENDBRANCH  21  22
ENDBRANCH  18  21
ENDBRANCH  15  17
ENDBRANCH  12  15
ENDBRANCH   7  11
ENDBRANCH   5   7
ENDBRANCH   4   5
ENDBRANCH   3   4
ENDBRANCH   2   3
ENDBRANCH   1   2
BRANCH   1  34
ATOM     34  C   UNL A   1      49.363  26.755  23.929  1.00  0.00     0.188 C 
BRANCH  34  35
ATOM     35  C   UNL A   1      50.246  27.519  24.926  1.00  0.00     0.188 C 
BRANCH  35  36
ATOM     36  O   UNL A   1      50.018  27.161  26.286  1.00  0.00    -0.377 OA
BRANCH  36  37
ATOM     37  C   UNL A   1      50.066  28.258  27.196  1.00  0.00     0.188 C 
BRANCH  37  38
ATOM     38  C   UNL A   1      49.591  27.885  28.612  1.00  0.00     0.188 C 
BRANCH  38  39
ATOM     39  O   UNL A   1      48.339  27.214  28.588  1.00  0.00    -0.376 OA
BRANCH  39  40
ATOM     40  C   UNL A   1      47.341  27.668  29.495  1.00  0.00     0.202 C 
BRANCH  40  41
ATOM     41  C   UNL A   1      46.711  29.050  29.231  1.00  0.00     0.261 C 
BRANCH  41  42
ATOM     42  O   UNL A   1      45.999  29.658  30.332  1.00  0.00    -0.460 OA
BRANCH  42  43
ATOM     43  C   UNL A   1      44.750  29.219  30.587  1.00  0.00     0.338 C 
ATOM     44  O   UNL A   1      44.100  28.439  29.915  1.00  0.00    -0.246 OA
BRANCH  43  45
ATOM     45  C   UNL A   1      44.332  29.688  31.928  1.00  0.00     0.060 A 
ATOM     46  C   UNL A   1      45.195  30.535  32.633  1.00  0.00     0.016 A 
ATOM     47  C   UNL A   1      43.165  29.216  32.534  1.00  0.00     0.016 A 
ATOM     48  C   UNL A   1      44.943  30.838  33.972  1.00  0.00     0.010 A 
ATOM     49  C   UNL A   1      42.918  29.515  33.883  1.00  0.00     0.010 A 
ATOM     50  C   UNL A   1      43.837  30.279  34.627  1.00  0.00    -0.014 A 
BRANCH  50  51
ATOM     51  C   UNL A   1      43.783  30.324  36.115  1.00  0.00     0.031 A 
ATOM     52  C   UNL A   1      44.547  29.288  36.904  1.00  0.00     0.074 A 
ATOM     53  C   UNL A   1      43.156  31.320  36.769  1.00  0.00     0.049 A 
ATOM     54  N   UNL A   1      44.669  29.146  38.201  1.00  0.00    -0.248 NA
ATOM     55  C   UNL A   1      45.279  28.279  36.122  1.00  0.00     0.031 C 
ATOM     56  C   UNL A   1      42.436  32.424  36.139  1.00  0.00     0.029 A 
ATOM     57  N   UNL A   1      43.037  31.564  38.116  1.00  0.00    -0.354 N 
ATOM     58  C   UNL A   1      45.481  28.032  38.388  1.00  0.00     0.074 A 
ATOM     59  C   UNL A   1      45.794  27.515  37.073  1.00  0.00     0.031 C 
ATOM     60  C   UNL A   1      41.954  33.233  37.100  1.00  0.00     0.029 A 
ATOM     61  C   UNL A   1      42.299  32.684  38.411  1.00  0.00     0.049 A 
ATOM     62  H   UNL A   1      43.443  30.989  38.805  1.00  0.00     0.167 HD
ATOM     63  C   UNL A   1      45.937  27.491  39.544  1.00  0.00     0.037 A 
ATOM     64  C   UNL A   1      41.932  33.202  39.600  1.00  0.00     0.037 A 
ATOM     65  C   UNL A   1      45.635  28.001  40.858  1.00  0.00     0.049 A 
ATOM     66  C   UNL A   1      42.387  32.538  40.876  1.00  0.00     0.074 A 
ATOM     67  C   UNL A   1      46.051  27.519  42.087  1.00  0.00     0.029 A 
ATOM     68  N   UNL A   1      44.837  29.107  41.112  1.00  0.00    -0.354 N 
ATOM     69  N   UNL A   1      43.155  31.487  41.039  1.00  0.00    -0.248 NA
ATOM     70  C   UNL A   1      41.929  33.142  42.136  1.00  0.00     0.031 C 
ATOM     71  C   UNL A   1      45.459  28.299  43.087  1.00  0.00     0.029 A 
ATOM     72  C   UNL A   1      44.728  29.306  42.480  1.00  0.00     0.049 A 
ATOM     73  H   UNL A   1      44.411  29.666  40.423  1.00  0.00     0.167 HD
ATOM     74  C   UNL A   1      43.298  31.326  42.414  1.00  0.00     0.074 A 
ATOM     75  C   UNL A   1      42.553  32.398  43.038  1.00  0.00     0.031 C 
ATOM     76  C   UNL A   1      43.986  30.377  43.096  1.00  0.00     0.037 A 
BRANCH  63  77
ATOM     77  C   UNL A   1      46.788  26.256  39.441  1.00  0.00     0.057 A 
ATOM     78  C   UNL A   1      48.183  26.317  39.323  1.00  0.00     0.134 A 
ATOM     79  C   UNL A   1      46.202  24.984  39.486  1.00  0.00     0.134 A 
ATOM     80  F   UNL A   1      48.809  27.502  39.260  1.00  0.00    -0.206 F 
ATOM     81  C   UNL A   1      48.960  25.160  39.224  1.00  0.00     0.040 A 
ATOM     82  C   UNL A   1      46.970  23.821  39.418  1.00  0.00     0.040 A 
ATOM     83  F   UNL A   1      44.872  24.850  39.605  1.00  0.00    -0.206 F 
ATOM     84  C   UNL A   1      48.353  23.908  39.278  1.00  0.00     0.006 A 
ENDBRANCH  63  77
BRANCH  64  85
ATOM     85  C   UNL A   1      41.069  34.411  39.654  1.00  0.00     0.057 A 
ATOM     86  C   UNL A   1      39.672  34.315  39.654  1.00  0.00     0.134 A 
ATOM     87  C   UNL A   1      41.624  35.698  39.660  1.00  0.00     0.134 A 
ATOM     88  F   UNL A   1      39.077  33.114  39.615  1.00  0.00    -0.206 F 
ATOM     89  C   UNL A   1      38.860  35.451  39.638  1.00  0.00     0.040 A 
ATOM     90  C   UNL A   1      40.825  36.842  39.675  1.00  0.00     0.040 A 
ATOM     91  F   UNL A   1      42.955  35.861  39.651  1.00  0.00    -0.206 F 
ATOM     92  C   UNL A   1      39.437  36.720  39.654  1.00  0.00     0.006 A 
ENDBRANCH  64  85
BRANCH  76  93
ATOM     93  C   UNL A   1      44.003  30.485  44.597  1.00  0.00     0.057 A 
ATOM     94  C   UNL A   1      43.045  29.858  45.404  1.00  0.00     0.134 A 
ATOM     95  C   UNL A   1      45.003  31.225  45.245  1.00  0.00     0.134 A 
ATOM     96  F   UNL A   1      42.056  29.140  44.850  1.00  0.00    -0.206 F 
ATOM     97  C   UNL A   1      43.052  29.998  46.793  1.00  0.00     0.040 A 
ATOM     98  C   UNL A   1      45.040  31.344  46.636  1.00  0.00     0.040 A 
ATOM     99  F   UNL A   1      45.963  31.841  44.540  1.00  0.00    -0.206 F 
ATOM    100  C   UNL A   1      44.055  30.740  47.414  1.00  0.00     0.006 A 
ENDBRANCH  76  93
ENDBRANCH  50  51
ENDBRANCH  43  45
ENDBRANCH  42  43
ENDBRANCH  41  42
ENDBRANCH  40  41
ENDBRANCH  39  40
ENDBRANCH  38  39
ENDBRANCH  37  38
ENDBRANCH  36  37
ENDBRANCH  35  36
ENDBRANCH  34  35
ENDBRANCH   1  34
TORSDOF 29
ENDMDL
MODEL 3
REMARK VINA RESULT:      -7.0      7.537     14.357
REMARK SMILES CC(C)[C@H](NC(=O)[C@H](C)NC(=O)CNC(=O)OCc1ccccc1)C(=O)OCCOCCOCCOCCOC(=O)c1ccc(-c2c3nc(c(-c4c(F)cccc4F)c4ccc([nH]4)c(-c4c(F)cccc4F)c4nc(c(-c5c(F)cccc5F)c5ccc2[nH]5)C=C4)C=C3)cc1
REMARK SMILES IDX 30 1 29 2 28 3 27 4 25 5 26 6 4 7 2 8 1 9 3 10 5 11 6 12
REMARK SMILES IDX 7 14 8 15 9 16 10 17 11 18 12 20 13 21 14 22 15 23 16 25
REMARK SMILES IDX 17 26 18 27 19 28 20 29 24 30 21 31 23 32 22 33 31 34 32 35
REMARK SMILES IDX 33 36 34 37 35 38 36 39 37 40 38 41 39 42 40 43 41 44 42 45
REMARK SMILES IDX 43 46 95 47 44 48 94 49 45 50 46 51 47 52 88 53 48 54 93 55
REMARK SMILES IDX 87 56 89 57 49 58 92 59 86 60 85 61 50 63 76 64 59 65 75 66
REMARK SMILES IDX 60 67 63 68 74 69 90 70 61 71 62 72 73 74 91 75 64 76 51 77
REMARK SMILES IDX 52 78 57 79 53 80 54 81 56 82 58 83 55 84 77 85 78 86 83 87
REMARK SMILES IDX 79 88 80 89 82 90 84 91 81 92 65 93 66 94 71 95 67 96 68 97
REMARK SMILES IDX 70 98 72 99 69 100
REMARK H PARENT 5 13 10 19 14 24 89 62 63 73
REMARK Flexibility Score: inf
ROOT
ATOM      1  O   UNL A   1      41.466  40.035  27.019  1.00  0.00    -0.376 OA
ENDROOT
BRANCH   1   2
ATOM      2  C   UNL A   1      42.729  39.448  27.330  1.00  0.00     0.202 C 
BRANCH   2   3
ATOM      3  C   UNL A   1      42.984  39.066  28.791  1.00  0.00     0.261 C 
BRANCH   3   4
ATOM      4  O   UNL A   1      43.578  37.751  28.898  1.00  0.00    -0.462 OA
BRANCH   4   5
ATOM      5  C   UNL A   1      42.797  36.688  28.575  1.00  0.00     0.328 C 
ATOM      6  O   UNL A   1      41.597  36.775  28.340  1.00  0.00    -0.250 OA
BRANCH   5   7
ATOM      7  C   UNL A   1      43.609  35.371  28.391  1.00  0.00     0.194 C 
BRANCH   7   8
ATOM      8  C   UNL A   1      44.174  35.209  26.952  1.00  0.00     0.017 C 
ATOM      9  C   UNL A   1      45.649  35.652  26.919  1.00  0.00     0.010 C 
ATOM     10  C   UNL A   1      44.118  33.792  26.366  1.00  0.00     0.010 C 
ENDBRANCH   7   8
BRANCH   7  11
ATOM     11  N   UNL A   1      43.155  34.123  29.012  1.00  0.00    -0.341 N 
ATOM     12  C   UNL A   1      42.490  33.791  30.146  1.00  0.00     0.242 C 
ATOM     13  H   UNL A   1      43.391  33.333  28.474  1.00  0.00     0.164 HD
ATOM     14  O   UNL A   1      42.244  32.584  30.270  1.00  0.00    -0.273 OA
BRANCH  12  15
ATOM     15  C   UNL A   1      42.220  34.788  31.302  1.00  0.00     0.168 C 
ATOM     16  C   UNL A   1      43.567  35.117  31.953  1.00  0.00     0.041 C 
BRANCH  15  17
ATOM     17  N   UNL A   1      41.314  34.257  32.315  1.00  0.00    -0.343 N 
ATOM     18  C   UNL A   1      39.963  34.113  32.327  1.00  0.00     0.240 C 
ATOM     19  H   UNL A   1      41.761  33.947  33.136  1.00  0.00     0.164 HD
ATOM     20  O   UNL A   1      39.471  33.585  33.328  1.00  0.00    -0.273 OA
BRANCH  18  21
ATOM     21  C   UNL A   1      39.089  34.493  31.128  1.00  0.00     0.219 C 
BRANCH  21  22
ATOM     22  N   UNL A   1      38.998  33.467  30.112  1.00  0.00    -0.312 N 
ATOM     23  C   UNL A   1      38.091  32.452  29.999  1.00  0.00     0.407 C 
ATOM     24  H   UNL A   1      39.684  33.505  29.407  1.00  0.00     0.167 HD
ATOM     25  O   UNL A   1      38.210  31.622  29.118  1.00  0.00    -0.225 OA
BRANCH  23  26
ATOM     26  O   UNL A   1      37.140  32.436  30.972  1.00  0.00    -0.445 OA
BRANCH  26  27
ATOM     27  C   UNL A   1      36.185  33.505  30.868  1.00  0.00     0.270 C 
BRANCH  27  28
ATOM     28  C   UNL A   1      35.177  33.434  29.743  1.00  0.00    -0.011 A 
ATOM     29  C   UNL A   1      34.343  34.500  29.392  1.00  0.00     0.007 A 
ATOM     30  C   UNL A   1      34.978  32.193  29.108  1.00  0.00     0.007 A 
ATOM     31  C   UNL A   1      33.350  34.330  28.418  1.00  0.00     0.000 A 
ATOM     32  C   UNL A   1      33.984  32.022  28.142  1.00  0.00     0.000 A 
ATOM     33  C   UNL A   1      33.170  33.094  27.796  1.00  0.00     0.000 A 
ENDBRANCH  27  28
ENDBRANCH  26  27
ENDBRANCH  23  26
ENDBRANCH  21  22
ENDBRANCH  18  21
ENDBRANCH  15  17
ENDBRANCH  12  15
ENDBRANCH   7  11
ENDBRANCH   5   7
ENDBRANCH   4   5
ENDBRANCH   3   4
ENDBRANCH   2   3
ENDBRANCH   1   2
BRANCH   1  34
ATOM     34  C   UNL A   1      41.250  40.486  25.687  1.00  0.00     0.188 C 
BRANCH  34  35
ATOM     35  C   UNL A   1      42.127  41.628  25.151  1.00  0.00     0.188 C 
BRANCH  35  36
ATOM     36  O   UNL A   1      42.353  41.567  23.746  1.00  0.00    -0.377 OA
BRANCH  36  37
ATOM     37  C   UNL A   1      41.650  42.555  22.996  1.00  0.00     0.188 C 
BRANCH  37  38
ATOM     38  C   UNL A   1      42.109  42.636  21.529  1.00  0.00     0.188 C 
BRANCH  38  39
ATOM     39  O   UNL A   1      43.396  42.062  21.347  1.00  0.00    -0.376 OA
BRANCH  39  40
ATOM     40  C   UNL A   1      44.407  42.896  20.794  1.00  0.00     0.202 C 
BRANCH  40  41
ATOM     41  C   UNL A   1      44.848  44.124  21.615  1.00  0.00     0.261 C 
BRANCH  41  42
ATOM     42  O   UNL A   1      44.855  43.975  23.052  1.00  0.00    -0.460 OA
BRANCH  42  43
ATOM     43  C   UNL A   1      45.964  44.360  23.715  1.00  0.00     0.338 C 
ATOM     44  O   UNL A   1      46.445  45.478  23.743  1.00  0.00    -0.246 OA
BRANCH  43  45
ATOM     45  C   UNL A   1      46.430  43.248  24.574  1.00  0.00     0.060 A 
ATOM     46  C   UNL A   1      45.741  42.030  24.515  1.00  0.00     0.016 A 
ATOM     47  C   UNL A   1      47.454  43.427  25.508  1.00  0.00     0.016 A 
ATOM     48  C   UNL A   1      46.011  41.024  25.444  1.00  0.00     0.010 A 
ATOM     49  C   UNL A   1      47.717  42.418  26.447  1.00  0.00     0.010 A 
ATOM     50  C   UNL A   1      46.955  41.235  26.459  1.00  0.00    -0.014 A 
BRANCH  50  51
ATOM     51  C   UNL A   1      46.972  40.312  27.629  1.00  0.00     0.031 A 
ATOM     52  C   UNL A   1      47.765  39.030  27.535  1.00  0.00     0.074 A 
ATOM     53  C   UNL A   1      46.386  40.640  28.795  1.00  0.00     0.049 A 
ATOM     54  N   UNL A   1      47.947  38.092  28.430  1.00  0.00    -0.248 NA
ATOM     55  C   UNL A   1      48.450  38.778  26.257  1.00  0.00     0.031 C 
ATOM     56  C   UNL A   1      45.646  41.873  29.054  1.00  0.00     0.029 A 
ATOM     57  N   UNL A   1      46.333  39.959  29.987  1.00  0.00    -0.354 N 
ATOM     58  C   UNL A   1      48.759  37.138  27.824  1.00  0.00     0.074 A 
ATOM     59  C   UNL A   1      49.005  37.595  26.472  1.00  0.00     0.031 C 
ATOM     60  C   UNL A   1      45.216  41.864  30.328  1.00  0.00     0.029 A 
ATOM     61  C   UNL A   1      45.619  40.610  30.964  1.00  0.00     0.049 A 
ATOM     62  H   UNL A   1      46.767  39.086  30.128  1.00  0.00     0.167 HD
ATOM     63  C   UNL A   1      49.265  35.993  28.342  1.00  0.00     0.037 A 
ATOM     64  C   UNL A   1      45.313  40.233  32.222  1.00  0.00     0.037 A 
ATOM     65  C   UNL A   1      49.030  35.532  29.687  1.00  0.00     0.049 A 
ATOM     66  C   UNL A   1      45.824  38.917  32.752  1.00  0.00     0.074 A 
ATOM     67  C   UNL A   1      49.500  34.384  30.300  1.00  0.00     0.029 A 
ATOM     68  N   UNL A   1      48.254  36.197  30.625  1.00  0.00    -0.354 N 
ATOM     69  N   UNL A   1      46.590  38.026  32.169  1.00  0.00    -0.248 NA
ATOM     70  C   UNL A   1      45.430  38.559  34.123  1.00  0.00     0.031 C 
ATOM     71  C   UNL A   1      48.962  34.324  31.591  1.00  0.00     0.029 A 
ATOM     72  C   UNL A   1      48.212  35.468  31.805  1.00  0.00     0.049 A 
ATOM     73  H   UNL A   1      47.800  37.057  30.476  1.00  0.00     0.167 HD
ATOM     74  C   UNL A   1      46.796  37.023  33.111  1.00  0.00     0.074 A 
ATOM     75  C   UNL A   1      46.090  37.425  34.309  1.00  0.00     0.031 C 
ATOM     76  C   UNL A   1      47.509  35.874  32.995  1.00  0.00     0.037 A 
BRANCH  63  77
ATOM     77  C   UNL A   1      50.100  35.133  27.433  1.00  0.00     0.057 A 
ATOM     78  C   UNL A   1      49.556  34.062  26.711  1.00  0.00     0.134 A 
ATOM     79  C   UNL A   1      51.465  35.399  27.260  1.00  0.00     0.134 A 
ATOM     80  F   UNL A   1      48.259  33.743  26.840  1.00  0.00    -0.206 F 
ATOM     81  C   UNL A   1      50.345  33.270  25.874  1.00  0.00     0.040 A 
ATOM     82  C   UNL A   1      52.257  34.632  26.404  1.00  0.00     0.040 A 
ATOM     83  F   UNL A   1      52.050  36.412  27.915  1.00  0.00    -0.206 F 
ATOM     84  C   UNL A   1      51.698  33.558  25.714  1.00  0.00     0.006 A 
ENDBRANCH  63  77
BRANCH  64  85
ATOM     85  C   UNL A   1      44.463  41.104  33.076  1.00  0.00     0.057 A 
ATOM     86  C   UNL A   1      43.069  41.111  32.957  1.00  0.00     0.134 A 
ATOM     87  C   UNL A   1      45.033  41.987  34.003  1.00  0.00     0.134 A 
ATOM     88  F   UNL A   1      42.463  40.314  32.065  1.00  0.00    -0.206 F 
ATOM     89  C   UNL A   1      42.273  41.976  33.712  1.00  0.00     0.040 A 
ATOM     90  C   UNL A   1      44.249  42.835  34.786  1.00  0.00     0.040 A 
ATOM     91  F   UNL A   1      46.364  42.038  34.161  1.00  0.00    -0.206 F 
ATOM     92  C   UNL A   1      42.863  42.837  34.635  1.00  0.00     0.006 A 
ENDBRANCH  64  85
BRANCH  76  93
ATOM     93  C   UNL A   1      47.599  34.994  34.212  1.00  0.00     0.057 A 
ATOM     94  C   UNL A   1      46.802  33.852  34.370  1.00  0.00     0.134 A 
ATOM     95  C   UNL A   1      48.505  35.291  35.239  1.00  0.00     0.134 A 
ATOM     96  F   UNL A   1      45.907  33.513  33.430  1.00  0.00    -0.206 F 
ATOM     97  C   UNL A   1      46.869  33.065  35.522  1.00  0.00     0.040 A 
ATOM     98  C   UNL A   1      48.607  34.492  36.380  1.00  0.00     0.040 A 
ATOM     99  F   UNL A   1      49.312  36.358  35.151  1.00  0.00    -0.206 F 
ATOM    100  C   UNL A   1      47.777  33.383  36.530  1.00  0.00     0.006 A 
ENDBRANCH  76  93
ENDBRANCH  50  51
ENDBRANCH  43  45
ENDBRANCH  42  43
ENDBRANCH  41  42
ENDBRANCH  40  41
ENDBRANCH  39  40
ENDBRANCH  38  39
ENDBRANCH  37  38
ENDBRANCH  36  37
ENDBRANCH  35  36
ENDBRANCH  34  35
ENDBRANCH   1  34
TORSDOF 29
ENDMDL
