MODEL 1
REMARK VINA RESULT:     -10.3      0.000      0.000
REMARK SMILES C[C@@H](C(=O)OCCOCCOCCOCCOC(=O)c1ccc(-c2c3nc(c(-c4c(F)cccc4F)c4ccc([nH]4)c(-c4c(F)cccc4F)c4nc(c(-c5c(F)cccc5F)c5ccc2[nH]5)C=C4)C=C3)cc1)c1ccn(C(F)F)c(=O)c1
REMARK SMILES IDX 11 1 10 2 9 3 8 4 7 5 6 6 5 7 3 8 4 9 2 10 1 11 74 12 75 13
REMARK SMILES IDX 83 14 76 15 81 16 77 17 82 18 78 19 79 20 80 21 12 22 13 23
REMARK SMILES IDX 14 24 15 25 16 26 17 27 18 28 19 29 20 30 21 31 73 32 22 33
REMARK SMILES IDX 72 34 23 35 24 36 25 37 66 38 26 39 71 40 65 41 67 42 27 43
REMARK SMILES IDX 70 44 64 45 63 46 28 48 54 49 37 50 53 51 38 52 41 53 52 54
REMARK SMILES IDX 68 55 39 56 40 57 51 59 69 60 42 61 29 62 30 63 35 64 31 65
REMARK SMILES IDX 32 66 34 67 36 68 33 69 55 70 56 71 61 72 57 73 58 74 60 75
REMARK SMILES IDX 62 76 59 77 43 78 44 79 49 80 45 81 46 82 48 83 50 84 47 85
REMARK H PARENT 67 47 41 58
REMARK Flexibility Score: inf
ROOT
ATOM      1  O   UNL A   1      40.433  20.932  27.510  1.00  0.00    -0.377 OA
ENDROOT
BRANCH   1   2
ATOM      2  C   UNL A   1      40.142  22.265  27.140  1.00  0.00     0.188 C 
BRANCH   2   3
ATOM      3  C   UNL A   1      38.998  22.402  26.125  1.00  0.00     0.188 C 
BRANCH   3   4
ATOM      4  O   UNL A   1      38.552  21.260  25.421  1.00  0.00    -0.376 OA
BRANCH   4   5
ATOM      5  C   UNL A   1      37.342  21.272  24.676  1.00  0.00     0.202 C 
BRANCH   5   6
ATOM      6  C   UNL A   1      35.934  20.995  25.243  1.00  0.00     0.261 C 
BRANCH   6   7
ATOM      7  O   UNL A   1      35.059  22.117  25.387  1.00  0.00    -0.463 OA
BRANCH   7   8
ATOM      8  C   UNL A   1      34.244  22.419  24.351  1.00  0.00     0.313 C 
ATOM      9  O   UNL A   1      34.612  23.001  23.336  1.00  0.00    -0.252 OA
BRANCH   8  10
ATOM     10  C   UNL A   1      32.812  21.868  24.527  1.00  0.00     0.126 C 
ATOM     11  C   UNL A   1      32.030  22.511  25.693  1.00  0.00     0.025 C 
BRANCH  10  12
ATOM     12  C   UNL A   1      32.704  20.336  24.444  1.00  0.00    -0.027 A 
ATOM     13  C   UNL A   1      32.848  19.507  25.633  1.00  0.00     0.023 A 
ATOM     14  C   UNL A   1      32.546  19.697  23.266  1.00  0.00     0.076 A 
ATOM     15  C   UNL A   1      32.894  18.172  25.554  1.00  0.00     0.095 A 
ATOM     16  C   UNL A   1      32.607  18.209  23.154  1.00  0.00     0.255 A 
ATOM     17  N   UNL A   1      32.806  17.526  24.340  1.00  0.00    -0.258 N 
ATOM     18  O   UNL A   1      32.508  17.702  22.041  1.00  0.00    -0.269 OA
BRANCH  17  19
ATOM     19  C   UNL A   1      33.050  16.108  24.257  1.00  0.00     0.451 C 
ATOM     20  F   UNL A   1      34.367  15.828  24.123  1.00  0.00    -0.185 F 
ATOM     21  F   UNL A   1      32.601  15.487  25.376  1.00  0.00    -0.185 F 
ENDBRANCH  17  19
ENDBRANCH  10  12
ENDBRANCH   8  10
ENDBRANCH   7   8
ENDBRANCH   6   7
ENDBRANCH   5   6
ENDBRANCH   4   5
ENDBRANCH   3   4
ENDBRANCH   2   3
ENDBRANCH   1   2
BRANCH   1  22
ATOM     22  C   UNL A   1      41.721  20.424  27.183  1.00  0.00     0.188 C 
BRANCH  22  23
ATOM     23  C   UNL A   1      41.962  19.726  25.827  1.00  0.00     0.188 C 
BRANCH  23  24
ATOM     24  O   UNL A   1      43.267  19.899  25.290  1.00  0.00    -0.376 OA
BRANCH  24  25
ATOM     25  C   UNL A   1      43.919  21.149  25.466  1.00  0.00     0.202 C 
BRANCH  25  26
ATOM     26  C   UNL A   1      43.874  22.142  24.292  1.00  0.00     0.261 C 
BRANCH  26  27
ATOM     27  O   UNL A   1      43.379  23.457  24.593  1.00  0.00    -0.460 OA
BRANCH  27  28
ATOM     28  C   UNL A   1      44.245  24.357  25.100  1.00  0.00     0.338 C 
ATOM     29  O   UNL A   1      45.404  24.538  24.762  1.00  0.00    -0.246 OA
BRANCH  28  30
ATOM     30  C   UNL A   1      43.492  25.245  26.009  1.00  0.00     0.060 A 
ATOM     31  C   UNL A   1      43.833  26.603  26.066  1.00  0.00     0.016 A 
ATOM     32  C   UNL A   1      42.453  24.743  26.797  1.00  0.00     0.016 A 
ATOM     33  C   UNL A   1      43.163  27.456  26.944  1.00  0.00     0.010 A 
ATOM     34  C   UNL A   1      41.800  25.592  27.694  1.00  0.00     0.010 A 
ATOM     35  C   UNL A   1      42.178  26.944  27.798  1.00  0.00    -0.014 A 
BRANCH  35  36
ATOM     36  C   UNL A   1      41.699  27.762  28.937  1.00  0.00     0.031 A 
ATOM     37  C   UNL A   1      42.432  27.657  30.247  1.00  0.00     0.074 A 
ATOM     38  C   UNL A   1      40.652  28.598  28.815  1.00  0.00     0.049 A 
ATOM     39  N   UNL A   1      42.172  28.224  31.396  1.00  0.00    -0.248 NA
ATOM     40  C   UNL A   1      43.621  26.790  30.257  1.00  0.00     0.031 C 
ATOM     41  C   UNL A   1      39.890  28.826  27.590  1.00  0.00     0.029 A 
ATOM     42  N   UNL A   1      40.049  29.406  29.745  1.00  0.00    -0.354 N 
ATOM     43  C   UNL A   1      43.157  27.776  32.267  1.00  0.00     0.074 A 
ATOM     44  C   UNL A   1      43.999  26.864  31.524  1.00  0.00     0.031 C 
ATOM     45  C   UNL A   1      38.906  29.705  27.849  1.00  0.00     0.029 A 
ATOM     46  C   UNL A   1      38.949  30.072  29.264  1.00  0.00     0.049 A 
ATOM     47  H   UNL A   1      40.373  29.499  30.671  1.00  0.00     0.167 HD
ATOM     48  C   UNL A   1      43.351  28.102  33.566  1.00  0.00     0.037 A 
ATOM     49  C   UNL A   1      38.064  30.865  29.902  1.00  0.00     0.037 A 
ATOM     50  C   UNL A   1      42.507  29.003  34.305  1.00  0.00     0.049 A 
ATOM     51  C   UNL A   1      38.248  31.146  31.372  1.00  0.00     0.074 A 
ATOM     52  C   UNL A   1      42.623  29.407  35.624  1.00  0.00     0.029 A 
ATOM     53  N   UNL A   1      41.383  29.631  33.792  1.00  0.00    -0.354 N 
ATOM     54  N   UNL A   1      39.193  30.736  32.183  1.00  0.00    -0.248 NA
ATOM     55  C   UNL A   1      37.241  32.002  32.014  1.00  0.00     0.031 C 
ATOM     56  C   UNL A   1      41.534  30.231  35.925  1.00  0.00     0.029 A 
ATOM     57  C   UNL A   1      40.778  30.396  34.776  1.00  0.00     0.049 A 
ATOM     58  H   UNL A   1      41.061  29.546  32.865  1.00  0.00     0.167 HD
ATOM     59  C   UNL A   1      38.914  31.310  33.419  1.00  0.00     0.074 A 
ATOM     60  C   UNL A   1      37.718  32.106  33.247  1.00  0.00     0.031 C 
ATOM     61  C   UNL A   1      39.589  31.191  34.589  1.00  0.00     0.037 A 
BRANCH  48  62
ATOM     62  C   UNL A   1      44.500  27.449  34.278  1.00  0.00     0.057 A 
ATOM     63  C   UNL A   1      45.773  28.035  34.333  1.00  0.00     0.134 A 
ATOM     64  C   UNL A   1      44.329  26.222  34.932  1.00  0.00     0.134 A 
ATOM     65  F   UNL A   1      46.011  29.201  33.714  1.00  0.00    -0.206 F 
ATOM     66  C   UNL A   1      46.837  27.412  34.988  1.00  0.00     0.040 A 
ATOM     67  C   UNL A   1      45.376  25.605  35.617  1.00  0.00     0.040 A 
ATOM     68  F   UNL A   1      43.137  25.606  34.923  1.00  0.00    -0.206 F 
ATOM     69  C   UNL A   1      46.637  26.196  35.639  1.00  0.00     0.006 A 
ENDBRANCH  48  62
BRANCH  49  70
ATOM     70  C   UNL A   1      36.910  31.438  29.163  1.00  0.00     0.057 A 
ATOM     71  C   UNL A   1      35.797  30.658  28.830  1.00  0.00     0.134 A 
ATOM     72  C   UNL A   1      36.904  32.776  28.747  1.00  0.00     0.134 A 
ATOM     73  F   UNL A   1      35.753  29.363  29.177  1.00  0.00    -0.206 F 
ATOM     74  C   UNL A   1      34.729  31.179  28.097  1.00  0.00     0.040 A 
ATOM     75  C   UNL A   1      35.830  33.319  28.039  1.00  0.00     0.040 A 
ATOM     76  F   UNL A   1      37.939  33.579  29.032  1.00  0.00    -0.206 F 
ATOM     77  C   UNL A   1      34.742  32.517  27.705  1.00  0.00     0.006 A 
ENDBRANCH  49  70
BRANCH  61  78
ATOM     78  C   UNL A   1      39.081  31.974  35.767  1.00  0.00     0.057 A 
ATOM     79  C   UNL A   1      39.446  33.308  35.991  1.00  0.00     0.134 A 
ATOM     80  C   UNL A   1      38.175  31.395  36.667  1.00  0.00     0.134 A 
ATOM     81  F   UNL A   1      40.317  33.921  35.175  1.00  0.00    -0.206 F 
ATOM     82  C   UNL A   1      38.950  34.028  37.080  1.00  0.00     0.040 A 
ATOM     83  C   UNL A   1      37.647  32.114  37.740  1.00  0.00     0.040 A 
ATOM     84  F   UNL A   1      37.772  30.126  36.506  1.00  0.00    -0.206 F 
ATOM     85  C   UNL A   1      38.041  33.434  37.953  1.00  0.00     0.006 A 
ENDBRANCH  61  78
ENDBRANCH  35  36
ENDBRANCH  28  30
ENDBRANCH  27  28
ENDBRANCH  26  27
ENDBRANCH  25  26
ENDBRANCH  24  25
ENDBRANCH  23  24
ENDBRANCH  22  23
ENDBRANCH   1  22
TORSDOF 22
ENDMDL
MODEL 2
REMARK VINA RESULT:      -9.9      2.776      3.591
REMARK SMILES C[C@@H](C(=O)OCCOCCOCCOCCOC(=O)c1ccc(-c2c3nc(c(-c4c(F)cccc4F)c4ccc([nH]4)c(-c4c(F)cccc4F)c4nc(c(-c5c(F)cccc5F)c5ccc2[nH]5)C=C4)C=C3)cc1)c1ccn(C(F)F)c(=O)c1
REMARK SMILES IDX 11 1 10 2 9 3 8 4 7 5 6 6 5 7 3 8 4 9 2 10 1 11 74 12 75 13
REMARK SMILES IDX 83 14 76 15 81 16 77 17 82 18 78 19 79 20 80 21 12 22 13 23
REMARK SMILES IDX 14 24 15 25 16 26 17 27 18 28 19 29 20 30 21 31 73 32 22 33
REMARK SMILES IDX 72 34 23 35 24 36 25 37 66 38 26 39 71 40 65 41 67 42 27 43
REMARK SMILES IDX 70 44 64 45 63 46 28 48 54 49 37 50 53 51 38 52 41 53 52 54
REMARK SMILES IDX 68 55 39 56 40 57 51 59 69 60 42 61 29 62 30 63 35 64 31 65
REMARK SMILES IDX 32 66 34 67 36 68 33 69 55 70 56 71 61 72 57 73 58 74 60 75
REMARK SMILES IDX 62 76 59 77 43 78 44 79 49 80 45 81 46 82 48 83 50 84 47 85
REMARK H PARENT 67 47 41 58
REMARK Flexibility Score: inf
ROOT
ATOM      1  O   UNL A   1      40.749  20.141  27.340  1.00  0.00    -0.377 OA
ENDROOT
BRANCH   1   2
ATOM      2  C   UNL A   1      40.420  21.502  27.145  1.00  0.00     0.188 C 
BRANCH   2   3
ATOM      3  C   UNL A   1      39.300  21.739  26.123  1.00  0.00     0.188 C 
BRANCH   3   4
ATOM      4  O   UNL A   1      38.520  20.646  25.679  1.00  0.00    -0.376 OA
BRANCH   4   5
ATOM      5  C   UNL A   1      37.361  20.836  24.880  1.00  0.00     0.202 C 
BRANCH   5   6
ATOM      6  C   UNL A   1      36.122  21.668  25.275  1.00  0.00     0.261 C 
BRANCH   6   7
ATOM      7  O   UNL A   1      36.043  23.000  24.760  1.00  0.00    -0.463 OA
BRANCH   7   8
ATOM      8  C   UNL A   1      35.380  23.189  23.596  1.00  0.00     0.313 C 
ATOM      9  O   UNL A   1      35.909  23.134  22.491  1.00  0.00    -0.252 OA
BRANCH   8  10
ATOM     10  C   UNL A   1      33.861  23.383  23.789  1.00  0.00     0.126 C 
ATOM     11  C   UNL A   1      32.992  22.396  22.980  1.00  0.00     0.025 C 
BRANCH  10  12
ATOM     12  C   UNL A   1      33.395  24.849  23.733  1.00  0.00    -0.027 A 
ATOM     13  C   UNL A   1      32.338  25.335  24.609  1.00  0.00     0.023 A 
ATOM     14  C   UNL A   1      33.891  25.717  22.828  1.00  0.00     0.076 A 
ATOM     15  C   UNL A   1      31.832  26.567  24.476  1.00  0.00     0.095 A 
ATOM     16  C   UNL A   1      33.331  27.092  22.654  1.00  0.00     0.255 A 
ATOM     17  N   UNL A   1      32.290  27.426  23.502  1.00  0.00    -0.258 N 
ATOM     18  O   UNL A   1      33.798  27.806  21.774  1.00  0.00    -0.269 OA
BRANCH  17  19
ATOM     19  C   UNL A   1      31.603  28.668  23.252  1.00  0.00     0.451 C 
ATOM     20  F   UNL A   1      30.881  28.626  22.108  1.00  0.00    -0.185 F 
ATOM     21  F   UNL A   1      30.757  28.951  24.273  1.00  0.00    -0.185 F 
ENDBRANCH  17  19
ENDBRANCH  10  12
ENDBRANCH   8  10
ENDBRANCH   7   8
ENDBRANCH   6   7
ENDBRANCH   5   6
ENDBRANCH   4   5
ENDBRANCH   3   4
ENDBRANCH   2   3
ENDBRANCH   1   2
BRANCH   1  22
ATOM     22  C   UNL A   1      42.115  19.768  27.204  1.00  0.00     0.188 C 
BRANCH  22  23
ATOM     23  C   UNL A   1      42.625  19.141  25.889  1.00  0.00     0.188 C 
BRANCH  23  24
ATOM     24  O   UNL A   1      43.672  19.861  25.251  1.00  0.00    -0.376 OA
BRANCH  24  25
ATOM     25  C   UNL A   1      43.817  21.246  25.528  1.00  0.00     0.202 C 
BRANCH  25  26
ATOM     26  C   UNL A   1      43.913  22.202  24.327  1.00  0.00     0.261 C 
BRANCH  26  27
ATOM     27  O   UNL A   1      43.421  23.535  24.538  1.00  0.00    -0.460 OA
BRANCH  27  28
ATOM     28  C   UNL A   1      44.270  24.448  25.053  1.00  0.00     0.338 C 
ATOM     29  O   UNL A   1      45.426  24.651  24.720  1.00  0.00    -0.246 OA
BRANCH  28  30
ATOM     30  C   UNL A   1      43.498  25.317  25.965  1.00  0.00     0.060 A 
ATOM     31  C   UNL A   1      43.746  26.697  25.957  1.00  0.00     0.016 A 
ATOM     32  C   UNL A   1      42.534  24.777  26.820  1.00  0.00     0.016 A 
ATOM     33  C   UNL A   1      43.059  27.536  26.834  1.00  0.00     0.010 A 
ATOM     34  C   UNL A   1      41.865  25.615  27.715  1.00  0.00     0.010 A 
ATOM     35  C   UNL A   1      42.152  26.992  27.752  1.00  0.00    -0.014 A 
BRANCH  35  36
ATOM     36  C   UNL A   1      41.669  27.820  28.883  1.00  0.00     0.031 A 
ATOM     37  C   UNL A   1      42.407  27.737  30.191  1.00  0.00     0.074 A 
ATOM     38  C   UNL A   1      40.615  28.645  28.754  1.00  0.00     0.049 A 
ATOM     39  N   UNL A   1      42.146  28.316  31.335  1.00  0.00    -0.248 NA
ATOM     40  C   UNL A   1      43.604  26.881  30.209  1.00  0.00     0.031 C 
ATOM     41  C   UNL A   1      39.846  28.851  27.529  1.00  0.00     0.029 A 
ATOM     42  N   UNL A   1      40.007  29.459  29.676  1.00  0.00    -0.354 N 
ATOM     43  C   UNL A   1      43.138  27.887  32.208  1.00  0.00     0.074 A 
ATOM     44  C   UNL A   1      43.985  26.974  31.473  1.00  0.00     0.031 C 
ATOM     45  C   UNL A   1      38.855  29.724  27.780  1.00  0.00     0.029 A 
ATOM     46  C   UNL A   1      38.900  30.109  29.190  1.00  0.00     0.049 A 
ATOM     47  H   UNL A   1      40.333  29.566  30.599  1.00  0.00     0.167 HD
ATOM     48  C   UNL A   1      43.332  28.231  33.502  1.00  0.00     0.037 A 
ATOM     49  C   UNL A   1      38.010  30.902  29.821  1.00  0.00     0.037 A 
ATOM     50  C   UNL A   1      42.482  29.133  34.233  1.00  0.00     0.049 A 
ATOM     51  C   UNL A   1      38.196  31.202  31.287  1.00  0.00     0.074 A 
ATOM     52  C   UNL A   1      42.599  29.554  35.547  1.00  0.00     0.029 A 
ATOM     53  N   UNL A   1      41.351  29.746  33.715  1.00  0.00    -0.354 N 
ATOM     54  N   UNL A   1      39.147  30.811  32.100  1.00  0.00    -0.248 NA
ATOM     55  C   UNL A   1      37.183  32.058  31.922  1.00  0.00     0.031 C 
ATOM     56  C   UNL A   1      41.503  30.373  35.841  1.00  0.00     0.029 A 
ATOM     57  C   UNL A   1      40.743  30.517  34.692  1.00  0.00     0.049 A 
ATOM     58  H   UNL A   1      41.028  29.646  32.791  1.00  0.00     0.167 HD
ATOM     59  C   UNL A   1      38.867  31.398  33.330  1.00  0.00     0.074 A 
ATOM     60  C   UNL A   1      37.663  32.181  33.152  1.00  0.00     0.031 C 
ATOM     61  C   UNL A   1      39.547  31.299  34.500  1.00  0.00     0.037 A 
BRANCH  48  62
ATOM     62  C   UNL A   1      44.489  27.597  34.218  1.00  0.00     0.057 A 
ATOM     63  C   UNL A   1      45.767  28.174  34.227  1.00  0.00     0.134 A 
ATOM     64  C   UNL A   1      44.320  26.398  34.924  1.00  0.00     0.134 A 
ATOM     65  F   UNL A   1      46.003  29.312  33.557  1.00  0.00    -0.206 F 
ATOM     66  C   UNL A   1      46.838  27.567  34.886  1.00  0.00     0.040 A 
ATOM     67  C   UNL A   1      45.376  25.800  35.613  1.00  0.00     0.040 A 
ATOM     68  F   UNL A   1      43.124  25.793  34.961  1.00  0.00    -0.206 F 
ATOM     69  C   UNL A   1      46.641  26.380  35.588  1.00  0.00     0.006 A 
ENDBRANCH  48  62
BRANCH  49  70
ATOM     70  C   UNL A   1      36.848  31.456  29.079  1.00  0.00     0.057 A 
ATOM     71  C   UNL A   1      36.824  32.788  28.651  1.00  0.00     0.134 A 
ATOM     72  C   UNL A   1      35.721  30.672  28.801  1.00  0.00     0.134 A 
ATOM     73  F   UNL A   1      37.862  33.599  28.908  1.00  0.00    -0.206 F 
ATOM     74  C   UNL A   1      35.717  33.326  27.992  1.00  0.00     0.040 A 
ATOM     75  C   UNL A   1      34.619  31.188  28.117  1.00  0.00     0.040 A 
ATOM     76  F   UNL A   1      35.678  29.387  29.184  1.00  0.00    -0.206 F 
ATOM     77  C   UNL A   1      34.612  32.522  27.718  1.00  0.00     0.006 A 
ENDBRANCH  49  70
BRANCH  61  78
ATOM     78  C   UNL A   1      39.035  32.092  35.669  1.00  0.00     0.057 A 
ATOM     79  C   UNL A   1      39.311  33.457  35.824  1.00  0.00     0.134 A 
ATOM     80  C   UNL A   1      38.215  31.488  36.632  1.00  0.00     0.134 A 
ATOM     81  F   UNL A   1      40.097  34.096  34.946  1.00  0.00    -0.206 F 
ATOM     82  C   UNL A   1      38.812  34.184  36.907  1.00  0.00     0.040 A 
ATOM     83  C   UNL A   1      37.683  32.211  37.701  1.00  0.00     0.040 A 
ATOM     84  F   UNL A   1      37.899  30.187  36.539  1.00  0.00    -0.206 F 
ATOM     85  C   UNL A   1      37.988  33.563  37.844  1.00  0.00     0.006 A 
ENDBRANCH  61  78
ENDBRANCH  35  36
ENDBRANCH  28  30
ENDBRANCH  27  28
ENDBRANCH  26  27
ENDBRANCH  25  26
ENDBRANCH  24  25
ENDBRANCH  23  24
ENDBRANCH  22  23
ENDBRANCH   1  22
TORSDOF 22
ENDMDL
MODEL 3
REMARK VINA RESULT:      -9.8      1.002      6.169
REMARK SMILES C[C@@H](C(=O)OCCOCCOCCOCCOC(=O)c1ccc(-c2c3nc(c(-c4c(F)cccc4F)c4ccc([nH]4)c(-c4c(F)cccc4F)c4nc(c(-c5c(F)cccc5F)c5ccc2[nH]5)C=C4)C=C3)cc1)c1ccn(C(F)F)c(=O)c1
REMARK SMILES IDX 11 1 10 2 9 3 8 4 7 5 6 6 5 7 3 8 4 9 2 10 1 11 74 12 75 13
REMARK SMILES IDX 83 14 76 15 81 16 77 17 82 18 78 19 79 20 80 21 12 22 13 23
REMARK SMILES IDX 14 24 15 25 16 26 17 27 18 28 19 29 20 30 21 31 73 32 22 33
REMARK SMILES IDX 72 34 23 35 24 36 25 37 66 38 26 39 71 40 65 41 67 42 27 43
REMARK SMILES IDX 70 44 64 45 63 46 28 48 54 49 37 50 53 51 38 52 41 53 52 54
REMARK SMILES IDX 68 55 39 56 40 57 51 59 69 60 42 61 29 62 30 63 35 64 31 65
REMARK SMILES IDX 32 66 34 67 36 68 33 69 55 70 56 71 61 72 57 73 58 74 60 75
REMARK SMILES IDX 62 76 59 77 43 78 44 79 49 80 45 81 46 82 48 83 50 84 47 85
REMARK H PARENT 67 47 41 58
REMARK Flexibility Score: inf
ROOT
ATOM      1  O   UNL A   1      40.730  20.722  27.318  1.00  0.00    -0.377 OA
ENDROOT
BRANCH   1   2
ATOM      2  C   UNL A   1      40.728  22.104  27.618  1.00  0.00     0.188 C 
BRANCH   2   3
ATOM      3  C   UNL A   1      39.623  22.900  26.910  1.00  0.00     0.188 C 
BRANCH   3   4
ATOM      4  O   UNL A   1      38.666  22.217  26.126  1.00  0.00    -0.376 OA
BRANCH   4   5
ATOM      5  C   UNL A   1      37.730  22.917  25.318  1.00  0.00     0.202 C 
BRANCH   5   6
ATOM      6  C   UNL A   1      36.375  23.481  25.796  1.00  0.00     0.261 C 
BRANCH   6   7
ATOM      7  O   UNL A   1      35.585  24.180  24.830  1.00  0.00    -0.463 OA
BRANCH   7   8
ATOM      8  C   UNL A   1      35.034  23.461  23.826  1.00  0.00     0.313 C 
ATOM      9  O   UNL A   1      35.590  23.244  22.754  1.00  0.00    -0.252 OA
BRANCH   8  10
ATOM     10  C   UNL A   1      33.665  22.851  24.198  1.00  0.00     0.126 C 
ATOM     11  C   UNL A   1      32.956  23.565  25.368  1.00  0.00     0.025 C 
BRANCH  10  12
ATOM     12  C   UNL A   1      33.654  21.314  24.276  1.00  0.00    -0.027 A 
ATOM     13  C   UNL A   1      34.662  20.594  25.041  1.00  0.00     0.023 A 
ATOM     14  C   UNL A   1      32.760  20.575  23.587  1.00  0.00     0.076 A 
ATOM     15  C   UNL A   1      34.744  19.258  25.005  1.00  0.00     0.095 A 
ATOM     16  C   UNL A   1      32.842  19.085  23.524  1.00  0.00     0.255 A 
ATOM     17  N   UNL A   1      33.875  18.510  24.241  1.00  0.00    -0.258 N 
ATOM     18  O   UNL A   1      32.026  18.483  22.833  1.00  0.00    -0.269 OA
BRANCH  17  19
ATOM     19  C   UNL A   1      34.101  17.097  24.065  1.00  0.00     0.451 C 
ATOM     20  F   UNL A   1      34.217  16.762  22.759  1.00  0.00    -0.185 F 
ATOM     21  F   UNL A   1      35.239  16.721  24.698  1.00  0.00    -0.185 F 
ENDBRANCH  17  19
ENDBRANCH  10  12
ENDBRANCH   8  10
ENDBRANCH   7   8
ENDBRANCH   6   7
ENDBRANCH   5   6
ENDBRANCH   4   5
ENDBRANCH   3   4
ENDBRANCH   2   3
ENDBRANCH   1   2
BRANCH   1  22
ATOM     22  C   UNL A   1      41.993  20.082  27.176  1.00  0.00     0.188 C 
BRANCH  22  23
ATOM     23  C   UNL A   1      42.520  19.699  25.776  1.00  0.00     0.188 C 
BRANCH  23  24
ATOM     24  O   UNL A   1      43.551  20.539  25.277  1.00  0.00    -0.376 OA
BRANCH  24  25
ATOM     25  C   UNL A   1      43.507  21.927  25.574  1.00  0.00     0.202 C 
BRANCH  25  26
ATOM     26  C   UNL A   1      43.779  22.908  24.421  1.00  0.00     0.261 C 
BRANCH  26  27
ATOM     27  O   UNL A   1      43.678  24.305  24.741  1.00  0.00    -0.460 OA
BRANCH  27  28
ATOM     28  C   UNL A   1      44.554  24.815  25.629  1.00  0.00     0.338 C 
ATOM     29  O   UNL A   1      45.773  24.785  25.566  1.00  0.00    -0.246 OA
BRANCH  28  30
ATOM     30  C   UNL A   1      43.789  25.609  26.613  1.00  0.00     0.060 A 
ATOM     31  C   UNL A   1      44.083  26.971  26.759  1.00  0.00     0.016 A 
ATOM     32  C   UNL A   1      42.786  25.016  27.382  1.00  0.00     0.016 A 
ATOM     33  C   UNL A   1      43.402  27.736  27.706  1.00  0.00     0.010 A 
ATOM     34  C   UNL A   1      42.121  25.776  28.348  1.00  0.00     0.010 A 
ATOM     35  C   UNL A   1      42.453  27.130  28.540  1.00  0.00    -0.014 A 
BRANCH  35  36
ATOM     36  C   UNL A   1      41.969  27.848  29.742  1.00  0.00     0.031 A 
ATOM     37  C   UNL A   1      40.737  28.703  29.613  1.00  0.00     0.074 A 
ATOM     38  C   UNL A   1      42.587  27.733  30.931  1.00  0.00     0.049 A 
ATOM     39  N   UNL A   1      40.155  29.469  30.499  1.00  0.00    -0.248 NA
ATOM     40  C   UNL A   1      40.075  28.692  28.298  1.00  0.00     0.031 C 
ATOM     41  C   UNL A   1      43.758  26.901  31.198  1.00  0.00     0.029 A 
ATOM     42  N   UNL A   1      42.314  28.330  32.136  1.00  0.00    -0.354 N 
ATOM     43  C   UNL A   1      39.066  30.035  29.849  1.00  0.00     0.074 A 
ATOM     44  C   UNL A   1      39.088  29.554  28.486  1.00  0.00     0.031 C 
ATOM     45  C   UNL A   1      44.114  27.054  32.486  1.00  0.00     0.029 A 
ATOM     46  C   UNL A   1      43.218  28.020  33.121  1.00  0.00     0.049 A 
ATOM     47  H   UNL A   1      41.543  28.926  32.280  1.00  0.00     0.167 HD
ATOM     48  C   UNL A   1      38.127  30.873  30.345  1.00  0.00     0.037 A 
ATOM     49  C   UNL A   1      43.325  28.486  34.382  1.00  0.00     0.037 A 
ATOM     50  C   UNL A   1      38.113  31.357  31.700  1.00  0.00     0.049 A 
ATOM     51  C   UNL A   1      42.317  29.487  34.888  1.00  0.00     0.074 A 
ATOM     52  C   UNL A   1      37.199  32.203  32.305  1.00  0.00     0.029 A 
ATOM     53  N   UNL A   1      39.066  31.047  32.659  1.00  0.00    -0.354 N 
ATOM     54  N   UNL A   1      41.279  30.002  34.275  1.00  0.00    -0.248 NA
ATOM     55  C   UNL A   1      42.497  29.970  36.265  1.00  0.00     0.031 C 
ATOM     56  C   UNL A   1      37.633  32.452  33.611  1.00  0.00     0.029 A 
ATOM     57  C   UNL A   1      38.779  31.708  33.842  1.00  0.00     0.049 A 
ATOM     58  H   UNL A   1      39.833  30.446  32.519  1.00  0.00     0.167 HD
ATOM     59  C   UNL A   1      40.665  30.841  35.199  1.00  0.00     0.074 A 
ATOM     60  C   UNL A   1      41.440  30.756  36.418  1.00  0.00     0.031 C 
ATOM     61  C   UNL A   1      39.556  31.609  35.052  1.00  0.00     0.037 A 
BRANCH  48  62
ATOM     62  C   UNL A   1      37.058  31.348  29.404  1.00  0.00     0.057 A 
ATOM     63  C   UNL A   1      37.092  32.621  28.818  1.00  0.00     0.134 A 
ATOM     64  C   UNL A   1      35.986  30.512  29.064  1.00  0.00     0.134 A 
ATOM     65  F   UNL A   1      38.081  33.479  29.113  1.00  0.00    -0.206 F 
ATOM     66  C   UNL A   1      36.085  33.056  27.954  1.00  0.00     0.040 A 
ATOM     67  C   UNL A   1      34.991  30.923  28.176  1.00  0.00     0.040 A 
ATOM     68  F   UNL A   1      35.892  29.279  29.585  1.00  0.00    -0.206 F 
ATOM     69  C   UNL A   1      35.034  32.201  27.625  1.00  0.00     0.006 A 
ENDBRANCH  48  62
BRANCH  49  70
ATOM     70  C   UNL A   1      44.437  28.028  35.253  1.00  0.00     0.057 A 
ATOM     71  C   UNL A   1      45.675  28.681  35.260  1.00  0.00     0.134 A 
ATOM     72  C   UNL A   1      44.298  26.907  36.083  1.00  0.00     0.134 A 
ATOM     73  F   UNL A   1      45.880  29.745  34.469  1.00  0.00    -0.206 F 
ATOM     74  C   UNL A   1      46.738  28.229  36.044  1.00  0.00     0.040 A 
ATOM     75  C   UNL A   1      45.343  26.461  36.894  1.00  0.00     0.040 A 
ATOM     76  F   UNL A   1      43.139  26.234  36.124  1.00  0.00    -0.206 F 
ATOM     77  C   UNL A   1      46.571  27.118  36.869  1.00  0.00     0.006 A 
ENDBRANCH  49  70
BRANCH  61  78
ATOM     78  C   UNL A   1      39.086  32.386  36.250  1.00  0.00     0.057 A 
ATOM     79  C   UNL A   1      39.491  33.706  36.489  1.00  0.00     0.134 A 
ATOM     80  C   UNL A   1      38.178  31.817  37.154  1.00  0.00     0.134 A 
ATOM     81  F   UNL A   1      40.365  34.309  35.670  1.00  0.00    -0.206 F 
ATOM     82  C   UNL A   1      39.029  34.421  37.596  1.00  0.00     0.040 A 
ATOM     83  C   UNL A   1      37.685  32.532  38.246  1.00  0.00     0.040 A 
ATOM     84  F   UNL A   1      37.739  30.561  36.979  1.00  0.00    -0.206 F 
ATOM     85  C   UNL A   1      38.118  33.837  38.474  1.00  0.00     0.006 A 
ENDBRANCH  61  78
ENDBRANCH  35  36
ENDBRANCH  28  30
ENDBRANCH  27  28
ENDBRANCH  26  27
ENDBRANCH  25  26
ENDBRANCH  24  25
ENDBRANCH  23  24
ENDBRANCH  22  23
ENDBRANCH   1  22
TORSDOF 22
ENDMDL
