MODEL 1
REMARK VINA RESULT:      -9.8      0.000      0.000
REMARK SMILES O=C(OCCOCCOCCOCCOC(=O)[C@@H]1C=C[C@H](NS(=O)(=O)c2ccc(Cl)cc2)C1)c1ccc(-c2c3nc(c(-c4c(F)cccc4F)c4ccc([nH]4)c(-c4c(F)cccc4F)c4nc(c(-c5c(F)cccc5F)c5ccc2[nH]5)C=C4)C=C3)cc1
REMARK SMILES IDX 10 1 9 2 8 3 7 4 6 5 5 6 4 7 3 8 2 9 1 10 34 11 35 12 87 13
REMARK SMILES IDX 36 14 86 15 37 16 38 17 39 18 80 19 40 20 85 21 79 22 81 23
REMARK SMILES IDX 41 24 84 25 78 26 77 27 42 29 68 30 51 31 67 32 52 33 55 34
REMARK SMILES IDX 66 35 82 36 53 37 54 38 65 40 83 41 56 42 43 43 44 44 49 45
REMARK SMILES IDX 45 46 46 47 48 48 50 49 47 50 69 51 70 52 75 53 71 54 72 55
REMARK SMILES IDX 74 56 76 57 73 58 57 59 58 60 63 61 59 62 60 63 62 64 64 65
REMARK SMILES IDX 61 66 11 67 12 68 13 69 14 70 15 71 16 72 17 73 18 74 19 75
REMARK SMILES IDX 33 76 20 77 21 78 22 79 23 81 24 82 25 83 26 84 27 85 32 86
REMARK SMILES IDX 28 87 31 88 29 89 30 90
REMARK H PARENT 81 28 55 39 22 80
REMARK Flexibility Score: inf
ROOT
ATOM      1  C   UNL A   1      33.075  29.071  26.741  1.00  0.00     0.188 C 
ENDROOT
BRANCH   1   2
ATOM      2  O   UNL A   1      33.356  30.058  27.729  1.00  0.00    -0.377 OA
BRANCH   2   3
ATOM      3  C   UNL A   1      34.124  31.177  27.293  1.00  0.00     0.188 C 
BRANCH   3   4
ATOM      4  C   UNL A   1      33.776  32.467  28.036  1.00  0.00     0.188 C 
BRANCH   4   5
ATOM      5  O   UNL A   1      34.864  33.389  27.897  1.00  0.00    -0.376 OA
BRANCH   5   6
ATOM      6  C   UNL A   1      34.797  34.543  28.729  1.00  0.00     0.202 C 
BRANCH   6   7
ATOM      7  C   UNL A   1      34.204  34.257  30.107  1.00  0.00     0.261 C 
BRANCH   7   8
ATOM      8  O   UNL A   1      35.209  33.840  31.041  1.00  0.00    -0.460 OA
BRANCH   8   9
ATOM      9  C   UNL A   1      35.530  32.576  31.414  1.00  0.00     0.338 C 
ATOM     10  O   UNL A   1      34.711  31.956  32.093  1.00  0.00    -0.246 OA
BRANCH   9  11
ATOM     11  C   UNL A   1      36.798  31.863  31.042  1.00  0.00     0.060 A 
ATOM     12  C   UNL A   1      37.853  31.534  31.899  1.00  0.00     0.016 A 
ATOM     13  C   UNL A   1      36.894  31.436  29.703  1.00  0.00     0.016 A 
ATOM     14  C   UNL A   1      38.981  30.854  31.446  1.00  0.00     0.010 A 
ATOM     15  C   UNL A   1      38.014  30.740  29.241  1.00  0.00     0.010 A 
ATOM     16  C   UNL A   1      39.072  30.467  30.113  1.00  0.00    -0.014 A 
BRANCH  16  17
ATOM     17  C   UNL A   1      40.340  29.905  29.620  1.00  0.00     0.031 A 
ATOM     18  C   UNL A   1      41.527  30.813  29.542  1.00  0.00     0.074 A 
ATOM     19  C   UNL A   1      40.432  28.597  29.324  1.00  0.00     0.049 A 
ATOM     20  N   UNL A   1      42.709  30.593  29.037  1.00  0.00    -0.248 NA
ATOM     21  C   UNL A   1      41.361  32.156  30.128  1.00  0.00     0.031 C 
ATOM     22  C   UNL A   1      39.356  27.616  29.485  1.00  0.00     0.029 A 
ATOM     23  N   UNL A   1      41.480  27.866  28.830  1.00  0.00    -0.354 N 
ATOM     24  C   UNL A   1      43.414  31.777  29.208  1.00  0.00     0.074 A 
ATOM     25  C   UNL A   1      42.537  32.710  29.879  1.00  0.00     0.031 C 
ATOM     26  C   UNL A   1      39.799  26.413  29.084  1.00  0.00     0.029 A 
ATOM     27  C   UNL A   1      41.162  26.553  28.582  1.00  0.00     0.049 A 
ATOM     28  H   UNL A   1      42.375  28.246  28.669  1.00  0.00     0.167 HD
ATOM     29  C   UNL A   1      44.677  32.056  28.818  1.00  0.00     0.037 A 
ATOM     30  C   UNL A   1      41.882  25.597  27.964  1.00  0.00     0.037 A 
ATOM     31  C   UNL A   1      45.525  31.104  28.157  1.00  0.00     0.049 A 
ATOM     32  C   UNL A   1      43.252  25.963  27.454  1.00  0.00     0.074 A 
ATOM     33  C   UNL A   1      46.814  31.269  27.691  1.00  0.00     0.029 A 
ATOM     34  N   UNL A   1      45.152  29.798  27.870  1.00  0.00    -0.354 N 
ATOM     35  N   UNL A   1      43.906  27.094  27.581  1.00  0.00    -0.248 NA
ATOM     36  C   UNL A   1      43.972  24.936  26.689  1.00  0.00     0.031 C 
ATOM     37  C   UNL A   1      47.206  30.073  27.079  1.00  0.00     0.029 A 
ATOM     38  C   UNL A   1      46.174  29.154  27.198  1.00  0.00     0.049 A 
ATOM     39  H   UNL A   1      44.288  29.391  28.107  1.00  0.00     0.167 HD
ATOM     40  C   UNL A   1      45.110  26.917  26.914  1.00  0.00     0.074 A 
ATOM     41  C   UNL A   1      45.108  25.558  26.410  1.00  0.00     0.031 C 
ATOM     42  C   UNL A   1      46.123  27.796  26.717  1.00  0.00     0.037 A 
BRANCH  29  43
ATOM     43  C   UNL A   1      45.167  33.455  29.026  1.00  0.00     0.057 A 
ATOM     44  C   UNL A   1      44.980  34.464  28.074  1.00  0.00     0.134 A 
ATOM     45  C   UNL A   1      45.854  33.790  30.200  1.00  0.00     0.134 A 
ATOM     46  F   UNL A   1      44.357  34.199  26.917  1.00  0.00    -0.206 F 
ATOM     47  C   UNL A   1      45.471  35.756  28.277  1.00  0.00     0.040 A 
ATOM     48  C   UNL A   1      46.334  35.081  30.422  1.00  0.00     0.040 A 
ATOM     49  F   UNL A   1      46.076  32.866  31.146  1.00  0.00    -0.206 F 
ATOM     50  C   UNL A   1      46.147  36.067  29.456  1.00  0.00     0.006 A 
ENDBRANCH  29  43
BRANCH  30  51
ATOM     51  C   UNL A   1      41.300  24.252  27.711  1.00  0.00     0.057 A 
ATOM     52  C   UNL A   1      41.722  23.124  28.425  1.00  0.00     0.134 A 
ATOM     53  C   UNL A   1      40.332  24.055  26.717  1.00  0.00     0.134 A 
ATOM     54  F   UNL A   1      42.665  23.237  29.371  1.00  0.00    -0.206 F 
ATOM     55  C   UNL A   1      41.218  21.850  28.148  1.00  0.00     0.040 A 
ATOM     56  C   UNL A   1      39.798  22.793  26.450  1.00  0.00     0.040 A 
ATOM     57  F   UNL A   1      39.885  25.089  25.990  1.00  0.00    -0.206 F 
ATOM     58  C   UNL A   1      40.248  21.684  27.160  1.00  0.00     0.006 A 
ENDBRANCH  30  51
BRANCH  42  59
ATOM     59  C   UNL A   1      47.297  27.311  25.927  1.00  0.00     0.057 A 
ATOM     60  C   UNL A   1      48.371  26.661  26.546  1.00  0.00     0.134 A 
ATOM     61  C   UNL A   1      47.321  27.434  24.533  1.00  0.00     0.134 A 
ATOM     62  F   UNL A   1      48.406  26.527  27.881  1.00  0.00    -0.206 F 
ATOM     63  C   UNL A   1      49.436  26.154  25.804  1.00  0.00     0.040 A 
ATOM     64  C   UNL A   1      48.369  26.911  23.778  1.00  0.00     0.040 A 
ATOM     65  F   UNL A   1      46.314  28.040  23.885  1.00  0.00    -0.206 F 
ATOM     66  C   UNL A   1      49.431  26.270  24.414  1.00  0.00     0.006 A 
ENDBRANCH  42  59
ENDBRANCH  16  17
ENDBRANCH   9  11
ENDBRANCH   8   9
ENDBRANCH   7   8
ENDBRANCH   6   7
ENDBRANCH   5   6
ENDBRANCH   4   5
ENDBRANCH   3   4
ENDBRANCH   2   3
ENDBRANCH   1   2
BRANCH   1  67
ATOM     67  C   UNL A   1      32.396  27.766  27.209  1.00  0.00     0.188 C 
BRANCH  67  68
ATOM     68  O   UNL A   1      32.001  26.931  26.129  1.00  0.00    -0.376 OA
BRANCH  68  69
ATOM     69  C   UNL A   1      30.602  26.713  26.007  1.00  0.00     0.202 C 
BRANCH  69  70
ATOM     70  C   UNL A   1      30.200  25.299  25.568  1.00  0.00     0.261 C 
BRANCH  70  71
ATOM     71  O   UNL A   1      31.297  24.395  25.341  1.00  0.00    -0.463 OA
BRANCH  71  72
ATOM     72  C   UNL A   1      31.915  23.802  26.395  1.00  0.00     0.312 C 
ATOM     73  O   UNL A   1      31.477  23.759  27.537  1.00  0.00    -0.252 OA
BRANCH  72  74
ATOM     74  C   UNL A   1      33.209  23.128  25.909  1.00  0.00     0.123 C 
ATOM     75  C   UNL A   1      34.435  23.879  26.357  1.00  0.00    -0.015 C 
ATOM     76  C   UNL A   1      33.348  23.184  24.386  1.00  0.00     0.043 C 
ATOM     77  C   UNL A   1      34.958  24.609  25.371  1.00  0.00    -0.011 C 
ATOM     78  C   UNL A   1      34.217  24.418  24.101  1.00  0.00     0.093 C 
BRANCH  78  79
ATOM     79  N   UNL A   1      33.359  25.555  23.851  1.00  0.00    -0.204 NA
ATOM     80  H   UNL A   1      33.876  26.381  24.153  1.00  0.00     0.142 HD
BRANCH  79  81
ATOM     81  S   UNL A   1      32.798  25.881  22.317  1.00  0.00     0.241 S 
ATOM     82  O   UNL A   1      33.930  26.213  21.500  1.00  0.00    -0.207 OA
ATOM     83  O   UNL A   1      31.868  24.819  21.964  1.00  0.00    -0.207 OA
BRANCH  81  84
ATOM     84  C   UNL A   1      31.844  27.366  22.552  1.00  0.00     0.082 A 
ATOM     85  C   UNL A   1      32.436  28.501  23.121  1.00  0.00     0.023 A 
ATOM     86  C   UNL A   1      30.463  27.311  22.341  1.00  0.00     0.023 A 
ATOM     87  C   UNL A   1      31.629  29.563  23.533  1.00  0.00     0.022 A 
ATOM     88  C   UNL A   1      29.665  28.389  22.727  1.00  0.00     0.022 A 
ATOM     89  C   UNL A   1      30.248  29.499  23.340  1.00  0.00     0.041 A 
ATOM     90  Cl  UNL A   1      29.253  30.789  23.890  1.00  0.00    -0.084 Cl
ENDBRANCH  81  84
ENDBRANCH  79  81
ENDBRANCH  78  79
ENDBRANCH  72  74
ENDBRANCH  71  72
ENDBRANCH  70  71
ENDBRANCH  69  70
ENDBRANCH  68  69
ENDBRANCH  67  68
ENDBRANCH   1  67
TORSDOF 23
ENDMDL
MODEL 2
REMARK VINA RESULT:      -9.8      1.933      3.427
REMARK SMILES O=C(OCCOCCOCCOCCOC(=O)[C@@H]1C=C[C@H](NS(=O)(=O)c2ccc(Cl)cc2)C1)c1ccc(-c2c3nc(c(-c4c(F)cccc4F)c4ccc([nH]4)c(-c4c(F)cccc4F)c4nc(c(-c5c(F)cccc5F)c5ccc2[nH]5)C=C4)C=C3)cc1
REMARK SMILES IDX 10 1 9 2 8 3 7 4 6 5 5 6 4 7 3 8 2 9 1 10 34 11 35 12 87 13
REMARK SMILES IDX 36 14 86 15 37 16 38 17 39 18 80 19 40 20 85 21 79 22 81 23
REMARK SMILES IDX 41 24 84 25 78 26 77 27 42 29 68 30 51 31 67 32 52 33 55 34
REMARK SMILES IDX 66 35 82 36 53 37 54 38 65 40 83 41 56 42 43 43 44 44 49 45
REMARK SMILES IDX 45 46 46 47 48 48 50 49 47 50 69 51 70 52 75 53 71 54 72 55
REMARK SMILES IDX 74 56 76 57 73 58 57 59 58 60 63 61 59 62 60 63 62 64 64 65
REMARK SMILES IDX 61 66 11 67 12 68 13 69 14 70 15 71 16 72 17 73 18 74 19 75
REMARK SMILES IDX 33 76 20 77 21 78 22 79 23 81 24 82 25 83 26 84 27 85 32 86
REMARK SMILES IDX 28 87 31 88 29 89 30 90
REMARK H PARENT 81 28 55 39 22 80
REMARK Flexibility Score: inf
ROOT
ATOM      1  C   UNL A   1      34.109  31.452  27.908  1.00  0.00     0.188 C 
ENDROOT
BRANCH   1   2
ATOM      2  O   UNL A   1      34.141  32.626  28.714  1.00  0.00    -0.377 OA
BRANCH   2   3
ATOM      3  C   UNL A   1      34.039  33.865  28.016  1.00  0.00     0.188 C 
BRANCH   3   4
ATOM      4  C   UNL A   1      33.810  35.057  28.943  1.00  0.00     0.188 C 
BRANCH   4   5
ATOM      5  O   UNL A   1      33.150  34.601  30.130  1.00  0.00    -0.376 OA
BRANCH   5   6
ATOM      6  C   UNL A   1      33.649  35.138  31.351  1.00  0.00     0.202 C 
BRANCH   6   7
ATOM      7  C   UNL A   1      34.250  34.079  32.273  1.00  0.00     0.261 C 
BRANCH   7   8
ATOM      8  O   UNL A   1      35.473  33.549  31.746  1.00  0.00    -0.460 OA
BRANCH   8   9
ATOM      9  C   UNL A   1      35.877  32.255  31.712  1.00  0.00     0.338 C 
ATOM     10  O   UNL A   1      35.136  31.411  32.218  1.00  0.00    -0.246 OA
BRANCH   9  11
ATOM     11  C   UNL A   1      37.148  31.766  31.081  1.00  0.00     0.060 A 
ATOM     12  C   UNL A   1      37.406  31.642  29.712  1.00  0.00     0.016 A 
ATOM     13  C   UNL A   1      38.200  31.461  31.967  1.00  0.00     0.016 A 
ATOM     14  C   UNL A   1      38.633  31.189  29.234  1.00  0.00     0.010 A 
ATOM     15  C   UNL A   1      39.441  31.020  31.499  1.00  0.00     0.010 A 
ATOM     16  C   UNL A   1      39.650  30.863  30.127  1.00  0.00    -0.014 A 
BRANCH  16  17
ATOM     17  C   UNL A   1      40.873  30.227  29.610  1.00  0.00     0.031 A 
ATOM     18  C   UNL A   1      42.105  31.069  29.492  1.00  0.00     0.074 A 
ATOM     19  C   UNL A   1      40.887  28.912  29.329  1.00  0.00     0.049 A 
ATOM     20  N   UNL A   1      43.261  30.779  28.961  1.00  0.00    -0.248 NA
ATOM     21  C   UNL A   1      42.026  32.426  30.064  1.00  0.00     0.031 C 
ATOM     22  C   UNL A   1      39.765  27.993  29.530  1.00  0.00     0.029 A 
ATOM     23  N   UNL A   1      41.882  28.121  28.820  1.00  0.00    -0.354 N 
ATOM     24  C   UNL A   1      44.032  31.926  29.099  1.00  0.00     0.074 A 
ATOM     25  C   UNL A   1      43.224  32.912  29.779  1.00  0.00     0.031 C 
ATOM     26  C   UNL A   1      40.132  26.763  29.134  1.00  0.00     0.029 A 
ATOM     27  C   UNL A   1      41.488  26.823  28.597  1.00  0.00     0.049 A 
ATOM     28  H   UNL A   1      42.792  28.449  28.632  1.00  0.00     0.167 HD
ATOM     29  C   UNL A   1      45.298  32.131  28.675  1.00  0.00     0.037 A 
ATOM     30  C   UNL A   1      42.140  25.823  27.975  1.00  0.00     0.037 A 
ATOM     31  C   UNL A   1      46.077  31.127  28.007  1.00  0.00     0.049 A 
ATOM     32  C   UNL A   1      43.514  26.108  27.427  1.00  0.00     0.074 A 
ATOM     33  C   UNL A   1      47.362  31.216  27.507  1.00  0.00     0.029 A 
ATOM     34  N   UNL A   1      45.627  29.839  27.746  1.00  0.00    -0.354 N 
ATOM     35  N   UNL A   1      44.231  27.204  27.523  1.00  0.00    -0.248 NA
ATOM     36  C   UNL A   1      44.159  25.035  26.658  1.00  0.00     0.031 C 
ATOM     37  C   UNL A   1      47.673  29.993  26.902  1.00  0.00     0.029 A 
ATOM     38  C   UNL A   1      46.596  29.133  27.059  1.00  0.00     0.049 A 
ATOM     39  H   UNL A   1      44.749  29.482  28.010  1.00  0.00     0.167 HD
ATOM     40  C   UNL A   1      45.407  26.954  26.829  1.00  0.00     0.074 A 
ATOM     41  C   UNL A   1      45.320  25.591  26.343  1.00  0.00     0.031 C 
ATOM     42  C   UNL A   1      46.460  27.775  26.597  1.00  0.00     0.037 A 
BRANCH  29  43
ATOM     43  C   UNL A   1      45.868  33.504  28.853  1.00  0.00     0.057 A 
ATOM     44  C   UNL A   1      45.607  34.545  27.955  1.00  0.00     0.134 A 
ATOM     45  C   UNL A   1      46.707  33.780  29.940  1.00  0.00     0.134 A 
ATOM     46  F   UNL A   1      44.836  34.336  26.878  1.00  0.00    -0.206 F 
ATOM     47  C   UNL A   1      46.173  35.811  28.125  1.00  0.00     0.040 A 
ATOM     48  C   UNL A   1      47.264  35.044  30.131  1.00  0.00     0.040 A 
ATOM     49  F   UNL A   1      47.006  32.822  30.831  1.00  0.00    -0.206 F 
ATOM     50  C   UNL A   1      47.000  36.064  29.218  1.00  0.00     0.006 A 
ENDBRANCH  29  43
BRANCH  30  51
ATOM     51  C   UNL A   1      41.481  24.508  27.754  1.00  0.00     0.057 A 
ATOM     52  C   UNL A   1      41.864  23.366  28.467  1.00  0.00     0.134 A 
ATOM     53  C   UNL A   1      40.475  24.353  26.791  1.00  0.00     0.134 A 
ATOM     54  F   UNL A   1      42.839  23.438  29.384  1.00  0.00    -0.206 F 
ATOM     55  C   UNL A   1      41.284  22.119  28.219  1.00  0.00     0.040 A 
ATOM     56  C   UNL A   1      39.866  23.119  26.553  1.00  0.00     0.040 A 
ATOM     57  F   UNL A   1      40.061  25.403  26.066  1.00  0.00    -0.206 F 
ATOM     58  C   UNL A   1      40.279  21.994  27.262  1.00  0.00     0.006 A 
ENDBRANCH  30  51
BRANCH  42  59
ATOM     59  C   UNL A   1      47.587  27.218  25.785  1.00  0.00     0.057 A 
ATOM     60  C   UNL A   1      47.636  27.389  24.397  1.00  0.00     0.134 A 
ATOM     61  C   UNL A   1      48.661  26.567  26.403  1.00  0.00     0.134 A 
ATOM     62  F   UNL A   1      46.627  27.993  23.750  1.00  0.00    -0.206 F 
ATOM     63  C   UNL A   1      48.715  26.924  23.647  1.00  0.00     0.040 A 
ATOM     64  C   UNL A   1      49.756  26.118  25.668  1.00  0.00     0.040 A 
ATOM     65  F   UNL A   1      48.672  26.383  27.732  1.00  0.00    -0.206 F 
ATOM     66  C   UNL A   1      49.784  26.295  24.285  1.00  0.00     0.006 A 
ENDBRANCH  42  59
ENDBRANCH  16  17
ENDBRANCH   9  11
ENDBRANCH   8   9
ENDBRANCH   7   8
ENDBRANCH   6   7
ENDBRANCH   5   6
ENDBRANCH   4   5
ENDBRANCH   3   4
ENDBRANCH   2   3
ENDBRANCH   1   2
BRANCH   1  67
ATOM     67  C   UNL A   1      32.803  31.145  27.146  1.00  0.00     0.188 C 
BRANCH  67  68
ATOM     68  O   UNL A   1      32.406  29.784  27.255  1.00  0.00    -0.376 OA
BRANCH  68  69
ATOM     69  C   UNL A   1      32.095  29.140  26.027  1.00  0.00     0.202 C 
BRANCH  69  70
ATOM     70  C   UNL A   1      33.237  29.107  25.003  1.00  0.00     0.261 C 
BRANCH  70  71
ATOM     71  O   UNL A   1      33.092  28.129  23.957  1.00  0.00    -0.463 OA
BRANCH  71  72
ATOM     72  C   UNL A   1      33.354  26.821  24.211  1.00  0.00     0.312 C 
ATOM     73  O   UNL A   1      33.889  26.393  25.225  1.00  0.00    -0.252 OA
BRANCH  72  74
ATOM     74  C   UNL A   1      32.799  25.962  23.063  1.00  0.00     0.123 C 
ATOM     75  C   UNL A   1      31.317  26.155  22.884  1.00  0.00    -0.015 C 
ATOM     76  C   UNL A   1      32.883  24.466  23.373  1.00  0.00     0.043 C 
ATOM     77  C   UNL A   1      30.618  25.143  23.400  1.00  0.00    -0.011 C 
ATOM     78  C   UNL A   1      31.508  24.089  23.944  1.00  0.00     0.093 C 
BRANCH  78  79
ATOM     79  N   UNL A   1      31.554  24.174  25.387  1.00  0.00    -0.204 NA
ATOM     80  H   UNL A   1      30.729  24.701  25.673  1.00  0.00     0.142 HD
BRANCH  79  81
ATOM     81  S   UNL A   1      31.586  22.797  26.323  1.00  0.00     0.241 S 
ATOM     82  O   UNL A   1      31.462  23.199  27.695  1.00  0.00    -0.207 OA
ATOM     83  O   UNL A   1      30.681  21.838  25.708  1.00  0.00    -0.207 OA
BRANCH  81  84
ATOM     84  C   UNL A   1      33.244  22.193  26.082  1.00  0.00     0.082 A 
ATOM     85  C   UNL A   1      34.336  22.910  26.587  1.00  0.00     0.023 A 
ATOM     86  C   UNL A   1      33.439  21.107  25.223  1.00  0.00     0.023 A 
ATOM     87  C   UNL A   1      35.627  22.572  26.180  1.00  0.00     0.022 A 
ATOM     88  C   UNL A   1      34.735  20.755  24.845  1.00  0.00     0.022 A 
ATOM     89  C   UNL A   1      35.820  21.500  25.307  1.00  0.00     0.041 A 
ATOM     90  Cl  UNL A   1      37.409  21.116  24.773  1.00  0.00    -0.084 Cl
ENDBRANCH  81  84
ENDBRANCH  79  81
ENDBRANCH  78  79
ENDBRANCH  72  74
ENDBRANCH  71  72
ENDBRANCH  70  71
ENDBRANCH  69  70
ENDBRANCH  68  69
ENDBRANCH  67  68
ENDBRANCH   1  67
TORSDOF 23
ENDMDL
MODEL 3
REMARK VINA RESULT:      -9.8      4.823      9.575
REMARK SMILES O=C(OCCOCCOCCOCCOC(=O)[C@@H]1C=C[C@H](NS(=O)(=O)c2ccc(Cl)cc2)C1)c1ccc(-c2c3nc(c(-c4c(F)cccc4F)c4ccc([nH]4)c(-c4c(F)cccc4F)c4nc(c(-c5c(F)cccc5F)c5ccc2[nH]5)C=C4)C=C3)cc1
REMARK SMILES IDX 10 1 9 2 8 3 7 4 6 5 5 6 4 7 3 8 2 9 1 10 34 11 35 12 87 13
REMARK SMILES IDX 36 14 86 15 37 16 38 17 39 18 80 19 40 20 85 21 79 22 81 23
REMARK SMILES IDX 41 24 84 25 78 26 77 27 42 29 68 30 51 31 67 32 52 33 55 34
REMARK SMILES IDX 66 35 82 36 53 37 54 38 65 40 83 41 56 42 43 43 44 44 49 45
REMARK SMILES IDX 45 46 46 47 48 48 50 49 47 50 69 51 70 52 75 53 71 54 72 55
REMARK SMILES IDX 74 56 76 57 73 58 57 59 58 60 63 61 59 62 60 63 62 64 64 65
REMARK SMILES IDX 61 66 11 67 12 68 13 69 14 70 15 71 16 72 17 73 18 74 19 75
REMARK SMILES IDX 33 76 20 77 21 78 22 79 23 81 24 82 25 83 26 84 27 85 32 86
REMARK SMILES IDX 28 87 31 88 29 89 30 90
REMARK H PARENT 81 28 55 39 22 80
REMARK Flexibility Score: inf
ROOT
ATOM      1  C   UNL A   1      37.787  23.704  25.445  1.00  0.00     0.188 C 
ENDROOT
BRANCH   1   2
ATOM      2  O   UNL A   1      38.744  23.102  26.311  1.00  0.00    -0.377 OA
BRANCH   2   3
ATOM      3  C   UNL A   1      38.948  21.701  26.139  1.00  0.00     0.188 C 
BRANCH   3   4
ATOM      4  C   UNL A   1      40.420  21.324  25.983  1.00  0.00     0.188 C 
BRANCH   4   5
ATOM      5  O   UNL A   1      41.070  21.459  27.252  1.00  0.00    -0.376 OA
BRANCH   5   6
ATOM      6  C   UNL A   1      42.380  22.017  27.212  1.00  0.00     0.202 C 
BRANCH   6   7
ATOM      7  C   UNL A   1      42.402  23.520  27.484  1.00  0.00     0.261 C 
BRANCH   7   8
ATOM      8  O   UNL A   1      42.227  24.280  26.281  1.00  0.00    -0.460 OA
BRANCH   8   9
ATOM      9  C   UNL A   1      41.609  25.478  26.131  1.00  0.00     0.338 C 
ATOM     10  O   UNL A   1      41.213  25.778  25.004  1.00  0.00    -0.246 OA
BRANCH   9  11
ATOM     11  C   UNL A   1      41.344  26.456  27.238  1.00  0.00     0.060 A 
ATOM     12  C   UNL A   1      42.049  27.636  27.495  1.00  0.00     0.016 A 
ATOM     13  C   UNL A   1      40.233  26.174  28.057  1.00  0.00     0.016 A 
ATOM     14  C   UNL A   1      41.705  28.482  28.547  1.00  0.00     0.010 A 
ATOM     15  C   UNL A   1      39.869  27.023  29.106  1.00  0.00     0.010 A 
ATOM     16  C   UNL A   1      40.623  28.171  29.364  1.00  0.00    -0.014 A 
BRANCH  16  17
ATOM     17  C   UNL A   1      40.384  28.984  30.568  1.00  0.00     0.031 A 
ATOM     18  C   UNL A   1      39.289  30.004  30.519  1.00  0.00     0.074 A 
ATOM     19  C   UNL A   1      41.085  28.754  31.692  1.00  0.00     0.049 A 
ATOM     20  N   UNL A   1      38.964  30.914  31.395  1.00  0.00    -0.248 NA
ATOM     21  C   UNL A   1      38.435  29.987  29.318  1.00  0.00     0.031 C 
ATOM     22  C   UNL A   1      42.086  27.699  31.863  1.00  0.00     0.029 A 
ATOM     23  N   UNL A   1      41.058  29.390  32.905  1.00  0.00    -0.354 N 
ATOM     24  C   UNL A   1      37.895  31.602  30.836  1.00  0.00     0.074 A 
ATOM     25  C   UNL A   1      37.611  30.997  29.555  1.00  0.00     0.031 C 
ATOM     26  C   UNL A   1      42.588  27.771  33.107  1.00  0.00     0.029 A 
ATOM     27  C   UNL A   1      41.989  28.911  33.795  1.00  0.00     0.049 A 
ATOM     28  H   UNL A   1      40.432  30.120  33.119  1.00  0.00     0.167 HD
ATOM     29  C   UNL A   1      37.227  32.658  31.351  1.00  0.00     0.037 A 
ATOM     30  C   UNL A   1      42.346  29.386  35.003  1.00  0.00     0.037 A 
ATOM     31  C   UNL A   1      37.529  33.234  32.631  1.00  0.00     0.049 A 
ATOM     32  C   UNL A   1      41.651  30.622  35.510  1.00  0.00     0.074 A 
ATOM     33  C   UNL A   1      36.943  34.318  33.254  1.00  0.00     0.029 A 
ATOM     34  N   UNL A   1      38.517  32.759  33.483  1.00  0.00    -0.354 N 
ATOM     35  N   UNL A   1      40.664  31.297  34.966  1.00  0.00    -0.248 NA
ATOM     36  C   UNL A   1      42.134  31.183  36.779  1.00  0.00     0.031 C 
ATOM     37  C   UNL A   1      37.609  34.527  34.468  1.00  0.00     0.029 A 
ATOM     38  C   UNL A   1      38.583  33.551  34.614  1.00  0.00     0.049 A 
ATOM     39  H   UNL A   1      39.087  31.975  33.308  1.00  0.00     0.167 HD
ATOM     40  C   UNL A   1      40.410  32.360  35.823  1.00  0.00     0.074 A 
ATOM     41  C   UNL A   1      41.325  32.222  36.938  1.00  0.00     0.031 C 
ATOM     42  C   UNL A   1      39.515  33.370  35.698  1.00  0.00     0.037 A 
BRANCH  29  43
ATOM     43  C   UNL A   1      36.175  33.290  30.493  1.00  0.00     0.057 A 
ATOM     44  C   UNL A   1      36.491  34.102  29.397  1.00  0.00     0.134 A 
ATOM     45  C   UNL A   1      34.819  33.089  30.782  1.00  0.00     0.134 A 
ATOM     46  F   UNL A   1      37.770  34.357  29.087  1.00  0.00    -0.206 F 
ATOM     47  C   UNL A   1      35.493  34.705  28.627  1.00  0.00     0.040 A 
ATOM     48  C   UNL A   1      33.814  33.671  30.010  1.00  0.00     0.040 A 
ATOM     49  F   UNL A   1      34.451  32.331  31.825  1.00  0.00    -0.206 F 
ATOM     50  C   UNL A   1      34.150  34.486  28.931  1.00  0.00     0.006 A 
ENDBRANCH  29  43
BRANCH  30  51
ATOM     51  C   UNL A   1      43.461  28.762  35.765  1.00  0.00     0.057 A 
ATOM     52  C   UNL A   1      43.243  27.690  36.638  1.00  0.00     0.134 A 
ATOM     53  C   UNL A   1      44.770  29.253  35.669  1.00  0.00     0.134 A 
ATOM     54  F   UNL A   1      42.010  27.189  36.798  1.00  0.00    -0.206 F 
ATOM     55  C   UNL A   1      44.280  27.141  37.397  1.00  0.00     0.040 A 
ATOM     56  C   UNL A   1      45.821  28.695  36.400  1.00  0.00     0.040 A 
ATOM     57  F   UNL A   1      45.052  30.282  34.857  1.00  0.00    -0.206 F 
ATOM     58  C   UNL A   1      45.575  27.642  37.275  1.00  0.00     0.006 A 
ENDBRANCH  30  51
BRANCH  42  59
ATOM     59  C   UNL A   1      39.492  34.392  36.791  1.00  0.00     0.057 A 
ATOM     60  C   UNL A   1      38.811  34.159  37.991  1.00  0.00     0.134 A 
ATOM     61  C   UNL A   1      40.212  35.587  36.668  1.00  0.00     0.134 A 
ATOM     62  F   UNL A   1      38.094  33.037  38.158  1.00  0.00    -0.206 F 
ATOM     63  C   UNL A   1      38.840  35.084  39.032  1.00  0.00     0.040 A 
ATOM     64  C   UNL A   1      40.267  36.509  37.710  1.00  0.00     0.040 A 
ATOM     65  F   UNL A   1      40.891  35.860  35.543  1.00  0.00    -0.206 F 
ATOM     66  C   UNL A   1      39.579  36.259  38.897  1.00  0.00     0.006 A 
ENDBRANCH  42  59
ENDBRANCH  16  17
ENDBRANCH   9  11
ENDBRANCH   8   9
ENDBRANCH   7   8
ENDBRANCH   6   7
ENDBRANCH   5   6
ENDBRANCH   4   5
ENDBRANCH   3   4
ENDBRANCH   2   3
ENDBRANCH   1   2
BRANCH   1  67
ATOM     67  C   UNL A   1      36.312  23.700  25.900  1.00  0.00     0.188 C 
BRANCH  67  68
ATOM     68  O   UNL A   1      35.575  22.604  25.374  1.00  0.00    -0.376 OA
BRANCH  68  69
ATOM     69  C   UNL A   1      34.939  21.778  26.340  1.00  0.00     0.202 C 
BRANCH  69  70
ATOM     70  C   UNL A   1      33.890  20.810  25.778  1.00  0.00     0.261 C 
BRANCH  70  71
ATOM     71  O   UNL A   1      33.233  21.252  24.576  1.00  0.00    -0.463 OA
BRANCH  71  72
ATOM     72  C   UNL A   1      32.138  22.051  24.656  1.00  0.00     0.312 C 
ATOM     73  O   UNL A   1      31.588  22.391  25.694  1.00  0.00    -0.252 OA
BRANCH  72  74
ATOM     74  C   UNL A   1      31.753  22.524  23.244  1.00  0.00     0.123 C 
ATOM     75  C   UNL A   1      32.933  23.096  22.503  1.00  0.00    -0.015 C 
ATOM     76  C   UNL A   1      30.798  23.719  23.279  1.00  0.00     0.043 C 
ATOM     77  C   UNL A   1      32.908  24.429  22.486  1.00  0.00    -0.011 C 
ATOM     78  C   UNL A   1      31.691  24.960  23.146  1.00  0.00     0.093 C 
BRANCH  78  79
ATOM     79  N   UNL A   1      32.017  25.454  24.466  1.00  0.00    -0.204 NA
ATOM     80  H   UNL A   1      32.928  25.908  24.389  1.00  0.00     0.142 HD
BRANCH  79  81
ATOM     81  S   UNL A   1      31.015  26.530  25.247  1.00  0.00     0.241 S 
ATOM     82  O   UNL A   1      30.107  27.067  24.274  1.00  0.00    -0.207 OA
ATOM     83  O   UNL A   1      30.556  25.883  26.467  1.00  0.00    -0.207 OA
BRANCH  81  84
ATOM     84  C   UNL A   1      32.130  27.833  25.726  1.00  0.00     0.082 A 
ATOM     85  C   UNL A   1      33.305  27.533  26.428  1.00  0.00     0.023 A 
ATOM     86  C   UNL A   1      31.717  29.159  25.558  1.00  0.00     0.023 A 
ATOM     87  C   UNL A   1      34.036  28.567  27.016  1.00  0.00     0.022 A 
ATOM     88  C   UNL A   1      32.471  30.189  26.123  1.00  0.00     0.022 A 
ATOM     89  C   UNL A   1      33.612  29.888  26.865  1.00  0.00     0.041 A 
ATOM     90  Cl  UNL A   1      34.491  31.154  27.630  1.00  0.00    -0.084 Cl
ENDBRANCH  81  84
ENDBRANCH  79  81
ENDBRANCH  78  79
ENDBRANCH  72  74
ENDBRANCH  71  72
ENDBRANCH  70  71
ENDBRANCH  69  70
ENDBRANCH  68  69
ENDBRANCH  67  68
ENDBRANCH   1  67
TORSDOF 23
ENDMDL
