MODEL 1
REMARK VINA RESULT:     -10.8      0.000      0.000
REMARK SMILES COc1ccccc1[C@@H]1C[N@@H+](Cc2cn3cc(C)ccc3n2)C[C@H]1C(=O)OCCOCCOCCOCCOC(=O)c1ccc(-c2c3nc(c(-c4c(F)cccc4F)c4ccc([nH]4)c(-c4c(F)cccc4F)c4nc(c(-c5c(F)cccc5F)c5ccc2[nH]5)C=C4)C=C3)cc1
REMARK SMILES IDX 33 1 32 2 31 3 30 4 29 5 28 6 27 7 25 8 26 9 24 10 9 11
REMARK SMILES IDX 10 12 11 13 23 14 8 16 3 17 4 18 5 19 7 20 6 21 2 22 1 23
REMARK SMILES IDX 12 24 13 25 14 26 22 27 15 28 21 29 16 30 20 31 17 32 19 33
REMARK SMILES IDX 18 34 34 35 35 36 36 37 37 38 38 39 39 40 40 41 41 42 42 43
REMARK SMILES IDX 43 44 95 45 44 46 94 47 45 48 46 49 47 50 88 51 48 52 93 53
REMARK SMILES IDX 87 54 89 55 49 56 92 57 86 58 85 59 50 61 76 62 59 63 75 64
REMARK SMILES IDX 60 65 63 66 74 67 90 68 61 69 62 70 73 72 91 73 64 74 51 75
REMARK SMILES IDX 52 76 57 77 53 78 54 79 56 80 58 81 55 82 77 83 78 84 83 85
REMARK SMILES IDX 79 86 80 87 82 88 84 89 81 90 65 91 66 92 71 93 67 94 68 95
REMARK SMILES IDX 70 96 72 97 69 98
REMARK H PARENT 11 15 89 60 63 71
REMARK Flexibility Score: inf
ROOT
ATOM      1  O   UNL A   1      33.750  33.672  28.652  1.00  0.00    -0.377 OA
ENDROOT
BRANCH   1   2
ATOM      2  C   UNL A   1      34.542  32.501  28.721  1.00  0.00     0.188 C 
BRANCH   2   3
ATOM      3  C   UNL A   1      34.253  31.251  27.877  1.00  0.00     0.188 C 
BRANCH   3   4
ATOM      4  O   UNL A   1      32.997  31.160  27.223  1.00  0.00    -0.376 OA
BRANCH   4   5
ATOM      5  C   UNL A   1      32.573  29.873  26.798  1.00  0.00     0.202 C 
BRANCH   5   6
ATOM      6  C   UNL A   1      33.542  28.724  27.044  1.00  0.00     0.261 C 
BRANCH   6   7
ATOM      7  O   UNL A   1      33.787  27.959  25.841  1.00  0.00    -0.463 OA
BRANCH   7   8
ATOM      8  C   UNL A   1      33.406  26.664  25.883  1.00  0.00     0.315 C 
ATOM      9  O   UNL A   1      34.193  25.722  25.962  1.00  0.00    -0.252 OA
BRANCH   8  10
ATOM     10  C   UNL A   1      31.927  26.408  25.709  1.00  0.00     0.167 C 
ATOM     11  C   UNL A   1      31.198  26.351  24.366  1.00  0.00     0.098 C 
ATOM     12  C   UNL A   1      30.046  25.364  24.649  1.00  0.00     0.272 C 
ATOM     13  N   UNL A   1      30.547  24.406  25.633  1.00  0.00    -0.329 N 
ATOM     14  C   UNL A   1      31.601  25.084  26.399  1.00  0.00     0.278 C 
ATOM     15  H   UNL A   1      29.779  24.135  26.248  1.00  0.00     0.348 HD
BRANCH  11  16
ATOM     16  C   UNL A   1      30.619  27.568  23.641  1.00  0.00     0.004 A 
ATOM     17  C   UNL A   1      31.276  28.700  23.125  1.00  0.00     0.122 A 
ATOM     18  C   UNL A   1      30.531  29.700  22.462  1.00  0.00     0.047 A 
ATOM     19  C   UNL A   1      29.145  29.617  22.316  1.00  0.00     0.004 A 
ATOM     20  C   UNL A   1      29.200  27.533  23.500  1.00  0.00     0.008 A 
ATOM     21  C   UNL A   1      28.474  28.530  22.846  1.00  0.00     0.001 A 
BRANCH  17  22
ATOM     22  O   UNL A   1      32.626  28.875  23.001  1.00  0.00    -0.496 OA
ATOM     23  C   UNL A   1      33.371  27.924  22.246  1.00  0.00     0.278 C 
ENDBRANCH  17  22
ENDBRANCH  11  16
BRANCH  13  24
ATOM     24  C   UNL A   1      30.962  23.104  25.081  1.00  0.00     0.321 C 
BRANCH  24  25
ATOM     25  C   UNL A   1      32.444  22.920  24.946  1.00  0.00     0.114 A 
ATOM     26  C   UNL A   1      33.323  22.380  25.867  1.00  0.00     0.122 A 
ATOM     27  N   UNL A   1      33.121  23.288  23.801  1.00  0.00    -0.228 NA
ATOM     28  N   UNL A   1      34.547  22.362  25.254  1.00  0.00    -0.306 N 
ATOM     29  C   UNL A   1      34.379  22.945  24.006  1.00  0.00     0.137 A 
ATOM     30  C   UNL A   1      35.762  21.875  25.726  1.00  0.00     0.096 A 
ATOM     31  C   UNL A   1      35.538  23.055  23.189  1.00  0.00     0.048 A 
ATOM     32  C   UNL A   1      36.864  21.976  24.957  1.00  0.00    -0.034 A 
ATOM     33  C   UNL A   1      36.723  22.596  23.639  1.00  0.00     0.009 A 
ATOM     34  C   UNL A   1      38.206  21.464  25.374  1.00  0.00     0.046 C 
ENDBRANCH  24  25
ENDBRANCH  13  24
ENDBRANCH   8  10
ENDBRANCH   7   8
ENDBRANCH   6   7
ENDBRANCH   5   6
ENDBRANCH   4   5
ENDBRANCH   3   4
ENDBRANCH   2   3
ENDBRANCH   1   2
BRANCH   1  35
ATOM     35  C   UNL A   1      33.875  34.714  29.599  1.00  0.00     0.188 C 
BRANCH  35  36
ATOM     36  C   UNL A   1      32.906  35.904  29.606  1.00  0.00     0.188 C 
BRANCH  36  37
ATOM     37  O   UNL A   1      33.132  36.874  30.616  1.00  0.00    -0.376 OA
BRANCH  37  38
ATOM     38  C   UNL A   1      32.847  36.524  31.956  1.00  0.00     0.202 C 
BRANCH  38  39
ATOM     39  C   UNL A   1      33.941  36.834  32.961  1.00  0.00     0.261 C 
BRANCH  39  40
ATOM     40  O   UNL A   1      35.120  36.059  32.822  1.00  0.00    -0.460 OA
BRANCH  40  41
ATOM     41  C   UNL A   1      35.208  34.983  33.623  1.00  0.00     0.338 C 
ATOM     42  O   UNL A   1      34.777  34.836  34.746  1.00  0.00    -0.246 OA
BRANCH  41  43
ATOM     43  C   UNL A   1      36.125  34.064  32.953  1.00  0.00     0.060 A 
ATOM     44  C   UNL A   1      35.837  32.700  32.947  1.00  0.00     0.016 A 
ATOM     45  C   UNL A   1      37.367  34.576  32.542  1.00  0.00     0.016 A 
ATOM     46  C   UNL A   1      36.856  31.829  32.624  1.00  0.00     0.010 A 
ATOM     47  C   UNL A   1      38.379  33.710  32.231  1.00  0.00     0.010 A 
ATOM     48  C   UNL A   1      38.129  32.347  32.341  1.00  0.00    -0.014 A 
BRANCH  48  49
ATOM     49  C   UNL A   1      39.214  31.425  32.094  1.00  0.00     0.031 A 
ATOM     50  C   UNL A   1      39.935  31.034  33.322  1.00  0.00     0.074 A 
ATOM     51  C   UNL A   1      39.415  30.886  30.876  1.00  0.00     0.049 A 
ATOM     52  N   UNL A   1      41.161  31.290  33.626  1.00  0.00    -0.248 NA
ATOM     53  C   UNL A   1      39.163  30.417  34.415  1.00  0.00     0.031 C 
ATOM     54  C   UNL A   1      38.527  30.988  29.710  1.00  0.00     0.029 A 
ATOM     55  N   UNL A   1      40.387  30.034  30.446  1.00  0.00    -0.354 N 
ATOM     56  C   UNL A   1      41.385  30.641  34.837  1.00  0.00     0.074 A 
ATOM     57  C   UNL A   1      40.093  30.304  35.365  1.00  0.00     0.031 C 
ATOM     58  C   UNL A   1      38.875  30.053  28.801  1.00  0.00     0.029 A 
ATOM     59  C   UNL A   1      40.088  29.393  29.251  1.00  0.00     0.049 A 
ATOM     60  H   UNL A   1      41.227  29.886  30.938  1.00  0.00     0.167 HD
ATOM     61  C   UNL A   1      42.623  30.152  35.117  1.00  0.00     0.037 A 
ATOM     62  C   UNL A   1      40.762  28.356  28.698  1.00  0.00     0.037 A 
ATOM     63  C   UNL A   1      43.609  30.758  34.256  1.00  0.00     0.049 A 
ATOM     64  C   UNL A   1      42.119  28.334  29.287  1.00  0.00     0.074 A 
ATOM     65  C   UNL A   1      44.198  31.996  34.122  1.00  0.00     0.029 A 
ATOM     66  N   UNL A   1      43.813  30.078  33.085  1.00  0.00    -0.354 N 
ATOM     67  N   UNL A   1      43.020  29.249  29.067  1.00  0.00    -0.248 NA
ATOM     68  C   UNL A   1      42.395  27.450  30.416  1.00  0.00     0.031 C 
ATOM     69  C   UNL A   1      44.601  32.096  32.757  1.00  0.00     0.029 A 
ATOM     70  C   UNL A   1      44.283  30.905  32.104  1.00  0.00     0.049 A 
ATOM     71  H   UNL A   1      43.643  29.116  32.966  1.00  0.00     0.167 HD
ATOM     72  C   UNL A   1      43.711  29.342  30.260  1.00  0.00     0.074 A 
ATOM     73  C   UNL A   1      43.424  28.101  30.964  1.00  0.00     0.031 C 
ATOM     74  C   UNL A   1      44.167  30.549  30.706  1.00  0.00     0.037 A 
BRANCH  61  75
ATOM     75  C   UNL A   1      42.877  28.785  35.731  1.00  0.00     0.057 A 
ATOM     76  C   UNL A   1      43.816  28.689  36.778  1.00  0.00     0.134 A 
ATOM     77  C   UNL A   1      42.525  27.554  35.140  1.00  0.00     0.134 A 
ATOM     78  F   UNL A   1      44.239  29.785  37.427  1.00  0.00    -0.206 F 
ATOM     79  C   UNL A   1      44.427  27.481  37.135  1.00  0.00     0.040 A 
ATOM     80  C   UNL A   1      43.097  26.335  35.521  1.00  0.00     0.040 A 
ATOM     81  F   UNL A   1      41.689  27.459  34.101  1.00  0.00    -0.206 F 
ATOM     82  C   UNL A   1      44.078  26.300  36.496  1.00  0.00     0.006 A 
ENDBRANCH  61  75
BRANCH  62  83
ATOM     83  C   UNL A   1      40.244  27.245  27.871  1.00  0.00     0.057 A 
ATOM     84  C   UNL A   1      40.775  26.983  26.600  1.00  0.00     0.134 A 
ATOM     85  C   UNL A   1      39.419  26.244  28.414  1.00  0.00     0.134 A 
ATOM     86  F   UNL A   1      41.597  27.863  26.011  1.00  0.00    -0.206 F 
ATOM     87  C   UNL A   1      40.536  25.779  25.926  1.00  0.00     0.040 A 
ATOM     88  C   UNL A   1      39.164  25.042  27.748  1.00  0.00     0.040 A 
ATOM     89  F   UNL A   1      38.909  26.360  29.648  1.00  0.00    -0.206 F 
ATOM     90  C   UNL A   1      39.739  24.797  26.507  1.00  0.00     0.006 A 
ENDBRANCH  62  83
BRANCH  74  91
ATOM     91  C   UNL A   1      44.405  31.615  29.679  1.00  0.00     0.057 A 
ATOM     92  C   UNL A   1      43.457  32.565  29.273  1.00  0.00     0.134 A 
ATOM     93  C   UNL A   1      45.684  31.712  29.118  1.00  0.00     0.134 A 
ATOM     94  F   UNL A   1      42.235  32.608  29.820  1.00  0.00    -0.206 F 
ATOM     95  C   UNL A   1      43.758  33.530  28.307  1.00  0.00     0.040 A 
ATOM     96  C   UNL A   1      46.008  32.696  28.183  1.00  0.00     0.040 A 
ATOM     97  F   UNL A   1      46.655  30.863  29.493  1.00  0.00    -0.206 F 
ATOM     98  C   UNL A   1      45.037  33.600  27.762  1.00  0.00     0.006 A 
ENDBRANCH  74  91
ENDBRANCH  48  49
ENDBRANCH  41  43
ENDBRANCH  40  41
ENDBRANCH  39  40
ENDBRANCH  38  39
ENDBRANCH  37  38
ENDBRANCH  36  37
ENDBRANCH  35  36
ENDBRANCH   1  35
TORSDOF 24
ENDMDL
MODEL 2
REMARK VINA RESULT:     -10.3      1.197      4.078
REMARK SMILES COc1ccccc1[C@@H]1C[N@@H+](Cc2cn3cc(C)ccc3n2)C[C@H]1C(=O)OCCOCCOCCOCCOC(=O)c1ccc(-c2c3nc(c(-c4c(F)cccc4F)c4ccc([nH]4)c(-c4c(F)cccc4F)c4nc(c(-c5c(F)cccc5F)c5ccc2[nH]5)C=C4)C=C3)cc1
REMARK SMILES IDX 33 1 32 2 31 3 30 4 29 5 28 6 27 7 25 8 26 9 24 10 9 11
REMARK SMILES IDX 10 12 11 13 23 14 8 16 3 17 4 18 5 19 7 20 6 21 2 22 1 23
REMARK SMILES IDX 12 24 13 25 14 26 22 27 15 28 21 29 16 30 20 31 17 32 19 33
REMARK SMILES IDX 18 34 34 35 35 36 36 37 37 38 38 39 39 40 40 41 41 42 42 43
REMARK SMILES IDX 43 44 95 45 44 46 94 47 45 48 46 49 47 50 88 51 48 52 93 53
REMARK SMILES IDX 87 54 89 55 49 56 92 57 86 58 85 59 50 61 76 62 59 63 75 64
REMARK SMILES IDX 60 65 63 66 74 67 90 68 61 69 62 70 73 72 91 73 64 74 51 75
REMARK SMILES IDX 52 76 57 77 53 78 54 79 56 80 58 81 55 82 77 83 78 84 83 85
REMARK SMILES IDX 79 86 80 87 82 88 84 89 81 90 65 91 66 92 71 93 67 94 68 95
REMARK SMILES IDX 70 96 72 97 69 98
REMARK H PARENT 11 15 89 60 63 71
REMARK Flexibility Score: inf
ROOT
ATOM      1  O   UNL A   1      33.508  33.542  28.295  1.00  0.00    -0.377 OA
ENDROOT
BRANCH   1   2
ATOM      2  C   UNL A   1      34.435  32.561  27.870  1.00  0.00     0.188 C 
BRANCH   2   3
ATOM      3  C   UNL A   1      34.181  31.054  28.023  1.00  0.00     0.188 C 
BRANCH   3   4
ATOM      4  O   UNL A   1      33.656  30.347  26.910  1.00  0.00    -0.376 OA
BRANCH   4   5
ATOM      5  C   UNL A   1      32.289  29.965  26.963  1.00  0.00     0.202 C 
BRANCH   5   6
ATOM      6  C   UNL A   1      32.005  28.515  27.334  1.00  0.00     0.261 C 
BRANCH   6   7
ATOM      7  O   UNL A   1      31.627  27.729  26.181  1.00  0.00    -0.463 OA
BRANCH   7   8
ATOM      8  C   UNL A   1      31.848  26.400  26.280  1.00  0.00     0.315 C 
ATOM      9  O   UNL A   1      31.233  25.659  27.046  1.00  0.00    -0.252 OA
BRANCH   8  10
ATOM     10  C   UNL A   1      32.998  25.863  25.461  1.00  0.00     0.167 C 
ATOM     11  C   UNL A   1      32.931  24.634  24.553  1.00  0.00     0.098 C 
ATOM     12  C   UNL A   1      33.964  24.967  23.456  1.00  0.00     0.272 C 
ATOM     13  N   UNL A   1      33.944  26.419  23.290  1.00  0.00    -0.329 N 
ATOM     14  C   UNL A   1      33.500  26.996  24.565  1.00  0.00     0.278 C 
ATOM     15  H   UNL A   1      34.887  26.738  23.065  1.00  0.00     0.348 HD
BRANCH  11  16
ATOM     16  C   UNL A   1      33.176  23.196  25.020  1.00  0.00     0.004 A 
ATOM     17  C   UNL A   1      34.282  22.651  25.697  1.00  0.00     0.122 A 
ATOM     18  C   UNL A   1      34.277  21.284  26.056  1.00  0.00     0.047 A 
ATOM     19  C   UNL A   1      33.213  20.438  25.740  1.00  0.00     0.004 A 
ATOM     20  C   UNL A   1      32.121  22.296  24.687  1.00  0.00     0.008 A 
ATOM     21  C   UNL A   1      32.132  20.946  25.043  1.00  0.00     0.001 A 
BRANCH  17  22
ATOM     22  O   UNL A   1      35.321  23.342  26.254  1.00  0.00    -0.496 OA
ATOM     23  C   UNL A   1      36.637  23.110  25.761  1.00  0.00     0.278 C 
ENDBRANCH  17  22
ENDBRANCH  11  16
BRANCH  13  24
ATOM     24  C   UNL A   1      33.180  26.903  22.126  1.00  0.00     0.321 C 
BRANCH  24  25
ATOM     25  C   UNL A   1      31.909  27.625  22.461  1.00  0.00     0.114 A 
ATOM     26  C   UNL A   1      31.720  28.985  22.627  1.00  0.00     0.122 A 
ATOM     27  N   UNL A   1      30.717  26.954  22.637  1.00  0.00    -0.228 NA
ATOM     28  N   UNL A   1      30.380  29.155  22.850  1.00  0.00    -0.306 N 
ATOM     29  C   UNL A   1      29.813  27.888  22.868  1.00  0.00     0.137 A 
ATOM     30  C   UNL A   1      29.658  30.331  23.031  1.00  0.00     0.096 A 
ATOM     31  C   UNL A   1      28.414  27.816  23.108  1.00  0.00     0.048 A 
ATOM     32  C   UNL A   1      28.332  30.269  23.258  1.00  0.00    -0.034 A 
ATOM     33  C   UNL A   1      27.705  28.947  23.296  1.00  0.00     0.009 A 
ATOM     34  C   UNL A   1      27.475  31.480  23.447  1.00  0.00     0.046 C 
ENDBRANCH  24  25
ENDBRANCH  13  24
ENDBRANCH   8  10
ENDBRANCH   7   8
ENDBRANCH   6   7
ENDBRANCH   5   6
ENDBRANCH   4   5
ENDBRANCH   3   4
ENDBRANCH   2   3
ENDBRANCH   1   2
BRANCH   1  35
ATOM     35  C   UNL A   1      33.837  34.503  29.279  1.00  0.00     0.188 C 
BRANCH  35  36
ATOM     36  C   UNL A   1      33.217  35.907  29.258  1.00  0.00     0.188 C 
BRANCH  36  37
ATOM     37  O   UNL A   1      33.386  36.670  30.441  1.00  0.00    -0.376 OA
BRANCH  37  38
ATOM     38  C   UNL A   1      32.588  36.351  31.565  1.00  0.00     0.202 C 
BRANCH  38  39
ATOM     39  C   UNL A   1      33.347  35.967  32.821  1.00  0.00     0.261 C 
BRANCH  39  40
ATOM     40  O   UNL A   1      34.693  35.573  32.611  1.00  0.00    -0.460 OA
BRANCH  40  41
ATOM     41  C   UNL A   1      35.217  34.766  33.551  1.00  0.00     0.338 C 
ATOM     42  O   UNL A   1      35.088  34.820  34.755  1.00  0.00    -0.246 OA
BRANCH  41  43
ATOM     43  C   UNL A   1      36.168  33.907  32.851  1.00  0.00     0.060 A 
ATOM     44  C   UNL A   1      35.915  32.539  32.767  1.00  0.00     0.016 A 
ATOM     45  C   UNL A   1      37.404  34.470  32.490  1.00  0.00     0.016 A 
ATOM     46  C   UNL A   1      36.962  31.711  32.418  1.00  0.00     0.010 A 
ATOM     47  C   UNL A   1      38.442  33.647  32.153  1.00  0.00     0.010 A 
ATOM     48  C   UNL A   1      38.225  32.275  32.186  1.00  0.00    -0.014 A 
BRANCH  48  49
ATOM     49  C   UNL A   1      39.338  31.394  31.910  1.00  0.00     0.031 A 
ATOM     50  C   UNL A   1      40.123  31.056  33.115  1.00  0.00     0.074 A 
ATOM     51  C   UNL A   1      39.512  30.842  30.694  1.00  0.00     0.049 A 
ATOM     52  N   UNL A   1      41.348  31.368  33.364  1.00  0.00    -0.248 NA
ATOM     53  C   UNL A   1      39.422  30.428  34.248  1.00  0.00     0.031 C 
ATOM     54  C   UNL A   1      38.575  30.886  29.564  1.00  0.00     0.029 A 
ATOM     55  N   UNL A   1      40.502  30.023  30.240  1.00  0.00    -0.354 N 
ATOM     56  C   UNL A   1      41.648  30.752  34.576  1.00  0.00     0.074 A 
ATOM     57  C   UNL A   1      40.393  30.371  35.161  1.00  0.00     0.031 C 
ATOM     58  C   UNL A   1      38.926  29.949  28.657  1.00  0.00     0.029 A 
ATOM     59  C   UNL A   1      40.182  29.348  29.069  1.00  0.00     0.049 A 
ATOM     60  H   UNL A   1      41.367  29.919  30.700  1.00  0.00     0.167 HD
ATOM     61  C   UNL A   1      42.915  30.320  34.813  1.00  0.00     0.037 A 
ATOM     62  C   UNL A   1      40.877  28.330  28.506  1.00  0.00     0.037 A 
ATOM     63  C   UNL A   1      43.839  30.950  33.903  1.00  0.00     0.049 A 
ATOM     64  C   UNL A   1      42.257  28.375  29.040  1.00  0.00     0.074 A 
ATOM     65  C   UNL A   1      44.370  32.208  33.724  1.00  0.00     0.029 A 
ATOM     66  N   UNL A   1      44.025  30.258  32.736  1.00  0.00    -0.354 N 
ATOM     67  N   UNL A   1      43.109  29.322  28.768  1.00  0.00    -0.248 NA
ATOM     68  C   UNL A   1      42.614  27.524  30.171  1.00  0.00     0.031 C 
ATOM     69  C   UNL A   1      44.714  32.300  32.342  1.00  0.00     0.029 A 
ATOM     70  C   UNL A   1      44.420  31.085  31.723  1.00  0.00     0.049 A 
ATOM     71  H   UNL A   1      43.891  29.287  32.640  1.00  0.00     0.167 HD
ATOM     72  C   UNL A   1      43.842  29.466  29.930  1.00  0.00     0.074 A 
ATOM     73  C   UNL A   1      43.636  28.227  30.666  1.00  0.00     0.031 C 
ATOM     74  C   UNL A   1      44.264  30.699  30.337  1.00  0.00     0.037 A 
BRANCH  61  75
ATOM     75  C   UNL A   1      43.251  28.976  35.439  1.00  0.00     0.057 A 
ATOM     76  C   UNL A   1      42.654  27.820  34.897  1.00  0.00     0.134 A 
ATOM     77  C   UNL A   1      43.831  28.797  36.712  1.00  0.00     0.134 A 
ATOM     78  F   UNL A   1      42.065  27.850  33.691  1.00  0.00    -0.206 F 
ATOM     79  C   UNL A   1      42.553  26.618  35.608  1.00  0.00     0.040 A 
ATOM     80  C   UNL A   1      43.775  27.587  37.412  1.00  0.00     0.040 A 
ATOM     81  F   UNL A   1      44.396  29.795  37.400  1.00  0.00    -0.206 F 
ATOM     82  C   UNL A   1      43.102  26.503  36.876  1.00  0.00     0.006 A 
ENDBRANCH  61  75
BRANCH  62  83
ATOM     83  C   UNL A   1      40.374  27.183  27.720  1.00  0.00     0.057 A 
ATOM     84  C   UNL A   1      40.898  26.892  26.452  1.00  0.00     0.134 A 
ATOM     85  C   UNL A   1      39.575  26.183  28.302  1.00  0.00     0.134 A 
ATOM     86  F   UNL A   1      41.696  27.770  25.827  1.00  0.00    -0.206 F 
ATOM     87  C   UNL A   1      40.677  25.663  25.819  1.00  0.00     0.040 A 
ATOM     88  C   UNL A   1      39.338  24.956  27.676  1.00  0.00     0.040 A 
ATOM     89  F   UNL A   1      39.074  26.328  29.537  1.00  0.00    -0.206 F 
ATOM     90  C   UNL A   1      39.905  24.684  26.438  1.00  0.00     0.006 A 
ENDBRANCH  62  83
BRANCH  74  91
ATOM     91  C   UNL A   1      44.415  31.755  29.284  1.00  0.00     0.057 A 
ATOM     92  C   UNL A   1      43.461  32.739  28.990  1.00  0.00     0.134 A 
ATOM     93  C   UNL A   1      45.620  31.804  28.572  1.00  0.00     0.134 A 
ATOM     94  F   UNL A   1      42.317  32.827  29.679  1.00  0.00    -0.206 F 
ATOM     95  C   UNL A   1      43.678  33.691  27.989  1.00  0.00     0.040 A 
ATOM     96  C   UNL A   1      45.865  32.774  27.600  1.00  0.00     0.040 A 
ATOM     97  F   UNL A   1      46.597  30.920  28.832  1.00  0.00    -0.206 F 
ATOM     98  C   UNL A   1      44.884  33.713  27.294  1.00  0.00     0.006 A 
ENDBRANCH  74  91
ENDBRANCH  48  49
ENDBRANCH  41  43
ENDBRANCH  40  41
ENDBRANCH  39  40
ENDBRANCH  38  39
ENDBRANCH  37  38
ENDBRANCH  36  37
ENDBRANCH  35  36
ENDBRANCH   1  35
TORSDOF 24
ENDMDL
MODEL 3
REMARK VINA RESULT:      -9.9      2.001      2.644
REMARK SMILES COc1ccccc1[C@@H]1C[N@@H+](Cc2cn3cc(C)ccc3n2)C[C@H]1C(=O)OCCOCCOCCOCCOC(=O)c1ccc(-c2c3nc(c(-c4c(F)cccc4F)c4ccc([nH]4)c(-c4c(F)cccc4F)c4nc(c(-c5c(F)cccc5F)c5ccc2[nH]5)C=C4)C=C3)cc1
REMARK SMILES IDX 33 1 32 2 31 3 30 4 29 5 28 6 27 7 25 8 26 9 24 10 9 11
REMARK SMILES IDX 10 12 11 13 23 14 8 16 3 17 4 18 5 19 7 20 6 21 2 22 1 23
REMARK SMILES IDX 12 24 13 25 14 26 22 27 15 28 21 29 16 30 20 31 17 32 19 33
REMARK SMILES IDX 18 34 34 35 35 36 36 37 37 38 38 39 39 40 40 41 41 42 42 43
REMARK SMILES IDX 43 44 95 45 44 46 94 47 45 48 46 49 47 50 88 51 48 52 93 53
REMARK SMILES IDX 87 54 89 55 49 56 92 57 86 58 85 59 50 61 76 62 59 63 75 64
REMARK SMILES IDX 60 65 63 66 74 67 90 68 61 69 62 70 73 72 91 73 64 74 51 75
REMARK SMILES IDX 52 76 57 77 53 78 54 79 56 80 58 81 55 82 77 83 78 84 83 85
REMARK SMILES IDX 79 86 80 87 82 88 84 89 81 90 65 91 66 92 71 93 67 94 68 95
REMARK SMILES IDX 70 96 72 97 69 98
REMARK H PARENT 11 15 89 60 63 71
REMARK Flexibility Score: inf
ROOT
ATOM      1  O   UNL A   1      33.767  31.959  27.994  1.00  0.00    -0.377 OA
ENDROOT
BRANCH   1   2
ATOM      2  C   UNL A   1      34.419  30.715  27.829  1.00  0.00     0.188 C 
BRANCH   2   3
ATOM      3  C   UNL A   1      33.754  29.512  27.143  1.00  0.00     0.188 C 
BRANCH   3   4
ATOM      4  O   UNL A   1      32.362  29.579  26.875  1.00  0.00    -0.376 OA
BRANCH   4   5
ATOM      5  C   UNL A   1      31.525  28.631  27.520  1.00  0.00     0.202 C 
BRANCH   5   6
ATOM      6  C   UNL A   1      31.681  27.180  27.083  1.00  0.00     0.261 C 
BRANCH   6   7
ATOM      7  O   UNL A   1      30.708  26.812  26.078  1.00  0.00    -0.463 OA
BRANCH   7   8
ATOM      8  C   UNL A   1      30.482  25.488  25.939  1.00  0.00     0.315 C 
ATOM      9  O   UNL A   1      29.818  24.820  26.730  1.00  0.00    -0.252 OA
BRANCH   8  10
ATOM     10  C   UNL A   1      31.195  24.817  24.788  1.00  0.00     0.167 C 
ATOM     11  C   UNL A   1      32.662  25.037  24.417  1.00  0.00     0.098 C 
ATOM     12  C   UNL A   1      33.061  23.681  23.796  1.00  0.00     0.272 C 
ATOM     13  N   UNL A   1      32.277  22.659  24.486  1.00  0.00    -0.329 N 
ATOM     14  C   UNL A   1      31.050  23.306  24.970  1.00  0.00     0.278 C 
ATOM     15  H   UNL A   1      32.050  21.916  23.824  1.00  0.00     0.348 HD
BRANCH  11  16
ATOM     16  C   UNL A   1      33.166  26.152  23.495  1.00  0.00     0.004 A 
ATOM     17  C   UNL A   1      33.320  26.156  22.097  1.00  0.00     0.122 A 
ATOM     18  C   UNL A   1      33.782  27.323  21.448  1.00  0.00     0.047 A 
ATOM     19  C   UNL A   1      34.118  28.480  22.154  1.00  0.00     0.004 A 
ATOM     20  C   UNL A   1      33.547  27.340  24.185  1.00  0.00     0.008 A 
ATOM     21  C   UNL A   1      34.008  28.485  23.532  1.00  0.00     0.001 A 
BRANCH  17  22
ATOM     22  O   UNL A   1      32.874  25.204  21.223  1.00  0.00    -0.496 OA
ATOM     23  C   UNL A   1      32.614  25.584  19.875  1.00  0.00     0.278 C 
ENDBRANCH  17  22
ENDBRANCH  11  16
BRANCH  13  24
ATOM     24  C   UNL A   1      33.003  21.915  25.531  1.00  0.00     0.321 C 
BRANCH  24  25
ATOM     25  C   UNL A   1      33.092  20.435  25.307  1.00  0.00     0.114 A 
ATOM     26  C   UNL A   1      32.832  19.419  26.208  1.00  0.00     0.122 A 
ATOM     27  N   UNL A   1      33.457  19.906  24.085  1.00  0.00    -0.228 NA
ATOM     28  N   UNL A   1      32.983  18.250  25.511  1.00  0.00    -0.306 N 
ATOM     29  C   UNL A   1      33.385  18.597  24.229  1.00  0.00     0.137 A 
ATOM     30  C   UNL A   1      32.790  16.939  25.937  1.00  0.00     0.096 A 
ATOM     31  C   UNL A   1      33.626  17.528  23.323  1.00  0.00     0.048 A 
ATOM     32  C   UNL A   1      33.016  15.922  25.083  1.00  0.00    -0.034 A 
ATOM     33  C   UNL A   1      33.453  16.252  23.726  1.00  0.00     0.009 A 
ATOM     34  C   UNL A   1      32.819  14.485  25.448  1.00  0.00     0.046 C 
ENDBRANCH  24  25
ENDBRANCH  13  24
ENDBRANCH   8  10
ENDBRANCH   7   8
ENDBRANCH   6   7
ENDBRANCH   5   6
ENDBRANCH   4   5
ENDBRANCH   3   4
ENDBRANCH   2   3
ENDBRANCH   1   2
BRANCH   1  35
ATOM     35  C   UNL A   1      34.291  32.971  28.831  1.00  0.00     0.188 C 
BRANCH  35  36
ATOM     36  C   UNL A   1      34.573  34.381  28.296  1.00  0.00     0.188 C 
BRANCH  36  37
ATOM     37  O   UNL A   1      34.305  35.445  29.194  1.00  0.00    -0.376 OA
BRANCH  37  38
ATOM     38  C   UNL A   1      33.091  35.420  29.920  1.00  0.00     0.202 C 
BRANCH  38  39
ATOM     39  C   UNL A   1      33.224  35.173  31.411  1.00  0.00     0.261 C 
BRANCH  39  40
ATOM     40  O   UNL A   1      34.400  35.698  32.003  1.00  0.00    -0.460 OA
BRANCH  40  41
ATOM     41  C   UNL A   1      34.903  34.988  33.029  1.00  0.00     0.338 C 
ATOM     42  O   UNL A   1      34.758  35.167  34.219  1.00  0.00    -0.246 OA
BRANCH  41  43
ATOM     43  C   UNL A   1      35.855  34.053  32.435  1.00  0.00     0.060 A 
ATOM     44  C   UNL A   1      35.619  32.684  32.539  1.00  0.00     0.016 A 
ATOM     45  C   UNL A   1      37.078  34.577  31.983  1.00  0.00     0.016 A 
ATOM     46  C   UNL A   1      36.671  31.828  32.288  1.00  0.00     0.010 A 
ATOM     47  C   UNL A   1      38.122  33.727  31.742  1.00  0.00     0.010 A 
ATOM     48  C   UNL A   1      37.924  32.369  31.962  1.00  0.00    -0.014 A 
BRANCH  48  49
ATOM     49  C   UNL A   1      39.044  31.472  31.789  1.00  0.00     0.031 A 
ATOM     50  C   UNL A   1      39.741  31.163  33.054  1.00  0.00     0.074 A 
ATOM     51  C   UNL A   1      39.296  30.883  30.604  1.00  0.00     0.049 A 
ATOM     52  N   UNL A   1      40.949  31.473  33.378  1.00  0.00    -0.248 NA
ATOM     53  C   UNL A   1      38.958  30.574  34.154  1.00  0.00     0.031 C 
ATOM     54  C   UNL A   1      38.438  30.901  29.412  1.00  0.00     0.029 A 
ATOM     55  N   UNL A   1      40.306  30.043  30.243  1.00  0.00    -0.354 N 
ATOM     56  C   UNL A   1      41.159  30.890  34.625  1.00  0.00     0.074 A 
ATOM     57  C   UNL A   1      39.863  30.537  35.133  1.00  0.00     0.031 C 
ATOM     58  C   UNL A   1      38.841  29.935  28.558  1.00  0.00     0.029 A 
ATOM     59  C   UNL A   1      40.060  29.336  29.073  1.00  0.00     0.049 A 
ATOM     60  H   UNL A   1      41.135  29.946  30.764  1.00  0.00     0.167 HD
ATOM     61  C   UNL A   1      42.402  30.455  34.961  1.00  0.00     0.037 A 
ATOM     62  C   UNL A   1      40.781  28.297  28.589  1.00  0.00     0.037 A 
ATOM     63  C   UNL A   1      43.393  31.051  34.099  1.00  0.00     0.049 A 
ATOM     64  C   UNL A   1      42.122  28.346  29.214  1.00  0.00     0.074 A 
ATOM     65  C   UNL A   1      43.948  32.299  33.921  1.00  0.00     0.029 A 
ATOM     66  N   UNL A   1      43.652  30.322  32.968  1.00  0.00    -0.354 N 
ATOM     67  N   UNL A   1      43.000  29.278  28.975  1.00  0.00    -0.248 NA
ATOM     68  C   UNL A   1      42.392  27.526  30.392  1.00  0.00     0.031 C 
ATOM     69  C   UNL A   1      44.386  32.346  32.564  1.00  0.00     0.029 A 
ATOM     70  C   UNL A   1      44.123  31.116  31.961  1.00  0.00     0.049 A 
ATOM     71  H   UNL A   1      43.515  29.351  32.891  1.00  0.00     0.167 HD
ATOM     72  C   UNL A   1      43.653  29.450  30.180  1.00  0.00     0.074 A 
ATOM     73  C   UNL A   1      43.384  28.235  30.936  1.00  0.00     0.031 C 
ATOM     74  C   UNL A   1      44.059  30.691  30.579  1.00  0.00     0.037 A 
BRANCH  61  75
ATOM     75  C   UNL A   1      42.681  29.127  35.647  1.00  0.00     0.057 A 
ATOM     76  C   UNL A   1      43.592  29.111  36.722  1.00  0.00     0.134 A 
ATOM     77  C   UNL A   1      42.383  27.858  35.108  1.00  0.00     0.134 A 
ATOM     78  F   UNL A   1      43.963  30.250  37.329  1.00  0.00    -0.206 F 
ATOM     79  C   UNL A   1      44.230  27.941  37.154  1.00  0.00     0.040 A 
ATOM     80  C   UNL A   1      42.982  26.678  35.562  1.00  0.00     0.040 A 
ATOM     81  F   UNL A   1      41.581  27.688  34.053  1.00  0.00    -0.206 F 
ATOM     82  C   UNL A   1      43.936  26.721  36.563  1.00  0.00     0.006 A 
ENDBRANCH  61  75
BRANCH  62  83
ATOM     83  C   UNL A   1      40.322  27.131  27.803  1.00  0.00     0.057 A 
ATOM     84  C   UNL A   1      40.866  26.852  26.541  1.00  0.00     0.134 A 
ATOM     85  C   UNL A   1      39.550  26.109  28.383  1.00  0.00     0.134 A 
ATOM     86  F   UNL A   1      41.640  27.753  25.919  1.00  0.00    -0.206 F 
ATOM     87  C   UNL A   1      40.689  25.614  25.911  1.00  0.00     0.040 A 
ATOM     88  C   UNL A   1      39.358  24.872  27.760  1.00  0.00     0.040 A 
ATOM     89  F   UNL A   1      39.035  26.242  29.613  1.00  0.00    -0.206 F 
ATOM     90  C   UNL A   1      39.944  24.613  26.528  1.00  0.00     0.006 A 
ENDBRANCH  62  83
BRANCH  74  91
ATOM     91  C   UNL A   1      44.293  31.714  29.509  1.00  0.00     0.057 A 
ATOM     92  C   UNL A   1      45.433  31.782  28.697  1.00  0.00     0.134 A 
ATOM     93  C   UNL A   1      43.276  32.643  29.256  1.00  0.00     0.134 A 
ATOM     94  F   UNL A   1      46.418  30.881  28.804  1.00  0.00    -0.206 F 
ATOM     95  C   UNL A   1      45.576  32.770  27.718  1.00  0.00     0.040 A 
ATOM     96  C   UNL A   1      43.388  33.608  28.255  1.00  0.00     0.040 A 
ATOM     97  F   UNL A   1      42.136  32.610  29.966  1.00  0.00    -0.206 F 
ATOM     98  C   UNL A   1      44.550  33.684  27.492  1.00  0.00     0.006 A 
ENDBRANCH  74  91
ENDBRANCH  48  49
ENDBRANCH  41  43
ENDBRANCH  40  41
ENDBRANCH  39  40
ENDBRANCH  38  39
ENDBRANCH  37  38
ENDBRANCH  36  37
ENDBRANCH  35  36
ENDBRANCH   1  35
TORSDOF 24
ENDMDL
