MODEL 1
REMARK VINA RESULT:     -10.5      0.000      0.000
REMARK SMILES C[C@@H](C(=O)OCCOCCOCCOCCOC(=O)c1ccc(-c2c3nc(c(-c4c(F)cccc4F)c4ccc([nH]4)c(-c4c(F)cccc4F)c4nc(c(-c5c(F)cccc5F)c5ccc2[nH]5)C=C4)C=C3)cc1)c1ccc2c3cc(Cl)ccc3n(C(=O)c3ccc(Cl)cc3)c2c1
REMARK SMILES IDX 10 1 9 2 8 3 7 4 6 5 5 6 3 7 4 8 2 9 1 10 74 11 75 12 96 13
REMARK SMILES IDX 76 14 95 15 77 16 85 17 78 18 84 19 79 20 83 21 80 22 82 23
REMARK SMILES IDX 81 24 86 25 87 26 88 27 89 28 94 29 90 30 93 31 91 32 92 33
REMARK SMILES IDX 11 34 12 35 13 36 14 37 15 38 16 39 17 40 18 41 19 42 20 43
REMARK SMILES IDX 21 44 73 45 22 46 72 47 23 48 24 49 25 50 66 51 26 52 71 53
REMARK SMILES IDX 65 54 67 55 27 56 70 57 64 58 63 59 28 61 54 62 37 63 53 64
REMARK SMILES IDX 38 65 41 66 52 67 68 68 39 69 40 70 51 72 69 73 42 74 29 75
REMARK SMILES IDX 30 76 35 77 31 78 32 79 34 80 36 81 33 82 55 83 56 84 61 85
REMARK SMILES IDX 57 86 58 87 60 88 62 89 59 90 43 91 44 92 49 93 45 94 46 95
REMARK SMILES IDX 48 96 50 97 47 98
REMARK H PARENT 67 60 41 71
REMARK Flexibility Score: inf
ROOT
ATOM      1  C   UNL A   1      40.525  19.527  26.271  1.00  0.00     0.188 C 
ENDROOT
BRANCH   1   2
ATOM      2  C   UNL A   1      39.544  20.612  25.795  1.00  0.00     0.188 C 
BRANCH   2   3
ATOM      3  O   UNL A   1      39.667  21.915  26.334  1.00  0.00    -0.376 OA
BRANCH   3   4
ATOM      4  C   UNL A   1      38.625  22.865  26.167  1.00  0.00     0.202 C 
BRANCH   4   5
ATOM      5  C   UNL A   1      37.337  22.625  25.345  1.00  0.00     0.261 C 
BRANCH   5   6
ATOM      6  O   UNL A   1      36.872  23.674  24.478  1.00  0.00    -0.463 OA
BRANCH   6   7
ATOM      7  C   UNL A   1      35.633  23.518  23.946  1.00  0.00     0.313 C 
ATOM      8  O   UNL A   1      35.438  23.212  22.773  1.00  0.00    -0.252 OA
BRANCH   7   9
ATOM      9  C   UNL A   1      34.482  23.742  24.948  1.00  0.00     0.126 C 
ATOM     10  C   UNL A   1      33.834  22.540  25.644  1.00  0.00     0.025 C 
BRANCH   9  11
ATOM     11  C   UNL A   1      33.465  24.750  24.407  1.00  0.00    -0.032 A 
ATOM     12  C   UNL A   1      32.945  24.756  23.106  1.00  0.00     0.005 A 
ATOM     13  C   UNL A   1      33.105  25.791  25.265  1.00  0.00     0.032 A 
ATOM     14  C   UNL A   1      32.097  25.780  22.652  1.00  0.00     0.011 A 
ATOM     15  C   UNL A   1      32.276  26.827  24.805  1.00  0.00     0.057 A 
ATOM     16  C   UNL A   1      31.744  26.826  23.525  1.00  0.00     0.008 A 
ATOM     17  N   UNL A   1      31.847  27.975  25.469  1.00  0.00    -0.276 N 
ATOM     18  C   UNL A   1      30.937  27.991  23.404  1.00  0.00     0.009 A 
ATOM     19  C   UNL A   1      31.047  28.719  24.599  1.00  0.00     0.057 A 
ATOM     20  C   UNL A   1      30.160  28.502  22.342  1.00  0.00     0.031 A 
ATOM     21  C   UNL A   1      30.484  30.005  24.711  1.00  0.00     0.029 A 
ATOM     22  C   UNL A   1      29.564  29.753  22.475  1.00  0.00     0.041 A 
ATOM     23  C   UNL A   1      29.742  30.505  23.632  1.00  0.00     0.023 A 
ATOM     24  Cl  UNL A   1      28.628  30.385  21.176  1.00  0.00    -0.084 Cl
BRANCH  17  25
ATOM     25  C   UNL A   1      32.300  28.291  26.769  1.00  0.00     0.262 C 
ATOM     26  O   UNL A   1      31.668  27.766  27.689  1.00  0.00    -0.268 OA
BRANCH  25  27
ATOM     27  C   UNL A   1      33.358  29.257  27.171  1.00  0.00     0.040 A 
ATOM     28  C   UNL A   1      32.944  30.596  27.342  1.00  0.00     0.015 A 
ATOM     29  C   UNL A   1      34.717  28.958  27.282  1.00  0.00     0.015 A 
ATOM     30  C   UNL A   1      33.853  31.607  27.649  1.00  0.00     0.021 A 
ATOM     31  C   UNL A   1      35.630  29.972  27.616  1.00  0.00     0.021 A 
ATOM     32  C   UNL A   1      35.195  31.288  27.798  1.00  0.00     0.041 A 
ATOM     33  Cl  UNL A   1      36.322  32.525  28.191  1.00  0.00    -0.084 Cl
ENDBRANCH  25  27
ENDBRANCH  17  25
ENDBRANCH   9  11
ENDBRANCH   7   9
ENDBRANCH   6   7
ENDBRANCH   5   6
ENDBRANCH   4   5
ENDBRANCH   3   4
ENDBRANCH   2   3
ENDBRANCH   1   2
BRANCH   1  34
ATOM     34  O   UNL A   1      41.558  19.219  25.360  1.00  0.00    -0.377 OA
BRANCH  34  35
ATOM     35  C   UNL A   1      42.779  18.758  25.906  1.00  0.00     0.188 C 
BRANCH  35  36
ATOM     36  C   UNL A   1      44.084  18.917  25.101  1.00  0.00     0.188 C 
BRANCH  36  37
ATOM     37  O   UNL A   1      44.834  20.089  25.402  1.00  0.00    -0.376 OA
BRANCH  37  38
ATOM     38  C   UNL A   1      44.319  21.355  25.022  1.00  0.00     0.202 C 
BRANCH  38  39
ATOM     39  C   UNL A   1      43.249  21.978  25.933  1.00  0.00     0.261 C 
BRANCH  39  40
ATOM     40  O   UNL A   1      43.724  22.883  26.939  1.00  0.00    -0.460 OA
BRANCH  40  41
ATOM     41  C   UNL A   1      43.067  24.052  27.089  1.00  0.00     0.338 C 
ATOM     42  O   UNL A   1      41.914  24.210  27.452  1.00  0.00    -0.246 OA
BRANCH  41  43
ATOM     43  C   UNL A   1      44.054  25.141  26.934  1.00  0.00     0.060 A 
ATOM     44  C   UNL A   1      44.655  25.677  28.080  1.00  0.00     0.016 A 
ATOM     45  C   UNL A   1      44.413  25.598  25.664  1.00  0.00     0.016 A 
ATOM     46  C   UNL A   1      45.600  26.695  27.961  1.00  0.00     0.010 A 
ATOM     47  C   UNL A   1      45.336  26.640  25.548  1.00  0.00     0.010 A 
ATOM     48  C   UNL A   1      45.907  27.214  26.698  1.00  0.00    -0.014 A 
BRANCH  48  49
ATOM     49  C   UNL A   1      46.639  28.499  26.597  1.00  0.00     0.031 A 
ATOM     50  C   UNL A   1      48.129  28.445  26.405  1.00  0.00     0.074 A 
ATOM     51  C   UNL A   1      46.003  29.681  26.646  1.00  0.00     0.049 A 
ATOM     52  N   UNL A   1      48.998  29.420  26.340  1.00  0.00    -0.248 NA
ATOM     53  C   UNL A   1      48.720  27.101  26.273  1.00  0.00     0.031 C 
ATOM     54  C   UNL A   1      44.559  29.863  26.775  1.00  0.00     0.029 A 
ATOM     55  N   UNL A   1      46.502  30.959  26.598  1.00  0.00    -0.354 N 
ATOM     56  C   UNL A   1      50.234  28.810  26.170  1.00  0.00     0.074 A 
ATOM     57  C   UNL A   1      50.010  27.381  26.171  1.00  0.00     0.031 C 
ATOM     58  C   UNL A   1      44.289  31.181  26.808  1.00  0.00     0.029 A 
ATOM     59  C   UNL A   1      45.542  31.931  26.740  1.00  0.00     0.049 A 
ATOM     60  H   UNL A   1      47.458  31.160  26.476  1.00  0.00     0.167 HD
ATOM     61  C   UNL A   1      51.448  29.388  26.019  1.00  0.00     0.037 A 
ATOM     62  C   UNL A   1      45.670  33.269  26.828  1.00  0.00     0.037 A 
ATOM     63  C   UNL A   1      51.668  30.809  26.022  1.00  0.00     0.049 A 
ATOM     64  C   UNL A   1      47.044  33.887  26.747  1.00  0.00     0.074 A 
ATOM     65  C   UNL A   1      52.856  31.498  25.860  1.00  0.00     0.029 A 
ATOM     66  N   UNL A   1      50.675  31.760  26.208  1.00  0.00    -0.354 N 
ATOM     67  N   UNL A   1      48.205  33.306  26.560  1.00  0.00    -0.248 NA
ATOM     68  C   UNL A   1      47.123  35.349  26.886  1.00  0.00     0.031 C 
ATOM     69  C   UNL A   1      52.593  32.862  26.010  1.00  0.00     0.029 A 
ATOM     70  C   UNL A   1      51.230  33.029  26.198  1.00  0.00     0.049 A 
ATOM     71  H   UNL A   1      49.718  31.562  26.330  1.00  0.00     0.167 HD
ATOM     72  C   UNL A   1      49.145  34.331  26.523  1.00  0.00     0.074 A 
ATOM     73  C   UNL A   1      48.416  35.570  26.697  1.00  0.00     0.031 C 
ATOM     74  C   UNL A   1      50.489  34.255  26.359  1.00  0.00     0.037 A 
BRANCH  61  75
ATOM     75  C   UNL A   1      52.636  28.481  25.881  1.00  0.00     0.057 A 
ATOM     76  C   UNL A   1      53.353  28.017  26.992  1.00  0.00     0.134 A 
ATOM     77  C   UNL A   1      53.052  28.045  24.617  1.00  0.00     0.134 A 
ATOM     78  F   UNL A   1      53.019  28.412  28.230  1.00  0.00    -0.206 F 
ATOM     79  C   UNL A   1      54.456  27.173  26.848  1.00  0.00     0.040 A 
ATOM     80  C   UNL A   1      54.134  27.177  24.463  1.00  0.00     0.040 A 
ATOM     81  F   UNL A   1      52.410  28.450  23.511  1.00  0.00    -0.206 F 
ATOM     82  C   UNL A   1      54.843  26.743  25.580  1.00  0.00     0.006 A 
ENDBRANCH  61  75
BRANCH  62  83
ATOM     83  C   UNL A   1      44.471  34.126  27.023  1.00  0.00     0.057 A 
ATOM     84  C   UNL A   1      43.744  34.618  25.931  1.00  0.00     0.134 A 
ATOM     85  C   UNL A   1      44.047  34.510  28.301  1.00  0.00     0.134 A 
ATOM     86  F   UNL A   1      44.115  34.310  24.679  1.00  0.00    -0.206 F 
ATOM     87  C   UNL A   1      42.654  35.474  26.102  1.00  0.00     0.040 A 
ATOM     88  C   UNL A   1      42.941  35.341  28.488  1.00  0.00     0.040 A 
ATOM     89  F   UNL A   1      44.700  34.077  29.390  1.00  0.00    -0.206 F 
ATOM     90  C   UNL A   1      42.247  35.834  27.385  1.00  0.00     0.006 A 
ENDBRANCH  62  83
BRANCH  74  91
ATOM     91  C   UNL A   1      51.256  35.545  26.306  1.00  0.00     0.057 A 
ATOM     92  C   UNL A   1      51.787  36.146  27.455  1.00  0.00     0.134 A 
ATOM     93  C   UNL A   1      51.508  36.171  25.076  1.00  0.00     0.134 A 
ATOM     94  F   UNL A   1      51.576  35.605  28.664  1.00  0.00    -0.206 F 
ATOM     95  C   UNL A   1      52.516  37.335  27.386  1.00  0.00     0.040 A 
ATOM     96  C   UNL A   1      52.263  37.341  24.991  1.00  0.00     0.040 A 
ATOM     97  F   UNL A   1      51.041  35.643  23.934  1.00  0.00    -0.206 F 
ATOM     98  C   UNL A   1      52.762  37.931  26.150  1.00  0.00     0.006 A 
ENDBRANCH  74  91
ENDBRANCH  48  49
ENDBRANCH  41  43
ENDBRANCH  40  41
ENDBRANCH  39  40
ENDBRANCH  38  39
ENDBRANCH  37  38
ENDBRANCH  36  37
ENDBRANCH  35  36
ENDBRANCH  34  35
ENDBRANCH   1  34
TORSDOF 23
ENDMDL
MODEL 2
REMARK VINA RESULT:     -10.4      3.473      8.287
REMARK SMILES C[C@@H](C(=O)OCCOCCOCCOCCOC(=O)c1ccc(-c2c3nc(c(-c4c(F)cccc4F)c4ccc([nH]4)c(-c4c(F)cccc4F)c4nc(c(-c5c(F)cccc5F)c5ccc2[nH]5)C=C4)C=C3)cc1)c1ccc2c3cc(Cl)ccc3n(C(=O)c3ccc(Cl)cc3)c2c1
REMARK SMILES IDX 10 1 9 2 8 3 7 4 6 5 5 6 3 7 4 8 2 9 1 10 74 11 75 12 96 13
REMARK SMILES IDX 76 14 95 15 77 16 85 17 78 18 84 19 79 20 83 21 80 22 82 23
REMARK SMILES IDX 81 24 86 25 87 26 88 27 89 28 94 29 90 30 93 31 91 32 92 33
REMARK SMILES IDX 11 34 12 35 13 36 14 37 15 38 16 39 17 40 18 41 19 42 20 43
REMARK SMILES IDX 21 44 73 45 22 46 72 47 23 48 24 49 25 50 66 51 26 52 71 53
REMARK SMILES IDX 65 54 67 55 27 56 70 57 64 58 63 59 28 61 54 62 37 63 53 64
REMARK SMILES IDX 38 65 41 66 52 67 68 68 39 69 40 70 51 72 69 73 42 74 29 75
REMARK SMILES IDX 30 76 35 77 31 78 32 79 34 80 36 81 33 82 55 83 56 84 61 85
REMARK SMILES IDX 57 86 58 87 60 88 62 89 59 90 43 91 44 92 49 93 45 94 46 95
REMARK SMILES IDX 48 96 50 97 47 98
REMARK H PARENT 67 60 41 71
REMARK Flexibility Score: inf
ROOT
ATOM      1  C   UNL A   1      41.732  28.175  29.448  1.00  0.00     0.188 C 
ENDROOT
BRANCH   1   2
ATOM      2  C   UNL A   1      40.608  28.625  30.395  1.00  0.00     0.188 C 
BRANCH   2   3
ATOM      3  O   UNL A   1      39.266  28.482  29.967  1.00  0.00    -0.376 OA
BRANCH   3   4
ATOM      4  C   UNL A   1      38.252  28.102  30.885  1.00  0.00     0.202 C 
BRANCH   4   5
ATOM      5  C   UNL A   1      38.470  27.896  32.403  1.00  0.00     0.261 C 
BRANCH   5   6
ATOM      6  O   UNL A   1      38.131  28.971  33.295  1.00  0.00    -0.463 OA
BRANCH   6   7
ATOM      7  C   UNL A   1      39.165  29.704  33.783  1.00  0.00     0.313 C 
ATOM      8  O   UNL A   1      39.781  29.403  34.802  1.00  0.00    -0.252 OA
BRANCH   7   9
ATOM      9  C   UNL A   1      39.515  30.946  32.937  1.00  0.00     0.126 C 
ATOM     10  C   UNL A   1      40.875  31.629  33.115  1.00  0.00     0.025 C 
BRANCH   9  11
ATOM     11  C   UNL A   1      38.344  31.930  32.887  1.00  0.00    -0.032 A 
ATOM     12  C   UNL A   1      37.687  32.463  34.004  1.00  0.00     0.005 A 
ATOM     13  C   UNL A   1      37.847  32.242  31.620  1.00  0.00     0.032 A 
ATOM     14  C   UNL A   1      36.549  33.276  33.875  1.00  0.00     0.011 A 
ATOM     15  C   UNL A   1      36.697  33.036  31.491  1.00  0.00     0.057 A 
ATOM     16  C   UNL A   1      36.056  33.581  32.592  1.00  0.00     0.008 A 
ATOM     17  N   UNL A   1      36.011  33.415  30.339  1.00  0.00    -0.276 N 
ATOM     18  C   UNL A   1      34.960  34.345  32.105  1.00  0.00     0.009 A 
ATOM     19  C   UNL A   1      34.914  34.196  30.711  1.00  0.00     0.057 A 
ATOM     20  C   UNL A   1      33.972  35.114  32.759  1.00  0.00     0.031 A 
ATOM     21  C   UNL A   1      33.833  34.708  29.969  1.00  0.00     0.029 A 
ATOM     22  C   UNL A   1      32.931  35.661  32.014  1.00  0.00     0.041 A 
ATOM     23  C   UNL A   1      32.848  35.443  30.644  1.00  0.00     0.023 A 
ATOM     24  Cl  UNL A   1      31.718  36.586  32.812  1.00  0.00    -0.084 Cl
BRANCH  17  25
ATOM     25  C   UNL A   1      36.385  32.936  29.063  1.00  0.00     0.262 C 
ATOM     26  O   UNL A   1      37.097  33.696  28.404  1.00  0.00    -0.268 OA
BRANCH  25  27
ATOM     27  C   UNL A   1      35.939  31.695  28.373  1.00  0.00     0.040 A 
ATOM     28  C   UNL A   1      34.610  31.691  27.898  1.00  0.00     0.015 A 
ATOM     29  C   UNL A   1      36.693  30.525  28.262  1.00  0.00     0.015 A 
ATOM     30  C   UNL A   1      34.054  30.563  27.297  1.00  0.00     0.021 A 
ATOM     31  C   UNL A   1      36.140  29.396  27.634  1.00  0.00     0.021 A 
ATOM     32  C   UNL A   1      34.827  29.421  27.155  1.00  0.00     0.041 A 
ATOM     33  Cl  UNL A   1      34.155  28.030  26.402  1.00  0.00    -0.084 Cl
ENDBRANCH  25  27
ENDBRANCH  17  25
ENDBRANCH   9  11
ENDBRANCH   7   9
ENDBRANCH   6   7
ENDBRANCH   5   6
ENDBRANCH   4   5
ENDBRANCH   3   4
ENDBRANCH   2   3
ENDBRANCH   1   2
BRANCH   1  34
ATOM     34  O   UNL A   1      41.493  26.956  28.778  1.00  0.00    -0.377 OA
BRANCH  34  35
ATOM     35  C   UNL A   1      41.111  27.035  27.418  1.00  0.00     0.188 C 
BRANCH  35  36
ATOM     36  C   UNL A   1      39.783  26.400  26.960  1.00  0.00     0.188 C 
BRANCH  36  37
ATOM     37  O   UNL A   1      39.892  25.064  26.481  1.00  0.00    -0.376 OA
BRANCH  37  38
ATOM     38  C   UNL A   1      39.548  23.991  27.344  1.00  0.00     0.202 C 
BRANCH  38  39
ATOM     39  C   UNL A   1      40.460  22.753  27.321  1.00  0.00     0.261 C 
BRANCH  39  40
ATOM     40  O   UNL A   1      41.869  23.006  27.406  1.00  0.00    -0.460 OA
BRANCH  40  41
ATOM     41  C   UNL A   1      42.555  23.127  26.250  1.00  0.00     0.338 C 
ATOM     42  O   UNL A   1      42.407  22.472  25.232  1.00  0.00    -0.246 OA
BRANCH  41  43
ATOM     43  C   UNL A   1      43.392  24.340  26.353  1.00  0.00     0.060 A 
ATOM     44  C   UNL A   1      43.616  25.107  25.202  1.00  0.00     0.016 A 
ATOM     45  C   UNL A   1      43.915  24.739  27.585  1.00  0.00     0.016 A 
ATOM     46  C   UNL A   1      44.389  26.265  25.275  1.00  0.00     0.010 A 
ATOM     47  C   UNL A   1      44.716  25.881  27.650  1.00  0.00     0.010 A 
ATOM     48  C   UNL A   1      44.984  26.628  26.489  1.00  0.00    -0.014 A 
BRANCH  48  49
ATOM     49  C   UNL A   1      46.062  27.645  26.496  1.00  0.00     0.031 A 
ATOM     50  C   UNL A   1      45.665  29.089  26.629  1.00  0.00     0.074 A 
ATOM     51  C   UNL A   1      47.359  27.302  26.414  1.00  0.00     0.049 A 
ATOM     52  N   UNL A   1      46.409  30.164  26.610  1.00  0.00    -0.248 NA
ATOM     53  C   UNL A   1      44.226  29.354  26.803  1.00  0.00     0.031 C 
ATOM     54  C   UNL A   1      47.871  25.935  26.335  1.00  0.00     0.029 A 
ATOM     55  N   UNL A   1      48.483  28.087  26.377  1.00  0.00    -0.354 N 
ATOM     56  C   UNL A   1      45.531  31.230  26.759  1.00  0.00     0.074 A 
ATOM     57  C   UNL A   1      44.197  30.677  26.839  1.00  0.00     0.031 C 
ATOM     58  C   UNL A   1      49.213  25.981  26.247  1.00  0.00     0.029 A 
ATOM     59  C   UNL A   1      49.648  27.376  26.226  1.00  0.00     0.049 A 
ATOM     60  H   UNL A   1      48.457  29.069  26.450  1.00  0.00     0.167 HD
ATOM     61  C   UNL A   1      45.812  32.552  26.831  1.00  0.00     0.037 A 
ATOM     62  C   UNL A   1      50.914  27.809  26.066  1.00  0.00     0.037 A 
ATOM     63  C   UNL A   1      47.140  33.097  26.748  1.00  0.00     0.049 A 
ATOM     64  C   UNL A   1      51.192  29.292  26.061  1.00  0.00     0.074 A 
ATOM     65  C   UNL A   1      47.534  34.421  26.827  1.00  0.00     0.029 A 
ATOM     66  N   UNL A   1      48.290  32.347  26.556  1.00  0.00    -0.354 N 
ATOM     67  N   UNL A   1      50.361  30.293  26.228  1.00  0.00    -0.248 NA
ATOM     68  C   UNL A   1      52.587  29.704  25.845  1.00  0.00     0.031 C 
ATOM     69  C   UNL A   1      48.915  34.477  26.620  1.00  0.00     0.029 A 
ATOM     70  C   UNL A   1      49.391  33.183  26.480  1.00  0.00     0.049 A 
ATOM     71  H   UNL A   1      48.320  31.365  26.483  1.00  0.00     0.167 HD
ATOM     72  C   UNL A   1      51.135  31.447  26.175  1.00  0.00     0.074 A 
ATOM     73  C   UNL A   1      52.504  31.021  25.971  1.00  0.00     0.031 C 
ATOM     74  C   UNL A   1      50.750  32.743  26.289  1.00  0.00     0.037 A 
BRANCH  61  75
ATOM     75  C   UNL A   1      44.656  33.499  26.965  1.00  0.00     0.057 A 
ATOM     76  C   UNL A   1      44.132  33.864  28.213  1.00  0.00     0.134 A 
ATOM     77  C   UNL A   1      44.073  34.073  25.828  1.00  0.00     0.134 A 
ATOM     78  F   UNL A   1      44.631  33.336  29.341  1.00  0.00    -0.206 F 
ATOM     79  C   UNL A   1      43.057  34.747  28.322  1.00  0.00     0.040 A 
ATOM     80  C   UNL A   1      43.017  34.981  25.927  1.00  0.00     0.040 A 
ATOM     81  F   UNL A   1      44.525  33.768  24.603  1.00  0.00    -0.206 F 
ATOM     82  C   UNL A   1      42.502  35.315  27.177  1.00  0.00     0.006 A 
ENDBRANCH  61  75
BRANCH  62  83
ATOM     83  C   UNL A   1      52.022  26.836  25.878  1.00  0.00     0.057 A 
ATOM     84  C   UNL A   1      52.347  26.341  24.610  1.00  0.00     0.134 A 
ATOM     85  C   UNL A   1      52.754  26.345  26.966  1.00  0.00     0.134 A 
ATOM     86  F   UNL A   1      51.664  26.751  23.529  1.00  0.00    -0.206 F 
ATOM     87  C   UNL A   1      53.344  25.380  24.431  1.00  0.00     0.040 A 
ATOM     88  C   UNL A   1      53.774  25.406  26.799  1.00  0.00     0.040 A 
ATOM     89  F   UNL A   1      52.492  26.774  28.210  1.00  0.00    -0.206 F 
ATOM     90  C   UNL A   1      54.065  24.913  25.528  1.00  0.00     0.006 A 
ENDBRANCH  62  83
BRANCH  74  91
ATOM     91  C   UNL A   1      51.824  33.792  26.246  1.00  0.00     0.057 A 
ATOM     92  C   UNL A   1      52.497  34.220  27.398  1.00  0.00     0.134 A 
ATOM     93  C   UNL A   1      52.225  34.347  25.022  1.00  0.00     0.134 A 
ATOM     94  F   UNL A   1      52.157  33.736  28.603  1.00  0.00    -0.206 F 
ATOM     95  C   UNL A   1      53.509  35.180  27.338  1.00  0.00     0.040 A 
ATOM     96  C   UNL A   1      53.257  35.283  24.946  1.00  0.00     0.040 A 
ATOM     97  F   UNL A   1      51.634  33.973  23.878  1.00  0.00    -0.206 F 
ATOM     98  C   UNL A   1      53.896  35.709  26.108  1.00  0.00     0.006 A 
ENDBRANCH  74  91
ENDBRANCH  48  49
ENDBRANCH  41  43
ENDBRANCH  40  41
ENDBRANCH  39  40
ENDBRANCH  38  39
ENDBRANCH  37  38
ENDBRANCH  36  37
ENDBRANCH  35  36
ENDBRANCH  34  35
ENDBRANCH   1  34
TORSDOF 23
ENDMDL
MODEL 3
REMARK VINA RESULT:     -10.3      3.444      6.209
REMARK SMILES C[C@@H](C(=O)OCCOCCOCCOCCOC(=O)c1ccc(-c2c3nc(c(-c4c(F)cccc4F)c4ccc([nH]4)c(-c4c(F)cccc4F)c4nc(c(-c5c(F)cccc5F)c5ccc2[nH]5)C=C4)C=C3)cc1)c1ccc2c3cc(Cl)ccc3n(C(=O)c3ccc(Cl)cc3)c2c1
REMARK SMILES IDX 10 1 9 2 8 3 7 4 6 5 5 6 3 7 4 8 2 9 1 10 74 11 75 12 96 13
REMARK SMILES IDX 76 14 95 15 77 16 85 17 78 18 84 19 79 20 83 21 80 22 82 23
REMARK SMILES IDX 81 24 86 25 87 26 88 27 89 28 94 29 90 30 93 31 91 32 92 33
REMARK SMILES IDX 11 34 12 35 13 36 14 37 15 38 16 39 17 40 18 41 19 42 20 43
REMARK SMILES IDX 21 44 73 45 22 46 72 47 23 48 24 49 25 50 66 51 26 52 71 53
REMARK SMILES IDX 65 54 67 55 27 56 70 57 64 58 63 59 28 61 54 62 37 63 53 64
REMARK SMILES IDX 38 65 41 66 52 67 68 68 39 69 40 70 51 72 69 73 42 74 29 75
REMARK SMILES IDX 30 76 35 77 31 78 32 79 34 80 36 81 33 82 55 83 56 84 61 85
REMARK SMILES IDX 57 86 58 87 60 88 62 89 59 90 43 91 44 92 49 93 45 94 46 95
REMARK SMILES IDX 48 96 50 97 47 98
REMARK H PARENT 67 60 41 71
REMARK Flexibility Score: inf
ROOT
ATOM      1  C   UNL A   1      41.822  28.052  29.389  1.00  0.00     0.188 C 
ENDROOT
BRANCH   1   2
ATOM      2  C   UNL A   1      40.707  28.574  30.309  1.00  0.00     0.188 C 
BRANCH   2   3
ATOM      3  O   UNL A   1      39.364  28.454  29.879  1.00  0.00    -0.376 OA
BRANCH   3   4
ATOM      4  C   UNL A   1      38.338  28.117  30.800  1.00  0.00     0.202 C 
BRANCH   4   5
ATOM      5  C   UNL A   1      38.555  27.891  32.316  1.00  0.00     0.261 C 
BRANCH   5   6
ATOM      6  O   UNL A   1      38.244  28.966  33.219  1.00  0.00    -0.463 OA
BRANCH   6   7
ATOM      7  C   UNL A   1      39.297  29.672  33.706  1.00  0.00     0.313 C 
ATOM      8  O   UNL A   1      39.927  29.336  34.705  1.00  0.00    -0.252 OA
BRANCH   7   9
ATOM      9  C   UNL A   1      39.646  30.931  32.887  1.00  0.00     0.126 C 
ATOM     10  C   UNL A   1      41.001  31.618  33.090  1.00  0.00     0.025 C 
BRANCH   9  11
ATOM     11  C   UNL A   1      38.471  31.911  32.847  1.00  0.00    -0.032 A 
ATOM     12  C   UNL A   1      37.829  32.451  33.969  1.00  0.00     0.005 A 
ATOM     13  C   UNL A   1      37.953  32.209  31.586  1.00  0.00     0.032 A 
ATOM     14  C   UNL A   1      36.686  33.259  33.851  1.00  0.00     0.011 A 
ATOM     15  C   UNL A   1      36.797  32.997  31.467  1.00  0.00     0.057 A 
ATOM     16  C   UNL A   1      36.172  33.550  32.574  1.00  0.00     0.008 A 
ATOM     17  N   UNL A   1      36.091  33.363  30.323  1.00  0.00    -0.276 N 
ATOM     18  C   UNL A   1      35.065  34.305  32.097  1.00  0.00     0.009 A 
ATOM     19  C   UNL A   1      34.997  34.143  30.705  1.00  0.00     0.057 A 
ATOM     20  C   UNL A   1      34.084  35.076  32.760  1.00  0.00     0.031 A 
ATOM     21  C   UNL A   1      33.903  34.644  29.975  1.00  0.00     0.029 A 
ATOM     22  C   UNL A   1      33.030  35.612  32.027  1.00  0.00     0.041 A 
ATOM     23  C   UNL A   1      32.926  35.382  30.659  1.00  0.00     0.023 A 
ATOM     24  Cl  UNL A   1      31.826  36.540  32.835  1.00  0.00    -0.084 Cl
BRANCH  17  25
ATOM     25  C   UNL A   1      36.448  32.874  29.046  1.00  0.00     0.262 C 
ATOM     26  O   UNL A   1      37.176  33.616  28.383  1.00  0.00    -0.268 OA
BRANCH  25  27
ATOM     27  C   UNL A   1      35.967  31.646  28.358  1.00  0.00     0.040 A 
ATOM     28  C   UNL A   1      34.639  31.680  27.880  1.00  0.00     0.015 A 
ATOM     29  C   UNL A   1      36.684  30.453  28.252  1.00  0.00     0.015 A 
ATOM     30  C   UNL A   1      34.050  30.568  27.280  1.00  0.00     0.021 A 
ATOM     31  C   UNL A   1      36.100  29.340  27.626  1.00  0.00     0.021 A 
ATOM     32  C   UNL A   1      34.790  29.402  27.143  1.00  0.00     0.041 A 
ATOM     33  Cl  UNL A   1      34.078  28.030  26.392  1.00  0.00    -0.084 Cl
ENDBRANCH  25  27
ENDBRANCH  17  25
ENDBRANCH   9  11
ENDBRANCH   7   9
ENDBRANCH   6   7
ENDBRANCH   5   6
ENDBRANCH   4   5
ENDBRANCH   3   4
ENDBRANCH   2   3
ENDBRANCH   1   2
BRANCH   1  34
ATOM     34  O   UNL A   1      41.593  26.769  28.847  1.00  0.00    -0.377 OA
BRANCH  34  35
ATOM     35  C   UNL A   1      41.204  26.706  27.488  1.00  0.00     0.188 C 
BRANCH  35  36
ATOM     36  C   UNL A   1      39.937  25.921  27.092  1.00  0.00     0.188 C 
BRANCH  36  37
ATOM     37  O   UNL A   1      40.178  24.610  26.594  1.00  0.00    -0.376 OA
BRANCH  37  38
ATOM     38  C   UNL A   1      39.944  23.496  27.441  1.00  0.00     0.202 C 
BRANCH  38  39
ATOM     39  C   UNL A   1      40.884  22.289  27.287  1.00  0.00     0.261 C 
BRANCH  39  40
ATOM     40  O   UNL A   1      42.289  22.573  27.339  1.00  0.00    -0.460 OA
BRANCH  40  41
ATOM     41  C   UNL A   1      42.925  22.798  26.171  1.00  0.00     0.338 C 
ATOM     42  O   UNL A   1      42.841  22.144  25.145  1.00  0.00    -0.246 OA
BRANCH  41  43
ATOM     43  C   UNL A   1      43.598  24.110  26.276  1.00  0.00     0.060 A 
ATOM     44  C   UNL A   1      43.620  24.951  25.156  1.00  0.00     0.016 A 
ATOM     45  C   UNL A   1      44.165  24.522  27.484  1.00  0.00     0.016 A 
ATOM     46  C   UNL A   1      44.235  26.199  25.232  1.00  0.00     0.010 A 
ATOM     47  C   UNL A   1      44.809  25.760  27.550  1.00  0.00     0.010 A 
ATOM     48  C   UNL A   1      44.875  26.588  26.415  1.00  0.00    -0.014 A 
BRANCH  48  49
ATOM     49  C   UNL A   1      45.804  27.742  26.394  1.00  0.00     0.031 A 
ATOM     50  C   UNL A   1      47.269  27.460  26.203  1.00  0.00     0.074 A 
ATOM     51  C   UNL A   1      45.366  29.006  26.515  1.00  0.00     0.049 A 
ATOM     52  N   UNL A   1      48.284  28.285  26.199  1.00  0.00    -0.248 NA
ATOM     53  C   UNL A   1      47.638  26.050  25.990  1.00  0.00     0.031 C 
ATOM     54  C   UNL A   1      43.968  29.409  26.651  1.00  0.00     0.029 A 
ATOM     55  N   UNL A   1      46.063  30.188  26.546  1.00  0.00    -0.354 N 
ATOM     56  C   UNL A   1      49.407  27.495  25.994  1.00  0.00     0.074 A 
ATOM     57  C   UNL A   1      48.957  26.124  25.907  1.00  0.00     0.031 C 
ATOM     58  C   UNL A   1      43.913  30.749  26.765  1.00  0.00     0.029 A 
ATOM     59  C   UNL A   1      45.271  31.291  26.745  1.00  0.00     0.049 A 
ATOM     60  H   UNL A   1      47.041  30.239  26.438  1.00  0.00     0.167 HD
ATOM     61  C   UNL A   1      50.700  27.879  25.882  1.00  0.00     0.037 A 
ATOM     62  C   UNL A   1      45.611  32.583  26.916  1.00  0.00     0.037 A 
ATOM     63  C   UNL A   1      51.145  29.244  25.973  1.00  0.00     0.049 A 
ATOM     64  C   UNL A   1      47.066  32.976  26.875  1.00  0.00     0.074 A 
ATOM     65  C   UNL A   1      52.430  29.741  25.855  1.00  0.00     0.029 A 
ATOM     66  N   UNL A   1      50.315  30.329  26.214  1.00  0.00    -0.354 N 
ATOM     67  N   UNL A   1      48.122  32.228  26.656  1.00  0.00    -0.248 NA
ATOM     68  C   UNL A   1      47.378  34.394  27.104  1.00  0.00     0.031 C 
ATOM     69  C   UNL A   1      52.388  31.118  26.088  1.00  0.00     0.029 A 
ATOM     70  C   UNL A   1      51.067  31.490  26.283  1.00  0.00     0.049 A 
ATOM     71  H   UNL A   1      49.338  30.281  26.322  1.00  0.00     0.167 HD
ATOM     72  C   UNL A   1      49.214  33.088  26.684  1.00  0.00     0.074 A 
ATOM     73  C   UNL A   1      48.692  34.416  26.931  1.00  0.00     0.031 C 
ATOM     74  C   UNL A   1      50.531  32.807  26.517  1.00  0.00     0.037 A 
BRANCH  61  75
ATOM     75  C   UNL A   1      51.728  26.802  25.691  1.00  0.00     0.057 A 
ATOM     76  C   UNL A   1      52.154  26.395  24.420  1.00  0.00     0.134 A 
ATOM     77  C   UNL A   1      52.318  26.181  26.799  1.00  0.00     0.134 A 
ATOM     78  F   UNL A   1      51.616  26.936  23.316  1.00  0.00    -0.206 F 
ATOM     79  C   UNL A   1      53.112  25.393  24.258  1.00  0.00     0.040 A 
ATOM     80  C   UNL A   1      53.299  25.198  26.649  1.00  0.00     0.040 A 
ATOM     81  F   UNL A   1      51.957  26.522  28.045  1.00  0.00    -0.206 F 
ATOM     82  C   UNL A   1      53.694  24.798  25.375  1.00  0.00     0.006 A 
ENDBRANCH  61  75
BRANCH  62  83
ATOM     83  C   UNL A   1      44.562  33.609  27.160  1.00  0.00     0.057 A 
ATOM     84  C   UNL A   1      44.090  33.872  28.452  1.00  0.00     0.134 A 
ATOM     85  C   UNL A   1      43.978  34.321  26.106  1.00  0.00     0.134 A 
ATOM     86  F   UNL A   1      44.589  33.203  29.503  1.00  0.00    -0.206 F 
ATOM     87  C   UNL A   1      43.062  34.788  28.684  1.00  0.00     0.040 A 
ATOM     88  C   UNL A   1      42.970  35.262  26.326  1.00  0.00     0.040 A 
ATOM     89  F   UNL A   1      44.382  34.116  24.843  1.00  0.00    -0.206 F 
ATOM     90  C   UNL A   1      42.502  35.490  27.619  1.00  0.00     0.006 A 
ENDBRANCH  62  83
BRANCH  74  91
ATOM     91  C   UNL A   1      51.495  33.958  26.545  1.00  0.00     0.057 A 
ATOM     92  C   UNL A   1      52.065  34.427  27.736  1.00  0.00     0.134 A 
ATOM     93  C   UNL A   1      51.897  34.576  25.352  1.00  0.00     0.134 A 
ATOM     94  F   UNL A   1      51.717  33.887  28.915  1.00  0.00    -0.206 F 
ATOM     95  C   UNL A   1      52.977  35.484  27.742  1.00  0.00     0.040 A 
ATOM     96  C   UNL A   1      52.832  35.611  25.343  1.00  0.00     0.040 A 
ATOM     97  F   UNL A   1      51.403  34.168  24.173  1.00  0.00    -0.206 F 
ATOM     98  C   UNL A   1      53.368  36.074  26.542  1.00  0.00     0.006 A 
ENDBRANCH  74  91
ENDBRANCH  48  49
ENDBRANCH  41  43
ENDBRANCH  40  41
ENDBRANCH  39  40
ENDBRANCH  38  39
ENDBRANCH  37  38
ENDBRANCH  36  37
ENDBRANCH  35  36
ENDBRANCH  34  35
ENDBRANCH   1  34
TORSDOF 23
ENDMDL
