MODEL 1
REMARK VINA RESULT:      -9.2      0.000      0.000
REMARK SMILES CN(CCCC(=O)OCCOCCOCCOCCOC(=O)c1ccc(-c2c3nc(c(-c4c(F)cccc4F)c4ccc([nH]4)c(-c4c(F)cccc4F)c4nc(c(-c5c(F)cccc5F)c5ccc2[nH]5)C=C4)C=C3)cc1)C(=O)c1ccc(Br)o1
REMARK SMILES IDX 12 1 11 2 10 3 9 4 8 5 6 6 7 7 5 8 4 9 3 10 2 11 1 12 77 13
REMARK SMILES IDX 78 14 79 15 80 16 84 17 81 18 82 19 83 20 13 21 14 22 15 23
REMARK SMILES IDX 16 24 17 25 18 26 19 27 20 28 21 29 22 30 23 31 24 32 76 33
REMARK SMILES IDX 25 34 75 35 26 36 27 37 28 38 69 39 29 40 74 41 68 42 70 43
REMARK SMILES IDX 30 44 73 45 67 46 66 47 31 49 57 50 40 51 56 52 41 53 44 54
REMARK SMILES IDX 55 55 71 56 42 57 43 58 54 60 72 61 45 62 32 63 33 64 38 65
REMARK SMILES IDX 34 66 35 67 37 68 39 69 36 70 58 71 59 72 64 73 60 74 61 75
REMARK SMILES IDX 63 76 65 77 62 78 46 79 47 80 52 81 48 82 49 83 51 84 53 85
REMARK SMILES IDX 50 86
REMARK H PARENT 70 48 44 59
REMARK Flexibility Score: inf
ROOT
ATOM      1  C   UNL A   1      40.408  21.157  26.786  1.00  0.00     0.188 C 
ENDROOT
BRANCH   1   2
ATOM      2  O   UNL A   1      39.720  22.072  25.953  1.00  0.00    -0.376 OA
BRANCH   2   3
ATOM      3  C   UNL A   1      38.830  22.990  26.549  1.00  0.00     0.202 C 
BRANCH   3   4
ATOM      4  C   UNL A   1      37.791  23.706  25.687  1.00  0.00     0.261 C 
BRANCH   4   5
ATOM      5  O   UNL A   1      37.345  23.057  24.496  1.00  0.00    -0.463 OA
BRANCH   5   6
ATOM      6  C   UNL A   1      36.164  23.395  23.941  1.00  0.00     0.305 C 
ATOM      7  O   UNL A   1      35.847  23.148  22.785  1.00  0.00    -0.252 OA
BRANCH   6   8
ATOM      8  C   UNL A   1      35.226  24.060  24.939  1.00  0.00     0.124 C 
BRANCH   8   9
ATOM      9  C   UNL A   1      34.214  25.079  24.409  1.00  0.00     0.033 C 
BRANCH   9  10
ATOM     10  C   UNL A   1      33.309  25.786  25.425  1.00  0.00     0.120 C 
BRANCH  10  11
ATOM     11  N   UNL A   1      32.652  27.002  24.950  1.00  0.00    -0.339 N 
ATOM     12  C   UNL A   1      33.519  27.984  24.316  1.00  0.00     0.147 C 
BRANCH  11  13
ATOM     13  C   UNL A   1      31.272  27.193  24.731  1.00  0.00     0.289 C 
ATOM     14  O   UNL A   1      30.462  26.427  25.255  1.00  0.00    -0.265 OA
BRANCH  13  15
ATOM     15  C   UNL A   1      30.790  28.219  23.827  1.00  0.00     0.193 A 
ATOM     16  C   UNL A   1      30.480  28.131  22.479  1.00  0.00     0.057 A 
ATOM     17  O   UNL A   1      30.288  29.394  24.326  1.00  0.00    -0.444 OA
ATOM     18  C   UNL A   1      29.801  29.321  22.127  1.00  0.00     0.059 A 
ATOM     19  C   UNL A   1      29.669  30.039  23.292  1.00  0.00     0.170 A 
ATOM     20  Br  UNL A   1      28.774  31.676  23.426  1.00  0.00    -0.008 Br
ENDBRANCH  13  15
ENDBRANCH  11  13
ENDBRANCH  10  11
ENDBRANCH   9  10
ENDBRANCH   8   9
ENDBRANCH   6   8
ENDBRANCH   5   6
ENDBRANCH   4   5
ENDBRANCH   3   4
ENDBRANCH   2   3
ENDBRANCH   1   2
BRANCH   1  21
ATOM     21  C   UNL A   1      41.794  20.741  26.250  1.00  0.00     0.188 C 
BRANCH  21  22
ATOM     22  O   UNL A   1      42.134  19.360  26.163  1.00  0.00    -0.377 OA
BRANCH  22  23
ATOM     23  C   UNL A   1      43.417  18.984  25.666  1.00  0.00     0.188 C 
BRANCH  23  24
ATOM     24  C   UNL A   1      44.179  19.924  24.700  1.00  0.00     0.188 C 
BRANCH  24  25
ATOM     25  O   UNL A   1      45.552  20.103  24.996  1.00  0.00    -0.376 OA
BRANCH  25  26
ATOM     26  C   UNL A   1      46.019  21.419  25.245  1.00  0.00     0.202 C 
BRANCH  26  27
ATOM     27  C   UNL A   1      45.266  22.287  26.269  1.00  0.00     0.261 C 
BRANCH  27  28
ATOM     28  O   UNL A   1      45.046  23.660  25.907  1.00  0.00    -0.460 OA
BRANCH  28  29
ATOM     29  C   UNL A   1      43.892  23.972  25.285  1.00  0.00     0.338 C 
ATOM     30  O   UNL A   1      43.421  23.447  24.286  1.00  0.00    -0.246 OA
BRANCH  29  31
ATOM     31  C   UNL A   1      43.173  24.935  26.140  1.00  0.00     0.060 A 
ATOM     32  C   UNL A   1      43.537  26.289  26.107  1.00  0.00     0.016 A 
ATOM     33  C   UNL A   1      42.137  24.497  26.967  1.00  0.00     0.016 A 
ATOM     34  C   UNL A   1      42.890  27.206  26.932  1.00  0.00     0.010 A 
ATOM     35  C   UNL A   1      41.514  25.409  27.820  1.00  0.00     0.010 A 
ATOM     36  C   UNL A   1      41.918  26.757  27.832  1.00  0.00    -0.014 A 
BRANCH  36  37
ATOM     37  C   UNL A   1      41.510  27.636  28.952  1.00  0.00     0.031 A 
ATOM     38  C   UNL A   1      42.283  27.535  30.237  1.00  0.00     0.074 A 
ATOM     39  C   UNL A   1      40.505  28.519  28.826  1.00  0.00     0.049 A 
ATOM     40  N   UNL A   1      42.082  28.136  31.380  1.00  0.00    -0.248 NA
ATOM     41  C   UNL A   1      43.441  26.622  30.231  1.00  0.00     0.031 C 
ATOM     42  C   UNL A   1      39.727  28.750  27.612  1.00  0.00     0.029 A 
ATOM     43  N   UNL A   1      39.964  29.379  29.748  1.00  0.00    -0.354 N 
ATOM     44  C   UNL A   1      43.078  27.670  32.229  1.00  0.00     0.074 A 
ATOM     45  C   UNL A   1      43.864  26.713  31.482  1.00  0.00     0.031 C 
ATOM     46  C   UNL A   1      38.791  29.682  27.870  1.00  0.00     0.029 A 
ATOM     47  C   UNL A   1      38.884  30.080  29.273  1.00  0.00     0.049 A 
ATOM     48  H   UNL A   1      40.317  29.484  30.661  1.00  0.00     0.167 HD
ATOM     49  C   UNL A   1      43.320  28.013  33.515  1.00  0.00     0.037 A 
ATOM     50  C   UNL A   1      38.050  30.923  29.914  1.00  0.00     0.037 A 
ATOM     51  C   UNL A   1      42.530  28.962  34.254  1.00  0.00     0.049 A 
ATOM     52  C   UNL A   1      38.283  31.221  31.374  1.00  0.00     0.074 A 
ATOM     53  C   UNL A   1      42.695  29.389  35.559  1.00  0.00     0.029 A 
ATOM     54  N   UNL A   1      41.420  29.623  33.751  1.00  0.00    -0.354 N 
ATOM     55  N   UNL A   1      39.234  30.788  32.167  1.00  0.00    -0.248 NA
ATOM     56  C   UNL A   1      37.325  32.125  32.028  1.00  0.00     0.031 C 
ATOM     57  C   UNL A   1      41.647  30.261  35.866  1.00  0.00     0.029 A 
ATOM     58  C   UNL A   1      40.869  30.431  34.731  1.00  0.00     0.049 A 
ATOM     59  H   UNL A   1      41.074  29.532  32.833  1.00  0.00     0.167 HD
ATOM     60  C   UNL A   1      39.008  31.392  33.400  1.00  0.00     0.074 A 
ATOM     61  C   UNL A   1      37.838  32.230  33.244  1.00  0.00     0.031 C 
ATOM     62  C   UNL A   1      39.708  31.267  34.556  1.00  0.00     0.037 A 
BRANCH  49  63
ATOM     63  C   UNL A   1      44.459  27.328  34.212  1.00  0.00     0.057 A 
ATOM     64  C   UNL A   1      44.342  26.034  34.737  1.00  0.00     0.134 A 
ATOM     65  C   UNL A   1      45.699  27.966  34.341  1.00  0.00     0.134 A 
ATOM     66  F   UNL A   1      43.176  25.373  34.665  1.00  0.00    -0.206 F 
ATOM     67  C   UNL A   1      45.409  25.410  35.386  1.00  0.00     0.040 A 
ATOM     68  C   UNL A   1      46.782  27.342  34.960  1.00  0.00     0.040 A 
ATOM     69  F   UNL A   1      45.880  29.206  33.862  1.00  0.00    -0.206 F 
ATOM     70  C   UNL A   1      46.636  26.062  35.491  1.00  0.00     0.006 A 
ENDBRANCH  49  63
BRANCH  50  71
ATOM     71  C   UNL A   1      36.902  31.530  29.193  1.00  0.00     0.057 A 
ATOM     72  C   UNL A   1      35.754  30.786  28.897  1.00  0.00     0.134 A 
ATOM     73  C   UNL A   1      36.936  32.860  28.754  1.00  0.00     0.134 A 
ATOM     74  F   UNL A   1      35.669  29.500  29.267  1.00  0.00    -0.206 F 
ATOM     75  C   UNL A   1      34.691  31.334  28.175  1.00  0.00     0.040 A 
ATOM     76  C   UNL A   1      35.869  33.429  28.057  1.00  0.00     0.040 A 
ATOM     77  F   UNL A   1      38.008  33.628  29.003  1.00  0.00    -0.206 F 
ATOM     78  C   UNL A   1      34.746  32.662  27.759  1.00  0.00     0.006 A 
ENDBRANCH  50  71
BRANCH  62  79
ATOM     79  C   UNL A   1      39.256  32.088  35.731  1.00  0.00     0.057 A 
ATOM     80  C   UNL A   1      39.692  33.403  35.933  1.00  0.00     0.134 A 
ATOM     81  C   UNL A   1      38.330  31.567  36.645  1.00  0.00     0.134 A 
ATOM     82  F   UNL A   1      40.584  33.960  35.101  1.00  0.00    -0.206 F 
ATOM     83  C   UNL A   1      39.244  34.161  37.017  1.00  0.00     0.040 A 
ATOM     84  C   UNL A   1      37.851  32.325  37.713  1.00  0.00     0.040 A 
ATOM     85  F   UNL A   1      37.860  30.318  36.504  1.00  0.00    -0.206 F 
ATOM     86  C   UNL A   1      38.314  33.625  37.906  1.00  0.00     0.006 A 
ENDBRANCH  62  79
ENDBRANCH  36  37
ENDBRANCH  29  31
ENDBRANCH  28  29
ENDBRANCH  27  28
ENDBRANCH  26  27
ENDBRANCH  25  26
ENDBRANCH  24  25
ENDBRANCH  23  24
ENDBRANCH  22  23
ENDBRANCH  21  22
ENDBRANCH   1  21
TORSDOF 25
ENDMDL
MODEL 2
REMARK VINA RESULT:      -8.9      4.271      8.845
REMARK SMILES CN(CCCC(=O)OCCOCCOCCOCCOC(=O)c1ccc(-c2c3nc(c(-c4c(F)cccc4F)c4ccc([nH]4)c(-c4c(F)cccc4F)c4nc(c(-c5c(F)cccc5F)c5ccc2[nH]5)C=C4)C=C3)cc1)C(=O)c1ccc(Br)o1
REMARK SMILES IDX 12 1 11 2 10 3 9 4 8 5 6 6 7 7 5 8 4 9 3 10 2 11 1 12 77 13
REMARK SMILES IDX 78 14 79 15 80 16 84 17 81 18 82 19 83 20 13 21 14 22 15 23
REMARK SMILES IDX 16 24 17 25 18 26 19 27 20 28 21 29 22 30 23 31 24 32 76 33
REMARK SMILES IDX 25 34 75 35 26 36 27 37 28 38 69 39 29 40 74 41 68 42 70 43
REMARK SMILES IDX 30 44 73 45 67 46 66 47 31 49 57 50 40 51 56 52 41 53 44 54
REMARK SMILES IDX 55 55 71 56 42 57 43 58 54 60 72 61 45 62 32 63 33 64 38 65
REMARK SMILES IDX 34 66 35 67 37 68 39 69 36 70 58 71 59 72 64 73 60 74 61 75
REMARK SMILES IDX 63 76 65 77 62 78 46 79 47 80 52 81 48 82 49 83 51 84 53 85
REMARK SMILES IDX 50 86
REMARK H PARENT 70 48 44 59
REMARK Flexibility Score: inf
ROOT
ATOM      1  C   UNL A   1      31.800  25.563  22.837  1.00  0.00     0.188 C 
ENDROOT
BRANCH   1   2
ATOM      2  O   UNL A   1      33.146  25.978  22.969  1.00  0.00    -0.376 OA
BRANCH   2   3
ATOM      3  C   UNL A   1      33.526  26.678  24.133  1.00  0.00     0.202 C 
BRANCH   3   4
ATOM      4  C   UNL A   1      32.458  27.148  25.118  1.00  0.00     0.261 C 
BRANCH   4   5
ATOM      5  O   UNL A   1      32.731  28.310  25.901  1.00  0.00    -0.463 OA
BRANCH   5   6
ATOM      6  C   UNL A   1      31.957  29.408  25.781  1.00  0.00     0.305 C 
ATOM      7  O   UNL A   1      31.140  29.582  24.887  1.00  0.00    -0.252 OA
BRANCH   6   8
ATOM      8  C   UNL A   1      32.159  30.385  26.931  1.00  0.00     0.124 C 
BRANCH   8   9
ATOM      9  C   UNL A   1      33.435  31.230  26.941  1.00  0.00     0.033 C 
BRANCH   9  10
ATOM     10  C   UNL A   1      34.029  31.616  28.302  1.00  0.00     0.120 C 
BRANCH  10  11
ATOM     11  N   UNL A   1      34.376  33.026  28.466  1.00  0.00    -0.339 N 
ATOM     12  C   UNL A   1      35.646  33.437  27.886  1.00  0.00     0.147 C 
BRANCH  11  13
ATOM     13  C   UNL A   1      33.506  34.081  28.810  1.00  0.00     0.289 C 
ATOM     14  O   UNL A   1      32.660  34.459  27.998  1.00  0.00    -0.265 OA
BRANCH  13  15
ATOM     15  C   UNL A   1      33.647  34.791  30.065  1.00  0.00     0.193 A 
ATOM     16  C   UNL A   1      32.816  35.742  30.638  1.00  0.00     0.057 A 
ATOM     17  O   UNL A   1      34.538  34.350  31.010  1.00  0.00    -0.444 OA
ATOM     18  C   UNL A   1      33.245  35.923  31.973  1.00  0.00     0.059 A 
ATOM     19  C   UNL A   1      34.266  35.024  32.167  1.00  0.00     0.170 A 
ATOM     20  Br  UNL A   1      35.161  34.779  33.791  1.00  0.00    -0.008 Br
ENDBRANCH  13  15
ENDBRANCH  11  13
ENDBRANCH  10  11
ENDBRANCH   9  10
ENDBRANCH   8   9
ENDBRANCH   6   8
ENDBRANCH   5   6
ENDBRANCH   4   5
ENDBRANCH   3   4
ENDBRANCH   2   3
ENDBRANCH   1   2
BRANCH   1  21
ATOM     21  C   UNL A   1      31.562  24.080  23.196  1.00  0.00     0.188 C 
BRANCH  21  22
ATOM     22  O   UNL A   1      32.519  23.097  22.814  1.00  0.00    -0.377 OA
BRANCH  22  23
ATOM     23  C   UNL A   1      32.306  21.733  23.176  1.00  0.00     0.188 C 
BRANCH  23  24
ATOM     24  C   UNL A   1      33.273  21.034  24.160  1.00  0.00     0.188 C 
BRANCH  24  25
ATOM     25  O   UNL A   1      34.439  21.769  24.481  1.00  0.00    -0.376 OA
BRANCH  25  26
ATOM     26  C   UNL A   1      35.292  21.266  25.497  1.00  0.00     0.202 C 
BRANCH  26  27
ATOM     27  C   UNL A   1      36.628  20.623  25.086  1.00  0.00     0.261 C 
BRANCH  27  28
ATOM     28  O   UNL A   1      37.776  21.488  25.060  1.00  0.00    -0.460 OA
BRANCH  28  29
ATOM     29  C   UNL A   1      38.864  21.114  25.761  1.00  0.00     0.338 C 
ATOM     30  O   UNL A   1      39.414  20.022  25.753  1.00  0.00    -0.246 OA
BRANCH  29  31
ATOM     31  C   UNL A   1      39.417  22.323  26.400  1.00  0.00     0.060 A 
ATOM     32  C   UNL A   1      38.871  23.576  26.088  1.00  0.00     0.016 A 
ATOM     33  C   UNL A   1      40.470  22.213  27.310  1.00  0.00     0.016 A 
ATOM     34  C   UNL A   1      39.403  24.731  26.657  1.00  0.00     0.010 A 
ATOM     35  C   UNL A   1      41.027  23.372  27.852  1.00  0.00     0.010 A 
ATOM     36  C   UNL A   1      40.519  24.635  27.494  1.00  0.00    -0.014 A 
BRANCH  36  37
ATOM     37  C   UNL A   1      41.308  25.853  27.789  1.00  0.00     0.031 A 
ATOM     38  C   UNL A   1      40.641  26.941  28.585  1.00  0.00     0.074 A 
ATOM     39  C   UNL A   1      42.584  25.982  27.391  1.00  0.00     0.049 A 
ATOM     40  N   UNL A   1      41.085  28.126  28.913  1.00  0.00    -0.248 NA
ATOM     41  C   UNL A   1      39.282  26.650  29.075  1.00  0.00     0.031 C 
ATOM     42  C   UNL A   1      43.353  24.971  26.670  1.00  0.00     0.029 A 
ATOM     43  N   UNL A   1      43.453  27.034  27.534  1.00  0.00    -0.354 N 
ATOM     44  C   UNL A   1      40.061  28.723  29.635  1.00  0.00     0.074 A 
ATOM     45  C   UNL A   1      38.961  27.786  29.674  1.00  0.00     0.031 C 
ATOM     46  C   UNL A   1      44.579  25.461  26.415  1.00  0.00     0.029 A 
ATOM     47  C   UNL A   1      44.665  26.830  26.922  1.00  0.00     0.049 A 
ATOM     48  H   UNL A   1      43.229  27.856  28.028  1.00  0.00     0.167 HD
ATOM     49  C   UNL A   1      40.041  29.944  30.220  1.00  0.00     0.037 A 
ATOM     50  C   UNL A   1      45.707  27.669  26.767  1.00  0.00     0.037 A 
ATOM     51  C   UNL A   1      41.137  30.874  30.172  1.00  0.00     0.049 A 
ATOM     52  C   UNL A   1      45.627  29.059  27.347  1.00  0.00     0.074 A 
ATOM     53  C   UNL A   1      41.224  32.132  30.739  1.00  0.00     0.029 A 
ATOM     54  N   UNL A   1      42.334  30.647  29.510  1.00  0.00    -0.354 N 
ATOM     55  N   UNL A   1      44.662  29.614  28.042  1.00  0.00    -0.248 NA
ATOM     56  C   UNL A   1      46.783  29.940  27.122  1.00  0.00     0.031 C 
ATOM     57  C   UNL A   1      42.450  32.692  30.367  1.00  0.00     0.029 A 
ATOM     58  C   UNL A   1      43.155  31.756  29.627  1.00  0.00     0.049 A 
ATOM     59  H   UNL A   1      42.567  29.819  29.029  1.00  0.00     0.167 HD
ATOM     60  C   UNL A   1      45.108  30.892  28.363  1.00  0.00     0.074 A 
ATOM     61  C   UNL A   1      46.434  31.024  27.799  1.00  0.00     0.031 C 
ATOM     62  C   UNL A   1      44.477  31.866  29.065  1.00  0.00     0.037 A 
BRANCH  49  63
ATOM     63  C   UNL A   1      38.780  30.354  30.923  1.00  0.00     0.057 A 
ATOM     64  C   UNL A   1      37.757  31.055  30.273  1.00  0.00     0.134 A 
ATOM     65  C   UNL A   1      38.579  30.021  32.269  1.00  0.00     0.134 A 
ATOM     66  F   UNL A   1      37.893  31.423  28.989  1.00  0.00    -0.206 F 
ATOM     67  C   UNL A   1      36.591  31.433  30.942  1.00  0.00     0.040 A 
ATOM     68  C   UNL A   1      37.405  30.365  32.940  1.00  0.00     0.040 A 
ATOM     69  F   UNL A   1      39.518  29.350  32.953  1.00  0.00    -0.206 F 
ATOM     70  C   UNL A   1      36.409  31.080  32.277  1.00  0.00     0.006 A 
ENDBRANCH  49  63
BRANCH  50  71
ATOM     71  C   UNL A   1      46.909  27.235  26.010  1.00  0.00     0.057 A 
ATOM     72  C   UNL A   1      48.038  26.729  26.665  1.00  0.00     0.134 A 
ATOM     73  C   UNL A   1      46.972  27.343  24.615  1.00  0.00     0.134 A 
ATOM     74  F   UNL A   1      48.052  26.623  28.002  1.00  0.00    -0.206 F 
ATOM     75  C   UNL A   1      49.191  26.366  25.965  1.00  0.00     0.040 A 
ATOM     76  C   UNL A   1      48.106  26.956  23.900  1.00  0.00     0.040 A 
ATOM     77  F   UNL A   1      45.925  27.821  23.925  1.00  0.00    -0.206 F 
ATOM     78  C   UNL A   1      49.223  26.474  24.577  1.00  0.00     0.006 A 
ENDBRANCH  50  71
BRANCH  62  79
ATOM     79  C   UNL A   1      45.230  33.146  29.302  1.00  0.00     0.057 A 
ATOM     80  C   UNL A   1      46.114  33.303  30.376  1.00  0.00     0.134 A 
ATOM     81  C   UNL A   1      45.103  34.218  28.409  1.00  0.00     0.134 A 
ATOM     82  F   UNL A   1      46.276  32.319  31.273  1.00  0.00    -0.206 F 
ATOM     83  C   UNL A   1      46.824  34.490  30.569  1.00  0.00     0.040 A 
ATOM     84  C   UNL A   1      45.832  35.397  28.572  1.00  0.00     0.040 A 
ATOM     85  F   UNL A   1      44.284  34.132  27.349  1.00  0.00    -0.206 F 
ATOM     86  C   UNL A   1      46.690  35.538  29.660  1.00  0.00     0.006 A 
ENDBRANCH  62  79
ENDBRANCH  36  37
ENDBRANCH  29  31
ENDBRANCH  28  29
ENDBRANCH  27  28
ENDBRANCH  26  27
ENDBRANCH  25  26
ENDBRANCH  24  25
ENDBRANCH  23  24
ENDBRANCH  22  23
ENDBRANCH  21  22
ENDBRANCH   1  21
TORSDOF 25
ENDMDL
MODEL 3
REMARK VINA RESULT:      -8.7      2.737      5.170
REMARK SMILES CN(CCCC(=O)OCCOCCOCCOCCOC(=O)c1ccc(-c2c3nc(c(-c4c(F)cccc4F)c4ccc([nH]4)c(-c4c(F)cccc4F)c4nc(c(-c5c(F)cccc5F)c5ccc2[nH]5)C=C4)C=C3)cc1)C(=O)c1ccc(Br)o1
REMARK SMILES IDX 12 1 11 2 10 3 9 4 8 5 6 6 7 7 5 8 4 9 3 10 2 11 1 12 77 13
REMARK SMILES IDX 78 14 79 15 80 16 84 17 81 18 82 19 83 20 13 21 14 22 15 23
REMARK SMILES IDX 16 24 17 25 18 26 19 27 20 28 21 29 22 30 23 31 24 32 76 33
REMARK SMILES IDX 25 34 75 35 26 36 27 37 28 38 69 39 29 40 74 41 68 42 70 43
REMARK SMILES IDX 30 44 73 45 67 46 66 47 31 49 57 50 40 51 56 52 41 53 44 54
REMARK SMILES IDX 55 55 71 56 42 57 43 58 54 60 72 61 45 62 32 63 33 64 38 65
REMARK SMILES IDX 34 66 35 67 37 68 39 69 36 70 58 71 59 72 64 73 60 74 61 75
REMARK SMILES IDX 63 76 65 77 62 78 46 79 47 80 52 81 48 82 49 83 51 84 53 85
REMARK SMILES IDX 50 86
REMARK H PARENT 70 48 44 59
REMARK Flexibility Score: inf
ROOT
ATOM      1  C   UNL A   1      33.333  26.527  26.125  1.00  0.00     0.188 C 
ENDROOT
BRANCH   1   2
ATOM      2  O   UNL A   1      33.823  27.852  26.203  1.00  0.00    -0.376 OA
BRANCH   2   3
ATOM      3  C   UNL A   1      33.103  28.877  25.554  1.00  0.00     0.202 C 
BRANCH   3   4
ATOM      4  C   UNL A   1      31.688  28.606  25.047  1.00  0.00     0.261 C 
BRANCH   4   5
ATOM      5  O   UNL A   1      31.469  28.606  23.636  1.00  0.00    -0.463 OA
BRANCH   5   6
ATOM      6  C   UNL A   1      30.441  27.911  23.109  1.00  0.00     0.305 C 
ATOM      7  O   UNL A   1      29.922  28.158  22.029  1.00  0.00    -0.252 OA
BRANCH   6   8
ATOM      8  C   UNL A   1      30.037  26.729  23.979  1.00  0.00     0.124 C 
BRANCH   8   9
ATOM      9  C   UNL A   1      30.549  25.340  23.590  1.00  0.00     0.033 C 
BRANCH   9  10
ATOM     10  C   UNL A   1      30.620  24.268  24.684  1.00  0.00     0.120 C 
BRANCH  10  11
ATOM     11  N   UNL A   1      31.523  23.150  24.419  1.00  0.00    -0.339 N 
ATOM     12  C   UNL A   1      32.114  23.114  23.089  1.00  0.00     0.147 C 
BRANCH  11  13
ATOM     13  C   UNL A   1      32.139  22.311  25.370  1.00  0.00     0.289 C 
ATOM     14  O   UNL A   1      32.270  22.702  26.531  1.00  0.00    -0.265 OA
BRANCH  13  15
ATOM     15  C   UNL A   1      32.706  21.033  24.989  1.00  0.00     0.193 A 
ATOM     16  C   UNL A   1      34.005  20.719  24.620  1.00  0.00     0.057 A 
ATOM     17  O   UNL A   1      32.023  19.872  25.250  1.00  0.00    -0.444 OA
ATOM     18  C   UNL A   1      34.109  19.308  24.610  1.00  0.00     0.059 A 
ATOM     19  C   UNL A   1      32.892  18.838  25.043  1.00  0.00     0.170 A 
ATOM     20  Br  UNL A   1      32.491  17.028  25.296  1.00  0.00    -0.008 Br
ENDBRANCH  13  15
ENDBRANCH  11  13
ENDBRANCH  10  11
ENDBRANCH   9  10
ENDBRANCH   8   9
ENDBRANCH   6   8
ENDBRANCH   5   6
ENDBRANCH   4   5
ENDBRANCH   3   4
ENDBRANCH   2   3
ENDBRANCH   1   2
BRANCH   1  21
ATOM     21  C   UNL A   1      34.096  25.633  25.125  1.00  0.00     0.188 C 
BRANCH  21  22
ATOM     22  O   UNL A   1      35.380  25.121  25.469  1.00  0.00    -0.377 OA
BRANCH  22  23
ATOM     23  C   UNL A   1      35.580  23.709  25.525  1.00  0.00     0.188 C 
BRANCH  23  24
ATOM     24  C   UNL A   1      36.942  23.103  25.109  1.00  0.00     0.188 C 
BRANCH  24  25
ATOM     25  O   UNL A   1      37.372  22.002  25.887  1.00  0.00    -0.376 OA
BRANCH  25  26
ATOM     26  C   UNL A   1      38.671  21.482  25.655  1.00  0.00     0.202 C 
BRANCH  26  27
ATOM     27  C   UNL A   1      39.847  22.043  26.474  1.00  0.00     0.261 C 
BRANCH  27  28
ATOM     28  O   UNL A   1      40.124  23.445  26.322  1.00  0.00    -0.460 OA
BRANCH  28  29
ATOM     29  C   UNL A   1      41.265  23.924  26.855  1.00  0.00     0.338 C 
ATOM     30  O   UNL A   1      42.402  23.514  26.668  1.00  0.00    -0.246 OA
BRANCH  29  31
ATOM     31  C   UNL A   1      40.935  25.178  27.557  1.00  0.00     0.060 A 
ATOM     32  C   UNL A   1      41.799  26.277  27.442  1.00  0.00     0.016 A 
ATOM     33  C   UNL A   1      39.771  25.266  28.323  1.00  0.00     0.016 A 
ATOM     34  C   UNL A   1      41.520  27.458  28.125  1.00  0.00     0.010 A 
ATOM     35  C   UNL A   1      39.511  26.437  29.036  1.00  0.00     0.010 A 
ATOM     36  C   UNL A   1      40.406  27.520  28.969  1.00  0.00    -0.014 A 
BRANCH  36  37
ATOM     37  C   UNL A   1      40.317  28.609  29.969  1.00  0.00     0.031 A 
ATOM     38  C   UNL A   1      41.293  28.588  31.113  1.00  0.00     0.074 A 
ATOM     39  C   UNL A   1      39.421  29.602  29.854  1.00  0.00     0.049 A 
ATOM     40  N   UNL A   1      41.378  29.379  32.151  1.00  0.00    -0.248 NA
ATOM     41  C   UNL A   1      42.312  27.524  31.082  1.00  0.00     0.031 C 
ATOM     42  C   UNL A   1      38.468  29.761  28.758  1.00  0.00     0.029 A 
ATOM     43  N   UNL A   1      39.164  30.662  30.685  1.00  0.00    -0.354 N 
ATOM     44  C   UNL A   1      42.448  28.903  32.897  1.00  0.00     0.074 A 
ATOM     45  C   UNL A   1      42.964  27.738  32.214  1.00  0.00     0.031 C 
ATOM     46  C   UNL A   1      37.714  30.849  28.995  1.00  0.00     0.029 A 
ATOM     47  C   UNL A   1      38.108  31.437  30.274  1.00  0.00     0.049 A 
ATOM     48  H   UNL A   1      39.687  30.850  31.498  1.00  0.00     0.167 HD
ATOM     49  C   UNL A   1      42.959  29.397  34.049  1.00  0.00     0.037 A 
ATOM     50  C   UNL A   1      37.512  32.481  30.883  1.00  0.00     0.037 A 
ATOM     51  C   UNL A   1      42.437  30.553  34.727  1.00  0.00     0.049 A 
ATOM     52  C   UNL A   1      38.041  32.958  32.213  1.00  0.00     0.074 A 
ATOM     53  C   UNL A   1      42.886  31.142  35.895  1.00  0.00     0.029 A 
ATOM     54  N   UNL A   1      41.342  31.288  34.301  1.00  0.00    -0.354 N 
ATOM     55  N   UNL A   1      39.061  32.513  32.908  1.00  0.00    -0.248 NA
ATOM     56  C   UNL A   1      37.333  34.082  32.843  1.00  0.00     0.031 C 
ATOM     57  C   UNL A   1      42.024  32.196  36.208  1.00  0.00     0.029 A 
ATOM     58  C   UNL A   1      41.080  32.308  35.200  1.00  0.00     0.049 A 
ATOM     59  H   UNL A   1      40.827  31.112  33.480  1.00  0.00     0.167 HD
ATOM     60  C   UNL A   1      39.138  33.323  34.036  1.00  0.00     0.074 A 
ATOM     61  C   UNL A   1      38.069  34.293  33.925  1.00  0.00     0.031 C 
ATOM     62  C   UNL A   1      40.016  33.270  35.069  1.00  0.00     0.037 A 
BRANCH  49  63
ATOM     63  C   UNL A   1      44.114  28.662  34.665  1.00  0.00     0.057 A 
ATOM     64  C   UNL A   1      45.445  29.018  34.411  1.00  0.00     0.134 A 
ATOM     65  C   UNL A   1      43.889  27.594  35.542  1.00  0.00     0.134 A 
ATOM     66  F   UNL A   1      45.732  30.020  33.564  1.00  0.00    -0.206 F 
ATOM     67  C   UNL A   1      46.510  28.323  34.987  1.00  0.00     0.040 A 
ATOM     68  C   UNL A   1      44.944  26.911  36.149  1.00  0.00     0.040 A 
ATOM     69  F   UNL A   1      42.639  27.199  35.829  1.00  0.00    -0.206 F 
ATOM     70  C   UNL A   1      46.260  27.272  35.866  1.00  0.00     0.006 A 
ENDBRANCH  49  63
BRANCH  50  71
ATOM     71  C   UNL A   1      36.334  33.136  30.260  1.00  0.00     0.057 A 
ATOM     72  C   UNL A   1      36.479  34.044  29.205  1.00  0.00     0.134 A 
ATOM     73  C   UNL A   1      35.034  32.894  30.724  1.00  0.00     0.134 A 
ATOM     74  F   UNL A   1      37.699  34.338  28.731  1.00  0.00    -0.206 F 
ATOM     75  C   UNL A   1      35.381  34.702  28.647  1.00  0.00     0.040 A 
ATOM     76  C   UNL A   1      33.924  33.522  30.157  1.00  0.00     0.040 A 
ATOM     77  F   UNL A   1      34.824  32.036  31.734  1.00  0.00    -0.206 F 
ATOM     78  C   UNL A   1      34.098  34.437  29.121  1.00  0.00     0.006 A 
ENDBRANCH  50  71
BRANCH  62  79
ATOM     79  C   UNL A   1      39.887  34.317  36.140  1.00  0.00     0.057 A 
ATOM     80  C   UNL A   1      39.158  34.096  37.315  1.00  0.00     0.134 A 
ATOM     81  C   UNL A   1      40.548  35.547  36.013  1.00  0.00     0.134 A 
ATOM     82  F   UNL A   1      38.494  32.945  37.497  1.00  0.00    -0.206 F 
ATOM     83  C   UNL A   1      39.067  35.070  38.311  1.00  0.00     0.040 A 
ATOM     84  C   UNL A   1      40.492  36.515  37.016  1.00  0.00     0.040 A 
ATOM     85  F   UNL A   1      41.277  35.821  34.920  1.00  0.00    -0.206 F 
ATOM     86  C   UNL A   1      39.743  36.281  38.167  1.00  0.00     0.006 A 
ENDBRANCH  62  79
ENDBRANCH  36  37
ENDBRANCH  29  31
ENDBRANCH  28  29
ENDBRANCH  27  28
ENDBRANCH  26  27
ENDBRANCH  25  26
ENDBRANCH  24  25
ENDBRANCH  23  24
ENDBRANCH  22  23
ENDBRANCH  21  22
ENDBRANCH   1  21
TORSDOF 25
ENDMDL
