MODEL 1
REMARK VINA RESULT:     -10.2      0.000      0.000
REMARK SMILES O=C(OCCOCCOCCOCCOC(=O)c1c(-c2ccc(Cl)cc2)noc1CO[C@@H]1CCCCO1)c1ccc(-c2c3nc(c(-c4c(F)cccc4F)c4ccc([nH]4)c(-c4c(F)cccc4F)c4nc(c(-c5c(F)cccc5F)c5ccc2[nH]5)C=C4)C=C3)cc1
REMARK SMILES IDX 10 1 9 2 8 3 7 4 6 5 5 6 4 7 3 8 2 9 1 10 38 11 39 12 91 13
REMARK SMILES IDX 40 14 90 15 41 16 42 17 43 18 84 19 44 20 89 21 83 22 85 23
REMARK SMILES IDX 45 24 88 25 82 26 81 27 46 29 72 30 55 31 71 32 56 33 59 34
REMARK SMILES IDX 70 35 86 36 57 37 58 38 69 40 87 41 60 42 47 43 48 44 53 45
REMARK SMILES IDX 49 46 50 47 52 48 54 49 51 50 73 51 74 52 79 53 75 54 76 55
REMARK SMILES IDX 78 56 80 57 77 58 61 59 62 60 67 61 63 62 64 63 66 64 68 65
REMARK SMILES IDX 65 66 11 67 12 68 13 69 14 70 15 71 16 72 17 73 18 74 19 75
REMARK SMILES IDX 29 76 27 77 28 78 20 79 21 80 26 81 22 82 25 83 23 84 24 85
REMARK SMILES IDX 30 86 31 87 32 88 33 89 37 90 34 91 36 92 35 93
REMARK H PARENT 85 28 59 39
REMARK Flexibility Score: inf
ROOT
ATOM      1  C   UNL A   1      39.508  22.309  26.670  1.00  0.00     0.188 C 
ENDROOT
BRANCH   1   2
ATOM      2  O   UNL A   1      40.593  22.273  25.755  1.00  0.00    -0.377 OA
BRANCH   2   3
ATOM      3  C   UNL A   1      41.770  21.589  26.182  1.00  0.00     0.188 C 
BRANCH   3   4
ATOM      4  C   UNL A   1      41.533  20.684  27.390  1.00  0.00     0.188 C 
BRANCH   4   5
ATOM      5  O   UNL A   1      41.657  19.337  26.932  1.00  0.00    -0.376 OA
BRANCH   5   6
ATOM      6  C   UNL A   1      42.419  19.149  25.750  1.00  0.00     0.202 C 
BRANCH   6   7
ATOM      7  C   UNL A   1      43.607  18.209  25.964  1.00  0.00     0.261 C 
BRANCH   7   8
ATOM      8  O   UNL A   1      44.632  18.439  24.982  1.00  0.00    -0.460 OA
BRANCH   8   9
ATOM      9  C   UNL A   1      44.749  19.508  24.155  1.00  0.00     0.338 C 
ATOM     10  O   UNL A   1      44.610  19.344  22.944  1.00  0.00    -0.246 OA
BRANCH   9  11
ATOM     11  C   UNL A   1      44.959  20.902  24.645  1.00  0.00     0.060 A 
ATOM     12  C   UNL A   1      45.532  21.239  25.873  1.00  0.00     0.016 A 
ATOM     13  C   UNL A   1      44.641  21.940  23.756  1.00  0.00     0.016 A 
ATOM     14  C   UNL A   1      45.712  22.566  26.249  1.00  0.00     0.010 A 
ATOM     15  C   UNL A   1      44.858  23.275  24.106  1.00  0.00     0.010 A 
ATOM     16  C   UNL A   1      45.376  23.593  25.369  1.00  0.00    -0.014 A 
BRANCH  16  17
ATOM     17  C   UNL A   1      45.480  24.995  25.823  1.00  0.00     0.031 A 
ATOM     18  C   UNL A   1      46.793  25.699  25.667  1.00  0.00     0.074 A 
ATOM     19  C   UNL A   1      44.396  25.640  26.290  1.00  0.00     0.049 A 
ATOM     20  N   UNL A   1      47.166  26.866  26.115  1.00  0.00    -0.248 NA
ATOM     21  C   UNL A   1      47.827  24.989  24.893  1.00  0.00     0.031 C 
ATOM     22  C   UNL A   1      43.046  25.076  26.374  1.00  0.00     0.029 A 
ATOM     23  N   UNL A   1      44.254  26.916  26.767  1.00  0.00    -0.354 N 
ATOM     24  C   UNL A   1      48.490  27.009  25.723  1.00  0.00     0.074 A 
ATOM     25  C   UNL A   1      48.853  25.820  24.986  1.00  0.00     0.031 C 
ATOM     26  C   UNL A   1      42.210  26.010  26.856  1.00  0.00     0.029 A 
ATOM     27  C   UNL A   1      42.976  27.208  27.183  1.00  0.00     0.049 A 
ATOM     28  H   UNL A   1      44.995  27.563  26.807  1.00  0.00     0.167 HD
ATOM     29  C   UNL A   1      49.328  28.042  25.974  1.00  0.00     0.037 A 
ATOM     30  C   UNL A   1      42.499  28.306  27.798  1.00  0.00     0.037 A 
ATOM     31  C   UNL A   1      48.934  29.224  26.688  1.00  0.00     0.049 A 
ATOM     32  C   UNL A   1      43.464  29.416  28.119  1.00  0.00     0.074 A 
ATOM     33  C   UNL A   1      49.700  30.314  27.053  1.00  0.00     0.029 A 
ATOM     34  N   UNL A   1      47.642  29.469  27.135  1.00  0.00    -0.354 N 
ATOM     35  N   UNL A   1      44.741  29.512  27.824  1.00  0.00    -0.248 NA
ATOM     36  C   UNL A   1      42.937  30.555  28.882  1.00  0.00     0.031 C 
ATOM     37  C   UNL A   1      48.875  31.209  27.746  1.00  0.00     0.029 A 
ATOM     38  C   UNL A   1      47.590  30.688  27.783  1.00  0.00     0.049 A 
ATOM     39  H   UNL A   1      46.876  28.864  27.008  1.00  0.00     0.167 HD
ATOM     40  C   UNL A   1      45.168  30.716  28.365  1.00  0.00     0.074 A 
ATOM     41  C   UNL A   1      44.007  31.330  28.979  1.00  0.00     0.031 C 
ATOM     42  C   UNL A   1      46.409  31.262  28.374  1.00  0.00     0.037 A 
BRANCH  29  43
ATOM     43  C   UNL A   1      50.751  27.888  25.535  1.00  0.00     0.057 A 
ATOM     44  C   UNL A   1      51.147  28.087  24.206  1.00  0.00     0.134 A 
ATOM     45  C   UNL A   1      51.735  27.507  26.455  1.00  0.00     0.134 A 
ATOM     46  F   UNL A   1      50.247  28.422  23.271  1.00  0.00    -0.206 F 
ATOM     47  C   UNL A   1      52.471  27.893  23.806  1.00  0.00     0.040 A 
ATOM     48  C   UNL A   1      53.065  27.328  26.070  1.00  0.00     0.040 A 
ATOM     49  F   UNL A   1      51.418  27.292  27.740  1.00  0.00    -0.206 F 
ATOM     50  C   UNL A   1      53.435  27.515  24.740  1.00  0.00     0.006 A 
ENDBRANCH  29  43
BRANCH  30  51
ATOM     51  C   UNL A   1      41.074  28.384  28.215  1.00  0.00     0.057 A 
ATOM     52  C   UNL A   1      40.093  28.913  27.370  1.00  0.00     0.134 A 
ATOM     53  C   UNL A   1      40.662  27.956  29.485  1.00  0.00     0.134 A 
ATOM     54  F   UNL A   1      40.424  29.365  26.151  1.00  0.00    -0.206 F 
ATOM     55  C   UNL A   1      38.761  29.029  27.774  1.00  0.00     0.040 A 
ATOM     56  C   UNL A   1      39.330  28.039  29.892  1.00  0.00     0.040 A 
ATOM     57  F   UNL A   1      41.550  27.443  30.349  1.00  0.00    -0.206 F 
ATOM     58  C   UNL A   1      38.375  28.585  29.038  1.00  0.00     0.006 A 
ENDBRANCH  30  51
BRANCH  42  59
ATOM     59  C   UNL A   1      46.557  32.584  29.059  1.00  0.00     0.057 A 
ATOM     60  C   UNL A   1      46.911  32.668  30.411  1.00  0.00     0.134 A 
ATOM     61  C   UNL A   1      46.392  33.779  28.349  1.00  0.00     0.134 A 
ATOM     62  F   UNL A   1      47.069  31.555  31.143  1.00  0.00    -0.206 F 
ATOM     63  C   UNL A   1      47.084  33.901  31.038  1.00  0.00     0.040 A 
ATOM     64  C   UNL A   1      46.582  35.016  28.960  1.00  0.00     0.040 A 
ATOM     65  F   UNL A   1      46.059  33.758  27.049  1.00  0.00    -0.206 F 
ATOM     66  C   UNL A   1      46.927  35.080  30.310  1.00  0.00     0.006 A 
ENDBRANCH  42  59
ENDBRANCH  16  17
ENDBRANCH   9  11
ENDBRANCH   8   9
ENDBRANCH   7   8
ENDBRANCH   6   7
ENDBRANCH   5   6
ENDBRANCH   4   5
ENDBRANCH   3   4
ENDBRANCH   2   3
ENDBRANCH   1   2
BRANCH   1  67
ATOM     67  C   UNL A   1      38.063  22.373  26.129  1.00  0.00     0.188 C 
BRANCH  67  68
ATOM     68  O   UNL A   1      37.738  23.238  25.051  1.00  0.00    -0.376 OA
BRANCH  68  69
ATOM     69  C   UNL A   1      36.818  22.808  24.058  1.00  0.00     0.202 C 
BRANCH  69  70
ATOM     70  C   UNL A   1      35.711  23.793  23.674  1.00  0.00     0.261 C 
BRANCH  70  71
ATOM     71  O   UNL A   1      34.730  23.171  22.829  1.00  0.00    -0.459 OA
BRANCH  71  72
ATOM     72  C   UNL A   1      33.423  23.529  23.008  1.00  0.00     0.344 C 
ATOM     73  O   UNL A   1      32.779  24.204  22.230  1.00  0.00    -0.246 OA
BRANCH  72  74
ATOM     74  C   UNL A   1      32.868  22.904  24.192  1.00  0.00     0.133 A 
ATOM     75  C   UNL A   1      32.446  23.510  25.413  1.00  0.00     0.128 A 
ATOM     76  C   UNL A   1      32.465  21.588  24.316  1.00  0.00     0.177 A 
ATOM     77  N   UNL A   1      31.889  22.599  26.226  1.00  0.00    -0.079 NA
ATOM     78  O   UNL A   1      31.921  21.401  25.547  1.00  0.00    -0.357 OA
BRANCH  75  79
ATOM     79  C   UNL A   1      32.372  24.931  25.742  1.00  0.00     0.005 A 
ATOM     80  C   UNL A   1      31.110  25.545  25.823  1.00  0.00     0.012 A 
ATOM     81  C   UNL A   1      33.522  25.707  25.918  1.00  0.00     0.012 A 
ATOM     82  C   UNL A   1      31.001  26.918  26.056  1.00  0.00     0.021 A 
ATOM     83  C   UNL A   1      33.412  27.081  26.158  1.00  0.00     0.021 A 
ATOM     84  C   UNL A   1      32.155  27.680  26.219  1.00  0.00     0.041 A 
ATOM     85  Cl  UNL A   1      32.021  29.374  26.495  1.00  0.00    -0.084 Cl
ENDBRANCH  75  79
BRANCH  76  86
ATOM     86  C   UNL A   1      32.450  20.413  23.411  1.00  0.00     0.242 C 
BRANCH  86  87
ATOM     87  O   UNL A   1      33.014  19.213  23.952  1.00  0.00    -0.345 OA
BRANCH  87  88
ATOM     88  C   UNL A   1      32.329  17.985  23.753  1.00  0.00     0.250 C 
ATOM     89  C   UNL A   1      32.242  17.225  25.075  1.00  0.00     0.062 C 
ATOM     90  O   UNL A   1      32.974  17.159  22.785  1.00  0.00    -0.353 OA
ATOM     91  C   UNL A   1      33.628  16.791  25.545  1.00  0.00     0.008 C 
ATOM     92  C   UNL A   1      34.330  16.877  23.133  1.00  0.00     0.163 C 
ATOM     93  C   UNL A   1      34.386  16.082  24.427  1.00  0.00     0.029 C 
ENDBRANCH  87  88
ENDBRANCH  86  87
ENDBRANCH  76  86
ENDBRANCH  72  74
ENDBRANCH  71  72
ENDBRANCH  70  71
ENDBRANCH  69  70
ENDBRANCH  68  69
ENDBRANCH  67  68
ENDBRANCH   1  67
TORSDOF 24
ENDMDL
MODEL 2
REMARK VINA RESULT:      -9.1      5.310      8.854
REMARK SMILES O=C(OCCOCCOCCOCCOC(=O)c1c(-c2ccc(Cl)cc2)noc1CO[C@@H]1CCCCO1)c1ccc(-c2c3nc(c(-c4c(F)cccc4F)c4ccc([nH]4)c(-c4c(F)cccc4F)c4nc(c(-c5c(F)cccc5F)c5ccc2[nH]5)C=C4)C=C3)cc1
REMARK SMILES IDX 10 1 9 2 8 3 7 4 6 5 5 6 4 7 3 8 2 9 1 10 38 11 39 12 91 13
REMARK SMILES IDX 40 14 90 15 41 16 42 17 43 18 84 19 44 20 89 21 83 22 85 23
REMARK SMILES IDX 45 24 88 25 82 26 81 27 46 29 72 30 55 31 71 32 56 33 59 34
REMARK SMILES IDX 70 35 86 36 57 37 58 38 69 40 87 41 60 42 47 43 48 44 53 45
REMARK SMILES IDX 49 46 50 47 52 48 54 49 51 50 73 51 74 52 79 53 75 54 76 55
REMARK SMILES IDX 78 56 80 57 77 58 61 59 62 60 67 61 63 62 64 63 66 64 68 65
REMARK SMILES IDX 65 66 11 67 12 68 13 69 14 70 15 71 16 72 17 73 18 74 19 75
REMARK SMILES IDX 29 76 27 77 28 78 20 79 21 80 26 81 22 82 25 83 23 84 24 85
REMARK SMILES IDX 30 86 31 87 32 88 33 89 37 90 34 91 36 92 35 93
REMARK H PARENT 85 28 59 39
REMARK Flexibility Score: inf
ROOT
ATOM      1  C   UNL A   1      39.027  24.159  27.404  1.00  0.00     0.188 C 
ENDROOT
BRANCH   1   2
ATOM      2  O   UNL A   1      39.233  25.550  27.216  1.00  0.00    -0.377 OA
BRANCH   2   3
ATOM      3  C   UNL A   1      40.458  26.090  27.708  1.00  0.00     0.188 C 
BRANCH   3   4
ATOM      4  C   UNL A   1      41.102  27.091  26.750  1.00  0.00     0.188 C 
BRANCH   4   5
ATOM      5  O   UNL A   1      41.334  26.401  25.520  1.00  0.00    -0.376 OA
BRANCH   5   6
ATOM      6  C   UNL A   1      42.671  26.407  25.046  1.00  0.00     0.202 C 
BRANCH   6   7
ATOM      7  C   UNL A   1      43.421  25.120  25.392  1.00  0.00     0.261 C 
BRANCH   7   8
ATOM      8  O   UNL A   1      44.783  25.397  25.761  1.00  0.00    -0.460 OA
BRANCH   8   9
ATOM      9  C   UNL A   1      45.288  25.494  27.016  1.00  0.00     0.338 C 
ATOM     10  O   UNL A   1      46.326  24.895  27.290  1.00  0.00    -0.246 OA
BRANCH   9  11
ATOM     11  C   UNL A   1      44.692  26.365  28.072  1.00  0.00     0.060 A 
ATOM     12  C   UNL A   1      44.764  27.759  28.091  1.00  0.00     0.016 A 
ATOM     13  C   UNL A   1      43.923  25.727  29.057  1.00  0.00     0.016 A 
ATOM     14  C   UNL A   1      44.162  28.501  29.103  1.00  0.00     0.010 A 
ATOM     15  C   UNL A   1      43.279  26.466  30.053  1.00  0.00     0.010 A 
ATOM     16  C   UNL A   1      43.416  27.860  30.091  1.00  0.00    -0.014 A 
BRANCH  16  17
ATOM     17  C   UNL A   1      42.870  28.653  31.210  1.00  0.00     0.031 A 
ATOM     18  C   UNL A   1      41.586  29.394  30.999  1.00  0.00     0.074 A 
ATOM     19  C   UNL A   1      43.477  28.641  32.411  1.00  0.00     0.049 A 
ATOM     20  N   UNL A   1      40.991  30.261  31.773  1.00  0.00    -0.248 NA
ATOM     21  C   UNL A   1      40.870  29.115  29.742  1.00  0.00     0.031 C 
ATOM     22  C   UNL A   1      44.669  27.860  32.749  1.00  0.00     0.029 A 
ATOM     23  N   UNL A   1      43.165  29.292  33.576  1.00  0.00    -0.354 N 
ATOM     24  C   UNL A   1      39.861  30.667  31.077  1.00  0.00     0.074 A 
ATOM     25  C   UNL A   1      39.840  29.943  29.827  1.00  0.00     0.031 C 
ATOM     26  C   UNL A   1      44.976  28.064  34.040  1.00  0.00     0.029 A 
ATOM     27  C   UNL A   1      44.050  29.044  34.598  1.00  0.00     0.049 A 
ATOM     28  H   UNL A   1      42.381  29.880  33.672  1.00  0.00     0.167 HD
ATOM     29  C   UNL A   1      38.934  31.579  31.451  1.00  0.00     0.037 A 
ATOM     30  C   UNL A   1      44.120  29.587  35.828  1.00  0.00     0.037 A 
ATOM     31  C   UNL A   1      38.965  32.267  32.711  1.00  0.00     0.049 A 
ATOM     32  C   UNL A   1      43.112  30.641  36.198  1.00  0.00     0.074 A 
ATOM     33  C   UNL A   1      38.117  33.249  33.186  1.00  0.00     0.029 A 
ATOM     34  N   UNL A   1      39.901  32.024  33.707  1.00  0.00    -0.354 N 
ATOM     35  N   UNL A   1      42.092  31.090  35.502  1.00  0.00    -0.248 NA
ATOM     36  C   UNL A   1      43.278  31.289  37.506  1.00  0.00     0.031 C 
ATOM     37  C   UNL A   1      38.558  33.621  34.462  1.00  0.00     0.029 A 
ATOM     38  C   UNL A   1      39.661  32.847  34.792  1.00  0.00     0.049 A 
ATOM     39  H   UNL A   1      40.629  31.364  33.650  1.00  0.00     0.167 HD
ATOM     40  C   UNL A   1      41.498  32.069  36.284  1.00  0.00     0.074 A 
ATOM     41  C   UNL A   1      42.252  32.128  37.520  1.00  0.00     0.031 C 
ATOM     42  C   UNL A   1      40.436  32.865  36.005  1.00  0.00     0.037 A 
BRANCH  29  43
ATOM     43  C   UNL A   1      37.871  31.920  30.453  1.00  0.00     0.057 A 
ATOM     44  C   UNL A   1      36.696  31.168  30.328  1.00  0.00     0.134 A 
ATOM     45  C   UNL A   1      38.043  33.004  29.583  1.00  0.00     0.134 A 
ATOM     46  F   UNL A   1      36.486  30.099  31.110  1.00  0.00    -0.206 F 
ATOM     47  C   UNL A   1      35.737  31.473  29.359  1.00  0.00     0.040 A 
ATOM     48  C   UNL A   1      37.084  33.330  28.624  1.00  0.00     0.040 A 
ATOM     49  F   UNL A   1      39.151  33.757  29.646  1.00  0.00    -0.206 F 
ATOM     50  C   UNL A   1      35.929  32.559  28.505  1.00  0.00     0.006 A 
ENDBRANCH  29  43
BRANCH  30  51
ATOM     51  C   UNL A   1      45.211  29.207  36.764  1.00  0.00     0.057 A 
ATOM     52  C   UNL A   1      45.079  28.123  37.639  1.00  0.00     0.134 A 
ATOM     53  C   UNL A   1      46.406  29.938  36.825  1.00  0.00     0.134 A 
ATOM     54  F   UNL A   1      43.951  27.398  37.650  1.00  0.00    -0.206 F 
ATOM     55  C   UNL A   1      46.084  27.790  38.550  1.00  0.00     0.040 A 
ATOM     56  C   UNL A   1      47.430  29.598  37.711  1.00  0.00     0.040 A 
ATOM     57  F   UNL A   1      46.599  30.991  36.019  1.00  0.00    -0.206 F 
ATOM     58  C   UNL A   1      47.268  28.526  38.583  1.00  0.00     0.006 A 
ENDBRANCH  30  51
BRANCH  42  59
ATOM     59  C   UNL A   1      40.036  33.848  37.060  1.00  0.00     0.057 A 
ATOM     60  C   UNL A   1      40.532  35.157  37.061  1.00  0.00     0.134 A 
ATOM     61  C   UNL A   1      39.113  33.496  38.051  1.00  0.00     0.134 A 
ATOM     62  F   UNL A   1      41.430  35.545  36.142  1.00  0.00    -0.206 F 
ATOM     63  C   UNL A   1      40.131  36.082  38.024  1.00  0.00     0.040 A 
ATOM     64  C   UNL A   1      38.690  34.418  39.006  1.00  0.00     0.040 A 
ATOM     65  F   UNL A   1      38.600  32.257  38.095  1.00  0.00    -0.206 F 
ATOM     66  C   UNL A   1      39.201  35.715  38.996  1.00  0.00     0.006 A 
ENDBRANCH  42  59
ENDBRANCH  16  17
ENDBRANCH   9  11
ENDBRANCH   8   9
ENDBRANCH   7   8
ENDBRANCH   6   7
ENDBRANCH   5   6
ENDBRANCH   4   5
ENDBRANCH   3   4
ENDBRANCH   2   3
ENDBRANCH   1   2
BRANCH   1  67
ATOM     67  C   UNL A   1      39.338  23.184  26.249  1.00  0.00     0.188 C 
BRANCH  67  68
ATOM     68  O   UNL A   1      38.396  22.188  25.877  1.00  0.00    -0.376 OA
BRANCH  68  69
ATOM     69  C   UNL A   1      37.015  22.514  25.818  1.00  0.00     0.202 C 
BRANCH  69  70
ATOM     70  C   UNL A   1      36.620  23.666  24.889  1.00  0.00     0.261 C 
BRANCH  70  71
ATOM     71  O   UNL A   1      35.452  24.348  25.373  1.00  0.00    -0.459 OA
BRANCH  71  72
ATOM     72  C   UNL A   1      34.237  23.922  24.915  1.00  0.00     0.344 C 
ATOM     73  O   UNL A   1      33.992  23.651  23.757  1.00  0.00    -0.246 OA
BRANCH  72  74
ATOM     74  C   UNL A   1      33.306  23.727  26.009  1.00  0.00     0.133 A 
ATOM     75  C   UNL A   1      32.138  24.477  26.338  1.00  0.00     0.128 A 
ATOM     76  C   UNL A   1      33.264  22.646  26.871  1.00  0.00     0.177 A 
ATOM     77  N   UNL A   1      31.486  23.910  27.366  1.00  0.00    -0.079 NA
ATOM     78  O   UNL A   1      32.201  22.783  27.705  1.00  0.00    -0.357 OA
BRANCH  75  79
ATOM     79  C   UNL A   1      31.525  25.573  25.595  1.00  0.00     0.005 A 
ATOM     80  C   UNL A   1      30.662  25.273  24.527  1.00  0.00     0.012 A 
ATOM     81  C   UNL A   1      31.820  26.911  25.879  1.00  0.00     0.012 A 
ATOM     82  C   UNL A   1      30.120  26.293  23.742  1.00  0.00     0.021 A 
ATOM     83  C   UNL A   1      31.271  27.933  25.096  1.00  0.00     0.021 A 
ATOM     84  C   UNL A   1      30.431  27.619  24.029  1.00  0.00     0.041 A 
ATOM     85  Cl  UNL A   1      29.772  28.876  23.055  1.00  0.00    -0.084 Cl
ENDBRANCH  75  79
BRANCH  76  86
ATOM     86  C   UNL A   1      34.061  21.406  27.025  1.00  0.00     0.242 C 
BRANCH  86  87
ATOM     87  O   UNL A   1      33.896  20.436  25.985  1.00  0.00    -0.345 OA
BRANCH  87  88
ATOM     88  C   UNL A   1      32.682  19.702  25.919  1.00  0.00     0.250 C 
ATOM     89  C   UNL A   1      32.977  18.254  25.532  1.00  0.00     0.062 C 
ATOM     90  O   UNL A   1      31.767  20.256  24.975  1.00  0.00    -0.353 OA
ATOM     91  C   UNL A   1      33.524  18.171  24.110  1.00  0.00     0.008 C 
ATOM     92  C   UNL A   1      32.327  20.336  23.664  1.00  0.00     0.163 C 
ATOM     93  C   UNL A   1      32.637  18.944  23.139  1.00  0.00     0.029 C 
ENDBRANCH  87  88
ENDBRANCH  86  87
ENDBRANCH  76  86
ENDBRANCH  72  74
ENDBRANCH  71  72
ENDBRANCH  70  71
ENDBRANCH  69  70
ENDBRANCH  68  69
ENDBRANCH  67  68
ENDBRANCH   1  67
TORSDOF 24
ENDMDL
MODEL 3
REMARK VINA RESULT:      -8.8      4.932      7.264
REMARK SMILES O=C(OCCOCCOCCOCCOC(=O)c1c(-c2ccc(Cl)cc2)noc1CO[C@@H]1CCCCO1)c1ccc(-c2c3nc(c(-c4c(F)cccc4F)c4ccc([nH]4)c(-c4c(F)cccc4F)c4nc(c(-c5c(F)cccc5F)c5ccc2[nH]5)C=C4)C=C3)cc1
REMARK SMILES IDX 10 1 9 2 8 3 7 4 6 5 5 6 4 7 3 8 2 9 1 10 38 11 39 12 91 13
REMARK SMILES IDX 40 14 90 15 41 16 42 17 43 18 84 19 44 20 89 21 83 22 85 23
REMARK SMILES IDX 45 24 88 25 82 26 81 27 46 29 72 30 55 31 71 32 56 33 59 34
REMARK SMILES IDX 70 35 86 36 57 37 58 38 69 40 87 41 60 42 47 43 48 44 53 45
REMARK SMILES IDX 49 46 50 47 52 48 54 49 51 50 73 51 74 52 79 53 75 54 76 55
REMARK SMILES IDX 78 56 80 57 77 58 61 59 62 60 67 61 63 62 64 63 66 64 68 65
REMARK SMILES IDX 65 66 11 67 12 68 13 69 14 70 15 71 16 72 17 73 18 74 19 75
REMARK SMILES IDX 29 76 27 77 28 78 20 79 21 80 26 81 22 82 25 83 23 84 24 85
REMARK SMILES IDX 30 86 31 87 32 88 33 89 37 90 34 91 36 92 35 93
REMARK H PARENT 85 28 59 39
REMARK Flexibility Score: inf
ROOT
ATOM      1  C   UNL A   1      39.034  24.324  27.526  1.00  0.00     0.188 C 
ENDROOT
BRANCH   1   2
ATOM      2  O   UNL A   1      39.204  25.705  27.247  1.00  0.00    -0.377 OA
BRANCH   2   3
ATOM      3  C   UNL A   1      40.390  26.319  27.748  1.00  0.00     0.188 C 
BRANCH   3   4
ATOM      4  C   UNL A   1      41.145  27.121  26.688  1.00  0.00     0.188 C 
BRANCH   4   5
ATOM      5  O   UNL A   1      41.215  26.303  25.519  1.00  0.00    -0.376 OA
BRANCH   5   6
ATOM      6  C   UNL A   1      42.511  25.869  25.140  1.00  0.00     0.202 C 
BRANCH   6   7
ATOM      7  C   UNL A   1      42.906  24.552  25.811  1.00  0.00     0.261 C 
BRANCH   7   8
ATOM      8  O   UNL A   1      44.311  24.526  26.115  1.00  0.00    -0.460 OA
BRANCH   8   9
ATOM      9  C   UNL A   1      44.889  24.689  27.331  1.00  0.00     0.338 C 
ATOM     10  O   UNL A   1      45.873  24.010  27.620  1.00  0.00    -0.246 OA
BRANCH   9  11
ATOM     11  C   UNL A   1      44.443  25.718  28.317  1.00  0.00     0.060 A 
ATOM     12  C   UNL A   1      43.816  25.438  29.533  1.00  0.00     0.016 A 
ATOM     13  C   UNL A   1      44.772  27.052  28.032  1.00  0.00     0.016 A 
ATOM     14  C   UNL A   1      43.449  26.455  30.409  1.00  0.00     0.010 A 
ATOM     15  C   UNL A   1      44.446  28.076  28.926  1.00  0.00     0.010 A 
ATOM     16  C   UNL A   1      43.761  27.780  30.112  1.00  0.00    -0.014 A 
BRANCH  16  17
ATOM     17  C   UNL A   1      43.275  28.852  31.003  1.00  0.00     0.031 A 
ATOM     18  C   UNL A   1      44.115  29.233  32.183  1.00  0.00     0.074 A 
ATOM     19  C   UNL A   1      42.145  29.520  30.710  1.00  0.00     0.049 A 
ATOM     20  N   UNL A   1      43.837  30.032  33.176  1.00  0.00    -0.248 NA
ATOM     21  C   UNL A   1      45.458  28.631  32.250  1.00  0.00     0.031 C 
ATOM     22  C   UNL A   1      41.316  29.301  29.521  1.00  0.00     0.029 A 
ATOM     23  N   UNL A   1      41.505  30.530  31.380  1.00  0.00    -0.354 N 
ATOM     24  C   UNL A   1      44.946  29.991  34.010  1.00  0.00     0.074 A 
ATOM     25  C   UNL A   1      45.910  29.102  33.402  1.00  0.00     0.031 C 
ATOM     26  C   UNL A   1      40.288  30.164  29.538  1.00  0.00     0.029 A 
ATOM     27  C   UNL A   1      40.344  30.943  30.770  1.00  0.00     0.049 A 
ATOM     28  H   UNL A   1      41.845  30.923  32.216  1.00  0.00     0.167 HD
ATOM     29  C   UNL A   1      45.129  30.631  35.188  1.00  0.00     0.037 A 
ATOM     30  C   UNL A   1      39.415  31.822  31.192  1.00  0.00     0.037 A 
ATOM     31  C   UNL A   1      44.164  31.530  35.758  1.00  0.00     0.049 A 
ATOM     32  C   UNL A   1      39.613  32.476  32.533  1.00  0.00     0.074 A 
ATOM     33  C   UNL A   1      44.206  32.198  36.966  1.00  0.00     0.029 A 
ATOM     34  N   UNL A   1      42.976  31.893  35.136  1.00  0.00    -0.354 N 
ATOM     35  N   UNL A   1      40.625  32.368  33.364  1.00  0.00    -0.248 NA
ATOM     36  C   UNL A   1      38.533  33.349  33.012  1.00  0.00     0.031 C 
ATOM     37  C   UNL A   1      43.029  32.947  37.088  1.00  0.00     0.029 A 
ATOM     38  C   UNL A   1      42.271  32.768  35.940  1.00  0.00     0.049 A 
ATOM     39  H   UNL A   1      42.681  31.576  34.252  1.00  0.00     0.167 HD
ATOM     40  C   UNL A   1      40.304  33.154  34.460  1.00  0.00     0.074 A 
ATOM     41  C   UNL A   1      39.017  33.759  34.176  1.00  0.00     0.031 C 
ATOM     42  C   UNL A   1      40.995  33.349  35.611  1.00  0.00     0.037 A 
BRANCH  29  43
ATOM     43  C   UNL A   1      46.379  30.317  35.949  1.00  0.00     0.057 A 
ATOM     44  C   UNL A   1      46.451  29.257  36.862  1.00  0.00     0.134 A 
ATOM     45  C   UNL A   1      47.522  31.109  35.784  1.00  0.00     0.134 A 
ATOM     46  F   UNL A   1      45.380  28.481  37.089  1.00  0.00    -0.206 F 
ATOM     47  C   UNL A   1      47.611  29.009  37.598  1.00  0.00     0.040 A 
ATOM     48  C   UNL A   1      48.694  30.858  36.500  1.00  0.00     0.040 A 
ATOM     49  F   UNL A   1      47.515  32.144  34.931  1.00  0.00    -0.206 F 
ATOM     50  C   UNL A   1      48.738  29.809  37.415  1.00  0.00     0.006 A 
ENDBRANCH  29  43
BRANCH  30  51
ATOM     51  C   UNL A   1      38.191  32.077  30.388  1.00  0.00     0.057 A 
ATOM     52  C   UNL A   1      38.122  33.140  29.481  1.00  0.00     0.134 A 
ATOM     53  C   UNL A   1      37.048  31.278  30.526  1.00  0.00     0.134 A 
ATOM     54  F   UNL A   1      39.173  33.959  29.318  1.00  0.00    -0.206 F 
ATOM     55  C   UNL A   1      36.959  33.410  28.754  1.00  0.00     0.040 A 
ATOM     56  C   UNL A   1      35.889  31.519  29.787  1.00  0.00     0.040 A 
ATOM     57  F   UNL A   1      37.042  30.246  31.381  1.00  0.00    -0.206 F 
ATOM     58  C   UNL A   1      35.839  32.594  28.903  1.00  0.00     0.006 A 
ENDBRANCH  30  51
BRANCH  42  59
ATOM     59  C   UNL A   1      40.372  34.256  36.625  1.00  0.00     0.057 A 
ATOM     60  C   UNL A   1      39.526  33.759  37.623  1.00  0.00     0.134 A 
ATOM     61  C   UNL A   1      40.660  35.625  36.631  1.00  0.00     0.134 A 
ATOM     62  F   UNL A   1      39.205  32.457  37.656  1.00  0.00    -0.206 F 
ATOM     63  C   UNL A   1      38.974  34.600  38.589  1.00  0.00     0.040 A 
ATOM     64  C   UNL A   1      40.131  36.471  37.604  1.00  0.00     0.040 A 
ATOM     65  F   UNL A   1      41.470  36.155  35.702  1.00  0.00    -0.206 F 
ATOM     66  C   UNL A   1      39.283  35.960  38.586  1.00  0.00     0.006 A 
ENDBRANCH  42  59
ENDBRANCH  16  17
ENDBRANCH   9  11
ENDBRANCH   8   9
ENDBRANCH   7   8
ENDBRANCH   6   7
ENDBRANCH   5   6
ENDBRANCH   4   5
ENDBRANCH   3   4
ENDBRANCH   2   3
ENDBRANCH   1   2
BRANCH   1  67
ATOM     67  C   UNL A   1      39.453  23.280  26.469  1.00  0.00     0.188 C 
BRANCH  67  68
ATOM     68  O   UNL A   1      38.550  22.257  26.074  1.00  0.00    -0.376 OA
BRANCH  68  69
ATOM     69  C   UNL A   1      37.174  22.564  25.899  1.00  0.00     0.202 C 
BRANCH  69  70
ATOM     70  C   UNL A   1      36.846  23.790  25.042  1.00  0.00     0.261 C 
BRANCH  70  71
ATOM     71  O   UNL A   1      35.661  24.452  25.512  1.00  0.00    -0.459 OA
BRANCH  71  72
ATOM     72  C   UNL A   1      34.461  24.029  25.013  1.00  0.00     0.344 C 
ATOM     73  O   UNL A   1      34.242  23.805  23.839  1.00  0.00    -0.246 OA
BRANCH  72  74
ATOM     74  C   UNL A   1      33.514  23.770  26.079  1.00  0.00     0.133 A 
ATOM     75  C   UNL A   1      32.365  24.525  26.462  1.00  0.00     0.128 A 
ATOM     76  C   UNL A   1      33.431  22.623  26.846  1.00  0.00     0.177 A 
ATOM     77  N   UNL A   1      31.686  23.894  27.433  1.00  0.00    -0.079 NA
ATOM     78  O   UNL A   1      32.364  22.721  27.681  1.00  0.00    -0.357 OA
BRANCH  75  79
ATOM     79  C   UNL A   1      31.793  25.698  25.808  1.00  0.00     0.005 A 
ATOM     80  C   UNL A   1      31.006  25.520  24.657  1.00  0.00     0.012 A 
ATOM     81  C   UNL A   1      32.054  26.995  26.263  1.00  0.00     0.012 A 
ATOM     82  C   UNL A   1      30.508  26.623  23.959  1.00  0.00     0.021 A 
ATOM     83  C   UNL A   1      31.549  28.099  25.567  1.00  0.00     0.021 A 
ATOM     84  C   UNL A   1      30.785  27.908  24.417  1.00  0.00     0.041 A 
ATOM     85  Cl  UNL A   1      30.181  29.266  23.550  1.00  0.00    -0.084 Cl
ENDBRANCH  75  79
BRANCH  76  86
ATOM     86  C   UNL A   1      34.189  21.350  26.902  1.00  0.00     0.242 C 
BRANCH  86  87
ATOM     87  O   UNL A   1      33.937  20.437  25.828  1.00  0.00    -0.345 OA
BRANCH  87  88
ATOM     88  C   UNL A   1      32.709  19.724  25.810  1.00  0.00     0.250 C 
ATOM     89  C   UNL A   1      32.967  18.264  25.440  1.00  0.00     0.062 C 
ATOM     90  O   UNL A   1      31.776  20.278  24.884  1.00  0.00    -0.353 OA
ATOM     91  C   UNL A   1      33.470  18.148  24.005  1.00  0.00     0.008 C 
ATOM     92  C   UNL A   1      32.299  20.326  23.555  1.00  0.00     0.163 C 
ATOM     93  C   UNL A   1      32.568  18.919  23.046  1.00  0.00     0.029 C 
ENDBRANCH  87  88
ENDBRANCH  86  87
ENDBRANCH  76  86
ENDBRANCH  72  74
ENDBRANCH  71  72
ENDBRANCH  70  71
ENDBRANCH  69  70
ENDBRANCH  68  69
ENDBRANCH  67  68
ENDBRANCH   1  67
TORSDOF 24
ENDMDL
