MODEL 1
REMARK VINA RESULT:      -7.9      0.000      0.000
REMARK SMILES CCC(CC)NC(=O)NC[C@H]1CC[C@H](C(=O)OCCOCCOCCOCCOC(=O)c2ccc(-c3c4nc(c(-c5c(F)cccc5F)c5ccc([nH]5)c(-c5c(F)cccc5F)c5nc(c(-c6c(F)cccc6F)c6ccc3[nH]6)C=C5)C=C4)cc2)O1
REMARK SMILES IDX 22 1 21 2 20 3 19 4 18 5 17 6 15 7 16 8 14 9 11 10 12 11
REMARK SMILES IDX 86 12 13 13 10 14 9 15 6 16 7 17 8 19 3 21 2 22 1 23 4 24
REMARK SMILES IDX 5 25 23 26 24 27 25 28 26 29 27 30 28 31 29 32 30 33 31 34
REMARK SMILES IDX 32 35 33 36 85 37 34 38 84 39 35 40 36 41 37 42 78 43 38 44
REMARK SMILES IDX 83 45 77 46 79 47 39 48 82 49 76 50 75 51 40 53 66 54 49 55
REMARK SMILES IDX 65 56 50 57 53 58 64 59 80 60 51 61 52 62 63 64 81 65 54 66
REMARK SMILES IDX 41 67 42 68 47 69 43 70 44 71 46 72 48 73 45 74 67 75 68 76
REMARK SMILES IDX 73 77 69 78 70 79 72 80 74 81 71 82 55 83 56 84 61 85 57 86
REMARK SMILES IDX 58 87 60 88 62 89 59 90
REMARK H PARENT 6 18 9 20 79 52 53 63
REMARK Flexibility Score: inf
ROOT
ATOM      1  C   UNL A   1      33.195  34.705  28.849  1.00  0.00     0.188 C 
ENDROOT
BRANCH   1   2
ATOM      2  C   UNL A   1      34.507  34.842  28.066  1.00  0.00     0.188 C 
BRANCH   2   3
ATOM      3  O   UNL A   1      35.644  34.078  28.426  1.00  0.00    -0.376 OA
BRANCH   3   4
ATOM      4  C   UNL A   1      35.796  32.719  28.040  1.00  0.00     0.202 C 
BRANCH   4   5
ATOM      5  C   UNL A   1      35.069  31.540  28.709  1.00  0.00     0.261 C 
BRANCH   5   6
ATOM      6  O   UNL A   1      34.228  30.739  27.871  1.00  0.00    -0.461 OA
BRANCH   6   7
ATOM      7  C   UNL A   1      34.824  29.657  27.313  1.00  0.00     0.335 C 
ATOM      8  O   UNL A   1      35.928  29.235  27.643  1.00  0.00    -0.249 OA
BRANCH   7   9
ATOM      9  C   UNL A   1      33.993  28.997  26.213  1.00  0.00     0.228 C 
ATOM     10  C   UNL A   1      31.739  29.290  25.651  1.00  0.00     0.138 C 
ATOM     11  C   UNL A   1      31.811  28.070  26.540  1.00  0.00     0.037 C 
ATOM     12  O   UNL A   1      33.009  29.948  25.768  1.00  0.00    -0.361 OA
ATOM     13  C   UNL A   1      33.263  27.693  26.500  1.00  0.00     0.047 C 
BRANCH  10  14
ATOM     14  C   UNL A   1      31.408  28.998  24.171  1.00  0.00     0.149 C 
BRANCH  14  15
ATOM     15  N   UNL A   1      30.214  28.183  23.993  1.00  0.00    -0.336 N 
ATOM     16  N   UNL A   1      30.817  25.940  23.571  1.00  0.00    -0.335 N 
ATOM     17  C   UNL A   1      29.923  26.893  23.844  1.00  0.00     0.315 C 
ATOM     18  H   UNL A   1      30.442  25.032  23.633  1.00  0.00     0.165 HD
ATOM     19  O   UNL A   1      28.743  26.551  23.949  1.00  0.00    -0.249 OA
ATOM     20  H   UNL A   1      29.401  28.738  23.978  1.00  0.00     0.165 HD
BRANCH  16  21
ATOM     21  C   UNL A   1      32.224  25.949  23.202  1.00  0.00     0.083 C 
BRANCH  21  22
ATOM     22  C   UNL A   1      32.838  24.571  23.478  1.00  0.00     0.021 C 
ATOM     23  C   UNL A   1      33.597  24.525  24.794  1.00  0.00     0.006 C 
ENDBRANCH  21  22
BRANCH  21  24
ATOM     24  C   UNL A   1      32.394  26.469  21.759  1.00  0.00     0.021 C 
ATOM     25  C   UNL A   1      32.674  25.413  20.700  1.00  0.00     0.006 C 
ENDBRANCH  21  24
ENDBRANCH  16  21
ENDBRANCH  14  15
ENDBRANCH  10  14
ENDBRANCH   7   9
ENDBRANCH   6   7
ENDBRANCH   5   6
ENDBRANCH   4   5
ENDBRANCH   3   4
ENDBRANCH   2   3
ENDBRANCH   1   2
BRANCH   1  26
ATOM     26  O   UNL A   1      33.346  34.789  30.252  1.00  0.00    -0.377 OA
BRANCH  26  27
ATOM     27  C   UNL A   1      32.617  35.784  30.959  1.00  0.00     0.188 C 
BRANCH  27  28
ATOM     28  C   UNL A   1      33.138  37.235  30.977  1.00  0.00     0.188 C 
BRANCH  28  29
ATOM     29  O   UNL A   1      34.145  37.475  31.945  1.00  0.00    -0.376 OA
BRANCH  29  30
ATOM     30  C   UNL A   1      33.794  37.433  33.319  1.00  0.00     0.202 C 
BRANCH  30  31
ATOM     31  C   UNL A   1      34.055  36.126  34.087  1.00  0.00     0.261 C 
BRANCH  31  32
ATOM     32  O   UNL A   1      35.184  35.339  33.670  1.00  0.00    -0.460 OA
BRANCH  32  33
ATOM     33  C   UNL A   1      35.004  34.018  33.448  1.00  0.00     0.338 C 
ATOM     34  O   UNL A   1      33.975  33.388  33.549  1.00  0.00    -0.246 OA
BRANCH  33  35
ATOM     35  C   UNL A   1      36.260  33.493  32.863  1.00  0.00     0.060 A 
ATOM     36  C   UNL A   1      36.985  32.521  33.565  1.00  0.00     0.016 A 
ATOM     37  C   UNL A   1      36.720  33.963  31.631  1.00  0.00     0.016 A 
ATOM     38  C   UNL A   1      38.189  32.036  33.049  1.00  0.00     0.010 A 
ATOM     39  C   UNL A   1      37.935  33.493  31.127  1.00  0.00     0.010 A 
ATOM     40  C   UNL A   1      38.691  32.550  31.847  1.00  0.00    -0.014 A 
BRANCH  40  41
ATOM     41  C   UNL A   1      40.083  32.247  31.428  1.00  0.00     0.031 A 
ATOM     42  C   UNL A   1      41.175  33.203  31.824  1.00  0.00     0.074 A 
ATOM     43  C   UNL A   1      40.378  31.147  30.713  1.00  0.00     0.049 A 
ATOM     44  N   UNL A   1      42.442  33.199  31.500  1.00  0.00    -0.248 NA
ATOM     45  C   UNL A   1      40.779  34.315  32.703  1.00  0.00     0.031 C 
ATOM     46  C   UNL A   1      39.423  30.117  30.310  1.00  0.00     0.029 A 
ATOM     47  N   UNL A   1      41.573  30.724  30.186  1.00  0.00    -0.354 N 
ATOM     48  C   UNL A   1      42.993  34.311  32.127  1.00  0.00     0.074 A 
ATOM     49  C   UNL A   1      41.916  34.983  32.823  1.00  0.00     0.031 C 
ATOM     50  C   UNL A   1      40.068  29.187  29.584  1.00  0.00     0.029 A 
ATOM     51  C   UNL A   1      41.471  29.578  29.437  1.00  0.00     0.049 A 
ATOM     52  H   UNL A   1      42.424  31.198  30.332  1.00  0.00     0.167 HD
ATOM     53  C   UNL A   1      44.280  34.732  32.128  1.00  0.00     0.037 A 
ATOM     54  C   UNL A   1      42.395  28.937  28.694  1.00  0.00     0.037 A 
ATOM     55  C   UNL A   1      45.348  34.066  31.429  1.00  0.00     0.049 A 
ATOM     56  C   UNL A   1      43.801  29.478  28.630  1.00  0.00     0.074 A 
ATOM     57  C   UNL A   1      46.688  34.408  31.380  1.00  0.00     0.029 A 
ATOM     58  N   UNL A   1      45.195  32.929  30.650  1.00  0.00    -0.354 N 
ATOM     59  N   UNL A   1      44.318  30.519  29.239  1.00  0.00    -0.248 NA
ATOM     60  C   UNL A   1      44.753  28.756  27.773  1.00  0.00     0.031 C 
ATOM     61  C   UNL A   1      47.334  33.514  30.520  1.00  0.00     0.029 A 
ATOM     62  C   UNL A   1      46.410  32.576  30.088  1.00  0.00     0.049 A 
ATOM     63  H   UNL A   1      44.348  32.446  30.517  1.00  0.00     0.167 HD
ATOM     64  C   UNL A   1      45.657  30.556  28.867  1.00  0.00     0.074 A 
ATOM     65  C   UNL A   1      45.876  29.426  27.987  1.00  0.00     0.031 C 
ATOM     66  C   UNL A   1      46.619  31.442  29.221  1.00  0.00     0.037 A 
BRANCH  53  67
ATOM     67  C   UNL A   1      44.597  35.991  32.882  1.00  0.00     0.057 A 
ATOM     68  C   UNL A   1      45.039  35.969  34.212  1.00  0.00     0.134 A 
ATOM     69  C   UNL A   1      44.486  37.241  32.261  1.00  0.00     0.134 A 
ATOM     70  F   UNL A   1      45.153  34.807  34.873  1.00  0.00    -0.206 F 
ATOM     71  C   UNL A   1      45.335  37.147  34.902  1.00  0.00     0.040 A 
ATOM     72  C   UNL A   1      44.807  38.422  32.930  1.00  0.00     0.040 A 
ATOM     73  F   UNL A   1      44.072  37.334  30.987  1.00  0.00    -0.206 F 
ATOM     74  C   UNL A   1      45.227  38.377  34.257  1.00  0.00     0.006 A 
ENDBRANCH  53  67
BRANCH  54  75
ATOM     75  C   UNL A   1      42.024  27.719  27.927  1.00  0.00     0.057 A 
ATOM     76  C   UNL A   1      41.491  27.808  26.636  1.00  0.00     0.134 A 
ATOM     77  C   UNL A   1      42.161  26.438  28.478  1.00  0.00     0.134 A 
ATOM     78  F   UNL A   1      41.310  29.007  26.062  1.00  0.00    -0.206 F 
ATOM     79  C   UNL A   1      41.089  26.672  25.929  1.00  0.00     0.040 A 
ATOM     80  C   UNL A   1      41.790  25.293  27.771  1.00  0.00     0.040 A 
ATOM     81  F   UNL A   1      42.663  26.281  29.712  1.00  0.00    -0.206 F 
ATOM     82  C   UNL A   1      41.244  25.410  26.495  1.00  0.00     0.006 A 
ENDBRANCH  54  75
BRANCH  66  83
ATOM     83  C   UNL A   1      48.009  31.209  28.700  1.00  0.00     0.057 A 
ATOM     84  C   UNL A   1      48.929  30.394  29.371  1.00  0.00     0.134 A 
ATOM     85  C   UNL A   1      48.412  31.765  27.478  1.00  0.00     0.134 A 
ATOM     86  F   UNL A   1      48.612  29.838  30.549  1.00  0.00    -0.206 F 
ATOM     87  C   UNL A   1      50.207  30.160  28.858  1.00  0.00     0.040 A 
ATOM     88  C   UNL A   1      49.675  31.514  26.940  1.00  0.00     0.040 A 
ATOM     89  F   UNL A   1      47.578  32.546  26.776  1.00  0.00    -0.206 F 
ATOM     90  C   UNL A   1      50.580  30.713  27.635  1.00  0.00     0.006 A 
ENDBRANCH  66  83
ENDBRANCH  40  41
ENDBRANCH  33  35
ENDBRANCH  32  33
ENDBRANCH  31  32
ENDBRANCH  30  31
ENDBRANCH  29  30
ENDBRANCH  28  29
ENDBRANCH  27  28
ENDBRANCH  26  27
ENDBRANCH   1  26
TORSDOF 25
ENDMDL
MODEL 2
REMARK VINA RESULT:      -7.7      2.992      6.532
REMARK SMILES CCC(CC)NC(=O)NC[C@H]1CC[C@H](C(=O)OCCOCCOCCOCCOC(=O)c2ccc(-c3c4nc(c(-c5c(F)cccc5F)c5ccc([nH]5)c(-c5c(F)cccc5F)c5nc(c(-c6c(F)cccc6F)c6ccc3[nH]6)C=C5)C=C4)cc2)O1
REMARK SMILES IDX 22 1 21 2 20 3 19 4 18 5 17 6 15 7 16 8 14 9 11 10 12 11
REMARK SMILES IDX 86 12 13 13 10 14 9 15 6 16 7 17 8 19 3 21 2 22 1 23 4 24
REMARK SMILES IDX 5 25 23 26 24 27 25 28 26 29 27 30 28 31 29 32 30 33 31 34
REMARK SMILES IDX 32 35 33 36 85 37 34 38 84 39 35 40 36 41 37 42 78 43 38 44
REMARK SMILES IDX 83 45 77 46 79 47 39 48 82 49 76 50 75 51 40 53 66 54 49 55
REMARK SMILES IDX 65 56 50 57 53 58 64 59 80 60 51 61 52 62 63 64 81 65 54 66
REMARK SMILES IDX 41 67 42 68 47 69 43 70 44 71 46 72 48 73 45 74 67 75 68 76
REMARK SMILES IDX 73 77 69 78 70 79 72 80 74 81 71 82 55 83 56 84 61 85 57 86
REMARK SMILES IDX 58 87 60 88 62 89 59 90
REMARK H PARENT 6 18 9 20 79 52 53 63
REMARK Flexibility Score: inf
ROOT
ATOM      1  C   UNL A   1      34.769  32.009  28.885  1.00  0.00     0.188 C 
ENDROOT
BRANCH   1   2
ATOM      2  C   UNL A   1      34.117  31.298  27.693  1.00  0.00     0.188 C 
BRANCH   2   3
ATOM      3  O   UNL A   1      34.449  29.956  27.385  1.00  0.00    -0.376 OA
BRANCH   3   4
ATOM      4  C   UNL A   1      33.483  29.025  26.917  1.00  0.00     0.202 C 
BRANCH   4   5
ATOM      5  C   UNL A   1      31.992  29.346  26.721  1.00  0.00     0.261 C 
BRANCH   5   6
ATOM      6  O   UNL A   1      31.589  29.774  25.415  1.00  0.00    -0.461 OA
BRANCH   6   7
ATOM      7  C   UNL A   1      32.009  28.992  24.391  1.00  0.00     0.335 C 
ATOM      8  O   UNL A   1      33.024  29.207  23.735  1.00  0.00    -0.249 OA
BRANCH   7   9
ATOM      9  C   UNL A   1      31.094  27.800  24.112  1.00  0.00     0.228 C 
ATOM     10  C   UNL A   1      31.633  25.565  23.667  1.00  0.00     0.138 C 
ATOM     11  C   UNL A   1      31.419  26.236  22.330  1.00  0.00     0.037 C 
ATOM     12  O   UNL A   1      31.731  26.620  24.636  1.00  0.00    -0.361 OA
ATOM     13  C   UNL A   1      30.674  27.490  22.683  1.00  0.00     0.047 C 
BRANCH  10  14
ATOM     14  C   UNL A   1      30.537  24.554  24.070  1.00  0.00     0.149 C 
BRANCH  14  15
ATOM     15  N   UNL A   1      30.729  23.986  25.398  1.00  0.00    -0.336 N 
ATOM     16  N   UNL A   1      32.351  22.272  25.320  1.00  0.00    -0.335 N 
ATOM     17  C   UNL A   1      31.545  23.109  25.978  1.00  0.00     0.315 C 
ATOM     18  H   UNL A   1      32.977  21.797  25.912  1.00  0.00     0.165 HD
ATOM     19  O   UNL A   1      31.549  23.051  27.209  1.00  0.00    -0.249 OA
ATOM     20  H   UNL A   1      30.078  24.350  26.040  1.00  0.00     0.165 HD
BRANCH  16  21
ATOM     21  C   UNL A   1      32.506  21.908  23.921  1.00  0.00     0.083 C 
BRANCH  21  22
ATOM     22  C   UNL A   1      33.648  22.722  23.300  1.00  0.00     0.021 C 
ATOM     23  C   UNL A   1      34.929  22.645  24.116  1.00  0.00     0.006 C 
ENDBRANCH  21  22
BRANCH  21  24
ATOM     24  C   UNL A   1      32.636  20.376  23.779  1.00  0.00     0.021 C 
ATOM     25  C   UNL A   1      32.531  19.578  25.070  1.00  0.00     0.006 C 
ENDBRANCH  21  24
ENDBRANCH  16  21
ENDBRANCH  14  15
ENDBRANCH  10  14
ENDBRANCH   7   9
ENDBRANCH   6   7
ENDBRANCH   5   6
ENDBRANCH   4   5
ENDBRANCH   3   4
ENDBRANCH   2   3
ENDBRANCH   1   2
BRANCH   1  26
ATOM     26  O   UNL A   1      34.880  33.411  28.734  1.00  0.00    -0.377 OA
BRANCH  26  27
ATOM     27  C   UNL A   1      33.769  34.226  29.079  1.00  0.00     0.188 C 
BRANCH  27  28
ATOM     28  C   UNL A   1      33.739  34.924  30.454  1.00  0.00     0.188 C 
BRANCH  28  29
ATOM     29  O   UNL A   1      34.806  34.554  31.311  1.00  0.00    -0.376 OA
BRANCH  29  30
ATOM     30  C   UNL A   1      34.514  33.801  32.478  1.00  0.00     0.202 C 
BRANCH  30  31
ATOM     31  C   UNL A   1      34.954  32.327  32.510  1.00  0.00     0.261 C 
BRANCH  31  32
ATOM     32  O   UNL A   1      36.352  32.069  32.723  1.00  0.00    -0.460 OA
BRANCH  32  33
ATOM     33  C   UNL A   1      36.849  30.864  32.363  1.00  0.00     0.338 C 
ATOM     34  O   UNL A   1      36.278  29.797  32.384  1.00  0.00    -0.246 OA
BRANCH  33  35
ATOM     35  C   UNL A   1      38.173  31.101  31.741  1.00  0.00     0.060 A 
ATOM     36  C   UNL A   1      39.233  31.544  32.543  1.00  0.00     0.016 A 
ATOM     37  C   UNL A   1      38.363  30.890  30.374  1.00  0.00     0.016 A 
ATOM     38  C   UNL A   1      40.481  31.806  31.973  1.00  0.00     0.010 A 
ATOM     39  C   UNL A   1      39.606  31.174  29.802  1.00  0.00     0.010 A 
ATOM     40  C   UNL A   1      40.663  31.662  30.592  1.00  0.00    -0.014 A 
BRANCH  40  41
ATOM     41  C   UNL A   1      41.888  32.188  29.940  1.00  0.00     0.031 A 
ATOM     42  C   UNL A   1      43.023  31.237  29.675  1.00  0.00     0.074 A 
ATOM     43  C   UNL A   1      41.996  33.481  29.586  1.00  0.00     0.049 A 
ATOM     44  N   UNL A   1      44.219  31.480  29.204  1.00  0.00    -0.248 NA
ATOM     45  C   UNL A   1      42.773  29.821  29.988  1.00  0.00     0.031 C 
ATOM     46  C   UNL A   1      40.952  34.492  29.740  1.00  0.00     0.029 A 
ATOM     47  N   UNL A   1      43.051  34.165  29.035  1.00  0.00    -0.354 N 
ATOM     48  C   UNL A   1      44.867  30.250  29.173  1.00  0.00     0.074 A 
ATOM     49  C   UNL A   1      43.942  29.270  29.702  1.00  0.00     0.031 C 
ATOM     50  C   UNL A   1      41.426  35.674  29.307  1.00  0.00     0.029 A 
ATOM     51  C   UNL A   1      42.817  35.511  28.885  1.00  0.00     0.049 A 
ATOM     52  H   UNL A   1      43.896  33.733  28.771  1.00  0.00     0.167 HD
ATOM     53  C   UNL A   1      46.116  29.961  28.737  1.00  0.00     0.037 A 
ATOM     54  C   UNL A   1      43.641  36.499  28.484  1.00  0.00     0.037 A 
ATOM     55  C   UNL A   1      47.036  30.939  28.218  1.00  0.00     0.049 A 
ATOM     56  C   UNL A   1      45.061  36.169  28.096  1.00  0.00     0.074 A 
ATOM     57  C   UNL A   1      48.320  30.743  27.740  1.00  0.00     0.029 A 
ATOM     58  N   UNL A   1      46.774  32.297  28.119  1.00  0.00    -0.354 N 
ATOM     59  N   UNL A   1      45.659  35.003  28.052  1.00  0.00    -0.248 NA
ATOM     60  C   UNL A   1      45.921  37.296  27.703  1.00  0.00     0.031 C 
ATOM     61  C   UNL A   1      48.857  31.991  27.410  1.00  0.00     0.029 A 
ATOM     62  C   UNL A   1      47.885  32.956  27.619  1.00  0.00     0.049 A 
ATOM     63  H   UNL A   1      45.925  32.727  28.367  1.00  0.00     0.167 HD
ATOM     64  C   UNL A   1      46.950  35.251  27.597  1.00  0.00     0.074 A 
ATOM     65  C   UNL A   1      47.044  36.677  27.367  1.00  0.00     0.031 C 
ATOM     66  C   UNL A   1      47.964  34.377  27.385  1.00  0.00     0.037 A 
BRANCH  53  67
ATOM     67  C   UNL A   1      46.572  28.534  28.836  1.00  0.00     0.057 A 
ATOM     68  C   UNL A   1      47.219  28.039  29.976  1.00  0.00     0.134 A 
ATOM     69  C   UNL A   1      46.334  27.635  27.789  1.00  0.00     0.134 A 
ATOM     70  F   UNL A   1      47.493  28.849  31.009  1.00  0.00    -0.206 F 
ATOM     71  C   UNL A   1      47.636  26.708  30.059  1.00  0.00     0.040 A 
ATOM     72  C   UNL A   1      46.718  26.297  27.872  1.00  0.00     0.040 A 
ATOM     73  F   UNL A   1      45.714  28.043  26.670  1.00  0.00    -0.206 F 
ATOM     74  C   UNL A   1      47.377  25.832  29.007  1.00  0.00     0.006 A 
ENDBRANCH  53  67
BRANCH  54  75
ATOM     75  C   UNL A   1      43.160  37.905  28.445  1.00  0.00     0.057 A 
ATOM     76  C   UNL A   1      42.473  38.407  27.333  1.00  0.00     0.134 A 
ATOM     77  C   UNL A   1      43.405  38.790  29.502  1.00  0.00     0.134 A 
ATOM     78  F   UNL A   1      42.231  37.616  26.276  1.00  0.00    -0.206 F 
ATOM     79  C   UNL A   1      42.066  39.741  27.264  1.00  0.00     0.040 A 
ATOM     80  C   UNL A   1      42.977  40.119  29.459  1.00  0.00     0.040 A 
ATOM     81  F   UNL A   1      44.059  38.376  30.596  1.00  0.00    -0.206 F 
ATOM     82  C   UNL A   1      42.313  40.599  28.332  1.00  0.00     0.006 A 
ENDBRANCH  54  75
BRANCH  66  83
ATOM     83  C   UNL A   1      49.253  34.924  26.838  1.00  0.00     0.057 A 
ATOM     84  C   UNL A   1      50.368  35.158  27.652  1.00  0.00     0.134 A 
ATOM     85  C   UNL A   1      49.396  35.167  25.465  1.00  0.00     0.134 A 
ATOM     86  F   UNL A   1      50.297  34.955  28.977  1.00  0.00    -0.206 F 
ATOM     87  C   UNL A   1      51.570  35.636  27.126  1.00  0.00     0.040 A 
ATOM     88  C   UNL A   1      50.600  35.616  24.922  1.00  0.00     0.040 A 
ATOM     89  F   UNL A   1      48.372  34.954  24.625  1.00  0.00    -0.206 F 
ATOM     90  C   UNL A   1      51.691  35.858  25.755  1.00  0.00     0.006 A 
ENDBRANCH  66  83
ENDBRANCH  40  41
ENDBRANCH  33  35
ENDBRANCH  32  33
ENDBRANCH  31  32
ENDBRANCH  30  31
ENDBRANCH  29  30
ENDBRANCH  28  29
ENDBRANCH  27  28
ENDBRANCH  26  27
ENDBRANCH   1  26
TORSDOF 25
ENDMDL
MODEL 3
REMARK VINA RESULT:      -7.5      2.863      4.685
REMARK SMILES CCC(CC)NC(=O)NC[C@H]1CC[C@H](C(=O)OCCOCCOCCOCCOC(=O)c2ccc(-c3c4nc(c(-c5c(F)cccc5F)c5ccc([nH]5)c(-c5c(F)cccc5F)c5nc(c(-c6c(F)cccc6F)c6ccc3[nH]6)C=C5)C=C4)cc2)O1
REMARK SMILES IDX 22 1 21 2 20 3 19 4 18 5 17 6 15 7 16 8 14 9 11 10 12 11
REMARK SMILES IDX 86 12 13 13 10 14 9 15 6 16 7 17 8 19 3 21 2 22 1 23 4 24
REMARK SMILES IDX 5 25 23 26 24 27 25 28 26 29 27 30 28 31 29 32 30 33 31 34
REMARK SMILES IDX 32 35 33 36 85 37 34 38 84 39 35 40 36 41 37 42 78 43 38 44
REMARK SMILES IDX 83 45 77 46 79 47 39 48 82 49 76 50 75 51 40 53 66 54 49 55
REMARK SMILES IDX 65 56 50 57 53 58 64 59 80 60 51 61 52 62 63 64 81 65 54 66
REMARK SMILES IDX 41 67 42 68 47 69 43 70 44 71 46 72 48 73 45 74 67 75 68 76
REMARK SMILES IDX 73 77 69 78 70 79 72 80 74 81 71 82 55 83 56 84 61 85 57 86
REMARK SMILES IDX 58 87 60 88 62 89 59 90
REMARK H PARENT 6 18 9 20 79 52 53 63
REMARK Flexibility Score: inf
ROOT
ATOM      1  C   UNL A   1      35.060  32.449  28.830  1.00  0.00     0.188 C 
ENDROOT
BRANCH   1   2
ATOM      2  C   UNL A   1      33.957  31.892  27.922  1.00  0.00     0.188 C 
BRANCH   2   3
ATOM      3  O   UNL A   1      33.986  30.540  27.499  1.00  0.00    -0.376 OA
BRANCH   3   4
ATOM      4  C   UNL A   1      33.210  30.071  26.406  1.00  0.00     0.202 C 
BRANCH   4   5
ATOM      5  C   UNL A   1      31.781  29.515  26.531  1.00  0.00     0.261 C 
BRANCH   5   6
ATOM      6  O   UNL A   1      31.389  28.520  25.578  1.00  0.00    -0.461 OA
BRANCH   6   7
ATOM      7  C   UNL A   1      31.386  27.245  26.037  1.00  0.00     0.335 C 
ATOM      8  O   UNL A   1      31.088  26.929  27.185  1.00  0.00    -0.249 OA
BRANCH   7   9
ATOM      9  C   UNL A   1      31.796  26.212  24.987  1.00  0.00     0.228 C 
ATOM     10  C   UNL A   1      32.201  26.477  22.696  1.00  0.00     0.138 C 
ATOM     11  C   UNL A   1      30.775  25.996  22.834  1.00  0.00     0.037 C 
ATOM     12  O   UNL A   1      32.620  26.875  24.011  1.00  0.00    -0.361 OA
ATOM     13  C   UNL A   1      30.725  25.443  24.228  1.00  0.00     0.047 C 
BRANCH  10  14
ATOM     14  C   UNL A   1      33.182  25.444  22.099  1.00  0.00     0.149 C 
BRANCH  14  15
ATOM     15  N   UNL A   1      32.672  24.080  22.121  1.00  0.00    -0.336 N 
ATOM     16  N   UNL A   1      33.745  22.840  23.819  1.00  0.00    -0.335 N 
ATOM     17  C   UNL A   1      32.805  22.998  22.884  1.00  0.00     0.315 C 
ATOM     18  H   UNL A   1      33.604  22.039  24.374  1.00  0.00     0.165 HD
ATOM     19  O   UNL A   1      32.017  22.066  22.709  1.00  0.00    -0.249 OA
ATOM     20  H   UNL A   1      32.065  23.913  21.365  1.00  0.00     0.165 HD
BRANCH  16  21
ATOM     21  C   UNL A   1      34.930  23.591  24.199  1.00  0.00     0.083 C 
BRANCH  21  22
ATOM     22  C   UNL A   1      34.755  24.153  25.615  1.00  0.00     0.021 C 
ATOM     23  C   UNL A   1      33.549  23.563  26.330  1.00  0.00     0.006 C 
ENDBRANCH  21  22
BRANCH  21  24
ATOM     24  C   UNL A   1      36.197  22.735  23.982  1.00  0.00     0.021 C 
ATOM     25  C   UNL A   1      37.361  23.021  24.920  1.00  0.00     0.006 C 
ENDBRANCH  21  24
ENDBRANCH  16  21
ENDBRANCH  14  15
ENDBRANCH  10  14
ENDBRANCH   7   9
ENDBRANCH   6   7
ENDBRANCH   5   6
ENDBRANCH   4   5
ENDBRANCH   3   4
ENDBRANCH   2   3
ENDBRANCH   1   2
BRANCH   1  26
ATOM     26  O   UNL A   1      34.912  33.818  29.149  1.00  0.00    -0.377 OA
BRANCH  26  27
ATOM     27  C   UNL A   1      33.972  34.190  30.149  1.00  0.00     0.188 C 
BRANCH  27  28
ATOM     28  C   UNL A   1      34.475  34.824  31.461  1.00  0.00     0.188 C 
BRANCH  28  29
ATOM     29  O   UNL A   1      35.808  34.477  31.797  1.00  0.00    -0.376 OA
BRANCH  29  30
ATOM     30  C   UNL A   1      36.130  34.254  33.162  1.00  0.00     0.202 C 
BRANCH  30  31
ATOM     31  C   UNL A   1      36.517  32.827  33.585  1.00  0.00     0.261 C 
BRANCH  31  32
ATOM     32  O   UNL A   1      37.395  32.102  32.706  1.00  0.00    -0.460 OA
BRANCH  32  33
ATOM     33  C   UNL A   1      36.948  30.955  32.149  1.00  0.00     0.338 C 
ATOM     34  O   UNL A   1      35.799  30.593  32.030  1.00  0.00    -0.246 OA
BRANCH  33  35
ATOM     35  C   UNL A   1      38.112  30.286  31.521  1.00  0.00     0.060 A 
ATOM     36  C   UNL A   1      38.735  29.227  32.194  1.00  0.00     0.016 A 
ATOM     37  C   UNL A   1      38.585  30.706  30.276  1.00  0.00     0.016 A 
ATOM     38  C   UNL A   1      39.854  28.604  31.638  1.00  0.00     0.010 A 
ATOM     39  C   UNL A   1      39.718  30.096  29.731  1.00  0.00     0.010 A 
ATOM     40  C   UNL A   1      40.376  29.063  30.422  1.00  0.00    -0.014 A 
BRANCH  40  41
ATOM     41  C   UNL A   1      41.707  28.596  29.956  1.00  0.00     0.031 A 
ATOM     42  C   UNL A   1      42.882  29.524  30.100  1.00  0.00     0.074 A 
ATOM     43  C   UNL A   1      41.875  27.375  29.419  1.00  0.00     0.049 A 
ATOM     44  N   UNL A   1      44.114  29.377  29.686  1.00  0.00    -0.248 NA
ATOM     45  C   UNL A   1      42.628  30.792  30.803  1.00  0.00     0.031 C 
ATOM     46  C   UNL A   1      40.832  26.363  29.271  1.00  0.00     0.029 A 
ATOM     47  N   UNL A   1      42.994  26.787  28.883  1.00  0.00    -0.354 N 
ATOM     48  C   UNL A   1      44.780  30.536  30.070  1.00  0.00     0.074 A 
ATOM     49  C   UNL A   1      43.808  31.388  30.721  1.00  0.00     0.031 C 
ATOM     50  C   UNL A   1      41.357  25.283  28.668  1.00  0.00     0.029 A 
ATOM     51  C   UNL A   1      42.761  25.543  28.350  1.00  0.00     0.049 A 
ATOM     52  H   UNL A   1      43.880  27.217  28.881  1.00  0.00     0.167 HD
ATOM     53  C   UNL A   1      46.084  30.858  29.902  1.00  0.00     0.037 A 
ATOM     54  C   UNL A   1      43.579  24.724  27.660  1.00  0.00     0.037 A 
ATOM     55  C   UNL A   1      47.047  30.012  29.248  1.00  0.00     0.049 A 
ATOM     56  C   UNL A   1      45.003  25.146  27.398  1.00  0.00     0.074 A 
ATOM     57  C   UNL A   1      48.396  30.244  29.039  1.00  0.00     0.029 A 
ATOM     58  N   UNL A   1      46.762  28.776  28.688  1.00  0.00    -0.354 N 
ATOM     59  N   UNL A   1      45.630  26.234  27.779  1.00  0.00    -0.248 NA
ATOM     60  C   UNL A   1      45.834  24.227  26.606  1.00  0.00     0.031 C 
ATOM     61  C   UNL A   1      48.913  29.177  28.298  1.00  0.00     0.029 A 
ATOM     62  C   UNL A   1      47.902  28.248  28.104  1.00  0.00     0.049 A 
ATOM     63  H   UNL A   1      45.881  28.338  28.704  1.00  0.00     0.167 HD
ATOM     64  C   UNL A   1      46.932  26.113  27.306  1.00  0.00     0.074 A 
ATOM     65  C   UNL A   1      47.008  24.841  26.618  1.00  0.00     0.031 C 
ATOM     66  C   UNL A   1      47.970  26.975  27.430  1.00  0.00     0.037 A 
BRANCH  53  67
ATOM     67  C   UNL A   1      46.537  32.198  30.405  1.00  0.00     0.057 A 
ATOM     68  C   UNL A   1      46.482  33.348  29.606  1.00  0.00     0.134 A 
ATOM     69  C   UNL A   1      47.007  32.347  31.716  1.00  0.00     0.134 A 
ATOM     70  F   UNL A   1      46.058  33.275  28.335  1.00  0.00    -0.206 F 
ATOM     71  C   UNL A   1      46.903  34.591  30.084  1.00  0.00     0.040 A 
ATOM     72  C   UNL A   1      47.401  33.588  32.215  1.00  0.00     0.040 A 
ATOM     73  F   UNL A   1      47.081  31.287  32.536  1.00  0.00    -0.206 F 
ATOM     74  C   UNL A   1      47.356  34.714  31.396  1.00  0.00     0.006 A 
ENDBRANCH  53  67
BRANCH  54  75
ATOM     75  C   UNL A   1      43.075  23.426  27.142  1.00  0.00     0.057 A 
ATOM     76  C   UNL A   1      42.976  22.302  27.971  1.00  0.00     0.134 A 
ATOM     77  C   UNL A   1      42.712  23.266  25.798  1.00  0.00     0.134 A 
ATOM     78  F   UNL A   1      43.333  22.383  29.261  1.00  0.00    -0.206 F 
ATOM     79  C   UNL A   1      42.555  21.064  27.480  1.00  0.00     0.040 A 
ATOM     80  C   UNL A   1      42.262  22.041  25.301  1.00  0.00     0.040 A 
ATOM     81  F   UNL A   1      42.785  24.300  24.948  1.00  0.00    -0.206 F 
ATOM     82  C   UNL A   1      42.192  20.933  26.142  1.00  0.00     0.006 A 
ENDBRANCH  54  75
BRANCH  66  83
ATOM     83  C   UNL A   1      49.294  26.561  26.852  1.00  0.00     0.057 A 
ATOM     84  C   UNL A   1      50.214  25.791  27.575  1.00  0.00     0.134 A 
ATOM     85  C   UNL A   1      49.628  26.891  25.531  1.00  0.00     0.134 A 
ATOM     86  F   UNL A   1      49.962  25.448  28.847  1.00  0.00    -0.206 F 
ATOM     87  C   UNL A   1      51.427  25.385  27.014  1.00  0.00     0.040 A 
ATOM     88  C   UNL A   1      50.823  26.466  24.949  1.00  0.00     0.040 A 
ATOM     89  F   UNL A   1      48.788  27.617  24.777  1.00  0.00    -0.206 F 
ATOM     90  C   UNL A   1      51.730  25.716  25.694  1.00  0.00     0.006 A 
ENDBRANCH  66  83
ENDBRANCH  40  41
ENDBRANCH  33  35
ENDBRANCH  32  33
ENDBRANCH  31  32
ENDBRANCH  30  31
ENDBRANCH  29  30
ENDBRANCH  28  29
ENDBRANCH  27  28
ENDBRANCH  26  27
ENDBRANCH   1  26
TORSDOF 25
ENDMDL
