MODEL 1
REMARK VINA RESULT:      -9.3      0.000      0.000
REMARK SMILES Cc1cc(CNS(=O)(=O)c2ccc(C(=O)OCCOCCOCCOCCOC(=O)c3ccc(-c4c5nc(c(-c6c(F)cccc6F)c6ccc([nH]6)c(-c6c(F)cccc6F)c6nc(c(-c7c(F)cccc7F)c7ccc4[nH]7)C=C6)C=C5)cc3)cc2F)no1
REMARK SMILES IDX 21 1 20 2 19 3 18 4 17 5 16 6 14 7 15 8 13 9 10 10 11 11
REMARK SMILES IDX 86 12 12 13 85 14 87 15 7 16 8 17 9 18 6 19 5 21 4 22 1 23
REMARK SMILES IDX 2 24 3 25 89 26 88 27 22 28 23 29 24 30 25 31 26 32 27 33
REMARK SMILES IDX 28 34 29 35 30 36 31 37 32 38 84 39 33 40 83 41 34 42 35 43
REMARK SMILES IDX 36 44 77 45 37 46 82 47 76 48 78 49 38 50 81 51 75 52 74 53
REMARK SMILES IDX 39 55 65 56 48 57 64 58 49 59 52 60 63 61 79 62 50 63 51 64
REMARK SMILES IDX 62 66 80 67 53 68 40 69 41 70 46 71 42 72 43 73 45 74 47 75
REMARK SMILES IDX 44 76 66 77 67 78 72 79 68 80 69 81 71 82 73 83 70 84 54 85
REMARK SMILES IDX 55 86 60 87 56 88 57 89 59 90 61 91 58 92
REMARK H PARENT 6 20 78 54 52 65
REMARK Flexibility Score: inf
ROOT
ATOM      1  C   UNL A   1      36.828  22.288  25.359  1.00  0.00     0.188 C 
ENDROOT
BRANCH   1   2
ATOM      2  C   UNL A   1      35.296  22.175  25.306  1.00  0.00     0.188 C 
BRANCH   2   3
ATOM      3  O   UNL A   1      34.787  20.971  25.874  1.00  0.00    -0.376 OA
BRANCH   3   4
ATOM      4  C   UNL A   1      34.715  19.854  24.999  1.00  0.00     0.202 C 
BRANCH   4   5
ATOM      5  C   UNL A   1      33.410  19.054  25.104  1.00  0.00     0.261 C 
BRANCH   5   6
ATOM      6  O   UNL A   1      32.212  19.824  24.903  1.00  0.00    -0.460 OA
BRANCH   6   7
ATOM      7  C   UNL A   1      32.125  20.529  23.756  1.00  0.00     0.338 C 
ATOM      8  O   UNL A   1      32.161  20.088  22.620  1.00  0.00    -0.246 OA
BRANCH   7   9
ATOM      9  C   UNL A   1      31.780  21.930  24.088  1.00  0.00     0.063 A 
ATOM     10  C   UNL A   1      31.110  24.545  24.800  1.00  0.00     0.118 A 
ATOM     11  C   UNL A   1      31.150  23.545  25.782  1.00  0.00     0.026 A 
ATOM     12  C   UNL A   1      31.432  24.243  23.483  1.00  0.00     0.144 A 
ATOM     13  C   UNL A   1      31.471  22.235  25.421  1.00  0.00     0.017 A 
ATOM     14  C   UNL A   1      31.784  22.941  23.120  1.00  0.00     0.056 A 
ATOM     15  F   UNL A   1      31.394  25.184  22.531  1.00  0.00    -0.205 F 
BRANCH  10  16
ATOM     16  S   UNL A   1      30.493  26.145  25.223  1.00  0.00     0.243 S 
ATOM     17  O   UNL A   1      30.367  26.179  26.667  1.00  0.00    -0.207 OA
ATOM     18  O   UNL A   1      29.359  26.384  24.362  1.00  0.00    -0.207 OA
BRANCH  16  19
ATOM     19  N   UNL A   1      31.665  27.249  24.820  1.00  0.00    -0.205 NA
ATOM     20  H   UNL A   1      32.480  27.033  25.392  1.00  0.00     0.141 HD
BRANCH  19  21
ATOM     21  C   UNL A   1      31.416  28.678  24.969  1.00  0.00     0.158 C 
BRANCH  21  22
ATOM     22  C   UNL A   1      32.443  29.243  25.899  1.00  0.00     0.099 A 
ATOM     23  C   UNL A   1      35.470  29.706  27.928  1.00  0.00     0.091 C 
ATOM     24  C   UNL A   1      34.217  29.611  27.156  1.00  0.00     0.133 A 
ATOM     25  C   UNL A   1      33.666  28.666  26.325  1.00  0.00     0.073 A 
ATOM     26  O   UNL A   1      33.376  30.676  27.242  1.00  0.00    -0.361 OA
ATOM     27  N   UNL A   1      32.261  30.450  26.455  1.00  0.00    -0.083 NA
ENDBRANCH  21  22
ENDBRANCH  19  21
ENDBRANCH  16  19
ENDBRANCH  10  16
ENDBRANCH   7   9
ENDBRANCH   6   7
ENDBRANCH   5   6
ENDBRANCH   4   5
ENDBRANCH   3   4
ENDBRANCH   2   3
ENDBRANCH   1   2
BRANCH   1  28
ATOM     28  O   UNL A   1      37.371  23.595  25.369  1.00  0.00    -0.377 OA
BRANCH  28  29
ATOM     29  C   UNL A   1      38.152  24.022  26.483  1.00  0.00     0.188 C 
BRANCH  29  30
ATOM     30  C   UNL A   1      39.696  23.997  26.473  1.00  0.00     0.188 C 
BRANCH  30  31
ATOM     31  O   UNL A   1      40.280  22.864  27.105  1.00  0.00    -0.376 OA
BRANCH  31  32
ATOM     32  C   UNL A   1      41.296  22.191  26.373  1.00  0.00     0.202 C 
BRANCH  32  33
ATOM     33  C   UNL A   1      42.426  23.123  25.928  1.00  0.00     0.261 C 
BRANCH  33  34
ATOM     34  O   UNL A   1      42.872  24.040  26.940  1.00  0.00    -0.460 OA
BRANCH  34  35
ATOM     35  C   UNL A   1      43.178  25.291  26.534  1.00  0.00     0.338 C 
ATOM     36  O   UNL A   1      43.697  25.626  25.485  1.00  0.00    -0.246 OA
BRANCH  35  37
ATOM     37  C   UNL A   1      42.622  26.232  27.522  1.00  0.00     0.060 A 
ATOM     38  C   UNL A   1      43.157  27.525  27.601  1.00  0.00     0.016 A 
ATOM     39  C   UNL A   1      41.586  25.833  28.367  1.00  0.00     0.016 A 
ATOM     40  C   UNL A   1      42.678  28.412  28.564  1.00  0.00     0.010 A 
ATOM     41  C   UNL A   1      41.121  26.715  29.341  1.00  0.00     0.010 A 
ATOM     42  C   UNL A   1      41.690  27.994  29.466  1.00  0.00    -0.014 A 
BRANCH  42  43
ATOM     43  C   UNL A   1      41.386  28.807  30.664  1.00  0.00     0.031 A 
ATOM     44  C   UNL A   1      40.246  29.784  30.587  1.00  0.00     0.074 A 
ATOM     45  C   UNL A   1      42.105  28.689  31.792  1.00  0.00     0.049 A 
ATOM     46  N   UNL A   1      39.836  30.652  31.474  1.00  0.00    -0.248 NA
ATOM     47  C   UNL A   1      39.465  29.781  29.338  1.00  0.00     0.031 C 
ATOM     48  C   UNL A   1      43.206  27.750  32.000  1.00  0.00     0.029 A 
ATOM     49  N   UNL A   1      42.017  29.377  32.976  1.00  0.00    -0.354 N 
ATOM     50  C   UNL A   1      38.751  31.295  30.893  1.00  0.00     0.074 A 
ATOM     51  C   UNL A   1      38.582  30.741  29.569  1.00  0.00     0.031 C 
ATOM     52  C   UNL A   1      43.699  27.929  33.238  1.00  0.00     0.029 A 
ATOM     53  C   UNL A   1      42.970  29.014  33.895  1.00  0.00     0.049 A 
ATOM     54  H   UNL A   1      41.335  30.065  33.149  1.00  0.00     0.167 HD
ATOM     55  C   UNL A   1      37.960  32.256  31.422  1.00  0.00     0.037 A 
ATOM     56  C   UNL A   1      43.233  29.517  35.117  1.00  0.00     0.037 A 
ATOM     57  C   UNL A   1      38.133  32.811  32.736  1.00  0.00     0.049 A 
ATOM     58  C   UNL A   1      42.395  30.649  35.650  1.00  0.00     0.074 A 
ATOM     59  C   UNL A   1      37.376  33.785  33.363  1.00  0.00     0.029 A 
ATOM     60  N   UNL A   1      39.136  32.446  33.620  1.00  0.00    -0.354 N 
ATOM     61  N   UNL A   1      41.363  31.243  35.101  1.00  0.00    -0.248 NA
ATOM     62  C   UNL A   1      42.759  31.185  36.970  1.00  0.00     0.031 C 
ATOM     63  C   UNL A   1      37.949  34.041  34.613  1.00  0.00     0.029 A 
ATOM     64  C   UNL A   1      39.033  33.194  34.780  1.00  0.00     0.049 A 
ATOM     65  H   UNL A   1      39.819  31.759  33.448  1.00  0.00     0.167 HD
ATOM     66  C   UNL A   1      40.942  32.204  36.013  1.00  0.00     0.074 A 
ATOM     67  C   UNL A   1      41.825  32.109  37.157  1.00  0.00     0.031 C 
ATOM     68  C   UNL A   1      39.915  33.082  35.913  1.00  0.00     0.037 A 
BRANCH  55  69
ATOM     69  C   UNL A   1      36.843  32.779  30.572  1.00  0.00     0.057 A 
ATOM     70  C   UNL A   1      35.546  32.268  30.704  1.00  0.00     0.134 A 
ATOM     71  C   UNL A   1      37.062  33.753  29.590  1.00  0.00     0.134 A 
ATOM     72  F   UNL A   1      35.272  31.333  31.626  1.00  0.00    -0.206 F 
ATOM     73  C   UNL A   1      34.508  32.698  29.878  1.00  0.00     0.040 A 
ATOM     74  C   UNL A   1      36.026  34.206  28.773  1.00  0.00     0.040 A 
ATOM     75  F   UNL A   1      38.279  34.294  29.428  1.00  0.00    -0.206 F 
ATOM     76  C   UNL A   1      34.746  33.671  28.909  1.00  0.00     0.006 A 
ENDBRANCH  55  69
BRANCH  56  77
ATOM     77  C   UNL A   1      44.349  28.960  35.921  1.00  0.00     0.057 A 
ATOM     78  C   UNL A   1      44.143  27.916  36.831  1.00  0.00     0.134 A 
ATOM     79  C   UNL A   1      45.649  29.460  35.795  1.00  0.00     0.134 A 
ATOM     80  F   UNL A   1      42.920  27.391  36.995  1.00  0.00    -0.206 F 
ATOM     81  C   UNL A   1      45.186  27.401  37.601  1.00  0.00     0.040 A 
ATOM     82  C   UNL A   1      46.708  28.939  36.543  1.00  0.00     0.040 A 
ATOM     83  F   UNL A   1      45.914  30.442  34.922  1.00  0.00    -0.206 F 
ATOM     84  C   UNL A   1      46.475  27.911  37.455  1.00  0.00     0.006 A 
ENDBRANCH  56  77
BRANCH  68  85
ATOM     85  C   UNL A   1      39.663  34.003  37.070  1.00  0.00     0.057 A 
ATOM     86  C   UNL A   1      38.875  33.586  38.152  1.00  0.00     0.134 A 
ATOM     87  C   UNL A   1      40.114  35.327  37.067  1.00  0.00     0.134 A 
ATOM     88  F   UNL A   1      38.402  32.332  38.207  1.00  0.00    -0.206 F 
ATOM     89  C   UNL A   1      38.529  34.463  39.181  1.00  0.00     0.040 A 
ATOM     90  C   UNL A   1      39.794  36.207  38.103  1.00  0.00     0.040 A 
ATOM     91  F   UNL A   1      40.879  35.782  36.064  1.00  0.00    -0.206 F 
ATOM     92  C   UNL A   1      38.989  35.778  39.157  1.00  0.00     0.006 A 
ENDBRANCH  68  85
ENDBRANCH  42  43
ENDBRANCH  35  37
ENDBRANCH  34  35
ENDBRANCH  33  34
ENDBRANCH  32  33
ENDBRANCH  31  32
ENDBRANCH  30  31
ENDBRANCH  29  30
ENDBRANCH  28  29
ENDBRANCH   1  28
TORSDOF 24
ENDMDL
MODEL 2
REMARK VINA RESULT:      -8.7      4.651      9.065
REMARK SMILES Cc1cc(CNS(=O)(=O)c2ccc(C(=O)OCCOCCOCCOCCOC(=O)c3ccc(-c4c5nc(c(-c6c(F)cccc6F)c6ccc([nH]6)c(-c6c(F)cccc6F)c6nc(c(-c7c(F)cccc7F)c7ccc4[nH]7)C=C6)C=C5)cc3)cc2F)no1
REMARK SMILES IDX 21 1 20 2 19 3 18 4 17 5 16 6 14 7 15 8 13 9 10 10 11 11
REMARK SMILES IDX 86 12 12 13 85 14 87 15 7 16 8 17 9 18 6 19 5 21 4 22 1 23
REMARK SMILES IDX 2 24 3 25 89 26 88 27 22 28 23 29 24 30 25 31 26 32 27 33
REMARK SMILES IDX 28 34 29 35 30 36 31 37 32 38 84 39 33 40 83 41 34 42 35 43
REMARK SMILES IDX 36 44 77 45 37 46 82 47 76 48 78 49 38 50 81 51 75 52 74 53
REMARK SMILES IDX 39 55 65 56 48 57 64 58 49 59 52 60 63 61 79 62 50 63 51 64
REMARK SMILES IDX 62 66 80 67 53 68 40 69 41 70 46 71 42 72 43 73 45 74 47 75
REMARK SMILES IDX 44 76 66 77 67 78 72 79 68 80 69 81 71 82 73 83 70 84 54 85
REMARK SMILES IDX 55 86 60 87 56 88 57 89 59 90 61 91 58 92
REMARK H PARENT 6 20 78 54 52 65
REMARK Flexibility Score: inf
ROOT
ATOM      1  C   UNL A   1      34.567  32.395  28.518  1.00  0.00     0.188 C 
ENDROOT
BRANCH   1   2
ATOM      2  C   UNL A   1      33.415  31.898  27.630  1.00  0.00     0.188 C 
BRANCH   2   3
ATOM      3  O   UNL A   1      33.610  30.583  27.117  1.00  0.00    -0.376 OA
BRANCH   3   4
ATOM      4  C   UNL A   1      32.432  29.816  26.912  1.00  0.00     0.202 C 
BRANCH   4   5
ATOM      5  C   UNL A   1      31.656  30.177  25.638  1.00  0.00     0.261 C 
BRANCH   5   6
ATOM      6  O   UNL A   1      31.320  29.058  24.799  1.00  0.00    -0.460 OA
BRANCH   6   7
ATOM      7  C   UNL A   1      32.326  28.225  24.459  1.00  0.00     0.338 C 
ATOM      8  O   UNL A   1      33.361  28.521  23.889  1.00  0.00    -0.246 OA
BRANCH   7   9
ATOM      9  C   UNL A   1      32.065  26.899  25.064  1.00  0.00     0.063 A 
ATOM     10  C   UNL A   1      31.484  24.415  26.197  1.00  0.00     0.118 A 
ATOM     11  C   UNL A   1      30.446  25.205  25.684  1.00  0.00     0.026 A 
ATOM     12  C   UNL A   1      32.801  24.852  26.115  1.00  0.00     0.144 A 
ATOM     13  C   UNL A   1      30.737  26.454  25.131  1.00  0.00     0.017 A 
ATOM     14  C   UNL A   1      33.102  26.086  25.535  1.00  0.00     0.056 A 
ATOM     15  F   UNL A   1      33.804  24.112  26.605  1.00  0.00    -0.205 F 
BRANCH  10  16
ATOM     16  S   UNL A   1      31.087  22.943  27.088  1.00  0.00     0.243 S 
ATOM     17  O   UNL A   1      29.705  23.065  27.508  1.00  0.00    -0.207 OA
ATOM     18  O   UNL A   1      32.151  22.747  28.045  1.00  0.00    -0.207 OA
BRANCH  16  19
ATOM     19  N   UNL A   1      31.149  21.681  26.011  1.00  0.00    -0.205 NA
ATOM     20  H   UNL A   1      30.731  20.877  26.478  1.00  0.00     0.141 HD
BRANCH  19  21
ATOM     21  C   UNL A   1      32.427  21.233  25.470  1.00  0.00     0.158 C 
BRANCH  21  22
ATOM     22  C   UNL A   1      32.502  21.643  24.033  1.00  0.00     0.099 A 
ATOM     23  C   UNL A   1      33.234  23.479  20.937  1.00  0.00     0.091 C 
ATOM     24  C   UNL A   1      32.882  22.673  22.121  1.00  0.00     0.133 A 
ATOM     25  C   UNL A   1      33.078  22.810  23.474  1.00  0.00     0.073 A 
ATOM     26  O   UNL A   1      32.218  21.511  21.881  1.00  0.00    -0.361 OA
ATOM     27  N   UNL A   1      31.977  20.861  23.078  1.00  0.00    -0.083 NA
ENDBRANCH  21  22
ENDBRANCH  19  21
ENDBRANCH  16  19
ENDBRANCH  10  16
ENDBRANCH   7   9
ENDBRANCH   6   7
ENDBRANCH   5   6
ENDBRANCH   4   5
ENDBRANCH   3   4
ENDBRANCH   2   3
ENDBRANCH   1   2
BRANCH   1  28
ATOM     28  O   UNL A   1      34.371  33.627  29.186  1.00  0.00    -0.377 OA
BRANCH  28  29
ATOM     29  C   UNL A   1      33.469  34.586  28.638  1.00  0.00     0.188 C 
BRANCH  29  30
ATOM     30  C   UNL A   1      33.468  36.068  29.072  1.00  0.00     0.188 C 
BRANCH  30  31
ATOM     31  O   UNL A   1      32.535  36.390  30.098  1.00  0.00    -0.376 OA
BRANCH  31  32
ATOM     32  C   UNL A   1      33.081  36.642  31.385  1.00  0.00     0.202 C 
BRANCH  32  33
ATOM     33  C   UNL A   1      33.128  35.391  32.267  1.00  0.00     0.261 C 
BRANCH  33  34
ATOM     34  O   UNL A   1      34.452  34.908  32.544  1.00  0.00    -0.460 OA
BRANCH  34  35
ATOM     35  C   UNL A   1      34.585  33.579  32.745  1.00  0.00     0.338 C 
ATOM     36  O   UNL A   1      33.906  32.686  32.275  1.00  0.00    -0.246 OA
BRANCH  35  37
ATOM     37  C   UNL A   1      35.819  33.363  33.520  1.00  0.00     0.060 A 
ATOM     38  C   UNL A   1      36.366  32.075  33.577  1.00  0.00     0.016 A 
ATOM     39  C   UNL A   1      36.423  34.428  34.192  1.00  0.00     0.016 A 
ATOM     40  C   UNL A   1      37.504  31.842  34.348  1.00  0.00     0.010 A 
ATOM     41  C   UNL A   1      37.550  34.189  34.975  1.00  0.00     0.010 A 
ATOM     42  C   UNL A   1      38.073  32.889  35.084  1.00  0.00    -0.014 A 
BRANCH  42  43
ATOM     43  C   UNL A   1      39.085  32.602  36.124  1.00  0.00     0.031 A 
ATOM     44  C   UNL A   1      38.645  32.597  37.561  1.00  0.00     0.074 A 
ATOM     45  C   UNL A   1      40.367  32.355  35.805  1.00  0.00     0.049 A 
ATOM     46  N   UNL A   1      39.356  32.443  38.647  1.00  0.00    -0.248 NA
ATOM     47  C   UNL A   1      37.205  32.794  37.804  1.00  0.00     0.031 C 
ATOM     48  C   UNL A   1      40.905  32.293  34.447  1.00  0.00     0.029 A 
ATOM     49  N   UNL A   1      41.452  32.120  36.612  1.00  0.00    -0.354 N 
ATOM     50  C   UNL A   1      38.453  32.523  39.699  1.00  0.00     0.074 A 
ATOM     51  C   UNL A   1      37.148  32.767  39.127  1.00  0.00     0.031 C 
ATOM     52  C   UNL A   1      42.225  32.045  34.516  1.00  0.00     0.029 A 
ATOM     53  C   UNL A   1      42.628  31.964  35.920  1.00  0.00     0.049 A 
ATOM     54  H   UNL A   1      41.392  32.069  37.593  1.00  0.00     0.167 HD
ATOM     55  C   UNL A   1      38.691  32.395  41.024  1.00  0.00     0.037 A 
ATOM     56  C   UNL A   1      43.885  31.797  36.373  1.00  0.00     0.037 A 
ATOM     57  C   UNL A   1      39.990  32.160  41.592  1.00  0.00     0.049 A 
ATOM     58  C   UNL A   1      44.139  31.746  37.857  1.00  0.00     0.074 A 
ATOM     59  C   UNL A   1      40.331  32.009  42.924  1.00  0.00     0.029 A 
ATOM     60  N   UNL A   1      41.162  32.051  40.860  1.00  0.00    -0.354 N 
ATOM     61  N   UNL A   1      43.279  31.809  38.845  1.00  0.00    -0.248 NA
ATOM     62  C   UNL A   1      45.538  31.606  38.291  1.00  0.00     0.031 C 
ATOM     63  C   UNL A   1      41.717  31.850  43.002  1.00  0.00     0.029 A 
ATOM     64  C   UNL A   1      42.232  31.857  41.716  1.00  0.00     0.049 A 
ATOM     65  H   UNL A   1      41.224  32.102  39.879  1.00  0.00     0.167 HD
ATOM     66  C   UNL A   1      44.026  31.695  40.012  1.00  0.00     0.074 A 
ATOM     67  C   UNL A   1      45.410  31.550  39.610  1.00  0.00     0.031 C 
ATOM     68  C   UNL A   1      43.603  31.706  41.299  1.00  0.00     0.037 A 
BRANCH  55  69
ATOM     69  C   UNL A   1      37.523  32.521  41.953  1.00  0.00     0.057 A 
ATOM     70  C   UNL A   1      36.895  31.381  42.468  1.00  0.00     0.134 A 
ATOM     71  C   UNL A   1      36.991  33.769  42.298  1.00  0.00     0.134 A 
ATOM     72  F   UNL A   1      37.357  30.156  42.174  1.00  0.00    -0.206 F 
ATOM     73  C   UNL A   1      35.767  31.478  43.283  1.00  0.00     0.040 A 
ATOM     74  C   UNL A   1      35.876  33.879  43.130  1.00  0.00     0.040 A 
ATOM     75  F   UNL A   1      37.560  34.899  41.850  1.00  0.00    -0.206 F 
ATOM     76  C   UNL A   1      35.255  32.731  43.617  1.00  0.00     0.006 A 
ENDBRANCH  55  69
BRANCH  56  77
ATOM     77  C   UNL A   1      45.007  31.672  35.410  1.00  0.00     0.057 A 
ATOM     78  C   UNL A   1      45.763  32.785  35.021  1.00  0.00     0.134 A 
ATOM     79  C   UNL A   1      45.349  30.434  34.856  1.00  0.00     0.134 A 
ATOM     80  F   UNL A   1      45.487  33.999  35.519  1.00  0.00    -0.206 F 
ATOM     81  C   UNL A   1      46.807  32.674  34.103  1.00  0.00     0.040 A 
ATOM     82  C   UNL A   1      46.405  30.304  33.952  1.00  0.00     0.040 A 
ATOM     83  F   UNL A   1      44.678  29.328  35.209  1.00  0.00    -0.206 F 
ATOM     84  C   UNL A   1      47.134  31.429  33.568  1.00  0.00     0.006 A 
ENDBRANCH  56  77
BRANCH  68  85
ATOM     85  C   UNL A   1      44.632  31.537  42.378  1.00  0.00     0.057 A 
ATOM     86  C   UNL A   1      45.316  32.648  42.888  1.00  0.00     0.134 A 
ATOM     87  C   UNL A   1      45.013  30.272  42.838  1.00  0.00     0.134 A 
ATOM     88  F   UNL A   1      45.005  33.887  42.477  1.00  0.00    -0.206 F 
ATOM     89  C   UNL A   1      46.359  32.504  43.803  1.00  0.00     0.040 A 
ATOM     90  C   UNL A   1      46.040  30.117  43.771  1.00  0.00     0.040 A 
ATOM     91  F   UNL A   1      44.390  29.171  42.393  1.00  0.00    -0.206 F 
ATOM     92  C   UNL A   1      46.723  31.235  44.248  1.00  0.00     0.006 A 
ENDBRANCH  68  85
ENDBRANCH  42  43
ENDBRANCH  35  37
ENDBRANCH  34  35
ENDBRANCH  33  34
ENDBRANCH  32  33
ENDBRANCH  31  32
ENDBRANCH  30  31
ENDBRANCH  29  30
ENDBRANCH  28  29
ENDBRANCH   1  28
TORSDOF 24
ENDMDL
MODEL 3
REMARK VINA RESULT:      -8.6      6.619      9.816
REMARK SMILES Cc1cc(CNS(=O)(=O)c2ccc(C(=O)OCCOCCOCCOCCOC(=O)c3ccc(-c4c5nc(c(-c6c(F)cccc6F)c6ccc([nH]6)c(-c6c(F)cccc6F)c6nc(c(-c7c(F)cccc7F)c7ccc4[nH]7)C=C6)C=C5)cc3)cc2F)no1
REMARK SMILES IDX 21 1 20 2 19 3 18 4 17 5 16 6 14 7 15 8 13 9 10 10 11 11
REMARK SMILES IDX 86 12 12 13 85 14 87 15 7 16 8 17 9 18 6 19 5 21 4 22 1 23
REMARK SMILES IDX 2 24 3 25 89 26 88 27 22 28 23 29 24 30 25 31 26 32 27 33
REMARK SMILES IDX 28 34 29 35 30 36 31 37 32 38 84 39 33 40 83 41 34 42 35 43
REMARK SMILES IDX 36 44 77 45 37 46 82 47 76 48 78 49 38 50 81 51 75 52 74 53
REMARK SMILES IDX 39 55 65 56 48 57 64 58 49 59 52 60 63 61 79 62 50 63 51 64
REMARK SMILES IDX 62 66 80 67 53 68 40 69 41 70 46 71 42 72 43 73 45 74 47 75
REMARK SMILES IDX 44 76 66 77 67 78 72 79 68 80 69 81 71 82 73 83 70 84 54 85
REMARK SMILES IDX 55 86 60 87 56 88 57 89 59 90 61 91 58 92
REMARK H PARENT 6 20 78 54 52 65
REMARK Flexibility Score: inf
ROOT
ATOM      1  C   UNL A   1      35.411  21.635  26.115  1.00  0.00     0.188 C 
ENDROOT
BRANCH   1   2
ATOM      2  C   UNL A   1      34.414  22.370  27.025  1.00  0.00     0.188 C 
BRANCH   2   3
ATOM      3  O   UNL A   1      33.294  22.914  26.332  1.00  0.00    -0.376 OA
BRANCH   3   4
ATOM      4  C   UNL A   1      33.448  24.240  25.846  1.00  0.00     0.202 C 
BRANCH   4   5
ATOM      5  C   UNL A   1      32.232  25.145  26.083  1.00  0.00     0.261 C 
BRANCH   5   6
ATOM      6  O   UNL A   1      32.546  26.469  26.552  1.00  0.00    -0.460 OA
BRANCH   6   7
ATOM      7  C   UNL A   1      32.001  27.501  25.875  1.00  0.00     0.338 C 
ATOM      8  O   UNL A   1      31.089  27.449  25.068  1.00  0.00    -0.246 OA
BRANCH   7   9
ATOM      9  C   UNL A   1      32.561  28.763  26.410  1.00  0.00     0.063 A 
ATOM     10  C   UNL A   1      33.691  31.097  27.444  1.00  0.00     0.118 A 
ATOM     11  C   UNL A   1      34.446  29.917  27.405  1.00  0.00     0.026 A 
ATOM     12  C   UNL A   1      32.396  31.114  26.942  1.00  0.00     0.144 A 
ATOM     13  C   UNL A   1      33.874  28.747  26.900  1.00  0.00     0.017 A 
ATOM     14  C   UNL A   1      31.827  29.955  26.408  1.00  0.00     0.056 A 
ATOM     15  F   UNL A   1      31.658  32.232  26.976  1.00  0.00    -0.205 F 
BRANCH  10  16
ATOM     16  S   UNL A   1      34.342  32.510  28.280  1.00  0.00     0.243 S 
ATOM     17  O   UNL A   1      34.389  32.179  29.691  1.00  0.00    -0.207 OA
ATOM     18  O   UNL A   1      33.596  33.648  27.797  1.00  0.00    -0.207 OA
BRANCH  16  19
ATOM     19  N   UNL A   1      35.914  32.698  27.781  1.00  0.00    -0.205 NA
ATOM     20  H   UNL A   1      36.201  31.808  27.376  1.00  0.00     0.141 HD
BRANCH  19  21
ATOM     21  C   UNL A   1      36.951  33.077  28.734  1.00  0.00     0.158 C 
BRANCH  21  22
ATOM     22  C   UNL A   1      37.780  31.868  29.037  1.00  0.00     0.099 A 
ATOM     23  C   UNL A   1      39.293  28.524  28.910  1.00  0.00     0.091 C 
ATOM     24  C   UNL A   1      38.739  29.883  29.053  1.00  0.00     0.133 A 
ATOM     25  C   UNL A   1      37.791  30.613  28.379  1.00  0.00     0.073 A 
ATOM     26  O   UNL A   1      39.253  30.639  30.060  1.00  0.00    -0.361 OA
ATOM     27  N   UNL A   1      38.654  31.886  30.055  1.00  0.00    -0.083 NA
ENDBRANCH  21  22
ENDBRANCH  19  21
ENDBRANCH  16  19
ENDBRANCH  10  16
ENDBRANCH   7   9
ENDBRANCH   6   7
ENDBRANCH   5   6
ENDBRANCH   4   5
ENDBRANCH   3   4
ENDBRANCH   2   3
ENDBRANCH   1   2
BRANCH   1  28
ATOM     28  O   UNL A   1      36.661  22.263  25.902  1.00  0.00    -0.377 OA
BRANCH  28  29
ATOM     29  C   UNL A   1      37.754  21.497  25.401  1.00  0.00     0.188 C 
BRANCH  29  30
ATOM     30  C   UNL A   1      39.201  21.685  25.906  1.00  0.00     0.188 C 
BRANCH  30  31
ATOM     31  O   UNL A   1      39.914  20.476  26.142  1.00  0.00    -0.376 OA
BRANCH  31  32
ATOM     32  C   UNL A   1      41.294  20.611  26.450  1.00  0.00     0.202 C 
BRANCH  32  33
ATOM     33  C   UNL A   1      41.923  21.861  25.830  1.00  0.00     0.261 C 
BRANCH  33  34
ATOM     34  O   UNL A   1      42.799  22.584  26.709  1.00  0.00    -0.460 OA
BRANCH  34  35
ATOM     35  C   UNL A   1      42.237  23.551  27.467  1.00  0.00     0.338 C 
ATOM     36  O   UNL A   1      41.303  23.441  28.238  1.00  0.00    -0.246 OA
BRANCH  35  37
ATOM     37  C   UNL A   1      43.062  24.764  27.330  1.00  0.00     0.060 A 
ATOM     38  C   UNL A   1      43.541  25.117  26.061  1.00  0.00     0.016 A 
ATOM     39  C   UNL A   1      43.364  25.540  28.450  1.00  0.00     0.016 A 
ATOM     40  C   UNL A   1      44.366  26.233  25.921  1.00  0.00     0.010 A 
ATOM     41  C   UNL A   1      44.201  26.645  28.311  1.00  0.00     0.010 A 
ATOM     42  C   UNL A   1      44.734  26.973  27.053  1.00  0.00    -0.014 A 
BRANCH  42  43
ATOM     43  C   UNL A   1      45.828  27.965  26.967  1.00  0.00     0.031 A 
ATOM     44  C   UNL A   1      45.464  29.424  26.965  1.00  0.00     0.074 A 
ATOM     45  C   UNL A   1      47.114  27.585  26.887  1.00  0.00     0.049 A 
ATOM     46  N   UNL A   1      46.234  30.471  26.827  1.00  0.00    -0.248 NA
ATOM     47  C   UNL A   1      44.036  29.742  27.141  1.00  0.00     0.031 C 
ATOM     48  C   UNL A   1      47.593  26.205  26.920  1.00  0.00     0.029 A 
ATOM     49  N   UNL A   1      48.254  28.337  26.751  1.00  0.00    -0.354 N 
ATOM     50  C   UNL A   1      45.387  31.569  26.901  1.00  0.00     0.074 A 
ATOM     51  C   UNL A   1      44.043  31.064  27.067  1.00  0.00     0.031 C 
ATOM     52  C   UNL A   1      48.932  26.209  26.798  1.00  0.00     0.029 A 
ATOM     53  C   UNL A   1      49.399  27.586  26.646  1.00  0.00     0.049 A 
ATOM     54  H   UNL A   1      48.251  29.321  26.731  1.00  0.00     0.167 HD
ATOM     55  C   UNL A   1      45.705  32.882  26.845  1.00  0.00     0.037 A 
ATOM     56  C   UNL A   1      50.671  27.971  26.430  1.00  0.00     0.037 A 
ATOM     57  C   UNL A   1      47.040  33.383  26.673  1.00  0.00     0.049 A 
ATOM     58  C   UNL A   1      50.990  29.436  26.281  1.00  0.00     0.074 A 
ATOM     59  C   UNL A   1      47.463  34.699  26.611  1.00  0.00     0.029 A 
ATOM     60  N   UNL A   1      48.167  32.589  26.527  1.00  0.00    -0.354 N 
ATOM     61  N   UNL A   1      50.186  30.469  26.365  1.00  0.00    -0.248 NA
ATOM     62  C   UNL A   1      52.390  29.789  26.002  1.00  0.00     0.031 C 
ATOM     63  C   UNL A   1      48.843  34.702  26.384  1.00  0.00     0.029 A 
ATOM     64  C   UNL A   1      49.284  33.388  26.351  1.00  0.00     0.049 A 
ATOM     65  H   UNL A   1      48.172  31.605  26.546  1.00  0.00     0.167 HD
ATOM     66  C   UNL A   1      50.983  31.592  26.173  1.00  0.00     0.074 A 
ATOM     67  C   UNL A   1      52.336  31.115  25.976  1.00  0.00     0.031 C 
ATOM     68  C   UNL A   1      50.626  32.898  26.164  1.00  0.00     0.037 A 
BRANCH  55  69
ATOM     69  C   UNL A   1      44.586  33.871  26.957  1.00  0.00     0.057 A 
ATOM     70  C   UNL A   1      43.884  34.288  25.819  1.00  0.00     0.134 A 
ATOM     71  C   UNL A   1      44.236  34.447  28.184  1.00  0.00     0.134 A 
ATOM     72  F   UNL A   1      44.172  33.774  24.614  1.00  0.00    -0.206 F 
ATOM     73  C   UNL A   1      42.882  35.255  25.897  1.00  0.00     0.040 A 
ATOM     74  C   UNL A   1      43.220  35.399  28.277  1.00  0.00     0.040 A 
ATOM     75  F   UNL A   1      44.859  34.075  29.313  1.00  0.00    -0.206 F 
ATOM     76  C   UNL A   1      42.547  35.813  27.129  1.00  0.00     0.006 A 
ENDBRANCH  55  69
BRANCH  56  77
ATOM     77  C   UNL A   1      51.745  26.951  26.332  1.00  0.00     0.057 A 
ATOM     78  C   UNL A   1      52.009  26.281  25.130  1.00  0.00     0.134 A 
ATOM     79  C   UNL A   1      52.532  26.622  27.441  1.00  0.00     0.134 A 
ATOM     80  F   UNL A   1      51.292  26.554  24.031  1.00  0.00    -0.206 F 
ATOM     81  C   UNL A   1      53.006  25.310  25.040  1.00  0.00     0.040 A 
ATOM     82  C   UNL A   1      53.547  25.668  27.359  1.00  0.00     0.040 A 
ATOM     83  F   UNL A   1      52.343  27.247  28.612  1.00  0.00    -0.206 F 
ATOM     84  C   UNL A   1      53.782  25.003  26.156  1.00  0.00     0.006 A 
ENDBRANCH  56  77
BRANCH  68  85
ATOM     85  C   UNL A   1      51.704  33.920  25.957  1.00  0.00     0.057 A 
ATOM     86  C   UNL A   1      52.280  34.579  27.052  1.00  0.00     0.134 A 
ATOM     87  C   UNL A   1      52.100  34.321  24.676  1.00  0.00     0.134 A 
ATOM     88  F   UNL A   1      51.933  34.249  28.305  1.00  0.00    -0.206 F 
ATOM     89  C   UNL A   1      53.197  35.616  26.878  1.00  0.00     0.040 A 
ATOM     90  C   UNL A   1      53.034  35.341  24.490  1.00  0.00     0.040 A 
ATOM     91  F   UNL A   1      51.591  33.723  23.589  1.00  0.00    -0.206 F 
ATOM     92  C   UNL A   1      53.576  36.000  25.593  1.00  0.00     0.006 A 
ENDBRANCH  68  85
ENDBRANCH  42  43
ENDBRANCH  35  37
ENDBRANCH  34  35
ENDBRANCH  33  34
ENDBRANCH  32  33
ENDBRANCH  31  32
ENDBRANCH  30  31
ENDBRANCH  29  30
ENDBRANCH  28  29
ENDBRANCH   1  28
TORSDOF 24
ENDMDL
