MODEL 1
REMARK VINA RESULT:     -10.1      0.000      0.000
REMARK SMILES Cc1ccccc1CSCC(=O)Nc1ccc(C)c(C(=O)OCCOCCOCCOCCOC(=O)c2ccc(-c3c4nc(c(-c5c(F)cccc5F)c5ccc([nH]5)c(-c5c(F)cccc5F)c5nc(c(-c6c(F)cccc6F)c6ccc3[nH]6)C=C5)C=C4)cc2)c1
REMARK SMILES IDX 26 1 25 2 24 3 23 4 22 5 20 6 21 7 19 8 14 9 15 10 91 11
REMARK SMILES IDX 16 12 17 13 18 14 13 15 11 16 12 17 10 19 9 20 8 21 7 22
REMARK SMILES IDX 1 23 2 24 3 25 4 26 6 27 5 28 27 29 28 30 29 31 30 32 31 33
REMARK SMILES IDX 32 34 33 35 34 36 35 37 36 38 37 39 38 40 90 41 39 42 89 43
REMARK SMILES IDX 40 44 41 45 42 46 83 47 43 48 88 49 82 50 84 51 44 52 87 53
REMARK SMILES IDX 81 54 80 55 45 57 71 58 54 59 70 60 55 61 58 62 69 63 85 64
REMARK SMILES IDX 56 65 57 66 68 68 86 69 59 70 46 71 47 72 52 73 48 74 49 75
REMARK SMILES IDX 51 76 53 77 50 78 72 79 73 80 78 81 74 82 75 83 77 84 79 85
REMARK SMILES IDX 76 86 60 87 61 88 66 89 62 90 63 91 65 92 67 93 64 94
REMARK H PARENT 13 18 84 56 58 67
REMARK Flexibility Score: inf
ROOT
ATOM      1  C   UNL A   1      41.177  22.250  26.579  1.00  0.00     0.188 C 
ENDROOT
BRANCH   1   2
ATOM      2  O   UNL A   1      39.972  22.992  26.446  1.00  0.00    -0.376 OA
BRANCH   2   3
ATOM      3  C   UNL A   1      38.895  22.288  25.826  1.00  0.00     0.202 C 
BRANCH   3   4
ATOM      4  C   UNL A   1      37.525  22.916  25.996  1.00  0.00     0.261 C 
BRANCH   4   5
ATOM      5  O   UNL A   1      36.851  22.741  24.742  1.00  0.00    -0.460 OA
BRANCH   5   6
ATOM      6  C   UNL A   1      35.947  21.754  24.698  1.00  0.00     0.338 C 
ATOM      7  O   UNL A   1      36.136  20.587  24.953  1.00  0.00    -0.246 OA
BRANCH   6   8
ATOM      8  C   UNL A   1      34.612  22.405  24.796  1.00  0.00     0.065 A 
ATOM      9  C   UNL A   1      32.817  23.072  23.344  1.00  0.00     0.042 A 
ATOM     10  C   UNL A   1      31.984  23.317  24.424  1.00  0.00     0.026 A 
ATOM     11  C   UNL A   1      34.095  22.585  23.518  1.00  0.00     0.042 A 
ATOM     12  C   UNL A   1      32.492  23.178  25.704  1.00  0.00     0.006 A 
ATOM     13  C   UNL A   1      33.775  22.647  25.909  1.00  0.00    -0.036 A 
ATOM     14  C   UNL A   1      34.056  22.282  27.329  1.00  0.00     0.045 C 
BRANCH   9  15
ATOM     15  N   UNL A   1      32.520  23.561  22.079  1.00  0.00    -0.325 N 
ATOM     16  C   UNL A   1      33.024  24.776  21.664  1.00  0.00     0.234 C 
ATOM     17  O   UNL A   1      33.232  24.926  20.456  1.00  0.00    -0.274 OA
ATOM     18  H   UNL A   1      31.947  23.036  21.473  1.00  0.00     0.169 HD
BRANCH  16  19
ATOM     19  C   UNL A   1      33.434  25.853  22.672  1.00  0.00     0.170 C 
BRANCH  19  20
ATOM     20  S   UNL A   1      32.226  27.133  23.157  1.00  0.00    -0.147 SA
BRANCH  20  21
ATOM     21  C   UNL A   1      33.288  28.585  23.512  1.00  0.00     0.105 C 
BRANCH  21  22
ATOM     22  C   UNL A   1      33.093  29.081  24.909  1.00  0.00    -0.035 A 
ATOM     23  C   UNL A   1      30.726  30.055  24.522  1.00  0.00     0.044 C 
ATOM     24  C   UNL A   1      31.981  29.837  25.326  1.00  0.00    -0.047 A 
ATOM     25  C   UNL A   1      32.032  30.441  26.590  1.00  0.00     0.004 A 
ATOM     26  C   UNL A   1      33.119  30.246  27.442  1.00  0.00     0.000 A 
ATOM     27  C   UNL A   1      34.145  28.828  25.811  1.00  0.00     0.005 A 
ATOM     28  C   UNL A   1      34.162  29.413  27.066  1.00  0.00     0.000 A 
ENDBRANCH  21  22
ENDBRANCH  20  21
ENDBRANCH  19  20
ENDBRANCH  16  19
ENDBRANCH   9  15
ENDBRANCH   6   8
ENDBRANCH   5   6
ENDBRANCH   4   5
ENDBRANCH   3   4
ENDBRANCH   2   3
ENDBRANCH   1   2
BRANCH   1  29
ATOM     29  C   UNL A   1      41.125  20.721  26.503  1.00  0.00     0.188 C 
BRANCH  29  30
ATOM     30  O   UNL A   1      41.521  20.055  27.698  1.00  0.00    -0.377 OA
BRANCH  30  31
ATOM     31  C   UNL A   1      42.457  19.016  27.458  1.00  0.00     0.188 C 
BRANCH  31  32
ATOM     32  C   UNL A   1      42.301  18.448  26.070  1.00  0.00     0.188 C 
BRANCH  32  33
ATOM     33  O   UNL A   1      43.397  17.781  25.472  1.00  0.00    -0.376 OA
BRANCH  33  34
ATOM     34  C   UNL A   1      44.666  18.421  25.470  1.00  0.00     0.202 C 
BRANCH  34  35
ATOM     35  C   UNL A   1      44.828  19.572  24.466  1.00  0.00     0.261 C 
BRANCH  35  36
ATOM     36  O   UNL A   1      45.530  20.668  25.104  1.00  0.00    -0.460 OA
BRANCH  36  37
ATOM     37  C   UNL A   1      45.198  21.925  24.683  1.00  0.00     0.338 C 
ATOM     38  O   UNL A   1      44.647  22.184  23.625  1.00  0.00    -0.246 OA
BRANCH  37  39
ATOM     39  C   UNL A   1      45.974  22.948  25.479  1.00  0.00     0.060 A 
ATOM     40  C   UNL A   1      45.659  23.103  26.843  1.00  0.00     0.016 A 
ATOM     41  C   UNL A   1      46.574  24.009  24.804  1.00  0.00     0.016 A 
ATOM     42  C   UNL A   1      45.713  24.372  27.449  1.00  0.00     0.010 A 
ATOM     43  C   UNL A   1      46.537  25.271  25.387  1.00  0.00     0.010 A 
ATOM     44  C   UNL A   1      46.025  25.489  26.681  1.00  0.00    -0.014 A 
BRANCH  44  45
ATOM     45  C   UNL A   1      45.689  26.893  27.043  1.00  0.00     0.031 A 
ATOM     46  C   UNL A   1      44.259  27.340  26.890  1.00  0.00     0.074 A 
ATOM     47  C   UNL A   1      46.540  27.628  27.815  1.00  0.00     0.049 A 
ATOM     48  N   UNL A   1      43.749  28.401  27.407  1.00  0.00    -0.248 NA
ATOM     49  C   UNL A   1      43.239  26.558  26.203  1.00  0.00     0.031 C 
ATOM     50  C   UNL A   1      46.201  28.790  28.628  1.00  0.00     0.029 A 
ATOM     51  N   UNL A   1      47.911  27.489  28.091  1.00  0.00    -0.354 N 
ATOM     52  C   UNL A   1      42.371  28.318  27.413  1.00  0.00     0.074 A 
ATOM     53  C   UNL A   1      42.109  27.156  26.603  1.00  0.00     0.031 C 
ATOM     54  C   UNL A   1      47.279  29.357  29.177  1.00  0.00     0.029 A 
ATOM     55  C   UNL A   1      48.383  28.774  28.488  1.00  0.00     0.049 A 
ATOM     56  H   UNL A   1      48.443  26.664  28.023  1.00  0.00     0.167 HD
ATOM     57  C   UNL A   1      41.663  29.205  28.189  1.00  0.00     0.037 A 
ATOM     58  C   UNL A   1      49.157  29.534  27.661  1.00  0.00     0.037 A 
ATOM     59  C   UNL A   1      42.552  30.297  28.682  1.00  0.00     0.049 A 
ATOM     60  C   UNL A   1      48.340  30.763  27.175  1.00  0.00     0.074 A 
ATOM     61  C   UNL A   1      42.827  30.890  29.902  1.00  0.00     0.029 A 
ATOM     62  N   UNL A   1      43.501  30.843  27.805  1.00  0.00    -0.354 N 
ATOM     63  N   UNL A   1      47.016  30.810  27.191  1.00  0.00    -0.248 NA
ATOM     64  C   UNL A   1      48.878  32.078  26.852  1.00  0.00     0.031 C 
ATOM     65  C   UNL A   1      43.998  31.706  29.759  1.00  0.00     0.029 A 
ATOM     66  C   UNL A   1      44.411  31.670  28.432  1.00  0.00     0.049 A 
ATOM     67  H   UNL A   1      43.516  30.654  26.839  1.00  0.00     0.167 HD
ATOM     68  C   UNL A   1      46.558  32.103  27.203  1.00  0.00     0.074 A 
ATOM     69  C   UNL A   1      47.757  32.834  26.794  1.00  0.00     0.031 C 
ATOM     70  C   UNL A   1      45.307  32.515  27.630  1.00  0.00     0.037 A 
BRANCH  57  71
ATOM     71  C   UNL A   1      40.187  29.062  28.627  1.00  0.00     0.057 A 
ATOM     72  C   UNL A   1      39.122  29.307  27.727  1.00  0.00     0.134 A 
ATOM     73  C   UNL A   1      39.729  28.755  29.929  1.00  0.00     0.134 A 
ATOM     74  F   UNL A   1      39.340  29.579  26.435  1.00  0.00    -0.206 F 
ATOM     75  C   UNL A   1      37.759  29.279  28.089  1.00  0.00     0.040 A 
ATOM     76  C   UNL A   1      38.368  28.677  30.293  1.00  0.00     0.040 A 
ATOM     77  F   UNL A   1      40.559  28.538  30.949  1.00  0.00    -0.206 F 
ATOM     78  C   UNL A   1      37.372  28.953  29.375  1.00  0.00     0.006 A 
ENDBRANCH  57  71
BRANCH  58  79
ATOM     79  C   UNL A   1      50.263  28.648  27.150  1.00  0.00     0.057 A 
ATOM     80  C   UNL A   1      50.194  28.373  25.752  1.00  0.00     0.134 A 
ATOM     81  C   UNL A   1      51.559  28.774  27.667  1.00  0.00     0.134 A 
ATOM     82  F   UNL A   1      48.998  28.193  25.166  1.00  0.00    -0.206 F 
ATOM     83  C   UNL A   1      51.299  28.525  24.896  1.00  0.00     0.040 A 
ATOM     84  C   UNL A   1      52.682  28.868  26.815  1.00  0.00     0.040 A 
ATOM     85  F   UNL A   1      51.743  29.029  28.969  1.00  0.00    -0.206 F 
ATOM     86  C   UNL A   1      52.541  28.838  25.428  1.00  0.00     0.006 A 
ENDBRANCH  58  79
BRANCH  70  87
ATOM     87  C   UNL A   1      44.686  33.833  27.232  1.00  0.00     0.057 A 
ATOM     88  C   UNL A   1      43.918  34.035  26.095  1.00  0.00     0.134 A 
ATOM     89  C   UNL A   1      44.813  34.967  28.077  1.00  0.00     0.134 A 
ATOM     90  F   UNL A   1      43.958  33.174  25.069  1.00  0.00    -0.206 F 
ATOM     91  C   UNL A   1      43.101  35.161  25.957  1.00  0.00     0.040 A 
ATOM     92  C   UNL A   1      44.057  36.121  27.920  1.00  0.00     0.040 A 
ATOM     93  F   UNL A   1      45.658  35.021  29.115  1.00  0.00    -0.206 F 
ATOM     94  C   UNL A   1      43.137  36.188  26.896  1.00  0.00     0.006 A 
ENDBRANCH  70  87
ENDBRANCH  44  45
ENDBRANCH  37  39
ENDBRANCH  36  37
ENDBRANCH  35  36
ENDBRANCH  34  35
ENDBRANCH  33  34
ENDBRANCH  32  33
ENDBRANCH  31  32
ENDBRANCH  30  31
ENDBRANCH  29  30
ENDBRANCH   1  29
TORSDOF 25
ENDMDL
MODEL 2
REMARK VINA RESULT:      -9.9      4.438     10.719
REMARK SMILES Cc1ccccc1CSCC(=O)Nc1ccc(C)c(C(=O)OCCOCCOCCOCCOC(=O)c2ccc(-c3c4nc(c(-c5c(F)cccc5F)c5ccc([nH]5)c(-c5c(F)cccc5F)c5nc(c(-c6c(F)cccc6F)c6ccc3[nH]6)C=C5)C=C4)cc2)c1
REMARK SMILES IDX 26 1 25 2 24 3 23 4 22 5 20 6 21 7 19 8 14 9 15 10 91 11
REMARK SMILES IDX 16 12 17 13 18 14 13 15 11 16 12 17 10 19 9 20 8 21 7 22
REMARK SMILES IDX 1 23 2 24 3 25 4 26 6 27 5 28 27 29 28 30 29 31 30 32 31 33
REMARK SMILES IDX 32 34 33 35 34 36 35 37 36 38 37 39 38 40 90 41 39 42 89 43
REMARK SMILES IDX 40 44 41 45 42 46 83 47 43 48 88 49 82 50 84 51 44 52 87 53
REMARK SMILES IDX 81 54 80 55 45 57 71 58 54 59 70 60 55 61 58 62 69 63 85 64
REMARK SMILES IDX 56 65 57 66 68 68 86 69 59 70 46 71 47 72 52 73 48 74 49 75
REMARK SMILES IDX 51 76 53 77 50 78 72 79 73 80 78 81 74 82 75 83 77 84 79 85
REMARK SMILES IDX 76 86 60 87 61 88 66 89 62 90 63 91 65 92 67 93 64 94
REMARK H PARENT 13 18 84 56 58 67
REMARK Flexibility Score: inf
ROOT
ATOM      1  C   UNL A   1      35.755  32.976  27.924  1.00  0.00     0.188 C 
ENDROOT
BRANCH   1   2
ATOM      2  O   UNL A   1      35.728  31.587  28.226  1.00  0.00    -0.376 OA
BRANCH   2   3
ATOM      3  C   UNL A   1      34.690  30.849  27.579  1.00  0.00     0.202 C 
BRANCH   3   4
ATOM      4  C   UNL A   1      34.848  29.341  27.612  1.00  0.00     0.261 C 
BRANCH   4   5
ATOM      5  O   UNL A   1      34.139  28.843  26.468  1.00  0.00    -0.460 OA
BRANCH   5   6
ATOM      6  C   UNL A   1      33.106  28.033  26.730  1.00  0.00     0.338 C 
ATOM      7  O   UNL A   1      32.169  28.266  27.459  1.00  0.00    -0.246 OA
BRANCH   6   8
ATOM      8  C   UNL A   1      33.044  27.058  25.607  1.00  0.00     0.065 A 
ATOM      9  C   UNL A   1      34.120  25.022  24.921  1.00  0.00     0.042 A 
ATOM     10  C   UNL A   1      33.176  24.813  23.928  1.00  0.00     0.026 A 
ATOM     11  C   UNL A   1      34.039  26.101  25.775  1.00  0.00     0.042 A 
ATOM     12  C   UNL A   1      32.200  25.772  23.723  1.00  0.00     0.006 A 
ATOM     13  C   UNL A   1      32.070  26.859  24.603  1.00  0.00    -0.036 A 
ATOM     14  C   UNL A   1      30.803  27.628  24.427  1.00  0.00     0.045 C 
BRANCH   9  15
ATOM     15  N   UNL A   1      35.326  24.334  24.925  1.00  0.00    -0.325 N 
ATOM     16  C   UNL A   1      35.487  23.211  25.711  1.00  0.00     0.234 C 
ATOM     17  O   UNL A   1      36.270  22.343  25.314  1.00  0.00    -0.274 OA
ATOM     18  H   UNL A   1      36.072  24.649  24.364  1.00  0.00     0.169 HD
BRANCH  16  19
ATOM     19  C   UNL A   1      34.631  22.986  26.961  1.00  0.00     0.170 C 
BRANCH  19  20
ATOM     20  S   UNL A   1      33.586  21.493  27.074  1.00  0.00    -0.147 SA
BRANCH  20  21
ATOM     21  C   UNL A   1      32.575  21.585  25.548  1.00  0.00     0.105 C 
BRANCH  21  22
ATOM     22  C   UNL A   1      32.679  20.330  24.741  1.00  0.00    -0.035 A 
ATOM     23  C   UNL A   1      32.119  21.428  22.464  1.00  0.00     0.044 C 
ATOM     24  C   UNL A   1      32.366  20.250  23.371  1.00  0.00    -0.047 A 
ATOM     25  C   UNL A   1      32.275  18.978  22.790  1.00  0.00     0.004 A 
ATOM     26  C   UNL A   1      32.552  17.825  23.524  1.00  0.00     0.000 A 
ATOM     27  C   UNL A   1      33.034  19.165  25.447  1.00  0.00     0.005 A 
ATOM     28  C   UNL A   1      32.963  17.919  24.846  1.00  0.00     0.000 A 
ENDBRANCH  21  22
ENDBRANCH  20  21
ENDBRANCH  19  20
ENDBRANCH  16  19
ENDBRANCH   9  15
ENDBRANCH   6   8
ENDBRANCH   5   6
ENDBRANCH   4   5
ENDBRANCH   3   4
ENDBRANCH   2   3
ENDBRANCH   1   2
BRANCH   1  29
ATOM     29  C   UNL A   1      35.291  33.980  28.985  1.00  0.00     0.188 C 
BRANCH  29  30
ATOM     30  O   UNL A   1      33.901  33.922  29.290  1.00  0.00    -0.377 OA
BRANCH  30  31
ATOM     31  C   UNL A   1      33.324  35.207  29.447  1.00  0.00     0.188 C 
BRANCH  31  32
ATOM     32  C   UNL A   1      33.182  35.569  30.904  1.00  0.00     0.188 C 
BRANCH  32  33
ATOM     33  O   UNL A   1      33.286  34.550  31.881  1.00  0.00    -0.376 OA
BRANCH  33  34
ATOM     34  C   UNL A   1      34.297  34.657  32.874  1.00  0.00     0.202 C 
BRANCH  34  35
ATOM     35  C   UNL A   1      35.514  33.738  32.686  1.00  0.00     0.261 C 
BRANCH  35  36
ATOM     36  O   UNL A   1      36.615  34.507  32.143  1.00  0.00    -0.460 OA
BRANCH  36  37
ATOM     37  C   UNL A   1      37.757  34.542  32.894  1.00  0.00     0.338 C 
ATOM     38  O   UNL A   1      37.814  34.899  34.060  1.00  0.00    -0.246 OA
BRANCH  37  39
ATOM     39  C   UNL A   1      38.963  34.498  31.986  1.00  0.00     0.060 A 
ATOM     40  C   UNL A   1      38.765  34.141  30.638  1.00  0.00     0.016 A 
ATOM     41  C   UNL A   1      40.223  34.311  32.553  1.00  0.00     0.016 A 
ATOM     42  C   UNL A   1      39.732  33.383  29.951  1.00  0.00     0.010 A 
ATOM     43  C   UNL A   1      41.128  33.486  31.895  1.00  0.00     0.010 A 
ATOM     44  C   UNL A   1      40.863  32.936  30.625  1.00  0.00    -0.014 A 
BRANCH  44  45
ATOM     45  C   UNL A   1      41.713  31.792  30.198  1.00  0.00     0.031 A 
ATOM     46  C   UNL A   1      42.987  32.095  29.455  1.00  0.00     0.074 A 
ATOM     47  C   UNL A   1      41.544  30.561  30.760  1.00  0.00     0.049 A 
ATOM     48  N   UNL A   1      43.955  31.270  29.265  1.00  0.00    -0.248 NA
ATOM     49  C   UNL A   1      43.323  33.416  28.937  1.00  0.00     0.031 C 
ATOM     50  C   UNL A   1      42.527  29.485  30.822  1.00  0.00     0.029 A 
ATOM     51  N   UNL A   1      40.463  29.986  31.450  1.00  0.00    -0.354 N 
ATOM     52  C   UNL A   1      45.103  31.951  28.912  1.00  0.00     0.074 A 
ATOM     53  C   UNL A   1      44.632  33.292  28.679  1.00  0.00     0.031 C 
ATOM     54  C   UNL A   1      42.019  28.362  31.338  1.00  0.00     0.029 A 
ATOM     55  C   UNL A   1      40.608  28.573  31.338  1.00  0.00     0.049 A 
ATOM     56  H   UNL A   1      39.743  30.466  31.919  1.00  0.00     0.167 HD
ATOM     57  C   UNL A   1      46.303  31.282  28.961  1.00  0.00     0.037 A 
ATOM     58  C   UNL A   1      39.803  27.837  30.518  1.00  0.00     0.037 A 
ATOM     59  C   UNL A   1      46.082  29.817  29.138  1.00  0.00     0.049 A 
ATOM     60  C   UNL A   1      40.635  27.310  29.316  1.00  0.00     0.074 A 
ATOM     61  C   UNL A   1      46.560  28.826  29.977  1.00  0.00     0.029 A 
ATOM     62  N   UNL A   1      45.045  29.200  28.422  1.00  0.00    -0.354 N 
ATOM     63  N   UNL A   1      41.780  27.853  28.929  1.00  0.00    -0.248 NA
ATOM     64  C   UNL A   1      40.414  26.059  28.602  1.00  0.00     0.031 C 
ATOM     65  C   UNL A   1      45.738  27.661  29.822  1.00  0.00     0.029 A 
ATOM     66  C   UNL A   1      44.788  27.909  28.838  1.00  0.00     0.049 A 
ATOM     67  H   UNL A   1      44.549  29.645  27.697  1.00  0.00     0.167 HD
ATOM     68  C   UNL A   1      42.545  26.962  28.221  1.00  0.00     0.074 A 
ATOM     69  C   UNL A   1      41.557  25.937  27.889  1.00  0.00     0.031 C 
ATOM     70  C   UNL A   1      43.916  27.041  28.036  1.00  0.00     0.037 A 
BRANCH  57  71
ATOM     71  C   UNL A   1      47.709  31.925  28.972  1.00  0.00     0.057 A 
ATOM     72  C   UNL A   1      48.496  31.962  30.150  1.00  0.00     0.134 A 
ATOM     73  C   UNL A   1      48.333  32.588  27.891  1.00  0.00     0.134 A 
ATOM     74  F   UNL A   1      48.103  31.361  31.279  1.00  0.00    -0.206 F 
ATOM     75  C   UNL A   1      49.745  32.611  30.246  1.00  0.00     0.040 A 
ATOM     76  C   UNL A   1      49.603  33.199  27.960  1.00  0.00     0.040 A 
ATOM     77  F   UNL A   1      47.751  32.720  26.698  1.00  0.00    -0.206 F 
ATOM     78  C   UNL A   1      50.312  33.226  29.145  1.00  0.00     0.006 A 
ENDBRANCH  57  71
BRANCH  58  79
ATOM     79  C   UNL A   1      38.382  28.248  30.806  1.00  0.00     0.057 A 
ATOM     80  C   UNL A   1      37.990  28.089  32.167  1.00  0.00     0.134 A 
ATOM     81  C   UNL A   1      37.828  29.357  30.153  1.00  0.00     0.134 A 
ATOM     82  F   UNL A   1      38.435  27.033  32.871  1.00  0.00    -0.206 F 
ATOM     83  C   UNL A   1      37.361  29.112  32.897  1.00  0.00     0.040 A 
ATOM     84  C   UNL A   1      37.141  30.361  30.871  1.00  0.00     0.040 A 
ATOM     85  F   UNL A   1      38.124  29.602  28.870  1.00  0.00    -0.206 F 
ATOM     86  C   UNL A   1      36.989  30.285  32.256  1.00  0.00     0.006 A 
ENDBRANCH  58  79
BRANCH  70  87
ATOM     87  C   UNL A   1      44.646  26.325  26.923  1.00  0.00     0.057 A 
ATOM     88  C   UNL A   1      45.082  26.922  25.750  1.00  0.00     0.134 A 
ATOM     89  C   UNL A   1      44.993  24.955  27.063  1.00  0.00     0.134 A 
ATOM     90  F   UNL A   1      44.580  28.095  25.341  1.00  0.00    -0.206 F 
ATOM     91  C   UNL A   1      46.031  26.307  24.929  1.00  0.00     0.040 A 
ATOM     92  C   UNL A   1      45.885  24.307  26.221  1.00  0.00     0.040 A 
ATOM     93  F   UNL A   1      44.507  24.167  28.032  1.00  0.00    -0.206 F 
ATOM     94  C   UNL A   1      46.469  25.012  25.189  1.00  0.00     0.006 A 
ENDBRANCH  70  87
ENDBRANCH  44  45
ENDBRANCH  37  39
ENDBRANCH  36  37
ENDBRANCH  35  36
ENDBRANCH  34  35
ENDBRANCH  33  34
ENDBRANCH  32  33
ENDBRANCH  31  32
ENDBRANCH  30  31
ENDBRANCH  29  30
ENDBRANCH   1  29
TORSDOF 25
ENDMDL
MODEL 3
REMARK VINA RESULT:      -9.8      1.727      2.575
REMARK SMILES Cc1ccccc1CSCC(=O)Nc1ccc(C)c(C(=O)OCCOCCOCCOCCOC(=O)c2ccc(-c3c4nc(c(-c5c(F)cccc5F)c5ccc([nH]5)c(-c5c(F)cccc5F)c5nc(c(-c6c(F)cccc6F)c6ccc3[nH]6)C=C5)C=C4)cc2)c1
REMARK SMILES IDX 26 1 25 2 24 3 23 4 22 5 20 6 21 7 19 8 14 9 15 10 91 11
REMARK SMILES IDX 16 12 17 13 18 14 13 15 11 16 12 17 10 19 9 20 8 21 7 22
REMARK SMILES IDX 1 23 2 24 3 25 4 26 6 27 5 28 27 29 28 30 29 31 30 32 31 33
REMARK SMILES IDX 32 34 33 35 34 36 35 37 36 38 37 39 38 40 90 41 39 42 89 43
REMARK SMILES IDX 40 44 41 45 42 46 83 47 43 48 88 49 82 50 84 51 44 52 87 53
REMARK SMILES IDX 81 54 80 55 45 57 71 58 54 59 70 60 55 61 58 62 69 63 85 64
REMARK SMILES IDX 56 65 57 66 68 68 86 69 59 70 46 71 47 72 52 73 48 74 49 75
REMARK SMILES IDX 51 76 53 77 50 78 72 79 73 80 78 81 74 82 75 83 77 84 79 85
REMARK SMILES IDX 76 86 60 87 61 88 66 89 62 90 63 91 65 92 67 93 64 94
REMARK H PARENT 13 18 84 56 58 67
REMARK Flexibility Score: inf
ROOT
ATOM      1  C   UNL A   1      40.783  22.576  27.354  1.00  0.00     0.188 C 
ENDROOT
BRANCH   1   2
ATOM      2  O   UNL A   1      39.910  23.179  26.408  1.00  0.00    -0.376 OA
BRANCH   2   3
ATOM      3  C   UNL A   1      38.519  22.953  26.641  1.00  0.00     0.202 C 
BRANCH   3   4
ATOM      4  C   UNL A   1      37.576  23.724  25.738  1.00  0.00     0.261 C 
BRANCH   4   5
ATOM      5  O   UNL A   1      36.465  22.851  25.487  1.00  0.00    -0.460 OA
BRANCH   5   6
ATOM      6  C   UNL A   1      36.337  22.417  24.227  1.00  0.00     0.338 C 
ATOM      7  O   UNL A   1      37.156  21.797  23.588  1.00  0.00    -0.246 OA
BRANCH   6   8
ATOM      8  C   UNL A   1      34.876  22.365  23.948  1.00  0.00     0.065 A 
ATOM      9  C   UNL A   1      33.307  23.263  22.365  1.00  0.00     0.042 A 
ATOM     10  C   UNL A   1      32.308  22.417  22.820  1.00  0.00     0.026 A 
ATOM     11  C   UNL A   1      34.582  23.215  22.888  1.00  0.00     0.042 A 
ATOM     12  C   UNL A   1      32.571  21.591  23.897  1.00  0.00     0.006 A 
ATOM     13  C   UNL A   1      33.870  21.493  24.422  1.00  0.00    -0.036 A 
ATOM     14  C   UNL A   1      34.053  20.353  25.367  1.00  0.00     0.045 C 
BRANCH   9  15
ATOM     15  N   UNL A   1      33.014  24.371  21.582  1.00  0.00    -0.325 N 
ATOM     16  C   UNL A   1      33.344  25.639  22.014  1.00  0.00     0.234 C 
ATOM     17  O   UNL A   1      33.598  26.488  21.154  1.00  0.00    -0.274 OA
ATOM     18  H   UNL A   1      32.567  24.252  20.712  1.00  0.00     0.169 HD
BRANCH  16  19
ATOM     19  C   UNL A   1      33.519  25.952  23.503  1.00  0.00     0.170 C 
BRANCH  19  20
ATOM     20  S   UNL A   1      32.453  27.211  24.285  1.00  0.00    -0.147 SA
BRANCH  20  21
ATOM     21  C   UNL A   1      32.474  26.726  26.052  1.00  0.00     0.105 C 
BRANCH  21  22
ATOM     22  C   UNL A   1      31.976  25.329  26.246  1.00  0.00    -0.035 A 
ATOM     23  C   UNL A   1      29.555  25.793  25.454  1.00  0.00     0.044 C 
ATOM     24  C   UNL A   1      30.633  24.943  26.077  1.00  0.00    -0.047 A 
ATOM     25  C   UNL A   1      30.254  23.668  26.517  1.00  0.00     0.004 A 
ATOM     26  C   UNL A   1      31.187  22.777  27.045  1.00  0.00     0.000 A 
ATOM     27  C   UNL A   1      32.921  24.391  26.706  1.00  0.00     0.005 A 
ATOM     28  C   UNL A   1      32.529  23.126  27.110  1.00  0.00     0.000 A 
ENDBRANCH  21  22
ENDBRANCH  20  21
ENDBRANCH  19  20
ENDBRANCH  16  19
ENDBRANCH   9  15
ENDBRANCH   6   8
ENDBRANCH   5   6
ENDBRANCH   4   5
ENDBRANCH   3   4
ENDBRANCH   2   3
ENDBRANCH   1   2
BRANCH   1  29
ATOM     29  C   UNL A   1      41.708  21.443  26.900  1.00  0.00     0.188 C 
BRANCH  29  30
ATOM     30  O   UNL A   1      41.216  20.133  27.166  1.00  0.00    -0.377 OA
BRANCH  30  31
ATOM     31  C   UNL A   1      42.247  19.160  27.199  1.00  0.00     0.188 C 
BRANCH  31  32
ATOM     32  C   UNL A   1      42.723  18.817  25.810  1.00  0.00     0.188 C 
BRANCH  32  33
ATOM     33  O   UNL A   1      43.949  18.127  25.653  1.00  0.00    -0.376 OA
BRANCH  33  34
ATOM     34  C   UNL A   1      45.124  18.878  25.375  1.00  0.00     0.202 C 
BRANCH  34  35
ATOM     35  C   UNL A   1      44.893  20.300  24.840  1.00  0.00     0.261 C 
BRANCH  35  36
ATOM     36  O   UNL A   1      45.907  21.183  25.379  1.00  0.00    -0.460 OA
BRANCH  36  37
ATOM     37  C   UNL A   1      45.892  22.471  24.921  1.00  0.00     0.338 C 
ATOM     38  O   UNL A   1      46.813  23.013  24.333  1.00  0.00    -0.246 OA
BRANCH  37  39
ATOM     39  C   UNL A   1      44.786  23.240  25.606  1.00  0.00     0.060 A 
ATOM     40  C   UNL A   1      44.010  24.119  24.825  1.00  0.00     0.016 A 
ATOM     41  C   UNL A   1      44.872  23.459  26.980  1.00  0.00     0.016 A 
ATOM     42  C   UNL A   1      43.539  25.330  25.369  1.00  0.00     0.010 A 
ATOM     43  C   UNL A   1      44.481  24.696  27.479  1.00  0.00     0.010 A 
ATOM     44  C   UNL A   1      43.891  25.685  26.667  1.00  0.00    -0.014 A 
BRANCH  44  45
ATOM     45  C   UNL A   1      43.866  27.071  27.207  1.00  0.00     0.031 A 
ATOM     46  C   UNL A   1      42.527  27.737  27.387  1.00  0.00     0.074 A 
ATOM     47  C   UNL A   1      44.957  27.580  27.849  1.00  0.00     0.049 A 
ATOM     48  N   UNL A   1      42.307  28.794  28.085  1.00  0.00    -0.248 NA
ATOM     49  C   UNL A   1      41.281  27.197  26.857  1.00  0.00     0.031 C 
ATOM     50  C   UNL A   1      44.974  28.677  28.810  1.00  0.00     0.029 A 
ATOM     51  N   UNL A   1      46.313  27.211  27.828  1.00  0.00    -0.354 N 
ATOM     52  C   UNL A   1      40.960  28.912  28.364  1.00  0.00     0.074 A 
ATOM     53  C   UNL A   1      40.362  27.903  27.528  1.00  0.00     0.031 C 
ATOM     54  C   UNL A   1      46.215  29.013  29.174  1.00  0.00     0.029 A 
ATOM     55  C   UNL A   1      47.057  28.359  28.228  1.00  0.00     0.049 A 
ATOM     56  H   UNL A   1      46.679  26.331  27.583  1.00  0.00     0.167 HD
ATOM     57  C   UNL A   1      40.568  29.798  29.340  1.00  0.00     0.037 A 
ATOM     58  C   UNL A   1      47.779  29.088  27.329  1.00  0.00     0.037 A 
ATOM     59  C   UNL A   1      41.702  30.683  29.733  1.00  0.00     0.049 A 
ATOM     60  C   UNL A   1      47.100  30.471  27.124  1.00  0.00     0.074 A 
ATOM     61  C   UNL A   1      42.295  31.085  30.917  1.00  0.00     0.029 A 
ATOM     62  N   UNL A   1      42.546  31.183  28.731  1.00  0.00    -0.354 N 
ATOM     63  N   UNL A   1      45.829  30.708  27.414  1.00  0.00    -0.248 NA
ATOM     64  C   UNL A   1      47.778  31.723  26.813  1.00  0.00     0.031 C 
ATOM     65  C   UNL A   1      43.538  31.732  30.608  1.00  0.00     0.029 A 
ATOM     66  C   UNL A   1      43.683  31.790  29.227  1.00  0.00     0.049 A 
ATOM     67  H   UNL A   1      42.349  31.107  27.769  1.00  0.00     0.167 HD
ATOM     68  C   UNL A   1      45.603  32.044  27.628  1.00  0.00     0.074 A 
ATOM     69  C   UNL A   1      46.808  32.635  27.048  1.00  0.00     0.031 C 
ATOM     70  C   UNL A   1      44.539  32.582  28.335  1.00  0.00     0.037 A 
BRANCH  57  71
ATOM     71  C   UNL A   1      39.197  29.822  30.056  1.00  0.00     0.057 A 
ATOM     72  C   UNL A   1      38.346  30.951  29.983  1.00  0.00     0.134 A 
ATOM     73  C   UNL A   1      38.673  28.807  30.888  1.00  0.00     0.134 A 
ATOM     74  F   UNL A   1      38.641  32.009  29.219  1.00  0.00    -0.206 F 
ATOM     75  C   UNL A   1      37.127  31.068  30.685  1.00  0.00     0.040 A 
ATOM     76  C   UNL A   1      37.432  28.892  31.556  1.00  0.00     0.040 A 
ATOM     77  F   UNL A   1      39.329  27.675  31.141  1.00  0.00    -0.206 F 
ATOM     78  C   UNL A   1      36.657  30.032  31.469  1.00  0.00     0.006 A 
ENDBRANCH  57  71
BRANCH  58  79
ATOM     79  C   UNL A   1      48.606  28.115  26.529  1.00  0.00     0.057 A 
ATOM     80  C   UNL A   1      49.560  27.387  27.300  1.00  0.00     0.134 A 
ATOM     81  C   UNL A   1      48.024  27.401  25.474  1.00  0.00     0.134 A 
ATOM     82  F   UNL A   1      50.206  27.994  28.310  1.00  0.00    -0.206 F 
ATOM     83  C   UNL A   1      49.685  25.989  27.223  1.00  0.00     0.040 A 
ATOM     84  C   UNL A   1      48.194  26.004  25.354  1.00  0.00     0.040 A 
ATOM     85  F   UNL A   1      47.117  27.988  24.682  1.00  0.00    -0.206 F 
ATOM     86  C   UNL A   1      48.947  25.284  26.282  1.00  0.00     0.006 A 
ENDBRANCH  58  79
BRANCH  70  87
ATOM     87  C   UNL A   1      44.083  34.015  28.184  1.00  0.00     0.057 A 
ATOM     88  C   UNL A   1      43.456  34.531  27.060  1.00  0.00     0.134 A 
ATOM     89  C   UNL A   1      44.223  34.926  29.264  1.00  0.00     0.134 A 
ATOM     90  F   UNL A   1      43.523  33.904  25.878  1.00  0.00    -0.206 F 
ATOM     91  C   UNL A   1      42.761  35.744  27.106  1.00  0.00     0.040 A 
ATOM     92  C   UNL A   1      43.594  36.163  29.301  1.00  0.00     0.040 A 
ATOM     93  F   UNL A   1      44.960  34.670  30.353  1.00  0.00    -0.206 F 
ATOM     94  C   UNL A   1      42.792  36.542  28.245  1.00  0.00     0.006 A 
ENDBRANCH  70  87
ENDBRANCH  44  45
ENDBRANCH  37  39
ENDBRANCH  36  37
ENDBRANCH  35  36
ENDBRANCH  34  35
ENDBRANCH  33  34
ENDBRANCH  32  33
ENDBRANCH  31  32
ENDBRANCH  30  31
ENDBRANCH  29  30
ENDBRANCH   1  29
TORSDOF 25
ENDMDL
