MODEL 1
REMARK VINA RESULT:     -10.4      0.000      0.000
REMARK SMILES CC[C@@H](C)c1ccccc1NC(=O)[C@@H]1[C@@H](C(=O)OCCOCCOCCOCCOC(=O)c2ccc(-c3c4nc(c(-c5c(F)cccc5F)c5ccc([nH]5)c(-c5c(F)cccc5F)c5nc(c(-c6c(F)cccc6F)c6ccc3[nH]6)C=C5)C=C4)cc2)[C@@H]2C=C[C@H]1C2
REMARK SMILES IDX 23 1 22 2 21 3 20 4 19 5 18 6 16 7 17 8 15 9 14 10 90 11
REMARK SMILES IDX 87 12 89 13 91 14 88 15 12 16 11 17 13 19 10 20 5 21 6 22
REMARK SMILES IDX 7 23 9 24 8 25 3 26 4 27 2 28 1 29 24 30 25 31 26 32 27 33
REMARK SMILES IDX 28 34 29 35 30 36 31 37 32 38 33 39 34 40 86 41 35 42 85 43
REMARK SMILES IDX 36 44 37 45 38 46 79 47 39 48 84 49 78 50 80 51 40 52 83 53
REMARK SMILES IDX 77 54 76 55 41 57 67 58 50 59 66 60 51 61 54 62 65 63 81 64
REMARK SMILES IDX 52 65 53 66 64 68 82 69 55 70 42 71 43 72 48 73 44 74 45 75
REMARK SMILES IDX 47 76 49 77 46 78 68 79 69 80 74 81 70 82 71 83 73 84 75 85
REMARK SMILES IDX 72 86 56 87 57 88 62 89 58 90 59 91 61 92 63 93 60 94
REMARK H PARENT 11 18 80 56 54 67
REMARK Flexibility Score: inf
ROOT
ATOM      1  C   UNL A   1      34.016  33.443  28.741  1.00  0.00     0.188 C 
ENDROOT
BRANCH   1   2
ATOM      2  C   UNL A   1      32.775  33.636  27.842  1.00  0.00     0.188 C 
BRANCH   2   3
ATOM      3  O   UNL A   1      32.400  32.476  27.111  1.00  0.00    -0.376 OA
BRANCH   3   4
ATOM      4  C   UNL A   1      33.081  31.242  27.257  1.00  0.00     0.202 C 
BRANCH   4   5
ATOM      5  C   UNL A   1      32.649  30.087  26.336  1.00  0.00     0.261 C 
BRANCH   5   6
ATOM      6  O   UNL A   1      32.503  28.837  27.022  1.00  0.00    -0.463 OA
BRANCH   6   7
ATOM      7  C   UNL A   1      33.037  27.805  26.348  1.00  0.00     0.310 C 
ATOM      8  O   UNL A   1      34.223  27.491  26.409  1.00  0.00    -0.252 OA
BRANCH   7   9
ATOM      9  C   UNL A   1      32.037  27.010  25.552  1.00  0.00     0.119 C 
ATOM     10  C   UNL A   1      32.830  25.718  25.246  1.00  0.00     0.100 C 
ATOM     11  C   UNL A   1      32.562  25.479  23.753  1.00  0.00     0.025 C 
ATOM     12  C   UNL A   1      31.585  27.460  24.147  1.00  0.00     0.027 C 
ATOM     13  C   UNL A   1      31.091  25.297  23.501  1.00  0.00    -0.027 C 
ATOM     14  C   UNL A   1      32.705  26.932  23.249  1.00  0.00     0.017 C 
ATOM     15  C   UNL A   1      30.501  26.484  23.716  1.00  0.00    -0.027 C 
BRANCH  10  16
ATOM     16  C   UNL A   1      32.568  24.667  26.310  1.00  0.00     0.228 C 
ATOM     17  N   UNL A   1      33.541  23.748  26.619  1.00  0.00    -0.326 N 
ATOM     18  H   UNL A   1      33.522  23.347  27.518  1.00  0.00     0.169 HD
ATOM     19  O   UNL A   1      31.509  24.624  26.943  1.00  0.00    -0.274 OA
BRANCH  17  20
ATOM     20  C   UNL A   1      34.559  23.340  25.746  1.00  0.00     0.044 A 
ATOM     21  C   UNL A   1      34.242  22.433  24.721  1.00  0.00    -0.022 A 
ATOM     22  C   UNL A   1      35.124  22.389  23.626  1.00  0.00     0.006 A 
ATOM     23  C   UNL A   1      36.328  23.103  23.626  1.00  0.00     0.000 A 
ATOM     24  C   UNL A   1      35.835  23.911  25.819  1.00  0.00     0.026 A 
ATOM     25  C   UNL A   1      36.713  23.817  24.749  1.00  0.00     0.002 A 
BRANCH  21  26
ATOM     26  C   UNL A   1      33.057  21.472  24.856  1.00  0.00     0.018 C 
ATOM     27  C   UNL A   1      33.464  19.997  24.711  1.00  0.00     0.013 C 
BRANCH  26  28
ATOM     28  C   UNL A   1      31.838  21.780  23.957  1.00  0.00     0.005 C 
ATOM     29  C   UNL A   1      32.095  21.391  22.500  1.00  0.00     0.004 C 
ENDBRANCH  26  28
ENDBRANCH  21  26
ENDBRANCH  17  20
ENDBRANCH  10  16
ENDBRANCH   7   9
ENDBRANCH   6   7
ENDBRANCH   5   6
ENDBRANCH   4   5
ENDBRANCH   3   4
ENDBRANCH   2   3
ENDBRANCH   1   2
BRANCH   1  30
ATOM     30  O   UNL A   1      34.323  34.486  29.662  1.00  0.00    -0.377 OA
BRANCH  30  31
ATOM     31  C   UNL A   1      33.258  35.383  29.939  1.00  0.00     0.188 C 
BRANCH  31  32
ATOM     32  C   UNL A   1      33.085  35.712  31.437  1.00  0.00     0.188 C 
BRANCH  32  33
ATOM     33  O   UNL A   1      34.151  36.250  32.200  1.00  0.00    -0.376 OA
BRANCH  33  34
ATOM     34  C   UNL A   1      34.882  35.458  33.118  1.00  0.00     0.202 C 
BRANCH  34  35
ATOM     35  C   UNL A   1      36.093  34.590  32.722  1.00  0.00     0.261 C 
BRANCH  35  36
ATOM     36  O   UNL A   1      36.117  33.227  33.153  1.00  0.00    -0.460 OA
BRANCH  36  37
ATOM     37  C   UNL A   1      35.525  32.331  32.333  1.00  0.00     0.338 C 
ATOM     38  O   UNL A   1      34.346  32.268  32.026  1.00  0.00    -0.246 OA
BRANCH  37  39
ATOM     39  C   UNL A   1      36.593  31.529  31.698  1.00  0.00     0.060 A 
ATOM     40  C   UNL A   1      37.603  30.982  32.504  1.00  0.00     0.016 A 
ATOM     41  C   UNL A   1      36.582  31.296  30.322  1.00  0.00     0.016 A 
ATOM     42  C   UNL A   1      38.615  30.215  31.937  1.00  0.00     0.010 A 
ATOM     43  C   UNL A   1      37.624  30.567  29.745  1.00  0.00     0.010 A 
ATOM     44  C   UNL A   1      38.659  30.053  30.549  1.00  0.00    -0.014 A 
BRANCH  44  45
ATOM     45  C   UNL A   1      39.908  29.567  29.924  1.00  0.00     0.031 A 
ATOM     46  C   UNL A   1      41.041  30.542  29.774  1.00  0.00     0.074 A 
ATOM     47  C   UNL A   1      40.046  28.290  29.532  1.00  0.00     0.049 A 
ATOM     48  N   UNL A   1      42.209  30.381  29.209  1.00  0.00    -0.248 NA
ATOM     49  C   UNL A   1      40.824  31.886  30.338  1.00  0.00     0.031 C 
ATOM     50  C   UNL A   1      39.039  27.243  29.682  1.00  0.00     0.029 A 
ATOM     51  N   UNL A   1      41.099  27.664  28.914  1.00  0.00    -0.354 N 
ATOM     52  C   UNL A   1      42.858  31.601  29.339  1.00  0.00     0.074 A 
ATOM     53  C   UNL A   1      41.947  32.503  30.009  1.00  0.00     0.031 C 
ATOM     54  C   UNL A   1      39.517  26.104  29.150  1.00  0.00     0.029 A 
ATOM     55  C   UNL A   1      40.845  26.354  28.594  1.00  0.00     0.049 A 
ATOM     56  H   UNL A   1      41.954  28.112  28.719  1.00  0.00     0.167 HD
ATOM     57  C   UNL A   1      44.106  31.939  28.941  1.00  0.00     0.037 A 
ATOM     58  C   UNL A   1      41.594  25.472  27.904  1.00  0.00     0.037 A 
ATOM     59  C   UNL A   1      45.004  31.038  28.269  1.00  0.00     0.049 A 
ATOM     60  C   UNL A   1      42.946  25.897  27.390  1.00  0.00     0.074 A 
ATOM     61  C   UNL A   1      46.294  31.276  27.831  1.00  0.00     0.029 A 
ATOM     62  N   UNL A   1      44.698  29.729  27.928  1.00  0.00    -0.354 N 
ATOM     63  N   UNL A   1      43.564  27.047  27.531  1.00  0.00    -0.248 NA
ATOM     64  C   UNL A   1      43.707  24.901  26.622  1.00  0.00     0.031 C 
ATOM     65  C   UNL A   1      46.748  30.130  27.170  1.00  0.00     0.029 A 
ATOM     66  C   UNL A   1      45.765  29.156  27.257  1.00  0.00     0.049 A 
ATOM     67  H   UNL A   1      43.849  29.275  28.131  1.00  0.00     0.167 HD
ATOM     68  C   UNL A   1      44.794  26.901  26.901  1.00  0.00     0.074 A 
ATOM     69  C   UNL A   1      44.840  25.547  26.389  1.00  0.00     0.031 C 
ATOM     70  C   UNL A   1      45.798  27.803  26.760  1.00  0.00     0.037 A 
BRANCH  57  71
ATOM     71  C   UNL A   1      44.553  33.350  29.186  1.00  0.00     0.057 A 
ATOM     72  C   UNL A   1      44.357  34.368  28.244  1.00  0.00     0.134 A 
ATOM     73  C   UNL A   1      45.170  33.700  30.394  1.00  0.00     0.134 A 
ATOM     74  F   UNL A   1      43.789  34.098  27.059  1.00  0.00    -0.206 F 
ATOM     75  C   UNL A   1      44.780  35.677  28.484  1.00  0.00     0.040 A 
ATOM     76  C   UNL A   1      45.570  35.010  30.658  1.00  0.00     0.040 A 
ATOM     77  F   UNL A   1      45.389  32.773  31.340  1.00  0.00    -0.206 F 
ATOM     78  C   UNL A   1      45.381  36.001  29.698  1.00  0.00     0.006 A 
ENDBRANCH  57  71
BRANCH  58  79
ATOM     79  C   UNL A   1      41.080  24.104  27.636  1.00  0.00     0.057 A 
ATOM     80  C   UNL A   1      41.590  22.990  28.311  1.00  0.00     0.134 A 
ATOM     81  C   UNL A   1      40.088  23.874  26.674  1.00  0.00     0.134 A 
ATOM     82  F   UNL A   1      42.559  23.142  29.226  1.00  0.00    -0.206 F 
ATOM     83  C   UNL A   1      41.149  21.696  28.028  1.00  0.00     0.040 A 
ATOM     84  C   UNL A   1      39.617  22.589  26.400  1.00  0.00     0.040 A 
ATOM     85  F   UNL A   1      39.556  24.897  25.990  1.00  0.00    -0.206 F 
ATOM     86  C   UNL A   1      40.155  21.494  27.072  1.00  0.00     0.006 A 
ENDBRANCH  58  79
BRANCH  70  87
ATOM     87  C   UNL A   1      47.049  27.344  26.067  1.00  0.00     0.057 A 
ATOM     88  C   UNL A   1      48.085  26.696  26.751  1.00  0.00     0.134 A 
ATOM     89  C   UNL A   1      47.198  27.514  24.684  1.00  0.00     0.134 A 
ATOM     90  F   UNL A   1      48.013  26.509  28.078  1.00  0.00    -0.206 F 
ATOM     91  C   UNL A   1      49.234  26.259  26.090  1.00  0.00     0.040 A 
ATOM     92  C   UNL A   1      48.326  27.053  24.007  1.00  0.00     0.040 A 
ATOM     93  F   UNL A   1      46.238  28.115  23.964  1.00  0.00    -0.206 F 
ATOM     94  C   UNL A   1      49.353  26.429  24.711  1.00  0.00     0.006 A 
ENDBRANCH  70  87
ENDBRANCH  44  45
ENDBRANCH  37  39
ENDBRANCH  36  37
ENDBRANCH  35  36
ENDBRANCH  34  35
ENDBRANCH  33  34
ENDBRANCH  32  33
ENDBRANCH  31  32
ENDBRANCH  30  31
ENDBRANCH   1  30
TORSDOF 24
ENDMDL
MODEL 2
REMARK VINA RESULT:     -10.0      0.804      5.872
REMARK SMILES CC[C@@H](C)c1ccccc1NC(=O)[C@@H]1[C@@H](C(=O)OCCOCCOCCOCCOC(=O)c2ccc(-c3c4nc(c(-c5c(F)cccc5F)c5ccc([nH]5)c(-c5c(F)cccc5F)c5nc(c(-c6c(F)cccc6F)c6ccc3[nH]6)C=C5)C=C4)cc2)[C@@H]2C=C[C@H]1C2
REMARK SMILES IDX 23 1 22 2 21 3 20 4 19 5 18 6 16 7 17 8 15 9 14 10 90 11
REMARK SMILES IDX 87 12 89 13 91 14 88 15 12 16 11 17 13 19 10 20 5 21 6 22
REMARK SMILES IDX 7 23 9 24 8 25 3 26 4 27 2 28 1 29 24 30 25 31 26 32 27 33
REMARK SMILES IDX 28 34 29 35 30 36 31 37 32 38 33 39 34 40 86 41 35 42 85 43
REMARK SMILES IDX 36 44 37 45 38 46 79 47 39 48 84 49 78 50 80 51 40 52 83 53
REMARK SMILES IDX 77 54 76 55 41 57 67 58 50 59 66 60 51 61 54 62 65 63 81 64
REMARK SMILES IDX 52 65 53 66 64 68 82 69 55 70 42 71 43 72 48 73 44 74 45 75
REMARK SMILES IDX 47 76 49 77 46 78 68 79 69 80 74 81 70 82 71 83 73 84 75 85
REMARK SMILES IDX 72 86 56 87 57 88 62 89 58 90 59 91 61 92 63 93 60 94
REMARK H PARENT 11 18 80 56 54 67
REMARK Flexibility Score: inf
ROOT
ATOM      1  C   UNL A   1      34.719  33.206  28.842  1.00  0.00     0.188 C 
ENDROOT
BRANCH   1   2
ATOM      2  C   UNL A   1      33.502  33.685  28.023  1.00  0.00     0.188 C 
BRANCH   2   3
ATOM      3  O   UNL A   1      32.866  32.659  27.271  1.00  0.00    -0.376 OA
BRANCH   3   4
ATOM      4  C   UNL A   1      33.148  31.287  27.482  1.00  0.00     0.202 C 
BRANCH   4   5
ATOM      5  C   UNL A   1      32.160  30.266  26.890  1.00  0.00     0.261 C 
BRANCH   5   6
ATOM      6  O   UNL A   1      32.424  28.918  27.297  1.00  0.00    -0.463 OA
BRANCH   6   7
ATOM      7  C   UNL A   1      33.180  28.243  26.416  1.00  0.00     0.310 C 
ATOM      8  O   UNL A   1      34.403  28.158  26.492  1.00  0.00    -0.252 OA
BRANCH   7   9
ATOM      9  C   UNL A   1      32.392  27.534  25.348  1.00  0.00     0.119 C 
ATOM     10  C   UNL A   1      33.192  26.222  25.181  1.00  0.00     0.100 C 
ATOM     11  C   UNL A   1      33.308  26.064  23.658  1.00  0.00     0.025 C 
ATOM     12  C   UNL A   1      32.331  28.070  23.901  1.00  0.00     0.027 C 
ATOM     13  C   UNL A   1      31.946  25.964  23.030  1.00  0.00    -0.027 C 
ATOM     14  C   UNL A   1      33.625  27.531  23.289  1.00  0.00     0.017 C 
ATOM     15  C   UNL A   1      31.361  27.166  23.154  1.00  0.00    -0.027 C 
BRANCH  10  16
ATOM     16  C   UNL A   1      32.630  25.137  26.082  1.00  0.00     0.228 C 
ATOM     17  N   UNL A   1      33.388  24.029  26.375  1.00  0.00    -0.326 N 
ATOM     18  H   UNL A   1      33.195  23.551  27.214  1.00  0.00     0.169 HD
ATOM     19  O   UNL A   1      31.512  25.226  26.597  1.00  0.00    -0.274 OA
BRANCH  17  20
ATOM     20  C   UNL A   1      34.418  23.530  25.564  1.00  0.00     0.044 A 
ATOM     21  C   UNL A   1      34.074  22.812  24.407  1.00  0.00    -0.022 A 
ATOM     22  C   UNL A   1      35.061  22.718  23.410  1.00  0.00     0.006 A 
ATOM     23  C   UNL A   1      36.363  23.187  23.621  1.00  0.00     0.000 A 
ATOM     24  C   UNL A   1      35.756  23.838  25.837  1.00  0.00     0.026 A 
ATOM     25  C   UNL A   1      36.727  23.693  24.858  1.00  0.00     0.002 A 
BRANCH  21  26
ATOM     26  C   UNL A   1      32.731  22.084  24.300  1.00  0.00     0.018 C 
ATOM     27  C   UNL A   1      32.738  20.711  24.990  1.00  0.00     0.013 C 
BRANCH  26  28
ATOM     28  C   UNL A   1      32.146  21.960  22.873  1.00  0.00     0.005 C 
ATOM     29  C   UNL A   1      32.153  20.512  22.382  1.00  0.00     0.004 C 
ENDBRANCH  26  28
ENDBRANCH  21  26
ENDBRANCH  17  20
ENDBRANCH  10  16
ENDBRANCH   7   9
ENDBRANCH   6   7
ENDBRANCH   5   6
ENDBRANCH   4   5
ENDBRANCH   3   4
ENDBRANCH   2   3
ENDBRANCH   1   2
BRANCH   1  30
ATOM     30  O   UNL A   1      35.028  33.926  30.033  1.00  0.00    -0.377 OA
BRANCH  30  31
ATOM     31  C   UNL A   1      34.016  34.810  30.486  1.00  0.00     0.188 C 
BRANCH  31  32
ATOM     32  C   UNL A   1      34.020  35.043  32.012  1.00  0.00     0.188 C 
BRANCH  32  33
ATOM     33  O   UNL A   1      35.186  35.487  32.684  1.00  0.00    -0.376 OA
BRANCH  33  34
ATOM     34  C   UNL A   1      35.774  34.734  33.730  1.00  0.00     0.202 C 
BRANCH  34  35
ATOM     35  C   UNL A   1      37.029  33.856  33.548  1.00  0.00     0.261 C 
BRANCH  35  36
ATOM     36  O   UNL A   1      36.900  32.445  33.739  1.00  0.00    -0.460 OA
BRANCH  36  37
ATOM     37  C   UNL A   1      36.298  31.761  32.742  1.00  0.00     0.338 C 
ATOM     38  O   UNL A   1      35.116  31.773  32.438  1.00  0.00    -0.246 OA
BRANCH  37  39
ATOM     39  C   UNL A   1      37.357  31.120  31.933  1.00  0.00     0.060 A 
ATOM     40  C   UNL A   1      38.459  30.547  32.587  1.00  0.00     0.016 A 
ATOM     41  C   UNL A   1      37.250  31.060  30.543  1.00  0.00     0.016 A 
ATOM     42  C   UNL A   1      39.465  29.928  31.854  1.00  0.00     0.010 A 
ATOM     43  C   UNL A   1      38.284  30.482  29.803  1.00  0.00     0.010 A 
ATOM     44  C   UNL A   1      39.408  29.944  30.457  1.00  0.00    -0.014 A 
BRANCH  44  45
ATOM     45  C   UNL A   1      40.629  29.627  29.686  1.00  0.00     0.031 A 
ATOM     46  C   UNL A   1      40.759  28.241  29.121  1.00  0.00     0.074 A 
ATOM     47  C   UNL A   1      41.579  30.549  29.464  1.00  0.00     0.049 A 
ATOM     48  N   UNL A   1      41.752  27.699  28.465  1.00  0.00    -0.248 NA
ATOM     49  C   UNL A   1      39.610  27.342  29.327  1.00  0.00     0.031 C 
ATOM     50  C   UNL A   1      41.533  31.939  29.911  1.00  0.00     0.029 A 
ATOM     51  N   UNL A   1      42.780  30.442  28.809  1.00  0.00    -0.354 N 
ATOM     52  C   UNL A   1      41.352  26.398  28.192  1.00  0.00     0.074 A 
ATOM     53  C   UNL A   1      40.042  26.220  28.777  1.00  0.00     0.031 C 
ATOM     54  C   UNL A   1      42.668  32.554  29.532  1.00  0.00     0.029 A 
ATOM     55  C   UNL A   1      43.530  31.591  28.849  1.00  0.00     0.049 A 
ATOM     56  H   UNL A   1      43.075  29.620  28.354  1.00  0.00     0.167 HD
ATOM     57  C   UNL A   1      42.017  25.437  27.508  1.00  0.00     0.037 A 
ATOM     58  C   UNL A   1      44.782  31.821  28.410  1.00  0.00     0.037 A 
ATOM     59  C   UNL A   1      43.323  25.621  26.935  1.00  0.00     0.049 A 
ATOM     60  C   UNL A   1      45.541  30.709  27.730  1.00  0.00     0.074 A 
ATOM     61  C   UNL A   1      44.082  24.716  26.214  1.00  0.00     0.029 A 
ATOM     62  N   UNL A   1      44.069  26.786  27.029  1.00  0.00    -0.354 N 
ATOM     63  N   UNL A   1      45.153  29.485  27.459  1.00  0.00    -0.248 NA
ATOM     64  C   UNL A   1      46.912  31.011  27.294  1.00  0.00     0.031 C 
ATOM     65  C   UNL A   1      45.312  25.314  25.925  1.00  0.00     0.029 A 
ATOM     66  C   UNL A   1      45.293  26.614  26.406  1.00  0.00     0.049 A 
ATOM     67  H   UNL A   1      43.773  27.613  27.474  1.00  0.00     0.167 HD
ATOM     68  C   UNL A   1      46.214  28.885  26.792  1.00  0.00     0.074 A 
ATOM     69  C   UNL A   1      47.258  29.883  26.690  1.00  0.00     0.031 C 
ATOM     70  C   UNL A   1      46.318  27.623  26.306  1.00  0.00     0.037 A 
BRANCH  57  71
ATOM     71  C   UNL A   1      41.357  24.097  27.381  1.00  0.00     0.057 A 
ATOM     72  C   UNL A   1      41.774  22.988  28.131  1.00  0.00     0.134 A 
ATOM     73  C   UNL A   1      40.274  23.917  26.511  1.00  0.00     0.134 A 
ATOM     74  F   UNL A   1      42.816  23.086  28.969  1.00  0.00    -0.206 F 
ATOM     75  C   UNL A   1      41.152  21.744  28.001  1.00  0.00     0.040 A 
ATOM     76  C   UNL A   1      39.626  22.687  26.394  1.00  0.00     0.040 A 
ATOM     77  F   UNL A   1      39.825  24.937  25.763  1.00  0.00    -0.206 F 
ATOM     78  C   UNL A   1      40.070  21.594  27.136  1.00  0.00     0.006 A 
ENDBRANCH  57  71
BRANCH  58  79
ATOM     79  C   UNL A   1      45.413  33.150  28.614  1.00  0.00     0.057 A 
ATOM     80  C   UNL A   1      46.185  33.424  29.749  1.00  0.00     0.134 A 
ATOM     81  C   UNL A   1      45.233  34.191  27.693  1.00  0.00     0.134 A 
ATOM     82  F   UNL A   1      46.374  32.477  30.679  1.00  0.00    -0.206 F 
ATOM     83  C   UNL A   1      46.738  34.686  29.972  1.00  0.00     0.040 A 
ATOM     84  C   UNL A   1      45.804  35.449  27.889  1.00  0.00     0.040 A 
ATOM     85  F   UNL A   1      44.505  33.997  26.584  1.00  0.00    -0.206 F 
ATOM     86  C   UNL A   1      46.551  35.702  29.037  1.00  0.00     0.006 A 
ENDBRANCH  58  79
BRANCH  70  87
ATOM     87  C   UNL A   1      47.582  27.263  25.577  1.00  0.00     0.057 A 
ATOM     88  C   UNL A   1      48.680  26.689  26.230  1.00  0.00     0.134 A 
ATOM     89  C   UNL A   1      47.682  27.452  24.192  1.00  0.00     0.134 A 
ATOM     90  F   UNL A   1      48.657  26.489  27.556  1.00  0.00    -0.206 F 
ATOM     91  C   UNL A   1      49.842  26.343  25.535  1.00  0.00     0.040 A 
ATOM     92  C   UNL A   1      48.824  27.080  23.483  1.00  0.00     0.040 A 
ATOM     93  F   UNL A   1      46.662  27.985  23.502  1.00  0.00    -0.206 F 
ATOM     94  C   UNL A   1      49.912  26.530  24.156  1.00  0.00     0.006 A 
ENDBRANCH  70  87
ENDBRANCH  44  45
ENDBRANCH  37  39
ENDBRANCH  36  37
ENDBRANCH  35  36
ENDBRANCH  34  35
ENDBRANCH  33  34
ENDBRANCH  32  33
ENDBRANCH  31  32
ENDBRANCH  30  31
ENDBRANCH   1  30
TORSDOF 24
ENDMDL
MODEL 3
REMARK VINA RESULT:      -9.8      4.695     10.078
REMARK SMILES CC[C@@H](C)c1ccccc1NC(=O)[C@@H]1[C@@H](C(=O)OCCOCCOCCOCCOC(=O)c2ccc(-c3c4nc(c(-c5c(F)cccc5F)c5ccc([nH]5)c(-c5c(F)cccc5F)c5nc(c(-c6c(F)cccc6F)c6ccc3[nH]6)C=C5)C=C4)cc2)[C@@H]2C=C[C@H]1C2
REMARK SMILES IDX 23 1 22 2 21 3 20 4 19 5 18 6 16 7 17 8 15 9 14 10 90 11
REMARK SMILES IDX 87 12 89 13 91 14 88 15 12 16 11 17 13 19 10 20 5 21 6 22
REMARK SMILES IDX 7 23 9 24 8 25 3 26 4 27 2 28 1 29 24 30 25 31 26 32 27 33
REMARK SMILES IDX 28 34 29 35 30 36 31 37 32 38 33 39 34 40 86 41 35 42 85 43
REMARK SMILES IDX 36 44 37 45 38 46 79 47 39 48 84 49 78 50 80 51 40 52 83 53
REMARK SMILES IDX 77 54 76 55 41 57 67 58 50 59 66 60 51 61 54 62 65 63 81 64
REMARK SMILES IDX 52 65 53 66 64 68 82 69 55 70 42 71 43 72 48 73 44 74 45 75
REMARK SMILES IDX 47 76 49 77 46 78 68 79 69 80 74 81 70 82 71 83 73 84 75 85
REMARK SMILES IDX 72 86 56 87 57 88 62 89 58 90 59 91 61 92 63 93 60 94
REMARK H PARENT 11 18 80 56 54 67
REMARK Flexibility Score: inf
ROOT
ATOM      1  C   UNL A   1      40.477  21.671  27.128  1.00  0.00     0.188 C 
ENDROOT
BRANCH   1   2
ATOM      2  C   UNL A   1      39.377  21.880  26.066  1.00  0.00     0.188 C 
BRANCH   2   3
ATOM      3  O   UNL A   1      38.509  22.973  26.335  1.00  0.00    -0.376 OA
BRANCH   3   4
ATOM      4  C   UNL A   1      37.131  22.939  26.006  1.00  0.00     0.202 C 
BRANCH   4   5
ATOM      5  C   UNL A   1      36.731  22.177  24.730  1.00  0.00     0.261 C 
BRANCH   5   6
ATOM      6  O   UNL A   1      35.328  22.242  24.446  1.00  0.00    -0.463 OA
BRANCH   6   7
ATOM      7  C   UNL A   1      35.037  23.076  23.433  1.00  0.00     0.310 C 
ATOM      8  O   UNL A   1      35.884  23.570  22.693  1.00  0.00    -0.252 OA
BRANCH   7   9
ATOM      9  C   UNL A   1      33.564  23.308  23.235  1.00  0.00     0.119 C 
ATOM     10  C   UNL A   1      33.366  24.687  23.905  1.00  0.00     0.100 C 
ATOM     11  C   UNL A   1      32.104  24.494  24.757  1.00  0.00     0.025 C 
ATOM     12  C   UNL A   1      32.507  22.439  23.950  1.00  0.00     0.027 C 
ATOM     13  C   UNL A   1      30.931  24.128  23.892  1.00  0.00    -0.027 C 
ATOM     14  C   UNL A   1      32.414  23.093  25.330  1.00  0.00     0.017 C 
ATOM     15  C   UNL A   1      31.155  22.891  23.419  1.00  0.00    -0.027 C 
BRANCH  10  16
ATOM     16  C   UNL A   1      33.509  25.802  22.883  1.00  0.00     0.228 C 
ATOM     17  N   UNL A   1      33.632  27.104  23.303  1.00  0.00    -0.326 N 
ATOM     18  H   UNL A   1      34.090  27.737  22.704  1.00  0.00     0.169 HD
ATOM     19  O   UNL A   1      33.553  25.578  21.670  1.00  0.00    -0.274 OA
BRANCH  17  20
ATOM     20  C   UNL A   1      33.152  27.597  24.526  1.00  0.00     0.044 A 
ATOM     21  C   UNL A   1      31.783  27.887  24.642  1.00  0.00    -0.022 A 
ATOM     22  C   UNL A   1      31.261  27.942  25.946  1.00  0.00     0.006 A 
ATOM     23  C   UNL A   1      32.090  27.858  27.072  1.00  0.00     0.000 A 
ATOM     24  C   UNL A   1      33.994  27.689  25.640  1.00  0.00     0.026 A 
ATOM     25  C   UNL A   1      33.466  27.792  26.918  1.00  0.00     0.002 A 
BRANCH  21  26
ATOM     26  C   UNL A   1      30.941  28.231  23.409  1.00  0.00     0.018 C 
ATOM     27  C   UNL A   1      30.520  29.708  23.367  1.00  0.00     0.013 C 
BRANCH  26  28
ATOM     28  C   UNL A   1      29.718  27.319  23.156  1.00  0.00     0.005 C 
ATOM     29  C   UNL A   1      28.417  28.121  23.091  1.00  0.00     0.004 C 
ENDBRANCH  26  28
ENDBRANCH  21  26
ENDBRANCH  17  20
ENDBRANCH  10  16
ENDBRANCH   7   9
ENDBRANCH   6   7
ENDBRANCH   5   6
ENDBRANCH   4   5
ENDBRANCH   3   4
ENDBRANCH   2   3
ENDBRANCH   1   2
BRANCH   1  30
ATOM     30  O   UNL A   1      40.785  20.328  27.493  1.00  0.00    -0.377 OA
BRANCH  30  31
ATOM     31  C   UNL A   1      41.709  19.665  26.644  1.00  0.00     0.188 C 
BRANCH  31  32
ATOM     32  C   UNL A   1      42.989  20.477  26.352  1.00  0.00     0.188 C 
BRANCH  32  33
ATOM     33  O   UNL A   1      43.426  20.708  25.024  1.00  0.00    -0.376 OA
BRANCH  33  34
ATOM     34  C   UNL A   1      44.761  21.083  24.735  1.00  0.00     0.202 C 
BRANCH  34  35
ATOM     35  C   UNL A   1      45.234  22.547  24.638  1.00  0.00     0.261 C 
BRANCH  35  36
ATOM     36  O   UNL A   1      44.837  23.456  25.667  1.00  0.00    -0.460 OA
BRANCH  36  37
ATOM     37  C   UNL A   1      43.749  24.213  25.409  1.00  0.00     0.338 C 
ATOM     38  O   UNL A   1      43.003  24.141  24.446  1.00  0.00    -0.246 OA
BRANCH  37  39
ATOM     39  C   UNL A   1      43.483  25.041  26.605  1.00  0.00     0.060 A 
ATOM     40  C   UNL A   1      42.614  24.551  27.592  1.00  0.00     0.016 A 
ATOM     41  C   UNL A   1      44.108  26.279  26.764  1.00  0.00     0.016 A 
ATOM     42  C   UNL A   1      42.353  25.301  28.733  1.00  0.00     0.010 A 
ATOM     43  C   UNL A   1      43.808  27.055  27.886  1.00  0.00     0.010 A 
ATOM     44  C   UNL A   1      42.905  26.581  28.855  1.00  0.00    -0.014 A 
BRANCH  44  45
ATOM     45  C   UNL A   1      42.346  27.509  29.861  1.00  0.00     0.031 A 
ATOM     46  C   UNL A   1      43.009  27.563  31.209  1.00  0.00     0.074 A 
ATOM     47  C   UNL A   1      41.304  28.307  29.578  1.00  0.00     0.049 A 
ATOM     48  N   UNL A   1      42.676  28.243  32.274  1.00  0.00    -0.248 NA
ATOM     49  C   UNL A   1      44.212  26.729  31.377  1.00  0.00     0.031 C 
ATOM     50  C   UNL A   1      40.621  28.385  28.289  1.00  0.00     0.029 A 
ATOM     51  N   UNL A   1      40.633  29.201  30.374  1.00  0.00    -0.354 N 
ATOM     52  C   UNL A   1      43.618  27.913  33.238  1.00  0.00     0.074 A 
ATOM     53  C   UNL A   1      44.519  26.949  32.645  1.00  0.00     0.031 C 
ATOM     54  C   UNL A   1      39.610  29.267  28.387  1.00  0.00     0.029 A 
ATOM     55  C   UNL A   1      39.558  29.786  29.753  1.00  0.00     0.049 A 
ATOM     56  H   UNL A   1      40.896  29.402  31.300  1.00  0.00     0.167 HD
ATOM     57  C   UNL A   1      43.727  28.376  34.505  1.00  0.00     0.037 A 
ATOM     58  C   UNL A   1      38.624  30.621  30.247  1.00  0.00     0.037 A 
ATOM     59  C   UNL A   1      42.822  29.329  35.089  1.00  0.00     0.049 A 
ATOM     60  C   UNL A   1      38.712  31.055  31.688  1.00  0.00     0.074 A 
ATOM     61  C   UNL A   1      42.848  29.873  36.361  1.00  0.00     0.029 A 
ATOM     62  N   UNL A   1      41.722  29.872  34.442  1.00  0.00    -0.354 N 
ATOM     63  N   UNL A   1      39.615  30.754  32.592  1.00  0.00    -0.248 NA
ATOM     64  C   UNL A   1      37.651  31.947  32.179  1.00  0.00     0.031 C 
ATOM     65  C   UNL A   1      41.728  30.698  36.504  1.00  0.00     0.029 A 
ATOM     66  C   UNL A   1      41.043  30.721  35.299  1.00  0.00     0.049 A 
ATOM     67  H   UNL A   1      41.462  29.681  33.512  1.00  0.00     0.167 HD
ATOM     68  C   UNL A   1      39.251  31.443  33.742  1.00  0.00     0.074 A 
ATOM     69  C   UNL A   1      38.053  32.188  33.419  1.00  0.00     0.031 C 
ATOM     70  C   UNL A   1      39.855  31.462  34.958  1.00  0.00     0.037 A 
BRANCH  57  71
ATOM     71  C   UNL A   1      44.837  27.826  35.349  1.00  0.00     0.057 A 
ATOM     72  C   UNL A   1      46.092  28.447  35.426  1.00  0.00     0.134 A 
ATOM     73  C   UNL A   1      44.643  26.669  36.114  1.00  0.00     0.134 A 
ATOM     74  F   UNL A   1      46.352  29.547  34.706  1.00  0.00    -0.206 F 
ATOM     75  C   UNL A   1      47.118  27.922  36.215  1.00  0.00     0.040 A 
ATOM     76  C   UNL A   1      45.651  26.152  36.929  1.00  0.00     0.040 A 
ATOM     77  F   UNL A   1      43.466  26.024  36.086  1.00  0.00    -0.206 F 
ATOM     78  C   UNL A   1      46.895  26.776  36.975  1.00  0.00     0.006 A 
ENDBRANCH  57  71
BRANCH  58  79
ATOM     79  C   UNL A   1      37.509  31.091  29.384  1.00  0.00     0.057 A 
ATOM     80  C   UNL A   1      37.509  32.376  28.831  1.00  0.00     0.134 A 
ATOM     81  C   UNL A   1      36.401  30.276  29.118  1.00  0.00     0.134 A 
ATOM     82  F   UNL A   1      38.530  33.213  29.069  1.00  0.00    -0.206 F 
ATOM     83  C   UNL A   1      36.442  32.843  28.062  1.00  0.00     0.040 A 
ATOM     84  C   UNL A   1      35.339  30.718  28.328  1.00  0.00     0.040 A 
ATOM     85  F   UNL A   1      36.337  29.034  29.618  1.00  0.00    -0.206 F 
ATOM     86  C   UNL A   1      35.354  32.010  27.804  1.00  0.00     0.006 A 
ENDBRANCH  58  79
BRANCH  70  87
ATOM     87  C   UNL A   1      39.259  32.351  36.013  1.00  0.00     0.057 A 
ATOM     88  C   UNL A   1      38.308  31.885  36.928  1.00  0.00     0.134 A 
ATOM     89  C   UNL A   1      39.681  33.681  36.142  1.00  0.00     0.134 A 
ATOM     90  F   UNL A   1      37.852  30.625  36.856  1.00  0.00    -0.206 F 
ATOM     91  C   UNL A   1      37.777  32.718  37.916  1.00  0.00     0.040 A 
ATOM     92  C   UNL A   1      39.182  34.513  37.145  1.00  0.00     0.040 A 
ATOM     93  F   UNL A   1      40.600  34.189  35.307  1.00  0.00    -0.206 F 
ATOM     94  C   UNL A   1      38.221  34.034  38.031  1.00  0.00     0.006 A 
ENDBRANCH  70  87
ENDBRANCH  44  45
ENDBRANCH  37  39
ENDBRANCH  36  37
ENDBRANCH  35  36
ENDBRANCH  34  35
ENDBRANCH  33  34
ENDBRANCH  32  33
ENDBRANCH  31  32
ENDBRANCH  30  31
ENDBRANCH   1  30
TORSDOF 24
ENDMDL
