MODEL 1
REMARK VINA RESULT:      -8.3      0.000      0.000
REMARK SMILES Cc1ccc(S(=O)(=O)n2cc(C(=O)C(=O)N[C@@H](Cc3c[nH]c4ccccc34)C(=O)OCCOCCOCCOCCOC(=O)c3ccc(-c4c5nc(c(-c6c(F)cccc6F)c6ccc([nH]6)c(-c6c(F)cccc6F)c6nc(c(-c7c(F)cccc7F)c7ccc4[nH]7)C=C6)C=C5)cc3)c3ccccc32)cc1
REMARK SMILES IDX 34 1 33 2 32 3 31 4 30 5 28 6 29 7 17 8 16 9 14 10 15 11
REMARK SMILES IDX 12 13 13 14 11 15 9 16 10 17 104 18 99 19 103 20 100 21
REMARK SMILES IDX 102 22 101 23 6 24 7 25 8 26 5 27 1 28 2 29 3 30 106 31 4 32
REMARK SMILES IDX 105 33 18 34 19 35 20 36 27 37 21 38 22 39 26 40 23 42 25 43
REMARK SMILES IDX 24 44 35 45 36 46 37 47 38 48 39 49 40 50 41 51 42 52 43 53
REMARK SMILES IDX 44 54 45 55 46 56 98 57 47 58 97 59 48 60 49 61 50 62 91 63
REMARK SMILES IDX 51 64 96 65 90 66 92 67 52 68 95 69 89 70 88 71 53 73 79 74
REMARK SMILES IDX 62 75 78 76 63 77 66 78 77 79 93 80 64 81 65 82 76 84 94 85
REMARK SMILES IDX 67 86 54 87 55 88 60 89 56 90 57 91 59 92 61 93 58 94 80 95
REMARK SMILES IDX 81 96 86 97 82 98 83 99 85 100 87 101 84 102 68 103 69 104
REMARK SMILES IDX 74 105 70 106 71 107 73 108 75 109 72 110
REMARK H PARENT 16 12 21 41 92 72 66 83
REMARK Flexibility Score: inf
ROOT
ATOM      1  C   UNL A   1      38.489  32.985  38.534  1.00  0.00     0.188 C 
ENDROOT
BRANCH   1   2
ATOM      2  O   UNL A   1      38.766  34.321  38.927  1.00  0.00    -0.376 OA
BRANCH   2   3
ATOM      3  C   UNL A   1      40.031  34.767  38.450  1.00  0.00     0.202 C 
BRANCH   3   4
ATOM      4  C   UNL A   1      40.033  36.121  37.718  1.00  0.00     0.261 C 
BRANCH   4   5
ATOM      5  O   UNL A   1      41.010  36.282  36.683  1.00  0.00    -0.462 OA
BRANCH   5   6
ATOM      6  C   UNL A   1      40.540  35.953  35.448  1.00  0.00     0.329 C 
ATOM      7  O   UNL A   1      39.348  35.900  35.149  1.00  0.00    -0.250 OA
BRANCH   6   8
ATOM      8  C   UNL A   1      41.646  35.691  34.403  1.00  0.00     0.197 C 
BRANCH   8   9
ATOM      9  N   UNL A   1      43.084  35.815  34.769  1.00  0.00    -0.335 N 
ATOM     10  C   UNL A   1      44.058  36.589  34.134  1.00  0.00     0.293 C 
ATOM     11  O   UNL A   1      45.258  36.414  34.322  1.00  0.00    -0.265 OA
ATOM     12  H   UNL A   1      43.383  35.292  35.549  1.00  0.00     0.164 HD
BRANCH  10  13
ATOM     13  C   UNL A   1      43.572  37.780  33.308  1.00  0.00     0.252 C 
ATOM     14  O   UNL A   1      42.848  38.553  33.939  1.00  0.00    -0.283 OA
BRANCH  13  15
ATOM     15  C   UNL A   1      43.850  38.156  31.921  1.00  0.00     0.054 A 
ATOM     16  N   UNL A   1      43.668  38.594  29.737  1.00  0.00    -0.240 N 
ATOM     17  C   UNL A   1      43.932  37.558  30.656  1.00  0.00     0.117 A 
ATOM     18  C   UNL A   1      43.372  39.739  30.504  1.00  0.00     0.065 A 
ATOM     19  C   UNL A   1      44.096  39.534  31.657  1.00  0.00     0.012 A 
ATOM     20  C   UNL A   1      42.888  41.013  30.169  1.00  0.00     0.028 A 
ATOM     21  C   UNL A   1      44.585  40.645  32.368  1.00  0.00     0.011 A 
ATOM     22  C   UNL A   1      43.410  42.105  30.868  1.00  0.00     0.002 A 
ATOM     23  C   UNL A   1      44.300  41.929  31.917  1.00  0.00     0.001 A 
BRANCH  16  24
ATOM     24  S   UNL A   1      44.549  39.080  28.323  1.00  0.00     0.268 S 
ATOM     25  O   UNL A   1      44.295  38.010  27.372  1.00  0.00    -0.201 OA
ATOM     26  O   UNL A   1      45.873  39.266  28.911  1.00  0.00    -0.201 OA
BRANCH  24  27
ATOM     27  C   UNL A   1      44.455  40.552  27.387  1.00  0.00     0.088 A 
ATOM     28  C   UNL A   1      43.617  43.476  24.334  1.00  0.00     0.044 C 
ATOM     29  C   UNL A   1      43.890  42.525  25.462  1.00  0.00    -0.051 A 
ATOM     30  C   UNL A   1      43.096  41.393  25.519  1.00  0.00     0.005 A 
ATOM     31  C   UNL A   1      44.928  42.690  26.409  1.00  0.00     0.005 A 
ATOM     32  C   UNL A   1      43.364  40.448  26.483  1.00  0.00     0.022 A 
ATOM     33  C   UNL A   1      45.227  41.698  27.382  1.00  0.00     0.022 A 
ENDBRANCH  24  27
ENDBRANCH  16  24
ENDBRANCH  13  15
ENDBRANCH  10  13
ENDBRANCH   8   9
BRANCH   8  34
ATOM     34  C   UNL A   1      41.293  34.406  33.622  1.00  0.00     0.074 C 
BRANCH  34  35
ATOM     35  C   UNL A   1      42.055  34.108  32.370  1.00  0.00    -0.020 A 
ATOM     36  C   UNL A   1      41.737  34.553  31.101  1.00  0.00     0.087 A 
ATOM     37  C   UNL A   1      43.304  33.414  32.256  1.00  0.00     0.003 A 
ATOM     38  N   UNL A   1      42.730  34.167  30.243  1.00  0.00    -0.361 N 
ATOM     39  C   UNL A   1      43.685  33.445  30.916  1.00  0.00     0.046 A 
ATOM     40  C   UNL A   1      44.150  32.756  33.174  1.00  0.00     0.010 A 
ATOM     41  H   UNL A   1      42.757  34.377  29.282  1.00  0.00     0.166 HD
ATOM     42  C   UNL A   1      44.851  32.831  30.445  1.00  0.00     0.026 A 
ATOM     43  C   UNL A   1      45.283  32.084  32.715  1.00  0.00     0.001 A 
ATOM     44  C   UNL A   1      45.631  32.130  31.370  1.00  0.00     0.002 A 
ENDBRANCH  34  35
ENDBRANCH   8  34
ENDBRANCH   6   8
ENDBRANCH   5   6
ENDBRANCH   4   5
ENDBRANCH   3   4
ENDBRANCH   2   3
ENDBRANCH   1   2
BRANCH   1  45
ATOM     45  C   UNL A   1      37.869  32.905  37.145  1.00  0.00     0.188 C 
BRANCH  45  46
ATOM     46  O   UNL A   1      37.475  31.631  36.691  1.00  0.00    -0.377 OA
BRANCH  46  47
ATOM     47  C   UNL A   1      38.246  31.207  35.574  1.00  0.00     0.188 C 
BRANCH  47  48
ATOM     48  C   UNL A   1      37.584  31.831  34.379  1.00  0.00     0.188 C 
BRANCH  48  49
ATOM     49  O   UNL A   1      38.525  31.689  33.313  1.00  0.00    -0.376 OA
BRANCH  49  50
ATOM     50  C   UNL A   1      38.094  30.866  32.237  1.00  0.00     0.202 C 
BRANCH  50  51
ATOM     51  C   UNL A   1      37.781  31.744  31.024  1.00  0.00     0.261 C 
BRANCH  51  52
ATOM     52  O   UNL A   1      38.758  31.456  29.993  1.00  0.00    -0.460 OA
BRANCH  52  53
ATOM     53  C   UNL A   1      38.286  30.734  28.947  1.00  0.00     0.338 C 
ATOM     54  O   UNL A   1      37.150  30.853  28.468  1.00  0.00    -0.246 OA
BRANCH  53  55
ATOM     55  C   UNL A   1      39.176  29.580  28.612  1.00  0.00     0.060 A 
ATOM     56  C   UNL A   1      40.074  29.117  29.590  1.00  0.00     0.016 A 
ATOM     57  C   UNL A   1      39.393  29.243  27.274  1.00  0.00     0.016 A 
ATOM     58  C   UNL A   1      41.269  28.485  29.216  1.00  0.00     0.010 A 
ATOM     59  C   UNL A   1      40.632  28.730  26.903  1.00  0.00     0.010 A 
ATOM     60  C   UNL A   1      41.605  28.396  27.860  1.00  0.00    -0.014 A 
BRANCH  60  61
ATOM     61  C   UNL A   1      43.001  28.320  27.372  1.00  0.00     0.031 A 
ATOM     62  C   UNL A   1      43.845  29.543  27.071  1.00  0.00     0.074 A 
ATOM     63  C   UNL A   1      43.638  27.155  27.639  1.00  0.00     0.049 A 
ATOM     64  N   UNL A   1      45.104  29.542  26.731  1.00  0.00    -0.248 NA
ATOM     65  C   UNL A   1      43.293  30.899  27.069  1.00  0.00     0.031 C 
ATOM     66  C   UNL A   1      44.967  27.109  28.200  1.00  0.00     0.029 A 
ATOM     67  N   UNL A   1      43.259  25.835  27.737  1.00  0.00    -0.354 N 
ATOM     68  C   UNL A   1      45.573  30.849  26.774  1.00  0.00     0.074 A 
ATOM     69  C   UNL A   1      44.378  31.651  26.852  1.00  0.00     0.031 C 
ATOM     70  C   UNL A   1      45.370  25.861  28.440  1.00  0.00     0.029 A 
ATOM     71  C   UNL A   1      44.379  25.004  27.869  1.00  0.00     0.049 A 
ATOM     72  H   UNL A   1      42.329  25.519  27.716  1.00  0.00     0.167 HD
ATOM     73  C   UNL A   1      46.913  31.133  26.890  1.00  0.00     0.037 A 
ATOM     74  C   UNL A   1      44.692  24.066  26.938  1.00  0.00     0.037 A 
ATOM     75  C   UNL A   1      47.786  29.961  26.662  1.00  0.00     0.049 A 
ATOM     76  C   UNL A   1      45.851  24.462  26.019  1.00  0.00     0.074 A 
ATOM     77  C   UNL A   1      48.987  29.507  27.189  1.00  0.00     0.029 A 
ATOM     78  N   UNL A   1      47.394  28.960  25.767  1.00  0.00    -0.354 N 
ATOM     79  N   UNL A   1      46.537  25.587  26.106  1.00  0.00    -0.248 NA
ATOM     80  C   UNL A   1      46.334  23.637  24.914  1.00  0.00     0.031 C 
ATOM     81  C   UNL A   1      49.205  28.169  26.740  1.00  0.00     0.029 A 
ATOM     82  C   UNL A   1      48.230  27.866  25.804  1.00  0.00     0.049 A 
ATOM     83  H   UNL A   1      46.609  29.030  25.176  1.00  0.00     0.167 HD
ATOM     84  C   UNL A   1      47.418  25.705  25.051  1.00  0.00     0.074 A 
ATOM     85  C   UNL A   1      47.300  24.416  24.390  1.00  0.00     0.031 C 
ATOM     86  C   UNL A   1      48.141  26.842  24.765  1.00  0.00     0.037 A 
BRANCH  73  87
ATOM     87  C   UNL A   1      47.465  32.486  27.402  1.00  0.00     0.057 A 
ATOM     88  C   UNL A   1      48.028  32.617  28.693  1.00  0.00     0.134 A 
ATOM     89  C   UNL A   1      47.344  33.723  26.727  1.00  0.00     0.134 A 
ATOM     90  F   UNL A   1      48.239  31.549  29.473  1.00  0.00    -0.206 F 
ATOM     91  C   UNL A   1      48.403  33.854  29.260  1.00  0.00     0.040 A 
ATOM     92  C   UNL A   1      47.792  34.953  27.249  1.00  0.00     0.040 A 
ATOM     93  F   UNL A   1      46.721  33.830  25.547  1.00  0.00    -0.206 F 
ATOM     94  C   UNL A   1      48.304  35.027  28.532  1.00  0.00     0.006 A 
ENDBRANCH  73  87
BRANCH  74  95
ATOM     95  C   UNL A   1      43.618  23.013  26.927  1.00  0.00     0.057 A 
ATOM     96  C   UNL A   1      43.221  22.648  28.235  1.00  0.00     0.134 A 
ATOM     97  C   UNL A   1      42.571  23.136  26.000  1.00  0.00     0.134 A 
ATOM     98  F   UNL A   1      44.149  22.418  29.168  1.00  0.00    -0.206 F 
ATOM     99  C   UNL A   1      41.900  22.780  28.679  1.00  0.00     0.040 A 
ATOM    100  C   UNL A   1      41.233  23.251  26.429  1.00  0.00     0.040 A 
ATOM    101  F   UNL A   1      42.839  23.412  24.716  1.00  0.00    -0.206 F 
ATOM    102  C   UNL A   1      40.909  23.155  27.782  1.00  0.00     0.006 A 
ENDBRANCH  74  95
BRANCH  86 103
ATOM    103  C   UNL A   1      48.889  27.175  23.458  1.00  0.00     0.057 A 
ATOM    104  C   UNL A   1      48.329  27.820  22.348  1.00  0.00     0.134 A 
ATOM    105  C   UNL A   1      50.300  26.989  23.347  1.00  0.00     0.134 A 
ATOM    106  F   UNL A   1      47.052  28.212  22.325  1.00  0.00    -0.206 F 
ATOM    107  C   UNL A   1      49.076  28.175  21.210  1.00  0.00     0.040 A 
ATOM    108  C   UNL A   1      51.062  27.392  22.245  1.00  0.00     0.040 A 
ATOM    109  F   UNL A   1      51.039  26.437  24.317  1.00  0.00    -0.206 F 
ATOM    110  C   UNL A   1      50.447  27.974  21.157  1.00  0.00     0.006 A 
ENDBRANCH  86 103
ENDBRANCH  60  61
ENDBRANCH  53  55
ENDBRANCH  52  53
ENDBRANCH  51  52
ENDBRANCH  50  51
ENDBRANCH  49  50
ENDBRANCH  48  49
ENDBRANCH  47  48
ENDBRANCH  46  47
ENDBRANCH  45  46
ENDBRANCH   1  45
TORSDOF 27
ENDMDL
MODEL 2
REMARK VINA RESULT:      -8.3      5.528     10.605
REMARK SMILES Cc1ccc(S(=O)(=O)n2cc(C(=O)C(=O)N[C@@H](Cc3c[nH]c4ccccc34)C(=O)OCCOCCOCCOCCOC(=O)c3ccc(-c4c5nc(c(-c6c(F)cccc6F)c6ccc([nH]6)c(-c6c(F)cccc6F)c6nc(c(-c7c(F)cccc7F)c7ccc4[nH]7)C=C6)C=C5)cc3)c3ccccc32)cc1
REMARK SMILES IDX 34 1 33 2 32 3 31 4 30 5 28 6 29 7 17 8 16 9 14 10 15 11
REMARK SMILES IDX 12 13 13 14 11 15 9 16 10 17 104 18 99 19 103 20 100 21
REMARK SMILES IDX 102 22 101 23 6 24 7 25 8 26 5 27 1 28 2 29 3 30 106 31 4 32
REMARK SMILES IDX 105 33 18 34 19 35 20 36 27 37 21 38 22 39 26 40 23 42 25 43
REMARK SMILES IDX 24 44 35 45 36 46 37 47 38 48 39 49 40 50 41 51 42 52 43 53
REMARK SMILES IDX 44 54 45 55 46 56 98 57 47 58 97 59 48 60 49 61 50 62 91 63
REMARK SMILES IDX 51 64 96 65 90 66 92 67 52 68 95 69 89 70 88 71 53 73 79 74
REMARK SMILES IDX 62 75 78 76 63 77 66 78 77 79 93 80 64 81 65 82 76 84 94 85
REMARK SMILES IDX 67 86 54 87 55 88 60 89 56 90 57 91 59 92 61 93 58 94 80 95
REMARK SMILES IDX 81 96 86 97 82 98 83 99 85 100 87 101 84 102 68 103 69 104
REMARK SMILES IDX 74 105 70 106 71 107 73 108 75 109 72 110
REMARK H PARENT 16 12 21 41 92 72 66 83
REMARK Flexibility Score: inf
ROOT
ATOM      1  C   UNL A   1      38.787  34.597  30.689  1.00  0.00     0.188 C 
ENDROOT
BRANCH   1   2
ATOM      2  O   UNL A   1      37.772  33.665  30.343  1.00  0.00    -0.376 OA
BRANCH   2   3
ATOM      3  C   UNL A   1      36.787  34.240  29.491  1.00  0.00     0.202 C 
BRANCH   3   4
ATOM      4  C   UNL A   1      35.906  33.244  28.715  1.00  0.00     0.261 C 
BRANCH   4   5
ATOM      5  O   UNL A   1      35.290  32.208  29.486  1.00  0.00    -0.462 OA
BRANCH   5   6
ATOM      6  C   UNL A   1      35.655  30.957  29.091  1.00  0.00     0.329 C 
ATOM      7  O   UNL A   1      35.192  30.375  28.111  1.00  0.00    -0.250 OA
BRANCH   6   8
ATOM      8  C   UNL A   1      36.764  30.322  29.958  1.00  0.00     0.197 C 
BRANCH   8   9
ATOM      9  N   UNL A   1      38.151  30.862  29.936  1.00  0.00    -0.335 N 
ATOM     10  C   UNL A   1      39.296  30.239  29.437  1.00  0.00     0.293 C 
ATOM     11  O   UNL A   1      40.427  30.629  29.713  1.00  0.00    -0.265 OA
ATOM     12  H   UNL A   1      38.275  31.762  30.318  1.00  0.00     0.164 HD
BRANCH  10  13
ATOM     13  C   UNL A   1      39.093  29.139  28.395  1.00  0.00     0.252 C 
ATOM     14  O   UNL A   1      37.919  28.781  28.280  1.00  0.00    -0.283 OA
BRANCH  13  15
ATOM     15  C   UNL A   1      40.050  28.479  27.505  1.00  0.00     0.054 A 
ATOM     16  N   UNL A   1      41.922  27.741  26.534  1.00  0.00    -0.240 N 
ATOM     17  C   UNL A   1      41.011  28.818  26.543  1.00  0.00     0.117 A 
ATOM     18  C   UNL A   1      41.497  26.852  27.540  1.00  0.00     0.065 A 
ATOM     19  C   UNL A   1      40.136  27.059  27.580  1.00  0.00     0.012 A 
ATOM     20  C   UNL A   1      42.071  25.701  28.102  1.00  0.00     0.028 A 
ATOM     21  C   UNL A   1      39.289  25.996  27.943  1.00  0.00     0.011 A 
ATOM     22  C   UNL A   1      41.214  24.647  28.428  1.00  0.00     0.002 A 
ATOM     23  C   UNL A   1      39.839  24.768  28.290  1.00  0.00     0.001 A 
BRANCH  16  24
ATOM     24  S   UNL A   1      42.546  26.823  25.201  1.00  0.00     0.268 S 
ATOM     25  O   UNL A   1      42.973  27.836  24.250  1.00  0.00    -0.201 OA
ATOM     26  O   UNL A   1      41.390  25.972  24.927  1.00  0.00    -0.201 OA
BRANCH  24  27
ATOM     27  C   UNL A   1      43.798  25.604  25.159  1.00  0.00     0.088 A 
ATOM     28  C   UNL A   1      45.977  21.893  25.378  1.00  0.00     0.044 C 
ATOM     29  C   UNL A   1      45.268  23.206  25.222  1.00  0.00    -0.051 A 
ATOM     30  C   UNL A   1      43.893  23.149  25.078  1.00  0.00     0.005 A 
ATOM     31  C   UNL A   1      45.905  24.467  25.275  1.00  0.00     0.005 A 
ATOM     32  C   UNL A   1      43.187  24.329  25.020  1.00  0.00     0.022 A 
ATOM     33  C   UNL A   1      45.174  25.685  25.250  1.00  0.00     0.022 A 
ENDBRANCH  24  27
ENDBRANCH  16  24
ENDBRANCH  13  15
ENDBRANCH  10  13
ENDBRANCH   8   9
BRANCH   8  34
ATOM     34  C   UNL A   1      36.198  30.066  31.373  1.00  0.00     0.074 C 
BRANCH  34  35
ATOM     35  C   UNL A   1      36.622  30.980  32.479  1.00  0.00    -0.020 A 
ATOM     36  C   UNL A   1      37.810  30.906  33.182  1.00  0.00     0.087 A 
ATOM     37  C   UNL A   1      35.948  32.157  32.941  1.00  0.00     0.003 A 
ATOM     38  N   UNL A   1      37.881  31.977  34.029  1.00  0.00    -0.361 N 
ATOM     39  C   UNL A   1      36.745  32.742  33.925  1.00  0.00     0.046 A 
ATOM     40  C   UNL A   1      34.727  32.783  32.614  1.00  0.00     0.010 A 
ATOM     41  H   UNL A   1      38.637  32.172  34.628  1.00  0.00     0.166 HD
ATOM     42  C   UNL A   1      36.370  33.901  34.613  1.00  0.00     0.026 A 
ATOM     43  C   UNL A   1      34.306  33.902  33.333  1.00  0.00     0.001 A 
ATOM     44  C   UNL A   1      35.122  34.457  34.312  1.00  0.00     0.002 A 
ENDBRANCH  34  35
ENDBRANCH   8  34
ENDBRANCH   6   8
ENDBRANCH   5   6
ENDBRANCH   4   5
ENDBRANCH   3   4
ENDBRANCH   2   3
ENDBRANCH   1   2
BRANCH   1  45
ATOM     45  C   UNL A   1      40.028  34.452  29.818  1.00  0.00     0.188 C 
BRANCH  45  46
ATOM     46  O   UNL A   1      41.138  33.798  30.388  1.00  0.00    -0.377 OA
BRANCH  46  47
ATOM     47  C   UNL A   1      42.339  34.087  29.685  1.00  0.00     0.188 C 
BRANCH  47  48
ATOM     48  C   UNL A   1      43.428  34.009  30.715  1.00  0.00     0.188 C 
BRANCH  48  49
ATOM     49  O   UNL A   1      44.547  33.435  30.037  1.00  0.00    -0.376 OA
BRANCH  49  50
ATOM     50  C   UNL A   1      44.220  32.456  29.060  1.00  0.00     0.202 C 
BRANCH  50  51
ATOM     51  C   UNL A   1      44.683  31.082  29.547  1.00  0.00     0.261 C 
BRANCH  51  52
ATOM     52  O   UNL A   1      44.036  30.072  28.733  1.00  0.00    -0.460 OA
BRANCH  52  53
ATOM     53  C   UNL A   1      44.628  29.841  27.535  1.00  0.00     0.338 C 
ATOM     54  O   UNL A   1      44.286  30.372  26.470  1.00  0.00    -0.246 OA
BRANCH  53  55
ATOM     55  C   UNL A   1      45.550  28.665  27.580  1.00  0.00     0.060 A 
ATOM     56  C   UNL A   1      45.067  27.451  28.101  1.00  0.00     0.016 A 
ATOM     57  C   UNL A   1      46.928  28.866  27.489  1.00  0.00     0.016 A 
ATOM     58  C   UNL A   1      45.946  26.532  28.693  1.00  0.00     0.010 A 
ATOM     59  C   UNL A   1      47.779  28.014  28.185  1.00  0.00     0.010 A 
ATOM     60  C   UNL A   1      47.297  26.868  28.840  1.00  0.00    -0.014 A 
BRANCH  60  61
ATOM     61  C   UNL A   1      48.159  26.316  29.910  1.00  0.00     0.031 A 
ATOM     62  C   UNL A   1      49.662  26.167  29.773  1.00  0.00     0.074 A 
ATOM     63  C   UNL A   1      47.635  26.377  31.157  1.00  0.00     0.049 A 
ATOM     64  N   UNL A   1      50.483  25.778  30.709  1.00  0.00    -0.248 NA
ATOM     65  C   UNL A   1      50.363  26.392  28.508  1.00  0.00     0.031 C 
ATOM     66  C   UNL A   1      48.382  26.869  32.290  1.00  0.00     0.029 A 
ATOM     67  N   UNL A   1      46.368  26.292  31.689  1.00  0.00    -0.354 N 
ATOM     68  C   UNL A   1      51.784  25.997  30.274  1.00  0.00     0.074 A 
ATOM     69  C   UNL A   1      51.646  26.245  28.861  1.00  0.00     0.031 C 
ATOM     70  C   UNL A   1      47.650  26.901  33.403  1.00  0.00     0.029 A 
ATOM     71  C   UNL A   1      46.417  26.250  33.089  1.00  0.00     0.049 A 
ATOM     72  H   UNL A   1      45.541  26.263  31.158  1.00  0.00     0.167 HD
ATOM     73  C   UNL A   1      52.834  26.097  31.155  1.00  0.00     0.037 A 
ATOM     74  C   UNL A   1      45.973  25.176  33.791  1.00  0.00     0.037 A 
ATOM     75  C   UNL A   1      52.497  25.660  32.527  1.00  0.00     0.049 A 
ATOM     76  C   UNL A   1      47.090  24.279  34.331  1.00  0.00     0.074 A 
ATOM     77  C   UNL A   1      52.853  26.061  33.806  1.00  0.00     0.029 A 
ATOM     78  N   UNL A   1      51.559  24.641  32.725  1.00  0.00    -0.354 N 
ATOM     79  N   UNL A   1      48.383  24.505  34.181  1.00  0.00    -0.248 NA
ATOM     80  C   UNL A   1      46.857  23.043  35.074  1.00  0.00     0.031 C 
ATOM     81  C   UNL A   1      51.996  25.407  34.744  1.00  0.00     0.029 A 
ATOM     82  C   UNL A   1      51.235  24.478  34.054  1.00  0.00     0.049 A 
ATOM     83  H   UNL A   1      51.174  24.101  31.997  1.00  0.00     0.167 HD
ATOM     84  C   UNL A   1      49.123  23.443  34.660  1.00  0.00     0.074 A 
ATOM     85  C   UNL A   1      48.112  22.601  35.278  1.00  0.00     0.031 C 
ATOM     86  C   UNL A   1      50.482  23.302  34.484  1.00  0.00     0.037 A 
BRANCH  73  87
ATOM     87  C   UNL A   1      54.180  26.784  30.815  1.00  0.00     0.057 A 
ATOM     88  C   UNL A   1      54.269  28.179  30.604  1.00  0.00     0.134 A 
ATOM     89  C   UNL A   1      55.392  26.108  30.544  1.00  0.00     0.134 A 
ATOM     90  F   UNL A   1      53.224  28.987  30.830  1.00  0.00    -0.206 F 
ATOM     91  C   UNL A   1      55.435  28.828  30.145  1.00  0.00     0.040 A 
ATOM     92  C   UNL A   1      56.587  26.755  30.166  1.00  0.00     0.040 A 
ATOM     93  F   UNL A   1      55.481  24.773  30.561  1.00  0.00    -0.206 F 
ATOM     94  C   UNL A   1      56.608  28.119  29.942  1.00  0.00     0.006 A 
ENDBRANCH  73  87
BRANCH  74  95
ATOM     95  C   UNL A   1      44.486  25.052  33.605  1.00  0.00     0.057 A 
ATOM     96  C   UNL A   1      44.067  23.701  33.578  1.00  0.00     0.134 A 
ATOM     97  C   UNL A   1      43.647  25.920  34.321  1.00  0.00     0.134 A 
ATOM     98  F   UNL A   1      44.746  22.810  32.850  1.00  0.00    -0.206 F 
ATOM     99  C   UNL A   1      43.137  23.188  34.491  1.00  0.00     0.040 A 
ATOM    100  C   UNL A   1      42.692  25.422  35.230  1.00  0.00     0.040 A 
ATOM    101  F   UNL A   1      43.913  27.234  34.354  1.00  0.00    -0.206 F 
ATOM    102  C   UNL A   1      42.498  24.048  35.374  1.00  0.00     0.006 A 
ENDBRANCH  74  95
BRANCH  86 103
ATOM    103  C   UNL A   1      51.328  22.029  34.694  1.00  0.00     0.057 A 
ATOM    104  C   UNL A   1      52.388  21.905  35.601  1.00  0.00     0.134 A 
ATOM    105  C   UNL A   1      50.971  20.794  34.075  1.00  0.00     0.134 A 
ATOM    106  F   UNL A   1      52.773  22.916  36.386  1.00  0.00    -0.206 F 
ATOM    107  C   UNL A   1      53.077  20.697  35.816  1.00  0.00     0.040 A 
ATOM    108  C   UNL A   1      51.610  19.575  34.325  1.00  0.00     0.040 A 
ATOM    109  F   UNL A   1      49.954  20.681  33.212  1.00  0.00    -0.206 F 
ATOM    110  C   UNL A   1      52.685  19.524  35.188  1.00  0.00     0.006 A 
ENDBRANCH  86 103
ENDBRANCH  60  61
ENDBRANCH  53  55
ENDBRANCH  52  53
ENDBRANCH  51  52
ENDBRANCH  50  51
ENDBRANCH  49  50
ENDBRANCH  48  49
ENDBRANCH  47  48
ENDBRANCH  46  47
ENDBRANCH  45  46
ENDBRANCH   1  45
TORSDOF 27
ENDMDL
MODEL 3
REMARK VINA RESULT:      -8.0      4.638      8.542
REMARK SMILES Cc1ccc(S(=O)(=O)n2cc(C(=O)C(=O)N[C@@H](Cc3c[nH]c4ccccc34)C(=O)OCCOCCOCCOCCOC(=O)c3ccc(-c4c5nc(c(-c6c(F)cccc6F)c6ccc([nH]6)c(-c6c(F)cccc6F)c6nc(c(-c7c(F)cccc7F)c7ccc4[nH]7)C=C6)C=C5)cc3)c3ccccc32)cc1
REMARK SMILES IDX 34 1 33 2 32 3 31 4 30 5 28 6 29 7 17 8 16 9 14 10 15 11
REMARK SMILES IDX 12 13 13 14 11 15 9 16 10 17 104 18 99 19 103 20 100 21
REMARK SMILES IDX 102 22 101 23 6 24 7 25 8 26 5 27 1 28 2 29 3 30 106 31 4 32
REMARK SMILES IDX 105 33 18 34 19 35 20 36 27 37 21 38 22 39 26 40 23 42 25 43
REMARK SMILES IDX 24 44 35 45 36 46 37 47 38 48 39 49 40 50 41 51 42 52 43 53
REMARK SMILES IDX 44 54 45 55 46 56 98 57 47 58 97 59 48 60 49 61 50 62 91 63
REMARK SMILES IDX 51 64 96 65 90 66 92 67 52 68 95 69 89 70 88 71 53 73 79 74
REMARK SMILES IDX 62 75 78 76 63 77 66 78 77 79 93 80 64 81 65 82 76 84 94 85
REMARK SMILES IDX 67 86 54 87 55 88 60 89 56 90 57 91 59 92 61 93 58 94 80 95
REMARK SMILES IDX 81 96 86 97 82 98 83 99 85 100 87 101 84 102 68 103 69 104
REMARK SMILES IDX 74 105 70 106 71 107 73 108 75 109 72 110
REMARK H PARENT 16 12 21 41 92 72 66 83
REMARK Flexibility Score: inf
ROOT
ATOM      1  C   UNL A   1      40.626  29.612  34.775  1.00  0.00     0.188 C 
ENDROOT
BRANCH   1   2
ATOM      2  O   UNL A   1      40.256  30.596  35.730  1.00  0.00    -0.376 OA
BRANCH   2   3
ATOM      3  C   UNL A   1      38.844  30.741  35.829  1.00  0.00     0.202 C 
BRANCH   3   4
ATOM      4  C   UNL A   1      38.343  31.753  36.874  1.00  0.00     0.261 C 
BRANCH   4   5
ATOM      5  O   UNL A   1      38.339  33.128  36.475  1.00  0.00    -0.462 OA
BRANCH   5   6
ATOM      6  C   UNL A   1      37.186  33.502  35.854  1.00  0.00     0.329 C 
ATOM      7  O   UNL A   1      36.068  33.424  36.360  1.00  0.00    -0.250 OA
BRANCH   6   8
ATOM      8  C   UNL A   1      37.394  34.096  34.444  1.00  0.00     0.197 C 
BRANCH   8   9
ATOM      9  N   UNL A   1      36.272  34.760  33.725  1.00  0.00    -0.335 N 
ATOM     10  C   UNL A   1      35.594  34.294  32.597  1.00  0.00     0.293 C 
ATOM     11  O   UNL A   1      34.887  35.025  31.910  1.00  0.00    -0.265 OA
ATOM     12  H   UNL A   1      35.975  35.627  34.086  1.00  0.00     0.164 HD
BRANCH  10  13
ATOM     13  C   UNL A   1      35.634  32.789  32.333  1.00  0.00     0.252 C 
ATOM     14  O   UNL A   1      34.623  32.196  32.716  1.00  0.00    -0.283 OA
BRANCH  13  15
ATOM     15  C   UNL A   1      36.650  31.961  31.680  1.00  0.00     0.054 A 
ATOM     16  N   UNL A   1      37.901  30.243  30.991  1.00  0.00    -0.240 N 
ATOM     17  C   UNL A   1      37.774  31.197  32.022  1.00  0.00     0.117 A 
ATOM     18  C   UNL A   1      36.805  30.442  30.128  1.00  0.00     0.065 A 
ATOM     19  C   UNL A   1      36.540  31.785  30.271  1.00  0.00     0.012 A 
ATOM     20  C   UNL A   1      36.309  29.718  29.033  1.00  0.00     0.028 A 
ATOM     21  C   UNL A   1      35.999  32.499  29.186  1.00  0.00     0.011 A 
ATOM     22  C   UNL A   1      35.803  30.448  27.954  1.00  0.00     0.002 A 
ATOM     23  C   UNL A   1      35.708  31.831  28.002  1.00  0.00     0.001 A 
BRANCH  16  24
ATOM     24  S   UNL A   1      39.287  29.804  30.045  1.00  0.00     0.268 S 
ATOM     25  O   UNL A   1      40.398  29.937  30.973  1.00  0.00    -0.201 OA
ATOM     26  O   UNL A   1      39.124  30.731  28.928  1.00  0.00    -0.201 OA
BRANCH  24  27
ATOM     27  C   UNL A   1      39.621  28.345  29.143  1.00  0.00     0.088 A 
ATOM     28  C   UNL A   1      40.876  25.532  26.129  1.00  0.00     0.044 C 
ATOM     29  C   UNL A   1      40.473  26.451  27.244  1.00  0.00    -0.051 A 
ATOM     30  C   UNL A   1      41.040  27.713  27.237  1.00  0.00     0.005 A 
ATOM     31  C   UNL A   1      39.523  26.126  28.241  1.00  0.00     0.005 A 
ATOM     32  C   UNL A   1      40.636  28.622  28.188  1.00  0.00     0.022 A 
ATOM     33  C   UNL A   1      39.080  27.075  29.202  1.00  0.00     0.022 A 
ENDBRANCH  24  27
ENDBRANCH  16  24
ENDBRANCH  13  15
ENDBRANCH  10  13
ENDBRANCH   8   9
BRANCH   8  34
ATOM     34  C   UNL A   1      38.720  34.890  34.434  1.00  0.00     0.074 C 
BRANCH  34  35
ATOM     35  C   UNL A   1      39.830  34.400  33.557  1.00  0.00    -0.020 A 
ATOM     36  C   UNL A   1      41.019  33.843  33.988  1.00  0.00     0.087 A 
ATOM     37  C   UNL A   1      39.831  34.307  32.127  1.00  0.00     0.003 A 
ATOM     38  N   UNL A   1      41.721  33.419  32.894  1.00  0.00    -0.361 N 
ATOM     39  C   UNL A   1      41.033  33.715  31.743  1.00  0.00     0.046 A 
ATOM     40  C   UNL A   1      38.916  34.674  31.118  1.00  0.00     0.010 A 
ATOM     41  H   UNL A   1      42.595  32.966  32.927  1.00  0.00     0.166 HD
ATOM     42  C   UNL A   1      41.377  33.499  30.404  1.00  0.00     0.026 A 
ATOM     43  C   UNL A   1      39.267  34.525  29.776  1.00  0.00     0.001 A 
ATOM     44  C   UNL A   1      40.478  33.937  29.426  1.00  0.00     0.002 A 
ENDBRANCH  34  35
ENDBRANCH   8  34
ENDBRANCH   6   8
ENDBRANCH   5   6
ENDBRANCH   4   5
ENDBRANCH   3   4
ENDBRANCH   2   3
ENDBRANCH   1   2
BRANCH   1  45
ATOM     45  C   UNL A   1      41.462  28.495  35.386  1.00  0.00     0.188 C 
BRANCH  45  46
ATOM     46  O   UNL A   1      41.670  27.346  34.598  1.00  0.00    -0.377 OA
BRANCH  46  47
ATOM     47  C   UNL A   1      42.566  26.434  35.220  1.00  0.00     0.188 C 
BRANCH  47  48
ATOM     48  C   UNL A   1      43.565  27.293  35.940  1.00  0.00     0.188 C 
BRANCH  48  49
ATOM     49  O   UNL A   1      44.668  27.421  35.041  1.00  0.00    -0.376 OA
BRANCH  49  50
ATOM     50  C   UNL A   1      45.900  26.902  35.524  1.00  0.00     0.202 C 
BRANCH  50  51
ATOM     51  C   UNL A   1      46.830  26.625  34.342  1.00  0.00     0.261 C 
BRANCH  51  52
ATOM     52  O   UNL A   1      46.254  27.235  33.160  1.00  0.00    -0.460 OA
BRANCH  52  53
ATOM     53  C   UNL A   1      46.568  26.622  31.993  1.00  0.00     0.338 C 
ATOM     54  O   UNL A   1      46.026  25.591  31.573  1.00  0.00    -0.246 OA
BRANCH  53  55
ATOM     55  C   UNL A   1      47.832  27.156  31.399  1.00  0.00     0.060 A 
ATOM     56  C   UNL A   1      47.819  28.444  30.834  1.00  0.00     0.016 A 
ATOM     57  C   UNL A   1      48.860  26.275  31.059  1.00  0.00     0.016 A 
ATOM     58  C   UNL A   1      48.712  28.779  29.806  1.00  0.00     0.010 A 
ATOM     59  C   UNL A   1      49.659  26.566  29.958  1.00  0.00     0.010 A 
ATOM     60  C   UNL A   1      49.560  27.795  29.284  1.00  0.00    -0.014 A 
BRANCH  60  61
ATOM     61  C   UNL A   1      50.079  27.822  27.898  1.00  0.00     0.031 A 
ATOM     62  C   UNL A   1      51.530  28.102  27.557  1.00  0.00     0.074 A 
ATOM     63  C   UNL A   1      49.330  27.149  26.993  1.00  0.00     0.049 A 
ATOM     64  N   UNL A   1      52.063  28.047  26.369  1.00  0.00    -0.248 NA
ATOM     65  C   UNL A   1      52.502  28.543  28.559  1.00  0.00     0.031 C 
ATOM     66  C   UNL A   1      49.903  26.222  26.047  1.00  0.00     0.029 A 
ATOM     67  N   UNL A   1      47.986  26.901  26.829  1.00  0.00    -0.354 N 
ATOM     68  C   UNL A   1      53.444  28.133  26.501  1.00  0.00     0.074 A 
ATOM     69  C   UNL A   1      53.641  28.576  27.857  1.00  0.00     0.031 C 
ATOM     70  C   UNL A   1      48.976  25.626  25.298  1.00  0.00     0.029 A 
ATOM     71  C   UNL A   1      47.740  26.278  25.598  1.00  0.00     0.049 A 
ATOM     72  H   UNL A   1      47.291  27.132  27.486  1.00  0.00     0.167 HD
ATOM     73  C   UNL A   1      54.294  27.686  25.517  1.00  0.00     0.037 A 
ATOM     74  C   UNL A   1      46.985  26.865  24.633  1.00  0.00     0.037 A 
ATOM     75  C   UNL A   1      53.614  27.402  24.234  1.00  0.00     0.049 A 
ATOM     76  C   UNL A   1      47.798  27.459  23.481  1.00  0.00     0.074 A 
ATOM     77  C   UNL A   1      53.765  26.464  23.224  1.00  0.00     0.029 A 
ATOM     78  N   UNL A   1      52.495  28.151  23.855  1.00  0.00    -0.354 N 
ATOM     79  N   UNL A   1      49.114  27.404  23.374  1.00  0.00    -0.248 NA
ATOM     80  C   UNL A   1      47.210  28.181  22.355  1.00  0.00     0.031 C 
ATOM     81  C   UNL A   1      52.636  26.547  22.352  1.00  0.00     0.029 A 
ATOM     82  C   UNL A   1      51.884  27.647  22.728  1.00  0.00     0.049 A 
ATOM     83  H   UNL A   1      52.180  28.949  24.339  1.00  0.00     0.167 HD
ATOM     84  C   UNL A   1      49.548  28.152  22.298  1.00  0.00     0.074 A 
ATOM     85  C   UNL A   1      48.303  28.543  21.657  1.00  0.00     0.031 C 
ATOM     86  C   UNL A   1      50.869  28.436  22.032  1.00  0.00     0.037 A 
BRANCH  73  87
ATOM     87  C   UNL A   1      55.778  27.319  25.763  1.00  0.00     0.057 A 
ATOM     88  C   UNL A   1      56.832  28.046  25.164  1.00  0.00     0.134 A 
ATOM     89  C   UNL A   1      56.227  26.178  26.467  1.00  0.00     0.134 A 
ATOM     90  F   UNL A   1      56.599  29.170  24.472  1.00  0.00    -0.206 F 
ATOM     91  C   UNL A   1      58.187  27.659  25.234  1.00  0.00     0.040 A 
ATOM     92  C   UNL A   1      57.585  25.828  26.616  1.00  0.00     0.040 A 
ATOM     93  F   UNL A   1      55.378  25.290  26.998  1.00  0.00    -0.206 F 
ATOM     94  C   UNL A   1      58.573  26.556  25.978  1.00  0.00     0.006 A 
ENDBRANCH  73  87
BRANCH  74  95
ATOM     95  C   UNL A   1      45.568  26.979  25.125  1.00  0.00     0.057 A 
ATOM     96  C   UNL A   1      45.009  25.715  25.428  1.00  0.00     0.134 A 
ATOM     97  C   UNL A   1      45.258  28.000  26.038  1.00  0.00     0.134 A 
ATOM     98  F   UNL A   1      45.170  24.698  24.576  1.00  0.00    -0.206 F 
ATOM     99  C   UNL A   1      44.526  25.397  26.703  1.00  0.00     0.040 A 
ATOM    100  C   UNL A   1      44.752  27.699  27.319  1.00  0.00     0.040 A 
ATOM    101  F   UNL A   1      45.679  29.252  25.813  1.00  0.00    -0.206 F 
ATOM    102  C   UNL A   1      44.465  26.382  27.678  1.00  0.00     0.006 A 
ENDBRANCH  74  95
BRANCH  86 103
ATOM    103  C   UNL A   1      51.424  29.502  21.065  1.00  0.00     0.057 A 
ATOM    104  C   UNL A   1      51.963  30.737  21.448  1.00  0.00     0.134 A 
ATOM    105  C   UNL A   1      51.583  29.226  19.675  1.00  0.00     0.134 A 
ATOM    106  F   UNL A   1      52.042  31.111  22.728  1.00  0.00    -0.206 F 
ATOM    107  C   UNL A   1      52.533  31.642  20.533  1.00  0.00     0.040 A 
ATOM    108  C   UNL A   1      52.201  30.093  18.767  1.00  0.00     0.040 A 
ATOM    109  F   UNL A   1      51.182  28.080  19.110  1.00  0.00    -0.206 F 
ATOM    110  C   UNL A   1      52.665  31.320  19.190  1.00  0.00     0.006 A 
ENDBRANCH  86 103
ENDBRANCH  60  61
ENDBRANCH  53  55
ENDBRANCH  52  53
ENDBRANCH  51  52
ENDBRANCH  50  51
ENDBRANCH  49  50
ENDBRANCH  48  49
ENDBRANCH  47  48
ENDBRANCH  46  47
ENDBRANCH  45  46
ENDBRANCH   1  45
TORSDOF 27
ENDMDL
