MODEL 1
REMARK VINA RESULT:     -11.8      0.000      0.000
REMARK SMILES O=C(OCCOCCOCCOCCOC(=O)c1ccc(-c2c3nc(c(-c4c(F)cccc4F)c4ccc([nH]4)c(-c4c(F)cccc4F)c4nc(c(-c5c(F)cccc5F)c5ccc2[nH]5)C=C4)C=C3)cc1)C1=Cc2cc(C(F)(F)F)ccc2O[C@@H]1C(F)(F)F
REMARK SMILES IDX 10 1 9 2 8 3 7 4 6 5 5 6 4 7 3 8 2 9 1 10 72 11 73 12 85 13
REMARK SMILES IDX 74 14 84 15 75 16 83 17 76 18 82 19 81 20 86 21 87 22 88 23
REMARK SMILES IDX 89 24 77 25 78 26 79 27 80 28 11 29 12 30 13 31 14 32 15 33
REMARK SMILES IDX 16 34 17 35 18 36 19 37 71 38 20 39 70 40 21 41 22 42 23 43
REMARK SMILES IDX 64 44 24 45 69 46 63 47 65 48 25 49 68 50 62 51 61 52 26 54
REMARK SMILES IDX 52 55 35 56 51 57 36 58 39 59 50 60 66 61 37 62 38 63 49 65
REMARK SMILES IDX 67 66 40 67 27 68 28 69 33 70 29 71 30 72 32 73 34 74 31 75
REMARK SMILES IDX 53 76 54 77 59 78 55 79 56 80 58 81 60 82 57 83 41 84 42 85
REMARK SMILES IDX 47 86 43 87 44 88 46 89 48 90 45 91
REMARK H PARENT 65 53 39 64
REMARK Flexibility Score: inf
ROOT
ATOM      1  C   UNL A   1      34.997  33.730  28.364  1.00  0.00     0.188 C 
ENDROOT
BRANCH   1   2
ATOM      2  O   UNL A   1      34.845  32.874  27.258  1.00  0.00    -0.377 OA
BRANCH   2   3
ATOM      3  C   UNL A   1      34.632  31.539  27.655  1.00  0.00     0.188 C 
BRANCH   3   4
ATOM      4  C   UNL A   1      33.265  30.942  27.281  1.00  0.00     0.188 C 
BRANCH   4   5
ATOM      5  O   UNL A   1      33.074  29.671  26.561  1.00  0.00    -0.376 OA
BRANCH   5   6
ATOM      6  C   UNL A   1      31.854  28.527  26.566  1.00  0.00     0.202 C 
BRANCH   6   7
ATOM      7  C   UNL A   1      32.091  26.378  26.870  1.00  0.00     0.261 C 
BRANCH   7   8
ATOM      8  O   UNL A   1      31.149  25.294  26.403  1.00  0.00    -0.460 OA
BRANCH   8   9
ATOM      9  C   UNL A   1      31.802  24.188  26.030  1.00  0.00     0.338 C 
ATOM     10  O   UNL A   1      32.731  23.652  26.581  1.00  0.00    -0.246 OA
BRANCH   9  11
ATOM     11  C   UNL A   1      31.383  24.179  24.635  1.00  0.00     0.087 C 
ATOM     12  C   UNL A   1      30.204  25.008  24.362  1.00  0.00     0.027 C 
ATOM     13  C   UNL A   1      33.155  24.563  24.001  1.00  0.00     0.316 C 
ATOM     14  C   UNL A   1      30.255  26.632  23.597  1.00  0.00     0.018 A 
ATOM     15  O   UNL A   1      33.274  26.378  23.291  1.00  0.00    -0.475 OA
ATOM     16  C   UNL A   1      29.094  27.342  23.471  1.00  0.00     0.025 A 
ATOM     17  C   UNL A   1      31.741  27.387  23.138  1.00  0.00     0.128 A 
ATOM     18  C   UNL A   1      29.217  28.654  22.951  1.00  0.00     0.056 A 
ATOM     19  C   UNL A   1      31.792  28.661  22.637  1.00  0.00     0.048 A 
ATOM     20  C   UNL A   1      30.499  29.260  22.547  1.00  0.00     0.017 A 
BRANCH  13  21
ATOM     21  C   UNL A   1      33.309  23.062  23.276  1.00  0.00     0.430 C 
ATOM     22  F   UNL A   1      32.343  22.662  22.430  1.00  0.00    -0.167 F 
ATOM     23  F   UNL A   1      34.429  23.127  22.489  1.00  0.00    -0.167 F 
ATOM     24  F   UNL A   1      33.562  22.033  24.123  1.00  0.00    -0.167 F 
ENDBRANCH  13  21
BRANCH  18  25
ATOM     25  C   UNL A   1      27.913  29.445  22.855  1.00  0.00     0.416 C 
ATOM     26  F   UNL A   1      26.835  28.712  23.247  1.00  0.00    -0.166 F 
ATOM     27  F   UNL A   1      27.928  30.541  23.668  1.00  0.00    -0.166 F 
ATOM     28  F   UNL A   1      27.630  29.905  21.608  1.00  0.00    -0.166 F 
ENDBRANCH  18  25
ENDBRANCH   9  11
ENDBRANCH   8   9
ENDBRANCH   7   8
ENDBRANCH   6   7
ENDBRANCH   5   6
ENDBRANCH   4   5
ENDBRANCH   3   4
ENDBRANCH   2   3
ENDBRANCH   1   2
BRANCH   1  29
ATOM     29  C   UNL A   1      33.732  34.438  28.864  1.00  0.00     0.188 C 
BRANCH  29  30
ATOM     30  O   UNL A   1      33.736  35.401  29.904  1.00  0.00    -0.376 OA
BRANCH  30  31
ATOM     31  C   UNL A   1      33.679  35.031  31.268  1.00  0.00     0.202 C 
BRANCH  31  32
ATOM     32  C   UNL A   1      34.890  34.441  32.002  1.00  0.00     0.261 C 
BRANCH  32  33
ATOM     33  O   UNL A   1      35.279  33.117  31.622  1.00  0.00    -0.460 OA
BRANCH  33  34
ATOM     34  C   UNL A   1      36.028  32.448  32.524  1.00  0.00     0.338 C 
ATOM     35  O   UNL A   1      35.876  32.415  33.732  1.00  0.00    -0.246 OA
BRANCH  34  36
ATOM     36  C   UNL A   1      36.988  31.581  31.804  1.00  0.00     0.060 A 
ATOM     37  C   UNL A   1      37.708  30.623  32.538  1.00  0.00     0.016 A 
ATOM     38  C   UNL A   1      37.188  31.714  30.429  1.00  0.00     0.016 A 
ATOM     39  C   UNL A   1      38.650  29.813  31.909  1.00  0.00     0.010 A 
ATOM     40  C   UNL A   1      38.170  30.943  29.810  1.00  0.00     0.010 A 
ATOM     41  C   UNL A   1      38.931  30.022  30.557  1.00  0.00    -0.014 A 
BRANCH  41  42
ATOM     42  C   UNL A   1      40.185  29.492  29.983  1.00  0.00     0.031 A 
ATOM     43  C   UNL A   1      41.327  30.452  29.807  1.00  0.00     0.074 A 
ATOM     44  C   UNL A   1      40.303  28.210  29.607  1.00  0.00     0.049 A 
ATOM     45  N   UNL A   1      42.460  30.291  29.179  1.00  0.00    -0.248 NA
ATOM     46  C   UNL A   1      41.150  31.785  30.408  1.00  0.00     0.031 C 
ATOM     47  C   UNL A   1      39.285  27.179  29.786  1.00  0.00     0.029 A 
ATOM     48  N   UNL A   1      41.330  27.570  28.960  1.00  0.00    -0.354 N 
ATOM     49  C   UNL A   1      43.116  31.512  29.278  1.00  0.00     0.074 A 
ATOM     50  C   UNL A   1      42.245  32.407  30.006  1.00  0.00     0.031 C 
ATOM     51  C   UNL A   1      39.722  26.041  29.220  1.00  0.00     0.029 A 
ATOM     52  C   UNL A   1      41.024  26.283  28.598  1.00  0.00     0.049 A 
ATOM     53  H   UNL A   1      42.200  27.993  28.775  1.00  0.00     0.167 HD
ATOM     54  C   UNL A   1      44.334  31.853  28.799  1.00  0.00     0.037 A 
ATOM     55  C   UNL A   1      41.695  25.421  27.809  1.00  0.00     0.037 A 
ATOM     56  C   UNL A   1      45.180  30.951  28.066  1.00  0.00     0.049 A 
ATOM     57  C   UNL A   1      43.014  25.841  27.214  1.00  0.00     0.074 A 
ATOM     58  C   UNL A   1      46.447  31.179  27.560  1.00  0.00     0.029 A 
ATOM     59  N   UNL A   1      44.834  29.653  27.715  1.00  0.00    -0.354 N 
ATOM     60  N   UNL A   1      43.646  26.985  27.327  1.00  0.00    -0.248 NA
ATOM     61  C   UNL A   1      43.714  24.854  26.381  1.00  0.00     0.031 C 
ATOM     62  C   UNL A   1      46.829  30.051  26.828  1.00  0.00     0.029 A 
ATOM     63  C   UNL A   1      45.845  29.085  26.959  1.00  0.00     0.049 A 
ATOM     64  H   UNL A   1      43.995  29.204  27.966  1.00  0.00     0.167 HD
ATOM     65  C   UNL A   1      44.830  26.845  26.612  1.00  0.00     0.074 A 
ATOM     66  C   UNL A   1      44.829  25.502  26.069  1.00  0.00     0.031 C 
ATOM     67  C   UNL A   1      45.831  27.741  26.432  1.00  0.00     0.037 A 
BRANCH  54  68
ATOM     68  C   UNL A   1      44.782  33.274  28.995  1.00  0.00     0.057 A 
ATOM     69  C   UNL A   1      45.474  33.695  30.137  1.00  0.00     0.134 A 
ATOM     70  C   UNL A   1      44.506  34.241  28.018  1.00  0.00     0.134 A 
ATOM     71  F   UNL A   1      45.763  32.826  31.119  1.00  0.00    -0.206 F 
ATOM     72  C   UNL A   1      45.834  35.031  30.324  1.00  0.00     0.040 A 
ATOM     73  C   UNL A   1      44.895  35.571  28.175  1.00  0.00     0.040 A 
ATOM     74  F   UNL A   1      43.852  33.909  26.895  1.00  0.00    -0.206 F 
ATOM     75  C   UNL A   1      45.548  35.973  29.337  1.00  0.00     0.006 A 
ENDBRANCH  54  68
BRANCH  55  76
ATOM     76  C   UNL A   1      41.104  24.093  27.508  1.00  0.00     0.057 A 
ATOM     77  C   UNL A   1      41.512  22.942  28.191  1.00  0.00     0.134 A 
ATOM     78  C   UNL A   1      40.101  23.947  26.541  1.00  0.00     0.134 A 
ATOM     79  F   UNL A   1      42.481  23.013  29.115  1.00  0.00    -0.206 F 
ATOM     80  C   UNL A   1      40.951  21.693  27.916  1.00  0.00     0.040 A 
ATOM     81  C   UNL A   1      39.511  22.710  26.277  1.00  0.00     0.040 A 
ATOM     82  F   UNL A   1      39.661  25.012  25.854  1.00  0.00    -0.206 F 
ATOM     83  C   UNL A   1      39.941  21.577  26.963  1.00  0.00     0.006 A 
ENDBRANCH  55  76
BRANCH  67  84
ATOM     84  C   UNL A   1      47.044  27.297  25.663  1.00  0.00     0.057 A 
ATOM     85  C   UNL A   1      47.223  27.599  24.308  1.00  0.00     0.134 A 
ATOM     86  C   UNL A   1      48.091  26.637  26.320  1.00  0.00     0.134 A 
ATOM     87  F   UNL A   1      46.258  28.221  23.614  1.00  0.00    -0.206 F 
ATOM     88  C   UNL A   1      48.395  27.250  23.632  1.00  0.00     0.040 A 
ATOM     89  C   UNL A   1      49.280  26.314  25.666  1.00  0.00     0.040 A 
ATOM     90  F   UNL A   1      47.990  26.328  27.622  1.00  0.00    -0.206 F 
ATOM     91  C   UNL A   1      49.434  26.618  24.317  1.00  0.00     0.006 A 
ENDBRANCH  67  84
ENDBRANCH  41  42
ENDBRANCH  34  36
ENDBRANCH  33  34
ENDBRANCH  32  33
ENDBRANCH  31  32
ENDBRANCH  30  31
ENDBRANCH  29  30
ENDBRANCH   1  29
TORSDOF 22
ENDMDL
MODEL 2
REMARK VINA RESULT:     -11.6      0.893      5.973
REMARK SMILES O=C(OCCOCCOCCOCCOC(=O)c1ccc(-c2c3nc(c(-c4c(F)cccc4F)c4ccc([nH]4)c(-c4c(F)cccc4F)c4nc(c(-c5c(F)cccc5F)c5ccc2[nH]5)C=C4)C=C3)cc1)C1=Cc2cc(C(F)(F)F)ccc2O[C@@H]1C(F)(F)F
REMARK SMILES IDX 10 1 9 2 8 3 7 4 6 5 5 6 4 7 3 8 2 9 1 10 72 11 73 12 85 13
REMARK SMILES IDX 74 14 84 15 75 16 83 17 76 18 82 19 81 20 86 21 87 22 88 23
REMARK SMILES IDX 89 24 77 25 78 26 79 27 80 28 11 29 12 30 13 31 14 32 15 33
REMARK SMILES IDX 16 34 17 35 18 36 19 37 71 38 20 39 70 40 21 41 22 42 23 43
REMARK SMILES IDX 64 44 24 45 69 46 63 47 65 48 25 49 68 50 62 51 61 52 26 54
REMARK SMILES IDX 52 55 35 56 51 57 36 58 39 59 50 60 66 61 37 62 38 63 49 65
REMARK SMILES IDX 67 66 40 67 27 68 28 69 33 70 29 71 30 72 32 73 34 74 31 75
REMARK SMILES IDX 53 76 54 77 59 78 55 79 56 80 58 81 60 82 57 83 41 84 42 85
REMARK SMILES IDX 47 86 43 87 44 88 46 89 48 90 45 91
REMARK H PARENT 65 53 39 64
REMARK Flexibility Score: inf
ROOT
ATOM      1  C   UNL A   1      34.876  33.755  28.885  1.00  0.00     0.188 C 
ENDROOT
BRANCH   1   2
ATOM      2  O   UNL A   1      34.862  32.964  27.721  1.00  0.00    -0.377 OA
BRANCH   2   3
ATOM      3  C   UNL A   1      34.851  31.588  28.024  1.00  0.00     0.188 C 
BRANCH   3   4
ATOM      4  C   UNL A   1      33.616  30.809  27.540  1.00  0.00     0.188 C 
BRANCH   4   5
ATOM      5  O   UNL A   1      33.504  30.146  26.228  1.00  0.00    -0.376 OA
BRANCH   5   6
ATOM      6  C   UNL A   1      33.426  28.543  25.761  1.00  0.00     0.202 C 
BRANCH   6   7
ATOM      7  C   UNL A   1      32.438  26.923  26.841  1.00  0.00     0.261 C 
BRANCH   7   8
ATOM      8  O   UNL A   1      31.378  25.995  26.297  1.00  0.00    -0.460 OA
BRANCH   8   9
ATOM      9  C   UNL A   1      31.873  24.790  25.995  1.00  0.00     0.338 C 
ATOM     10  O   UNL A   1      32.810  24.223  26.499  1.00  0.00    -0.246 OA
BRANCH   9  11
ATOM     11  C   UNL A   1      31.284  24.668  24.668  1.00  0.00     0.087 C 
ATOM     12  C   UNL A   1      30.089  25.494  24.469  1.00  0.00     0.027 C 
ATOM     13  C   UNL A   1      32.966  24.956  23.789  1.00  0.00     0.316 C 
ATOM     14  C   UNL A   1      30.061  27.044  23.561  1.00  0.00     0.018 A 
ATOM     15  O   UNL A   1      33.016  26.698  22.909  1.00  0.00    -0.475 OA
ATOM     16  C   UNL A   1      28.901  27.765  23.516  1.00  0.00     0.025 A 
ATOM     17  C   UNL A   1      31.486  27.723  22.857  1.00  0.00     0.128 A 
ATOM     18  C   UNL A   1      28.973  29.023  22.869  1.00  0.00     0.056 A 
ATOM     19  C   UNL A   1      31.488  28.947  22.241  1.00  0.00     0.048 A 
ATOM     20  C   UNL A   1      30.201  29.563  22.258  1.00  0.00     0.017 A 
BRANCH  13  21
ATOM     21  C   UNL A   1      33.013  23.393  23.188  1.00  0.00     0.430 C 
ATOM     22  F   UNL A   1      31.866  22.849  22.745  1.00  0.00    -0.167 F 
ATOM     23  F   UNL A   1      33.811  23.432  22.075  1.00  0.00    -0.167 F 
ATOM     24  F   UNL A   1      33.615  22.482  23.992  1.00  0.00    -0.167 F 
ENDBRANCH  13  21
BRANCH  18  25
ATOM     25  C   UNL A   1      27.676  29.831  22.864  1.00  0.00     0.416 C 
ATOM     26  F   UNL A   1      27.462  30.457  21.673  1.00  0.00    -0.166 F 
ATOM     27  F   UNL A   1      26.585  29.036  23.063  1.00  0.00    -0.166 F 
ATOM     28  F   UNL A   1      27.616  30.797  23.818  1.00  0.00    -0.166 F 
ENDBRANCH  18  25
ENDBRANCH   9  11
ENDBRANCH   8   9
ENDBRANCH   7   8
ENDBRANCH   6   7
ENDBRANCH   5   6
ENDBRANCH   4   5
ENDBRANCH   3   4
ENDBRANCH   2   3
ENDBRANCH   1   2
BRANCH   1  29
ATOM     29  C   UNL A   1      34.660  33.024  30.215  1.00  0.00     0.188 C 
BRANCH  29  30
ATOM     30  O   UNL A   1      34.113  33.644  31.366  1.00  0.00    -0.376 OA
BRANCH  30  31
ATOM     31  C   UNL A   1      34.275  33.097  32.660  1.00  0.00     0.202 C 
BRANCH  31  32
ATOM     32  C   UNL A   1      35.465  33.468  33.557  1.00  0.00     0.261 C 
BRANCH  32  33
ATOM     33  O   UNL A   1      36.764  33.138  33.056  1.00  0.00    -0.460 OA
BRANCH  33  34
ATOM     34  C   UNL A   1      37.360  32.075  33.636  1.00  0.00     0.338 C 
ATOM     35  O   UNL A   1      37.161  31.634  34.754  1.00  0.00    -0.246 OA
BRANCH  34  36
ATOM     36  C   UNL A   1      38.193  31.381  32.628  1.00  0.00     0.060 A 
ATOM     37  C   UNL A   1      39.336  30.689  33.063  1.00  0.00     0.016 A 
ATOM     38  C   UNL A   1      37.863  31.418  31.273  1.00  0.00     0.016 A 
ATOM     39  C   UNL A   1      40.169  30.055  32.146  1.00  0.00     0.010 A 
ATOM     40  C   UNL A   1      38.728  30.831  30.349  1.00  0.00     0.010 A 
ATOM     41  C   UNL A   1      39.903  30.186  30.782  1.00  0.00    -0.014 A 
BRANCH  41  42
ATOM     42  C   UNL A   1      40.968  29.899  29.800  1.00  0.00     0.031 A 
ATOM     43  C   UNL A   1      40.991  28.531  29.181  1.00  0.00     0.074 A 
ATOM     44  C   UNL A   1      41.901  30.810  29.482  1.00  0.00     0.049 A 
ATOM     45  N   UNL A   1      41.902  27.970  28.433  1.00  0.00    -0.248 NA
ATOM     46  C   UNL A   1      39.828  27.673  29.467  1.00  0.00     0.031 C 
ATOM     47  C   UNL A   1      41.942  32.184  29.973  1.00  0.00     0.029 A 
ATOM     48  N   UNL A   1      43.017  30.693  28.693  1.00  0.00    -0.354 N 
ATOM     49  C   UNL A   1      41.440  26.682  28.188  1.00  0.00     0.074 A 
ATOM     50  C   UNL A   1      40.182  26.539  28.885  1.00  0.00     0.031 C 
ATOM     51  C   UNL A   1      43.057  32.774  29.507  1.00  0.00     0.029 A 
ATOM     52  C   UNL A   1      43.825  31.801  28.731  1.00  0.00     0.049 A 
ATOM     53  H   UNL A   1      43.217  29.895  28.153  1.00  0.00     0.167 HD
ATOM     54  C   UNL A   1      42.021  25.707  27.452  1.00  0.00     0.037 A 
ATOM     55  C   UNL A   1      45.068  31.985  28.242  1.00  0.00     0.037 A 
ATOM     56  C   UNL A   1      43.281  25.865  26.777  1.00  0.00     0.049 A 
ATOM     57  C   UNL A   1      45.738  30.863  27.491  1.00  0.00     0.074 A 
ATOM     58  C   UNL A   1      43.948  24.955  25.978  1.00  0.00     0.029 A 
ATOM     59  N   UNL A   1      44.074  27.002  26.841  1.00  0.00    -0.354 N 
ATOM     60  N   UNL A   1      45.293  29.655  27.239  1.00  0.00    -0.248 NA
ATOM     61  C   UNL A   1      47.082  31.126  26.958  1.00  0.00     0.031 C 
ATOM     62  C   UNL A   1      45.184  25.509  25.632  1.00  0.00     0.029 A 
ATOM     63  C   UNL A   1      45.246  26.799  26.133  1.00  0.00     0.049 A 
ATOM     64  H   UNL A   1      43.838  27.830  27.319  1.00  0.00     0.167 HD
ATOM     65  C   UNL A   1      46.283  29.027  26.491  1.00  0.00     0.074 A 
ATOM     66  C   UNL A   1      47.352  29.990  26.329  1.00  0.00     0.031 C 
ATOM     67  C   UNL A   1      46.299  27.773  25.975  1.00  0.00     0.037 A 
BRANCH  54  68
ATOM     68  C   UNL A   1      41.331  24.373  27.403  1.00  0.00     0.057 A 
ATOM     69  C   UNL A   1      41.766  23.272  28.151  1.00  0.00     0.134 A 
ATOM     70  C   UNL A   1      40.209  24.190  26.583  1.00  0.00     0.134 A 
ATOM     71  F   UNL A   1      42.840  23.371  28.949  1.00  0.00    -0.206 F 
ATOM     72  C   UNL A   1      41.142  22.026  28.049  1.00  0.00     0.040 A 
ATOM     73  C   UNL A   1      39.553  22.961  26.504  1.00  0.00     0.040 A 
ATOM     74  F   UNL A   1      39.732  25.202  25.843  1.00  0.00    -0.206 F 
ATOM     75  C   UNL A   1      40.028  21.871  27.227  1.00  0.00     0.006 A 
ENDBRANCH  54  68
BRANCH  55  76
ATOM     76  C   UNL A   1      45.766  33.272  28.485  1.00  0.00     0.057 A 
ATOM     77  C   UNL A   1      45.653  34.343  27.593  1.00  0.00     0.134 A 
ATOM     78  C   UNL A   1      46.551  33.467  29.629  1.00  0.00     0.134 A 
ATOM     79  F   UNL A   1      44.931  34.213  26.470  1.00  0.00    -0.206 F 
ATOM     80  C   UNL A   1      46.301  35.558  27.824  1.00  0.00     0.040 A 
ATOM     81  C   UNL A   1      47.181  34.685  29.887  1.00  0.00     0.040 A 
ATOM     82  F   UNL A   1      46.697  32.481  30.528  1.00  0.00    -0.206 F 
ATOM     83  C   UNL A   1      47.061  35.734  28.979  1.00  0.00     0.006 A 
ENDBRANCH  55  76
BRANCH  67  84
ATOM     84  C   UNL A   1      47.480  27.372  25.137  1.00  0.00     0.057 A 
ATOM     85  C   UNL A   1      47.559  27.658  23.768  1.00  0.00     0.134 A 
ATOM     86  C   UNL A   1      48.596  26.771  25.735  1.00  0.00     0.134 A 
ATOM     87  F   UNL A   1      46.524  28.224  23.129  1.00  0.00    -0.206 F 
ATOM     88  C   UNL A   1      48.701  27.350  23.025  1.00  0.00     0.040 A 
ATOM     89  C   UNL A   1      49.754  26.491  25.011  1.00  0.00     0.040 A 
ATOM     90  F   UNL A   1      48.592  26.480  27.045  1.00  0.00    -0.206 F 
ATOM     91  C   UNL A   1      49.808  26.777  23.650  1.00  0.00     0.006 A 
ENDBRANCH  67  84
ENDBRANCH  41  42
ENDBRANCH  34  36
ENDBRANCH  33  34
ENDBRANCH  32  33
ENDBRANCH  31  32
ENDBRANCH  30  31
ENDBRANCH  29  30
ENDBRANCH   1  29
TORSDOF 22
ENDMDL
MODEL 3
REMARK VINA RESULT:     -11.4      1.381      3.795
REMARK SMILES O=C(OCCOCCOCCOCCOC(=O)c1ccc(-c2c3nc(c(-c4c(F)cccc4F)c4ccc([nH]4)c(-c4c(F)cccc4F)c4nc(c(-c5c(F)cccc5F)c5ccc2[nH]5)C=C4)C=C3)cc1)C1=Cc2cc(C(F)(F)F)ccc2O[C@@H]1C(F)(F)F
REMARK SMILES IDX 10 1 9 2 8 3 7 4 6 5 5 6 4 7 3 8 2 9 1 10 72 11 73 12 85 13
REMARK SMILES IDX 74 14 84 15 75 16 83 17 76 18 82 19 81 20 86 21 87 22 88 23
REMARK SMILES IDX 89 24 77 25 78 26 79 27 80 28 11 29 12 30 13 31 14 32 15 33
REMARK SMILES IDX 16 34 17 35 18 36 19 37 71 38 20 39 70 40 21 41 22 42 23 43
REMARK SMILES IDX 64 44 24 45 69 46 63 47 65 48 25 49 68 50 62 51 61 52 26 54
REMARK SMILES IDX 52 55 35 56 51 57 36 58 39 59 50 60 66 61 37 62 38 63 49 65
REMARK SMILES IDX 67 66 40 67 27 68 28 69 33 70 29 71 30 72 32 73 34 74 31 75
REMARK SMILES IDX 53 76 54 77 59 78 55 79 56 80 58 81 60 82 57 83 41 84 42 85
REMARK SMILES IDX 47 86 43 87 44 88 46 89 48 90 45 91
REMARK H PARENT 65 53 39 64
REMARK Flexibility Score: inf
ROOT
ATOM      1  C   UNL A   1      34.752  35.271  29.666  1.00  0.00     0.188 C 
ENDROOT
BRANCH   1   2
ATOM      2  O   UNL A   1      35.125  34.287  28.733  1.00  0.00    -0.377 OA
BRANCH   2   3
ATOM      3  C   UNL A   1      34.253  33.181  28.762  1.00  0.00     0.188 C 
BRANCH   3   4
ATOM      4  C   UNL A   1      34.444  32.151  27.635  1.00  0.00     0.188 C 
BRANCH   4   5
ATOM      5  O   UNL A   1      33.861  30.797  27.630  1.00  0.00    -0.376 OA
BRANCH   5   6
ATOM      6  C   UNL A   1      32.354  30.204  27.217  1.00  0.00     0.202 C 
BRANCH   6   7
ATOM      7  C   UNL A   1      31.900  28.189  26.510  1.00  0.00     0.261 C 
BRANCH   7   8
ATOM      8  O   UNL A   1      30.994  27.184  27.179  1.00  0.00    -0.460 OA
BRANCH   8   9
ATOM      9  C   UNL A   1      30.571  26.244  26.327  1.00  0.00     0.338 C 
ATOM     10  O   UNL A   1      29.796  25.344  26.537  1.00  0.00    -0.246 OA
BRANCH   9  11
ATOM     11  C   UNL A   1      31.644  26.373  25.351  1.00  0.00     0.087 C 
ATOM     12  C   UNL A   1      32.806  25.522  25.627  1.00  0.00     0.027 C 
ATOM     13  C   UNL A   1      30.451  26.138  23.864  1.00  0.00     0.316 C 
ATOM     14  C   UNL A   1      33.172  23.987  24.770  1.00  0.00     0.018 A 
ATOM     15  O   UNL A   1      30.732  24.411  22.998  1.00  0.00    -0.475 OA
ATOM     16  C   UNL A   1      34.242  23.240  25.176  1.00  0.00     0.025 A 
ATOM     17  C   UNL A   1      32.139  23.352  23.538  1.00  0.00     0.128 A 
ATOM     18  C   UNL A   1      34.417  21.994  24.525  1.00  0.00     0.056 A 
ATOM     19  C   UNL A   1      32.366  22.138  22.945  1.00  0.00     0.048 A 
ATOM     20  C   UNL A   1      33.529  21.492  23.461  1.00  0.00     0.017 A 
BRANCH  13  21
ATOM     21  C   UNL A   1      30.672  27.710  23.332  1.00  0.00     0.430 C 
ATOM     22  F   UNL A   1      31.930  28.175  23.229  1.00  0.00    -0.167 F 
ATOM     23  F   UNL A   1      30.199  27.751  22.047  1.00  0.00    -0.167 F 
ATOM     24  F   UNL A   1      29.940  28.649  23.982  1.00  0.00    -0.167 F 
ENDBRANCH  13  21
BRANCH  18  25
ATOM     25  C   UNL A   1      35.596  21.156  25.021  1.00  0.00     0.416 C 
ATOM     26  F   UNL A   1      35.329  19.821  24.988  1.00  0.00    -0.166 F 
ATOM     27  F   UNL A   1      36.701  21.330  24.241  1.00  0.00    -0.166 F 
ATOM     28  F   UNL A   1      35.984  21.437  26.292  1.00  0.00    -0.166 F 
ENDBRANCH  18  25
ENDBRANCH   9  11
ENDBRANCH   8   9
ENDBRANCH   7   8
ENDBRANCH   6   7
ENDBRANCH   5   6
ENDBRANCH   4   5
ENDBRANCH   3   4
ENDBRANCH   2   3
ENDBRANCH   1   2
BRANCH   1  29
ATOM     29  C   UNL A   1      33.271  35.318  30.060  1.00  0.00     0.188 C 
BRANCH  29  30
ATOM     30  O   UNL A   1      32.793  34.956  31.345  1.00  0.00    -0.376 OA
BRANCH  30  31
ATOM     31  C   UNL A   1      33.662  34.799  32.450  1.00  0.00     0.202 C 
BRANCH  31  32
ATOM     32  C   UNL A   1      34.147  33.418  32.912  1.00  0.00     0.261 C 
BRANCH  32  33
ATOM     33  O   UNL A   1      35.149  32.794  32.103  1.00  0.00    -0.460 OA
BRANCH  33  34
ATOM     34  C   UNL A   1      36.412  33.227  32.301  1.00  0.00     0.338 C 
ATOM     35  O   UNL A   1      36.775  34.150  33.010  1.00  0.00    -0.246 OA
BRANCH  34  36
ATOM     36  C   UNL A   1      37.352  32.283  31.658  1.00  0.00     0.060 A 
ATOM     37  C   UNL A   1      38.120  31.436  32.476  1.00  0.00     0.016 A 
ATOM     38  C   UNL A   1      37.488  32.235  30.270  1.00  0.00     0.016 A 
ATOM     39  C   UNL A   1      39.044  30.560  31.916  1.00  0.00     0.010 A 
ATOM     40  C   UNL A   1      38.454  31.398  29.711  1.00  0.00     0.010 A 
ATOM     41  C   UNL A   1      39.261  30.592  30.537  1.00  0.00    -0.014 A 
BRANCH  41  42
ATOM     42  C   UNL A   1      40.496  30.002  29.979  1.00  0.00     0.031 A 
ATOM     43  C   UNL A   1      41.668  30.918  29.771  1.00  0.00     0.074 A 
ATOM     44  C   UNL A   1      40.572  28.705  29.646  1.00  0.00     0.049 A 
ATOM     45  N   UNL A   1      42.795  30.699  29.148  1.00  0.00    -0.248 NA
ATOM     46  C   UNL A   1      41.536  32.275  30.329  1.00  0.00     0.031 C 
ATOM     47  C   UNL A   1      39.520  27.715  29.859  1.00  0.00     0.029 A 
ATOM     48  N   UNL A   1      41.576  28.012  29.019  1.00  0.00    -0.354 N 
ATOM     49  C   UNL A   1      43.491  31.901  29.208  1.00  0.00     0.074 A 
ATOM     50  C   UNL A   1      42.651  32.847  29.907  1.00  0.00     0.031 C 
ATOM     51  C   UNL A   1      39.919  26.545  29.329  1.00  0.00     0.029 A 
ATOM     52  C   UNL A   1      41.227  26.724  28.699  1.00  0.00     0.049 A 
ATOM     53  H   UNL A   1      42.458  28.399  28.820  1.00  0.00     0.167 HD
ATOM     54  C   UNL A   1      44.718  32.186  28.716  1.00  0.00     0.037 A 
ATOM     55  C   UNL A   1      41.868  25.815  27.938  1.00  0.00     0.037 A 
ATOM     56  C   UNL A   1      45.533  31.233  28.012  1.00  0.00     0.049 A 
ATOM     57  C   UNL A   1      43.200  26.172  27.328  1.00  0.00     0.074 A 
ATOM     58  C   UNL A   1      46.805  31.403  27.499  1.00  0.00     0.029 A 
ATOM     59  N   UNL A   1      45.144  29.937  27.704  1.00  0.00    -0.354 N 
ATOM     60  N   UNL A   1      43.868  27.298  27.404  1.00  0.00    -0.248 NA
ATOM     61  C   UNL A   1      43.865  25.136  26.528  1.00  0.00     0.031 C 
ATOM     62  C   UNL A   1      47.150  30.240  26.803  1.00  0.00     0.029 A 
ATOM     63  C   UNL A   1      46.134  29.311  26.967  1.00  0.00     0.049 A 
ATOM     64  H   UNL A   1      44.291  29.524  27.971  1.00  0.00     0.167 HD
ATOM     65  C   UNL A   1      45.046  27.096  26.694  1.00  0.00     0.074 A 
ATOM     66  C   UNL A   1      45.000  25.737  26.195  1.00  0.00     0.031 C 
ATOM     67  C   UNL A   1      46.076  27.952  26.483  1.00  0.00     0.037 A 
BRANCH  54  68
ATOM     68  C   UNL A   1      45.213  33.597  28.866  1.00  0.00     0.057 A 
ATOM     69  C   UNL A   1      45.985  34.013  29.958  1.00  0.00     0.134 A 
ATOM     70  C   UNL A   1      44.902  34.559  27.895  1.00  0.00     0.134 A 
ATOM     71  F   UNL A   1      46.311  33.149  30.931  1.00  0.00    -0.206 F 
ATOM     72  C   UNL A   1      46.388  35.342  30.104  1.00  0.00     0.040 A 
ATOM     73  C   UNL A   1      45.333  35.881  28.010  1.00  0.00     0.040 A 
ATOM     74  F   UNL A   1      44.172  34.231  26.819  1.00  0.00    -0.206 F 
ATOM     75  C   UNL A   1      46.066  36.279  29.125  1.00  0.00     0.006 A 
ENDBRANCH  54  68
BRANCH  55  76
ATOM     76  C   UNL A   1      41.233  24.498  27.681  1.00  0.00     0.057 A 
ATOM     77  C   UNL A   1      40.180  24.362  26.770  1.00  0.00     0.134 A 
ATOM     78  C   UNL A   1      41.678  23.339  28.329  1.00  0.00     0.134 A 
ATOM     79  F   UNL A   1      39.696  25.437  26.131  1.00  0.00    -0.206 F 
ATOM     80  C   UNL A   1      39.587  23.123  26.519  1.00  0.00     0.040 A 
ATOM     81  C   UNL A   1      41.115  22.089  28.066  1.00  0.00     0.040 A 
ATOM     82  F   UNL A   1      42.688  23.400  29.210  1.00  0.00    -0.206 F 
ATOM     83  C   UNL A   1      40.061  21.981  27.162  1.00  0.00     0.006 A 
ENDBRANCH  55  76
BRANCH  67  84
ATOM     84  C   UNL A   1      47.272  27.444  25.729  1.00  0.00     0.057 A 
ATOM     85  C   UNL A   1      48.316  26.755  26.356  1.00  0.00     0.134 A 
ATOM     86  C   UNL A   1      47.329  27.569  24.333  1.00  0.00     0.134 A 
ATOM     87  F   UNL A   1      48.331  26.607  27.690  1.00  0.00    -0.206 F 
ATOM     88  C   UNL A   1      49.379  26.218  25.624  1.00  0.00     0.040 A 
ATOM     89  C   UNL A   1      48.365  27.008  23.589  1.00  0.00     0.040 A 
ATOM     90  F   UNL A   1      46.355  28.208  23.667  1.00  0.00    -0.206 F 
ATOM     91  C   UNL A   1      49.397  26.332  24.234  1.00  0.00     0.006 A 
ENDBRANCH  67  84
ENDBRANCH  41  42
ENDBRANCH  34  36
ENDBRANCH  33  34
ENDBRANCH  32  33
ENDBRANCH  31  32
ENDBRANCH  30  31
ENDBRANCH  29  30
ENDBRANCH   1  29
TORSDOF 22
ENDMDL
