MODEL 1
REMARK VINA RESULT:     -10.2      0.000      0.000
REMARK SMILES Cc1ccccc1OCC(=O)N[C@@H](Cc1c[nH]c2ccccc12)C(=O)OCCOCCOCCOCCOC(=O)c1ccc(-c2c3nc(c(-c4c(F)cccc4F)c4ccc([nH]4)c(-c4c(F)cccc4F)c4nc(c(-c5c(F)cccc5F)c5ccc2[nH]5)C=C4)C=C3)cc1
REMARK SMILES IDX 31 1 30 2 29 3 28 4 27 5 26 6 24 7 25 8 13 9 12 10 10 11
REMARK SMILES IDX 11 12 9 14 8 15 7 16 1 17 2 18 3 19 4 20 6 21 5 22 14 23
REMARK SMILES IDX 15 24 16 25 23 26 17 27 18 28 22 29 19 31 21 32 20 33 32 34
REMARK SMILES IDX 33 35 34 36 35 37 36 38 37 39 38 40 39 41 40 42 41 43 42 44
REMARK SMILES IDX 94 45 43 46 93 47 44 48 45 49 46 50 87 51 47 52 92 53 86 54
REMARK SMILES IDX 88 55 48 56 91 57 85 58 84 59 49 61 75 62 58 63 74 64 59 65
REMARK SMILES IDX 62 66 73 67 89 68 60 69 61 70 72 72 90 73 63 74 50 75 51 76
REMARK SMILES IDX 56 77 52 78 53 79 55 80 57 81 54 82 76 83 77 84 82 85 78 86
REMARK SMILES IDX 79 87 81 88 83 89 80 90 64 91 65 92 70 93 66 94 67 95 69 96
REMARK SMILES IDX 71 97 68 98
REMARK H PARENT 12 13 17 30 88 60 62 71
REMARK Flexibility Score: inf
ROOT
ATOM      1  C   UNL A   1      40.790  21.438  27.197  1.00  0.00     0.188 C 
ENDROOT
BRANCH   1   2
ATOM      2  C   UNL A   1      39.559  22.150  26.672  1.00  0.00     0.188 C 
BRANCH   2   3
ATOM      3  O   UNL A   1      39.114  21.710  25.400  1.00  0.00    -0.376 OA
BRANCH   3   4
ATOM      4  C   UNL A   1      38.118  20.693  25.491  1.00  0.00     0.202 C 
BRANCH   4   5
ATOM      5  C   UNL A   1      36.688  20.996  24.996  1.00  0.00     0.261 C 
BRANCH   5   6
ATOM      6  O   UNL A   1      36.516  22.178  24.198  1.00  0.00    -0.462 OA
BRANCH   6   7
ATOM      7  C   UNL A   1      35.988  23.260  24.803  1.00  0.00     0.329 C 
ATOM      8  O   UNL A   1      36.652  24.092  25.425  1.00  0.00    -0.250 OA
BRANCH   7   9
ATOM      9  C   UNL A   1      34.460  23.379  24.652  1.00  0.00     0.196 C 
BRANCH   9  10
ATOM     10  N   UNL A   1      33.787  22.436  23.763  1.00  0.00    -0.339 N 
ATOM     11  C   UNL A   1      32.814  22.712  22.846  1.00  0.00     0.258 C 
ATOM     12  O   UNL A   1      32.167  21.786  22.359  1.00  0.00    -0.271 OA
ATOM     13  H   UNL A   1      34.066  21.495  23.832  1.00  0.00     0.164 HD
BRANCH  11  14
ATOM     14  C   UNL A   1      32.608  24.183  22.383  1.00  0.00     0.329 C 
BRANCH  14  15
ATOM     15  O   UNL A   1      31.531  25.022  22.732  1.00  0.00    -0.484 OA
BRANCH  15  16
ATOM     16  C   UNL A   1      31.859  26.342  22.757  1.00  0.00     0.122 A 
ATOM     17  C   UNL A   1      29.520  27.169  23.431  1.00  0.00     0.048 C 
ATOM     18  C   UNL A   1      30.969  27.372  23.085  1.00  0.00    -0.009 A 
ATOM     19  C   UNL A   1      31.468  28.681  23.094  1.00  0.00     0.007 A 
ATOM     20  C   UNL A   1      32.796  28.950  22.753  1.00  0.00     0.001 A 
ATOM     21  C   UNL A   1      33.175  26.612  22.376  1.00  0.00     0.047 A 
ATOM     22  C   UNL A   1      33.650  27.915  22.385  1.00  0.00     0.004 A 
ENDBRANCH  15  16
ENDBRANCH  14  15
ENDBRANCH  11  14
ENDBRANCH   9  10
BRANCH   9  23
ATOM     23  C   UNL A   1      33.747  23.525  26.006  1.00  0.00     0.074 C 
BRANCH  23  24
ATOM     24  C   UNL A   1      32.697  24.598  26.140  1.00  0.00    -0.020 A 
ATOM     25  C   UNL A   1      31.345  24.386  26.284  1.00  0.00     0.087 A 
ATOM     26  C   UNL A   1      32.882  26.023  26.221  1.00  0.00     0.003 A 
ATOM     27  N   UNL A   1      30.718  25.580  26.499  1.00  0.00    -0.361 N 
ATOM     28  C   UNL A   1      31.635  26.600  26.481  1.00  0.00     0.046 A 
ATOM     29  C   UNL A   1      33.995  26.882  26.108  1.00  0.00     0.010 A 
ATOM     30  H   UNL A   1      29.751  25.692  26.645  1.00  0.00     0.166 HD
ATOM     31  C   UNL A   1      31.449  27.973  26.676  1.00  0.00     0.026 A 
ATOM     32  C   UNL A   1      33.823  28.263  26.275  1.00  0.00     0.001 A 
ATOM     33  C   UNL A   1      32.570  28.797  26.568  1.00  0.00     0.002 A 
ENDBRANCH  23  24
ENDBRANCH   9  23
ENDBRANCH   7   9
ENDBRANCH   6   7
ENDBRANCH   5   6
ENDBRANCH   4   5
ENDBRANCH   3   4
ENDBRANCH   2   3
ENDBRANCH   1   2
BRANCH   1  34
ATOM     34  O   UNL A   1      41.355  20.553  26.236  1.00  0.00    -0.377 OA
BRANCH  34  35
ATOM     35  C   UNL A   1      42.214  19.567  26.791  1.00  0.00     0.188 C 
BRANCH  35  36
ATOM     36  C   UNL A   1      42.129  18.287  25.981  1.00  0.00     0.188 C 
BRANCH  36  37
ATOM     37  O   UNL A   1      43.382  18.082  25.325  1.00  0.00    -0.376 OA
BRANCH  37  38
ATOM     38  C   UNL A   1      44.517  18.580  26.022  1.00  0.00     0.202 C 
BRANCH  38  39
ATOM     39  C   UNL A   1      45.547  19.183  25.068  1.00  0.00     0.261 C 
BRANCH  39  40
ATOM     40  O   UNL A   1      45.617  20.603  25.322  1.00  0.00    -0.460 OA
BRANCH  40  41
ATOM     41  C   UNL A   1      44.810  21.366  24.537  1.00  0.00     0.338 C 
ATOM     42  O   UNL A   1      44.904  21.469  23.324  1.00  0.00    -0.246 OA
BRANCH  41  43
ATOM     43  C   UNL A   1      43.983  22.289  25.374  1.00  0.00     0.060 A 
ATOM     44  C   UNL A   1      43.122  23.199  24.735  1.00  0.00     0.016 A 
ATOM     45  C   UNL A   1      44.325  22.489  26.710  1.00  0.00     0.016 A 
ATOM     46  C   UNL A   1      42.743  24.385  25.381  1.00  0.00     0.010 A 
ATOM     47  C   UNL A   1      44.046  23.711  27.297  1.00  0.00     0.010 A 
ATOM     48  C   UNL A   1      43.291  24.686  26.629  1.00  0.00    -0.014 A 
BRANCH  48  49
ATOM     49  C   UNL A   1      43.367  26.039  27.210  1.00  0.00     0.031 A 
ATOM     50  C   UNL A   1      42.123  26.812  27.537  1.00  0.00     0.074 A 
ATOM     51  C   UNL A   1      44.546  26.389  27.778  1.00  0.00     0.049 A 
ATOM     52  N   UNL A   1      42.089  27.982  28.090  1.00  0.00    -0.248 NA
ATOM     53  C   UNL A   1      40.778  26.328  27.220  1.00  0.00     0.031 C 
ATOM     54  C   UNL A   1      44.716  27.241  28.944  1.00  0.00     0.029 A 
ATOM     55  N   UNL A   1      45.848  25.997  27.533  1.00  0.00    -0.354 N 
ATOM     56  C   UNL A   1      40.786  28.265  28.461  1.00  0.00     0.074 A 
ATOM     57  C   UNL A   1      40.003  27.253  27.800  1.00  0.00     0.031 C 
ATOM     58  C   UNL A   1      46.011  27.410  29.232  1.00  0.00     0.029 A 
ATOM     59  C   UNL A   1      46.736  26.913  28.101  1.00  0.00     0.049 A 
ATOM     60  H   UNL A   1      46.111  25.191  27.034  1.00  0.00     0.167 HD
ATOM     61  C   UNL A   1      40.541  29.248  29.383  1.00  0.00     0.037 A 
ATOM     62  C   UNL A   1      47.546  27.711  27.347  1.00  0.00     0.037 A 
ATOM     63  C   UNL A   1      41.738  30.083  29.628  1.00  0.00     0.049 A 
ATOM     64  C   UNL A   1      47.094  29.173  27.368  1.00  0.00     0.074 A 
ATOM     65  C   UNL A   1      42.364  30.577  30.762  1.00  0.00     0.029 A 
ATOM     66  N   UNL A   1      42.579  30.432  28.561  1.00  0.00    -0.354 N 
ATOM     67  N   UNL A   1      45.903  29.570  27.768  1.00  0.00    -0.248 NA
ATOM     68  C   UNL A   1      47.949  30.311  27.036  1.00  0.00     0.031 C 
ATOM     69  C   UNL A   1      43.591  31.166  30.369  1.00  0.00     0.029 A 
ATOM     70  C   UNL A   1      43.739  31.033  28.997  1.00  0.00     0.049 A 
ATOM     71  H   UNL A   1      42.366  30.267  27.614  1.00  0.00     0.167 HD
ATOM     72  C   UNL A   1      45.809  30.935  27.728  1.00  0.00     0.074 A 
ATOM     73  C   UNL A   1      47.127  31.351  27.280  1.00  0.00     0.031 C 
ATOM     74  C   UNL A   1      44.679  31.641  28.058  1.00  0.00     0.037 A 
BRANCH  61  75
ATOM     75  C   UNL A   1      39.261  29.370  30.241  1.00  0.00     0.057 A 
ATOM     76  C   UNL A   1      38.389  30.477  30.103  1.00  0.00     0.134 A 
ATOM     77  C   UNL A   1      38.896  28.520  31.309  1.00  0.00     0.134 A 
ATOM     78  F   UNL A   1      38.536  31.368  29.113  1.00  0.00    -0.206 F 
ATOM     79  C   UNL A   1      37.313  30.744  30.972  1.00  0.00     0.040 A 
ATOM     80  C   UNL A   1      37.777  28.736  32.138  1.00  0.00     0.040 A 
ATOM     81  F   UNL A   1      39.624  27.457  31.661  1.00  0.00    -0.206 F 
ATOM     82  C   UNL A   1      36.994  29.866  31.992  1.00  0.00     0.006 A 
ENDBRANCH  61  75
BRANCH  62  83
ATOM     83  C   UNL A   1      48.313  26.884  26.359  1.00  0.00     0.057 A 
ATOM     84  C   UNL A   1      47.889  27.105  25.028  1.00  0.00     0.134 A 
ATOM     85  C   UNL A   1      49.689  26.681  26.546  1.00  0.00     0.134 A 
ATOM     86  F   UNL A   1      46.580  27.236  24.761  1.00  0.00    -0.206 F 
ATOM     87  C   UNL A   1      48.794  27.453  24.019  1.00  0.00     0.040 A 
ATOM     88  C   UNL A   1      50.607  26.987  25.522  1.00  0.00     0.040 A 
ATOM     89  F   UNL A   1      50.178  26.427  27.767  1.00  0.00    -0.206 F 
ATOM     90  C   UNL A   1      50.158  27.455  24.286  1.00  0.00     0.006 A 
ENDBRANCH  62  83
BRANCH  74  91
ATOM     91  C   UNL A   1      44.356  33.048  27.580  1.00  0.00     0.057 A 
ATOM     92  C   UNL A   1      44.577  34.202  28.344  1.00  0.00     0.134 A 
ATOM     93  C   UNL A   1      43.998  33.302  26.230  1.00  0.00     0.134 A 
ATOM     94  F   UNL A   1      45.051  34.143  29.594  1.00  0.00    -0.206 F 
ATOM     95  C   UNL A   1      44.391  35.494  27.835  1.00  0.00     0.040 A 
ATOM     96  C   UNL A   1      43.861  34.586  25.698  1.00  0.00     0.040 A 
ATOM     97  F   UNL A   1      43.805  32.321  25.338  1.00  0.00    -0.206 F 
ATOM     98  C   UNL A   1      44.043  35.692  26.507  1.00  0.00     0.006 A 
ENDBRANCH  74  91
ENDBRANCH  48  49
ENDBRANCH  41  43
ENDBRANCH  40  41
ENDBRANCH  39  40
ENDBRANCH  38  39
ENDBRANCH  37  38
ENDBRANCH  36  37
ENDBRANCH  35  36
ENDBRANCH  34  35
ENDBRANCH   1  34
TORSDOF 26
ENDMDL
MODEL 2
REMARK VINA RESULT:      -9.8      4.093      7.115
REMARK SMILES Cc1ccccc1OCC(=O)N[C@@H](Cc1c[nH]c2ccccc12)C(=O)OCCOCCOCCOCCOC(=O)c1ccc(-c2c3nc(c(-c4c(F)cccc4F)c4ccc([nH]4)c(-c4c(F)cccc4F)c4nc(c(-c5c(F)cccc5F)c5ccc2[nH]5)C=C4)C=C3)cc1
REMARK SMILES IDX 31 1 30 2 29 3 28 4 27 5 26 6 24 7 25 8 13 9 12 10 10 11
REMARK SMILES IDX 11 12 9 14 8 15 7 16 1 17 2 18 3 19 4 20 6 21 5 22 14 23
REMARK SMILES IDX 15 24 16 25 23 26 17 27 18 28 22 29 19 31 21 32 20 33 32 34
REMARK SMILES IDX 33 35 34 36 35 37 36 38 37 39 38 40 39 41 40 42 41 43 42 44
REMARK SMILES IDX 94 45 43 46 93 47 44 48 45 49 46 50 87 51 47 52 92 53 86 54
REMARK SMILES IDX 88 55 48 56 91 57 85 58 84 59 49 61 75 62 58 63 74 64 59 65
REMARK SMILES IDX 62 66 73 67 89 68 60 69 61 70 72 72 90 73 63 74 50 75 51 76
REMARK SMILES IDX 56 77 52 78 53 79 55 80 57 81 54 82 76 83 77 84 82 85 78 86
REMARK SMILES IDX 79 87 81 88 83 89 80 90 64 91 65 92 70 93 66 94 67 95 69 96
REMARK SMILES IDX 71 97 68 98
REMARK H PARENT 12 13 17 30 88 60 62 71
REMARK Flexibility Score: inf
ROOT
ATOM      1  C   UNL A   1      40.163  20.681  26.122  1.00  0.00     0.188 C 
ENDROOT
BRANCH   1   2
ATOM      2  C   UNL A   1      38.932  21.558  26.006  1.00  0.00     0.188 C 
BRANCH   2   3
ATOM      3  O   UNL A   1      38.141  21.325  24.853  1.00  0.00    -0.376 OA
BRANCH   3   4
ATOM      4  C   UNL A   1      36.916  20.661  25.156  1.00  0.00     0.202 C 
BRANCH   4   5
ATOM      5  C   UNL A   1      35.763  21.464  25.792  1.00  0.00     0.261 C 
BRANCH   5   6
ATOM      6  O   UNL A   1      35.875  22.896  25.755  1.00  0.00    -0.462 OA
BRANCH   6   7
ATOM      7  C   UNL A   1      35.425  23.521  24.649  1.00  0.00     0.329 C 
ATOM      8  O   UNL A   1      36.102  23.692  23.633  1.00  0.00    -0.250 OA
BRANCH   7   9
ATOM      9  C   UNL A   1      33.969  24.012  24.756  1.00  0.00     0.196 C 
BRANCH   9  10
ATOM     10  N   UNL A   1      32.924  23.187  24.156  1.00  0.00    -0.339 N 
ATOM     11  C   UNL A   1      32.053  23.543  23.167  1.00  0.00     0.258 C 
ATOM     12  O   UNL A   1      31.071  22.835  22.948  1.00  0.00    -0.271 OA
ATOM     13  H   UNL A   1      32.839  22.269  24.502  1.00  0.00     0.164 HD
BRANCH  11  14
ATOM     14  C   UNL A   1      32.371  24.790  22.293  1.00  0.00     0.329 C 
BRANCH  14  15
ATOM     15  O   UNL A   1      33.013  25.968  22.725  1.00  0.00    -0.484 OA
BRANCH  15  16
ATOM     16  C   UNL A   1      32.158  27.004  22.938  1.00  0.00     0.122 A 
ATOM     17  C   UNL A   1      33.977  28.818  23.023  1.00  0.00     0.048 C 
ATOM     18  C   UNL A   1      32.552  28.341  23.070  1.00  0.00    -0.009 A 
ATOM     19  C   UNL A   1      31.547  29.299  23.256  1.00  0.00     0.007 A 
ATOM     20  C   UNL A   1      30.202  28.926  23.341  1.00  0.00     0.001 A 
ATOM     21  C   UNL A   1      30.819  26.625  23.064  1.00  0.00     0.047 A 
ATOM     22  C   UNL A   1      29.838  27.587  23.253  1.00  0.00     0.004 A 
ENDBRANCH  15  16
ENDBRANCH  14  15
ENDBRANCH  11  14
ENDBRANCH   9  10
BRANCH   9  23
ATOM     23  C   UNL A   1      33.610  24.476  26.177  1.00  0.00     0.074 C 
BRANCH  23  24
ATOM     24  C   UNL A   1      32.624  25.605  26.325  1.00  0.00    -0.020 A 
ATOM     25  C   UNL A   1      31.256  25.474  26.398  1.00  0.00     0.087 A 
ATOM     26  C   UNL A   1      32.893  27.010  26.492  1.00  0.00     0.003 A 
ATOM     27  N   UNL A   1      30.694  26.693  26.651  1.00  0.00    -0.361 N 
ATOM     28  C   UNL A   1      31.672  27.651  26.729  1.00  0.00     0.046 A 
ATOM     29  C   UNL A   1      34.061  27.800  26.474  1.00  0.00     0.010 A 
ATOM     30  H   UNL A   1      29.731  26.859  26.761  1.00  0.00     0.166 HD
ATOM     31  C   UNL A   1      31.563  29.021  26.990  1.00  0.00     0.026 A 
ATOM     32  C   UNL A   1      33.967  29.179  26.709  1.00  0.00     0.001 A 
ATOM     33  C   UNL A   1      32.737  29.776  26.977  1.00  0.00     0.002 A 
ENDBRANCH  23  24
ENDBRANCH   9  23
ENDBRANCH   7   9
ENDBRANCH   6   7
ENDBRANCH   5   6
ENDBRANCH   4   5
ENDBRANCH   3   4
ENDBRANCH   2   3
ENDBRANCH   1   2
BRANCH   1  34
ATOM     34  O   UNL A   1      40.760  20.753  27.413  1.00  0.00    -0.377 OA
BRANCH  34  35
ATOM     35  C   UNL A   1      42.105  21.209  27.404  1.00  0.00     0.188 C 
BRANCH  35  36
ATOM     36  C   UNL A   1      42.142  22.723  27.307  1.00  0.00     0.188 C 
BRANCH  36  37
ATOM     37  O   UNL A   1      41.448  23.266  28.432  1.00  0.00    -0.376 OA
BRANCH  37  38
ATOM     38  C   UNL A   1      40.578  24.353  28.137  1.00  0.00     0.202 C 
BRANCH  38  39
ATOM     39  C   UNL A   1      40.729  24.822  26.691  1.00  0.00     0.261 C 
BRANCH  39  40
ATOM     40  O   UNL A   1      40.307  26.201  26.619  1.00  0.00    -0.460 OA
BRANCH  40  41
ATOM     41  C   UNL A   1      41.316  27.112  26.646  1.00  0.00     0.338 C 
ATOM     42  O   UNL A   1      42.501  26.850  26.513  1.00  0.00    -0.246 OA
BRANCH  41  43
ATOM     43  C   UNL A   1      40.821  28.429  27.150  1.00  0.00     0.060 A 
ATOM     44  C   UNL A   1      41.738  29.322  27.733  1.00  0.00     0.016 A 
ATOM     45  C   UNL A   1      39.456  28.608  27.367  1.00  0.00     0.016 A 
ATOM     46  C   UNL A   1      41.299  30.282  28.656  1.00  0.00     0.010 A 
ATOM     47  C   UNL A   1      39.044  29.474  28.364  1.00  0.00     0.010 A 
ATOM     48  C   UNL A   1      39.959  30.290  29.047  1.00  0.00    -0.014 A 
BRANCH  48  49
ATOM     49  C   UNL A   1      39.450  30.889  30.294  1.00  0.00     0.031 A 
ATOM     50  C   UNL A   1      38.633  32.148  30.270  1.00  0.00     0.074 A 
ATOM     51  C   UNL A   1      39.414  30.085  31.383  1.00  0.00     0.049 A 
ATOM     52  N   UNL A   1      38.105  32.721  31.303  1.00  0.00    -0.248 NA
ATOM     53  C   UNL A   1      38.372  32.905  29.043  1.00  0.00     0.031 C 
ATOM     54  C   UNL A   1      38.415  30.114  32.439  1.00  0.00     0.029 A 
ATOM     55  N   UNL A   1      40.177  28.996  31.759  1.00  0.00    -0.354 N 
ATOM     56  C   UNL A   1      37.227  33.701  30.873  1.00  0.00     0.074 A 
ATOM     57  C   UNL A   1      37.517  33.842  29.470  1.00  0.00     0.031 C 
ATOM     58  C   UNL A   1      38.684  29.206  33.383  1.00  0.00     0.029 A 
ATOM     59  C   UNL A   1      40.018  28.751  33.125  1.00  0.00     0.049 A 
ATOM     60  H   UNL A   1      40.747  28.470  31.154  1.00  0.00     0.167 HD
ATOM     61  C   UNL A   1      36.278  34.187  31.732  1.00  0.00     0.037 A 
ATOM     62  C   UNL A   1      41.031  28.920  34.022  1.00  0.00     0.037 A 
ATOM     63  C   UNL A   1      36.540  33.778  33.131  1.00  0.00     0.049 A 
ATOM     64  C   UNL A   1      40.814  30.146  34.912  1.00  0.00     0.074 A 
ATOM     65  C   UNL A   1      35.760  33.271  34.158  1.00  0.00     0.029 A 
ATOM     66  N   UNL A   1      37.856  33.747  33.616  1.00  0.00    -0.354 N 
ATOM     67  N   UNL A   1      39.955  31.109  34.642  1.00  0.00    -0.248 NA
ATOM     68  C   UNL A   1      41.458  30.358  36.206  1.00  0.00     0.031 C 
ATOM     69  C   UNL A   1      36.619  32.896  35.221  1.00  0.00     0.029 A 
ATOM     70  C   UNL A   1      37.931  33.156  34.858  1.00  0.00     0.049 A 
ATOM     71  H   UNL A   1      38.633  34.105  33.128  1.00  0.00     0.167 HD
ATOM     72  C   UNL A   1      39.940  32.040  35.645  1.00  0.00     0.074 A 
ATOM     73  C   UNL A   1      40.888  31.509  36.611  1.00  0.00     0.031 C 
ATOM     74  C   UNL A   1      39.168  33.174  35.634  1.00  0.00     0.037 A 
BRANCH  61  75
ATOM     75  C   UNL A   1      34.968  34.892  31.312  1.00  0.00     0.057 A 
ATOM     76  C   UNL A   1      34.397  35.913  32.109  1.00  0.00     0.134 A 
ATOM     77  C   UNL A   1      34.145  34.529  30.222  1.00  0.00     0.134 A 
ATOM     78  F   UNL A   1      35.049  36.433  33.158  1.00  0.00    -0.206 F 
ATOM     79  C   UNL A   1      33.121  36.466  31.884  1.00  0.00     0.040 A 
ATOM     80  C   UNL A   1      32.900  35.128  29.942  1.00  0.00     0.040 A 
ATOM     81  F   UNL A   1      34.460  33.536  29.385  1.00  0.00    -0.206 F 
ATOM     82  C   UNL A   1      32.367  36.081  30.790  1.00  0.00     0.006 A 
ENDBRANCH  61  75
BRANCH  62  83
ATOM     83  C   UNL A   1      42.254  28.183  33.567  1.00  0.00     0.057 A 
ATOM     84  C   UNL A   1      43.293  29.056  33.169  1.00  0.00     0.134 A 
ATOM     85  C   UNL A   1      42.650  27.015  34.237  1.00  0.00     0.134 A 
ATOM     86  F   UNL A   1      42.999  30.158  32.460  1.00  0.00    -0.206 F 
ATOM     87  C   UNL A   1      44.581  28.957  33.708  1.00  0.00     0.040 A 
ATOM     88  C   UNL A   1      43.956  26.885  34.746  1.00  0.00     0.040 A 
ATOM     89  F   UNL A   1      41.738  26.110  34.618  1.00  0.00    -0.206 F 
ATOM     90  C   UNL A   1      44.896  27.898  34.552  1.00  0.00     0.006 A 
ENDBRANCH  62  83
BRANCH  74  91
ATOM     91  C   UNL A   1      39.459  34.438  36.429  1.00  0.00     0.057 A 
ATOM     92  C   UNL A   1      38.965  34.679  37.719  1.00  0.00     0.134 A 
ATOM     93  C   UNL A   1      40.432  35.374  35.993  1.00  0.00     0.134 A 
ATOM     94  F   UNL A   1      38.145  33.820  38.335  1.00  0.00    -0.206 F 
ATOM     95  C   UNL A   1      39.349  35.791  38.481  1.00  0.00     0.040 A 
ATOM     96  C   UNL A   1      40.861  36.456  36.765  1.00  0.00     0.040 A 
ATOM     97  F   UNL A   1      41.056  35.269  34.812  1.00  0.00    -0.206 F 
ATOM     98  C   UNL A   1      40.308  36.677  38.012  1.00  0.00     0.006 A 
ENDBRANCH  74  91
ENDBRANCH  48  49
ENDBRANCH  41  43
ENDBRANCH  40  41
ENDBRANCH  39  40
ENDBRANCH  38  39
ENDBRANCH  37  38
ENDBRANCH  36  37
ENDBRANCH  35  36
ENDBRANCH  34  35
ENDBRANCH   1  34
TORSDOF 26
ENDMDL
MODEL 3
REMARK VINA RESULT:      -9.1      4.053      6.317
REMARK SMILES Cc1ccccc1OCC(=O)N[C@@H](Cc1c[nH]c2ccccc12)C(=O)OCCOCCOCCOCCOC(=O)c1ccc(-c2c3nc(c(-c4c(F)cccc4F)c4ccc([nH]4)c(-c4c(F)cccc4F)c4nc(c(-c5c(F)cccc5F)c5ccc2[nH]5)C=C4)C=C3)cc1
REMARK SMILES IDX 31 1 30 2 29 3 28 4 27 5 26 6 24 7 25 8 13 9 12 10 10 11
REMARK SMILES IDX 11 12 9 14 8 15 7 16 1 17 2 18 3 19 4 20 6 21 5 22 14 23
REMARK SMILES IDX 15 24 16 25 23 26 17 27 18 28 22 29 19 31 21 32 20 33 32 34
REMARK SMILES IDX 33 35 34 36 35 37 36 38 37 39 38 40 39 41 40 42 41 43 42 44
REMARK SMILES IDX 94 45 43 46 93 47 44 48 45 49 46 50 87 51 47 52 92 53 86 54
REMARK SMILES IDX 88 55 48 56 91 57 85 58 84 59 49 61 75 62 58 63 74 64 59 65
REMARK SMILES IDX 62 66 73 67 89 68 60 69 61 70 72 72 90 73 63 74 50 75 51 76
REMARK SMILES IDX 56 77 52 78 53 79 55 80 57 81 54 82 76 83 77 84 82 85 78 86
REMARK SMILES IDX 79 87 81 88 83 89 80 90 64 91 65 92 70 93 66 94 67 95 69 96
REMARK SMILES IDX 71 97 68 98
REMARK H PARENT 12 13 17 30 88 60 62 71
REMARK Flexibility Score: inf
ROOT
ATOM      1  C   UNL A   1      41.860  23.188  26.360  1.00  0.00     0.188 C 
ENDROOT
BRANCH   1   2
ATOM      2  C   UNL A   1      41.250  22.255  27.387  1.00  0.00     0.188 C 
BRANCH   2   3
ATOM      3  O   UNL A   1      39.834  22.188  27.364  1.00  0.00    -0.376 OA
BRANCH   3   4
ATOM      4  C   UNL A   1      39.334  21.593  26.168  1.00  0.00     0.202 C 
BRANCH   4   5
ATOM      5  C   UNL A   1      38.335  22.383  25.297  1.00  0.00     0.261 C 
BRANCH   5   6
ATOM      6  O   UNL A   1      36.940  22.102  25.497  1.00  0.00    -0.462 OA
BRANCH   6   7
ATOM      7  C   UNL A   1      36.096  22.430  24.499  1.00  0.00     0.329 C 
ATOM      8  O   UNL A   1      36.448  22.604  23.330  1.00  0.00    -0.250 OA
BRANCH   7   9
ATOM      9  C   UNL A   1      34.627  22.568  24.941  1.00  0.00     0.196 C 
BRANCH   9  10
ATOM     10  N   UNL A   1      33.802  21.363  24.957  1.00  0.00    -0.339 N 
ATOM     11  C   UNL A   1      32.575  21.193  24.384  1.00  0.00     0.258 C 
ATOM     12  O   UNL A   1      31.896  20.216  24.698  1.00  0.00    -0.271 OA
ATOM     13  H   UNL A   1      34.173  20.585  25.432  1.00  0.00     0.164 HD
BRANCH  11  14
ATOM     14  C   UNL A   1      32.104  22.196  23.292  1.00  0.00     0.329 C 
BRANCH  14  15
ATOM     15  O   UNL A   1      31.154  23.223  23.458  1.00  0.00    -0.484 OA
BRANCH  15  16
ATOM     16  C   UNL A   1      31.602  24.444  23.062  1.00  0.00     0.122 A 
ATOM     17  C   UNL A   1      29.484  25.725  23.756  1.00  0.00     0.048 C 
ATOM     18  C   UNL A   1      30.873  25.633  23.188  1.00  0.00    -0.009 A 
ATOM     19  C   UNL A   1      31.485  26.818  22.759  1.00  0.00     0.007 A 
ATOM     20  C   UNL A   1      32.763  26.806  22.192  1.00  0.00     0.001 A 
ATOM     21  C   UNL A   1      32.861  24.425  22.459  1.00  0.00     0.047 A 
ATOM     22  C   UNL A   1      33.449  25.606  22.034  1.00  0.00     0.004 A 
ENDBRANCH  15  16
ENDBRANCH  14  15
ENDBRANCH  11  14
ENDBRANCH   9  10
BRANCH   9  23
ATOM     23  C   UNL A   1      34.479  23.400  26.226  1.00  0.00     0.074 C 
BRANCH  23  24
ATOM     24  C   UNL A   1      33.277  24.301  26.350  1.00  0.00    -0.020 A 
ATOM     25  C   UNL A   1      32.026  23.919  26.775  1.00  0.00     0.087 A 
ATOM     26  C   UNL A   1      33.201  25.722  26.131  1.00  0.00     0.003 A 
ATOM     27  N   UNL A   1      31.224  25.020  26.878  1.00  0.00    -0.361 N 
ATOM     28  C   UNL A   1      31.920  26.141  26.505  1.00  0.00     0.046 A 
ATOM     29  C   UNL A   1      34.103  26.699  25.660  1.00  0.00     0.010 A 
ATOM     30  H   UNL A   1      30.286  25.009  27.175  1.00  0.00     0.166 HD
ATOM     31  C   UNL A   1      31.509  27.478  26.473  1.00  0.00     0.026 A 
ATOM     32  C   UNL A   1      33.700  28.040  25.597  1.00  0.00     0.001 A 
ATOM     33  C   UNL A   1      32.426  28.424  26.012  1.00  0.00     0.002 A 
ENDBRANCH  23  24
ENDBRANCH   9  23
ENDBRANCH   7   9
ENDBRANCH   6   7
ENDBRANCH   5   6
ENDBRANCH   4   5
ENDBRANCH   3   4
ENDBRANCH   2   3
ENDBRANCH   1   2
BRANCH   1  34
ATOM     34  O   UNL A   1      42.678  24.189  26.957  1.00  0.00    -0.377 OA
BRANCH  34  35
ATOM     35  C   UNL A   1      42.217  25.516  26.745  1.00  0.00     0.188 C 
BRANCH  35  36
ATOM     36  C   UNL A   1      42.467  25.931  25.307  1.00  0.00     0.188 C 
BRANCH  36  37
ATOM     37  O   UNL A   1      43.878  26.032  25.103  1.00  0.00    -0.376 OA
BRANCH  37  38
ATOM     38  C   UNL A   1      44.534  27.011  25.899  1.00  0.00     0.202 C 
BRANCH  38  39
ATOM     39  C   UNL A   1      46.055  26.900  25.794  1.00  0.00     0.261 C 
BRANCH  39  40
ATOM     40  O   UNL A   1      46.603  26.945  27.129  1.00  0.00    -0.460 OA
BRANCH  40  41
ATOM     41  C   UNL A   1      46.547  25.770  27.811  1.00  0.00     0.338 C 
ATOM     42  O   UNL A   1      46.740  24.666  27.326  1.00  0.00    -0.246 OA
BRANCH  41  43
ATOM     43  C   UNL A   1      45.935  25.974  29.160  1.00  0.00     0.060 A 
ATOM     44  C   UNL A   1      44.728  25.320  29.465  1.00  0.00     0.016 A 
ATOM     45  C   UNL A   1      46.349  27.051  29.942  1.00  0.00     0.016 A 
ATOM     46  C   UNL A   1      43.866  25.846  30.438  1.00  0.00     0.010 A 
ATOM     47  C   UNL A   1      45.446  27.631  30.814  1.00  0.00     0.010 A 
ATOM     48  C   UNL A   1      44.183  27.064  31.043  1.00  0.00    -0.014 A 
BRANCH  48  49
ATOM     49  C   UNL A   1      43.211  27.952  31.707  1.00  0.00     0.031 A 
ATOM     50  C   UNL A   1      42.253  28.785  30.907  1.00  0.00     0.074 A 
ATOM     51  C   UNL A   1      42.960  27.706  33.015  1.00  0.00     0.049 A 
ATOM     52  N   UNL A   1      41.337  29.556  31.398  1.00  0.00    -0.248 NA
ATOM     53  C   UNL A   1      42.279  28.846  29.444  1.00  0.00     0.031 C 
ATOM     54  C   UNL A   1      41.685  27.881  33.691  1.00  0.00     0.029 A 
ATOM     55  N   UNL A   1      43.729  27.150  34.020  1.00  0.00    -0.354 N 
ATOM     56  C   UNL A   1      40.497  29.962  30.376  1.00  0.00     0.074 A 
ATOM     57  C   UNL A   1      41.192  29.580  29.175  1.00  0.00     0.031 C 
ATOM     58  C   UNL A   1      41.781  27.575  34.989  1.00  0.00     0.029 A 
ATOM     59  C   UNL A   1      43.183  27.466  35.266  1.00  0.00     0.049 A 
ATOM     60  H   UNL A   1      44.540  26.611  33.878  1.00  0.00     0.167 HD
ATOM     61  C   UNL A   1      39.257  30.462  30.675  1.00  0.00     0.037 A 
ATOM     62  C   UNL A   1      43.815  28.283  36.157  1.00  0.00     0.037 A 
ATOM     63  C   UNL A   1      39.121  30.773  32.116  1.00  0.00     0.049 A 
ATOM     64  C   UNL A   1      43.129  29.646  36.274  1.00  0.00     0.074 A 
ATOM     65  C   UNL A   1      38.146  30.539  33.073  1.00  0.00     0.029 A 
ATOM     66  N   UNL A   1      40.199  31.334  32.816  1.00  0.00    -0.354 N 
ATOM     67  N   UNL A   1      42.258  30.110  35.400  1.00  0.00    -0.248 NA
ATOM     68  C   UNL A   1      43.282  30.559  37.405  1.00  0.00     0.031 C 
ATOM     69  C   UNL A   1      38.669  30.913  34.336  1.00  0.00     0.029 A 
ATOM     70  C   UNL A   1      39.968  31.368  34.173  1.00  0.00     0.049 A 
ATOM     71  H   UNL A   1      41.022  31.665  32.388  1.00  0.00     0.167 HD
ATOM     72  C   UNL A   1      41.773  31.326  35.799  1.00  0.00     0.074 A 
ATOM     73  C   UNL A   1      42.434  31.551  37.073  1.00  0.00     0.031 C 
ATOM     74  C   UNL A   1      40.872  32.071  35.080  1.00  0.00     0.037 A 
BRANCH  61  75
ATOM     75  C   UNL A   1      38.054  30.508  29.705  1.00  0.00     0.057 A 
ATOM     76  C   UNL A   1      37.602  29.342  29.042  1.00  0.00     0.134 A 
ATOM     77  C   UNL A   1      37.386  31.675  29.269  1.00  0.00     0.134 A 
ATOM     78  F   UNL A   1      38.075  28.128  29.356  1.00  0.00    -0.206 F 
ATOM     79  C   UNL A   1      36.638  29.344  28.014  1.00  0.00     0.040 A 
ATOM     80  C   UNL A   1      36.366  31.680  28.296  1.00  0.00     0.040 A 
ATOM     81  F   UNL A   1      37.708  32.893  29.711  1.00  0.00    -0.206 F 
ATOM     82  C   UNL A   1      36.006  30.517  27.641  1.00  0.00     0.006 A 
ENDBRANCH  61  75
BRANCH  62  83
ATOM     83  C   UNL A   1      45.222  27.816  36.380  1.00  0.00     0.057 A 
ATOM     84  C   UNL A   1      46.179  28.753  35.925  1.00  0.00     0.134 A 
ATOM     85  C   UNL A   1      45.544  27.123  37.558  1.00  0.00     0.134 A 
ATOM     86  F   UNL A   1      45.975  29.402  34.768  1.00  0.00    -0.206 F 
ATOM     87  C   UNL A   1      47.199  29.222  36.760  1.00  0.00     0.040 A 
ATOM     88  C   UNL A   1      46.597  27.560  38.384  1.00  0.00     0.040 A 
ATOM     89  F   UNL A   1      44.715  26.189  38.043  1.00  0.00    -0.206 F 
ATOM     90  C   UNL A   1      47.369  28.665  38.022  1.00  0.00     0.006 A 
ENDBRANCH  62  83
BRANCH  74  91
ATOM     91  C   UNL A   1      40.685  33.575  35.204  1.00  0.00     0.057 A 
ATOM     92  C   UNL A   1      39.835  34.181  36.140  1.00  0.00     0.134 A 
ATOM     93  C   UNL A   1      41.527  34.481  34.509  1.00  0.00     0.134 A 
ATOM     94  F   UNL A   1      39.074  33.463  36.974  1.00  0.00    -0.206 F 
ATOM     95  C   UNL A   1      39.775  35.569  36.320  1.00  0.00     0.040 A 
ATOM     96  C   UNL A   1      41.513  35.862  34.719  1.00  0.00     0.040 A 
ATOM     97  F   UNL A   1      42.444  34.076  33.620  1.00  0.00    -0.206 F 
ATOM     98  C   UNL A   1      40.622  36.415  35.618  1.00  0.00     0.006 A 
ENDBRANCH  74  91
ENDBRANCH  48  49
ENDBRANCH  41  43
ENDBRANCH  40  41
ENDBRANCH  39  40
ENDBRANCH  38  39
ENDBRANCH  37  38
ENDBRANCH  36  37
ENDBRANCH  35  36
ENDBRANCH  34  35
ENDBRANCH   1  34
TORSDOF 26
ENDMDL
