MODEL 1
REMARK VINA RESULT:     -10.1      0.000      0.000
REMARK SMILES C[C@@H](C(=O)OCCOCCOCCOCCOC(=O)c1ccc(-c2c3nc(c(-c4c(F)cccc4F)c4ccc([nH]4)c(-c4c(F)cccc4F)c4nc(c(-c5c(F)cccc5F)c5ccc2[nH]5)C=C4)C=C3)cc1)c1ccc(C[C@H]2CCC[C@H]2O)cc1
REMARK SMILES IDX 10 1 9 2 8 3 7 4 6 5 5 6 3 7 4 8 2 9 1 10 74 11 75 12 86 13
REMARK SMILES IDX 76 14 85 15 77 16 78 17 79 18 80 19 83 20 81 21 82 22 84 23
REMARK SMILES IDX 11 25 12 26 13 27 14 28 15 29 16 30 17 31 18 32 19 33 20 34
REMARK SMILES IDX 21 35 73 36 22 37 72 38 23 39 24 40 25 41 66 42 26 43 71 44
REMARK SMILES IDX 65 45 67 46 27 47 70 48 64 49 63 50 28 52 54 53 37 54 53 55
REMARK SMILES IDX 38 56 41 57 52 58 68 59 39 60 40 61 51 63 69 64 42 65 29 66
REMARK SMILES IDX 30 67 35 68 31 69 32 70 34 71 36 72 33 73 55 74 56 75 61 76
REMARK SMILES IDX 57 77 58 78 60 79 62 80 59 81 43 82 44 83 49 84 45 85 46 86
REMARK SMILES IDX 48 87 50 88 47 89
REMARK H PARENT 84 24 67 51 41 62
REMARK Flexibility Score: inf
ROOT
ATOM      1  C   UNL A   1      33.958  34.080  28.171  1.00  0.00     0.188 C 
ENDROOT
BRANCH   1   2
ATOM      2  C   UNL A   1      35.265  33.284  28.067  1.00  0.00     0.188 C 
BRANCH   2   3
ATOM      3  O   UNL A   1      35.085  31.948  27.641  1.00  0.00    -0.376 OA
BRANCH   3   4
ATOM      4  C   UNL A   1      33.771  31.420  27.640  1.00  0.00     0.202 C 
BRANCH   4   5
ATOM      5  C   UNL A   1      33.446  30.021  27.073  1.00  0.00     0.261 C 
BRANCH   5   6
ATOM      6  O   UNL A   1      33.151  29.933  25.668  1.00  0.00    -0.463 OA
BRANCH   6   7
ATOM      7  C   UNL A   1      31.856  29.926  25.268  1.00  0.00     0.313 C 
ATOM      8  O   UNL A   1      31.024  30.745  25.643  1.00  0.00    -0.252 OA
BRANCH   7   9
ATOM      9  C   UNL A   1      31.554  28.841  24.213  1.00  0.00     0.126 C 
ATOM     10  C   UNL A   1      30.321  29.127  23.337  1.00  0.00     0.025 C 
BRANCH   9  11
ATOM     11  C   UNL A   1      31.579  27.408  24.755  1.00  0.00    -0.034 A 
ATOM     12  C   UNL A   1      31.754  27.138  26.115  1.00  0.00     0.005 A 
ATOM     13  C   UNL A   1      31.485  26.303  23.896  1.00  0.00     0.005 A 
ATOM     14  C   UNL A   1      31.785  25.843  26.614  1.00  0.00     0.004 A 
ATOM     15  C   UNL A   1      31.688  25.000  24.379  1.00  0.00     0.004 A 
ATOM     16  C   UNL A   1      31.920  24.778  25.741  1.00  0.00    -0.048 A 
BRANCH  16  17
ATOM     17  C   UNL A   1      32.486  23.482  26.269  1.00  0.00     0.041 C 
BRANCH  17  18
ATOM     18  C   UNL A   1      33.867  23.076  25.689  1.00  0.00     0.022 C 
ATOM     19  C   UNL A   1      34.955  24.165  25.742  1.00  0.00     0.007 C 
ATOM     20  C   UNL A   1      34.577  21.797  26.192  1.00  0.00     0.117 C 
ATOM     21  C   UNL A   1      36.295  23.436  25.870  1.00  0.00     0.003 C 
ATOM     22  C   UNL A   1      35.992  21.959  25.647  1.00  0.00     0.032 C 
BRANCH  20  23
ATOM     23  O   UNL A   1      34.686  21.646  27.594  1.00  0.00    -0.393 OA
ATOM     24  H   UNL A   1      35.400  22.212  27.925  1.00  0.00     0.210 HD
ENDBRANCH  20  23
ENDBRANCH  17  18
ENDBRANCH  16  17
ENDBRANCH   9  11
ENDBRANCH   7   9
ENDBRANCH   6   7
ENDBRANCH   5   6
ENDBRANCH   4   5
ENDBRANCH   3   4
ENDBRANCH   2   3
ENDBRANCH   1   2
BRANCH   1  25
ATOM     25  O   UNL A   1      34.088  35.483  28.337  1.00  0.00    -0.377 OA
BRANCH  25  26
ATOM     26  C   UNL A   1      33.211  36.145  29.250  1.00  0.00     0.188 C 
BRANCH  26  27
ATOM     27  C   UNL A   1      32.957  35.613  30.685  1.00  0.00     0.188 C 
BRANCH  27  28
ATOM     28  O   UNL A   1      33.844  36.092  31.682  1.00  0.00    -0.376 OA
BRANCH  28  29
ATOM     29  C   UNL A   1      34.336  35.169  32.640  1.00  0.00     0.202 C 
BRANCH  29  30
ATOM     30  C   UNL A   1      34.062  33.680  32.388  1.00  0.00     0.261 C 
BRANCH  30  31
ATOM     31  O   UNL A   1      35.167  32.908  31.889  1.00  0.00    -0.460 OA
BRANCH  31  32
ATOM     32  C   UNL A   1      36.068  32.447  32.782  1.00  0.00     0.338 C 
ATOM     33  O   UNL A   1      36.005  32.515  34.000  1.00  0.00    -0.246 OA
BRANCH  32  34
ATOM     34  C   UNL A   1      37.066  31.651  32.039  1.00  0.00     0.060 A 
ATOM     35  C   UNL A   1      37.980  30.862  32.753  1.00  0.00     0.016 A 
ATOM     36  C   UNL A   1      37.085  31.668  30.644  1.00  0.00     0.016 A 
ATOM     37  C   UNL A   1      38.940  30.117  32.072  1.00  0.00     0.010 A 
ATOM     38  C   UNL A   1      38.067  30.944  29.963  1.00  0.00     0.010 A 
ATOM     39  C   UNL A   1      39.020  30.195  30.677  1.00  0.00    -0.014 A 
BRANCH  39  40
ATOM     40  C   UNL A   1      40.226  29.682  29.984  1.00  0.00     0.031 A 
ATOM     41  C   UNL A   1      41.372  30.631  29.764  1.00  0.00     0.074 A 
ATOM     42  C   UNL A   1      40.319  28.404  29.580  1.00  0.00     0.049 A 
ATOM     43  N   UNL A   1      42.501  30.443  29.132  1.00  0.00    -0.248 NA
ATOM     44  C   UNL A   1      41.217  31.982  30.333  1.00  0.00     0.031 C 
ATOM     45  C   UNL A   1      39.300  27.375  29.779  1.00  0.00     0.029 A 
ATOM     46  N   UNL A   1      41.324  27.758  28.904  1.00  0.00    -0.354 N 
ATOM     47  C   UNL A   1      43.186  31.649  29.222  1.00  0.00     0.074 A 
ATOM     48  C   UNL A   1      42.334  32.572  29.938  1.00  0.00     0.031 C 
ATOM     49  C   UNL A   1      39.726  26.228  29.222  1.00  0.00     0.029 A 
ATOM     50  C   UNL A   1      41.029  26.452  28.597  1.00  0.00     0.049 A 
ATOM     51  H   UNL A   1      42.175  28.189  28.663  1.00  0.00     0.167 HD
ATOM     52  C   UNL A   1      44.418  31.957  28.755  1.00  0.00     0.037 A 
ATOM     53  C   UNL A   1      41.722  25.554  27.869  1.00  0.00     0.037 A 
ATOM     54  C   UNL A   1      45.261  31.039  28.039  1.00  0.00     0.049 A 
ATOM     55  C   UNL A   1      43.056  25.948  27.284  1.00  0.00     0.074 A 
ATOM     56  C   UNL A   1      46.532  31.250  27.532  1.00  0.00     0.029 A 
ATOM     57  N   UNL A   1      44.914  29.735  27.718  1.00  0.00    -0.354 N 
ATOM     58  N   UNL A   1      43.705  27.082  27.389  1.00  0.00    -0.248 NA
ATOM     59  C   UNL A   1      43.753  24.933  26.480  1.00  0.00     0.031 C 
ATOM     60  C   UNL A   1      46.927  30.095  26.853  1.00  0.00     0.029 A 
ATOM     61  C   UNL A   1      45.934  29.139  26.995  1.00  0.00     0.049 A 
ATOM     62  H   UNL A   1      44.067  29.298  27.967  1.00  0.00     0.167 HD
ATOM     63  C   UNL A   1      44.899  26.906  26.698  1.00  0.00     0.074 A 
ATOM     64  C   UNL A   1      44.889  25.551  26.189  1.00  0.00     0.031 C 
ATOM     65  C   UNL A   1      45.914  27.785  26.504  1.00  0.00     0.037 A 
BRANCH  52  66
ATOM     66  C   UNL A   1      44.913  33.357  28.979  1.00  0.00     0.057 A 
ATOM     67  C   UNL A   1      45.617  33.723  30.133  1.00  0.00     0.134 A 
ATOM     68  C   UNL A   1      44.704  34.348  28.010  1.00  0.00     0.134 A 
ATOM     69  F   UNL A   1      45.837  32.828  31.109  1.00  0.00    -0.206 F 
ATOM     70  C   UNL A   1      46.076  35.027  30.327  1.00  0.00     0.040 A 
ATOM     71  C   UNL A   1      45.185  35.647  28.178  1.00  0.00     0.040 A 
ATOM     72  F   UNL A   1      44.039  34.066  26.879  1.00  0.00    -0.206 F 
ATOM     73  C   UNL A   1      45.867  35.991  29.342  1.00  0.00     0.006 A 
ENDBRANCH  52  66
BRANCH  53  74
ATOM     74  C   UNL A   1      41.165  24.198  27.626  1.00  0.00     0.057 A 
ATOM     75  C   UNL A   1      41.665  23.074  28.294  1.00  0.00     0.134 A 
ATOM     76  C   UNL A   1      40.144  23.986  26.690  1.00  0.00     0.134 A 
ATOM     77  F   UNL A   1      42.661  23.204  29.183  1.00  0.00    -0.206 F 
ATOM     78  C   UNL A   1      41.189  21.789  28.025  1.00  0.00     0.040 A 
ATOM     79  C   UNL A   1      39.638  22.712  26.433  1.00  0.00     0.040 A 
ATOM     80  F   UNL A   1      39.621  25.019  26.014  1.00  0.00    -0.206 F 
ATOM     81  C   UNL A   1      40.168  21.606  27.095  1.00  0.00     0.006 A 
ENDBRANCH  53  74
BRANCH  65  82
ATOM     82  C   UNL A   1      47.120  27.297  25.751  1.00  0.00     0.057 A 
ATOM     83  C   UNL A   1      47.291  27.535  24.382  1.00  0.00     0.134 A 
ATOM     84  C   UNL A   1      48.148  26.619  26.421  1.00  0.00     0.134 A 
ATOM     85  F   UNL A   1      46.342  28.171  23.678  1.00  0.00    -0.206 F 
ATOM     86  C   UNL A   1      48.427  27.093  23.701  1.00  0.00     0.040 A 
ATOM     87  C   UNL A   1      49.302  26.200  25.758  1.00  0.00     0.040 A 
ATOM     88  F   UNL A   1      48.056  26.368  27.735  1.00  0.00    -0.206 F 
ATOM     89  C   UNL A   1      49.441  26.430  24.391  1.00  0.00     0.006 A 
ENDBRANCH  65  82
ENDBRANCH  39  40
ENDBRANCH  32  34
ENDBRANCH  31  32
ENDBRANCH  30  31
ENDBRANCH  29  30
ENDBRANCH  28  29
ENDBRANCH  27  28
ENDBRANCH  26  27
ENDBRANCH  25  26
ENDBRANCH   1  25
TORSDOF 24
ENDMDL
MODEL 2
REMARK VINA RESULT:      -9.6      1.127      6.105
REMARK SMILES C[C@@H](C(=O)OCCOCCOCCOCCOC(=O)c1ccc(-c2c3nc(c(-c4c(F)cccc4F)c4ccc([nH]4)c(-c4c(F)cccc4F)c4nc(c(-c5c(F)cccc5F)c5ccc2[nH]5)C=C4)C=C3)cc1)c1ccc(C[C@H]2CCC[C@H]2O)cc1
REMARK SMILES IDX 10 1 9 2 8 3 7 4 6 5 5 6 3 7 4 8 2 9 1 10 74 11 75 12 86 13
REMARK SMILES IDX 76 14 85 15 77 16 78 17 79 18 80 19 83 20 81 21 82 22 84 23
REMARK SMILES IDX 11 25 12 26 13 27 14 28 15 29 16 30 17 31 18 32 19 33 20 34
REMARK SMILES IDX 21 35 73 36 22 37 72 38 23 39 24 40 25 41 66 42 26 43 71 44
REMARK SMILES IDX 65 45 67 46 27 47 70 48 64 49 63 50 28 52 54 53 37 54 53 55
REMARK SMILES IDX 38 56 41 57 52 58 68 59 39 60 40 61 51 63 69 64 42 65 29 66
REMARK SMILES IDX 30 67 35 68 31 69 32 70 34 71 36 72 33 73 55 74 56 75 61 76
REMARK SMILES IDX 57 77 58 78 60 79 62 80 59 81 43 82 44 83 49 84 45 85 46 86
REMARK SMILES IDX 48 87 50 88 47 89
REMARK H PARENT 84 24 67 51 41 62
REMARK Flexibility Score: inf
ROOT
ATOM      1  C   UNL A   1      34.208  33.794  28.279  1.00  0.00     0.188 C 
ENDROOT
BRANCH   1   2
ATOM      2  C   UNL A   1      35.663  33.348  28.082  1.00  0.00     0.188 C 
BRANCH   2   3
ATOM      3  O   UNL A   1      35.797  31.982  27.745  1.00  0.00    -0.376 OA
BRANCH   3   4
ATOM      4  C   UNL A   1      34.747  31.101  28.100  1.00  0.00     0.202 C 
BRANCH   4   5
ATOM      5  C   UNL A   1      34.743  29.614  27.680  1.00  0.00     0.261 C 
BRANCH   5   6
ATOM      6  O   UNL A   1      34.099  29.284  26.437  1.00  0.00    -0.463 OA
BRANCH   6   7
ATOM      7  C   UNL A   1      32.854  28.748  26.464  1.00  0.00     0.313 C 
ATOM      8  O   UNL A   1      31.971  29.117  27.231  1.00  0.00    -0.252 OA
BRANCH   7   9
ATOM      9  C   UNL A   1      32.625  27.691  25.363  1.00  0.00     0.126 C 
ATOM     10  C   UNL A   1      31.196  27.659  24.796  1.00  0.00     0.025 C 
BRANCH   9  11
ATOM     11  C   UNL A   1      33.162  26.297  25.705  1.00  0.00    -0.034 A 
ATOM     12  C   UNL A   1      34.325  25.791  25.118  1.00  0.00     0.005 A 
ATOM     13  C   UNL A   1      32.473  25.446  26.581  1.00  0.00     0.005 A 
ATOM     14  C   UNL A   1      34.815  24.527  25.415  1.00  0.00     0.004 A 
ATOM     15  C   UNL A   1      32.874  24.111  26.749  1.00  0.00     0.004 A 
ATOM     16  C   UNL A   1      34.013  23.626  26.095  1.00  0.00    -0.048 A 
BRANCH  16  17
ATOM     17  C   UNL A   1      34.299  22.153  25.944  1.00  0.00     0.041 C 
BRANCH  17  18
ATOM     18  C   UNL A   1      33.203  21.334  25.211  1.00  0.00     0.022 C 
ATOM     19  C   UNL A   1      32.959  21.723  23.740  1.00  0.00     0.007 C 
ATOM     20  C   UNL A   1      33.262  19.789  25.197  1.00  0.00     0.117 C 
ATOM     21  C   UNL A   1      32.495  20.451  23.026  1.00  0.00     0.003 C 
ATOM     22  C   UNL A   1      32.246  19.421  24.122  1.00  0.00     0.032 C 
BRANCH  20  23
ATOM     23  O   UNL A   1      34.496  19.209  24.819  1.00  0.00    -0.393 OA
ATOM     24  H   UNL A   1      34.376  18.696  24.006  1.00  0.00     0.210 HD
ENDBRANCH  20  23
ENDBRANCH  17  18
ENDBRANCH  16  17
ENDBRANCH   9  11
ENDBRANCH   7   9
ENDBRANCH   6   7
ENDBRANCH   5   6
ENDBRANCH   4   5
ENDBRANCH   3   4
ENDBRANCH   2   3
ENDBRANCH   1   2
BRANCH   1  25
ATOM     25  O   UNL A   1      34.000  35.181  28.493  1.00  0.00    -0.377 OA
BRANCH  25  26
ATOM     26  C   UNL A   1      33.174  35.585  29.586  1.00  0.00     0.188 C 
BRANCH  26  27
ATOM     27  C   UNL A   1      33.342  34.996  31.011  1.00  0.00     0.188 C 
BRANCH  27  28
ATOM     28  O   UNL A   1      34.301  35.642  31.831  1.00  0.00    -0.376 OA
BRANCH  28  29
ATOM     29  C   UNL A   1      34.927  34.884  32.853  1.00  0.00     0.202 C 
BRANCH  29  30
ATOM     30  C   UNL A   1      34.611  33.383  32.911  1.00  0.00     0.261 C 
BRANCH  30  31
ATOM     31  O   UNL A   1      35.603  32.505  32.355  1.00  0.00    -0.460 OA
BRANCH  31  32
ATOM     32  C   UNL A   1      36.626  32.126  33.150  1.00  0.00     0.338 C 
ATOM     33  O   UNL A   1      36.664  32.149  34.370  1.00  0.00    -0.246 OA
BRANCH  32  34
ATOM     34  C   UNL A   1      37.640  31.476  32.294  1.00  0.00     0.060 A 
ATOM     35  C   UNL A   1      38.688  30.765  32.896  1.00  0.00     0.016 A 
ATOM     36  C   UNL A   1      37.542  31.551  30.903  1.00  0.00     0.016 A 
ATOM     37  C   UNL A   1      39.664  30.159  32.106  1.00  0.00     0.010 A 
ATOM     38  C   UNL A   1      38.537  30.968  30.115  1.00  0.00     0.010 A 
ATOM     39  C   UNL A   1      39.620  30.301  30.715  1.00  0.00    -0.014 A 
BRANCH  39  40
ATOM     40  C   UNL A   1      40.813  29.954  29.906  1.00  0.00     0.031 A 
ATOM     41  C   UNL A   1      40.889  28.572  29.316  1.00  0.00     0.074 A 
ATOM     42  C   UNL A   1      41.794  30.843  29.676  1.00  0.00     0.049 A 
ATOM     43  N   UNL A   1      41.848  28.010  28.630  1.00  0.00    -0.248 NA
ATOM     44  C   UNL A   1      39.718  27.704  29.538  1.00  0.00     0.031 C 
ATOM     45  C   UNL A   1      41.813  32.226  30.148  1.00  0.00     0.029 A 
ATOM     46  N   UNL A   1      42.974  30.704  28.989  1.00  0.00    -0.354 N 
ATOM     47  C   UNL A   1      41.403  26.725  28.345  1.00  0.00     0.074 A 
ATOM     48  C   UNL A   1      40.103  26.578  28.959  1.00  0.00     0.031 C 
ATOM     49  C   UNL A   1      42.959  32.805  29.750  1.00  0.00     0.029 A 
ATOM     50  C   UNL A   1      43.768  31.823  29.027  1.00  0.00     0.049 A 
ATOM     51  H   UNL A   1      43.227  29.880  28.514  1.00  0.00     0.167 HD
ATOM     52  C   UNL A   1      42.019  25.757  27.627  1.00  0.00     0.037 A 
ATOM     53  C   UNL A   1      45.015  32.019  28.557  1.00  0.00     0.037 A 
ATOM     54  C   UNL A   1      43.315  25.905  27.021  1.00  0.00     0.049 A 
ATOM     55  C   UNL A   1      45.718  30.896  27.836  1.00  0.00     0.074 A 
ATOM     56  C   UNL A   1      44.022  24.987  26.265  1.00  0.00     0.029 A 
ATOM     57  N   UNL A   1      44.102  27.043  27.110  1.00  0.00    -0.354 N 
ATOM     58  N   UNL A   1      45.284  29.691  27.553  1.00  0.00    -0.248 NA
ATOM     59  C   UNL A   1      47.086  31.162  27.366  1.00  0.00     0.031 C 
ATOM     60  C   UNL A   1      45.263  25.548  25.948  1.00  0.00     0.029 A 
ATOM     61  C   UNL A   1      45.302  26.840  26.447  1.00  0.00     0.049 A 
ATOM     62  H   UNL A   1      43.847  27.872  27.576  1.00  0.00     0.167 HD
ATOM     63  C   UNL A   1      46.307  29.071  26.845  1.00  0.00     0.074 A 
ATOM     64  C   UNL A   1      47.379  30.038  26.730  1.00  0.00     0.031 C 
ATOM     65  C   UNL A   1      46.355  27.816  26.332  1.00  0.00     0.037 A 
BRANCH  52  66
ATOM     66  C   UNL A   1      41.310  24.441  27.488  1.00  0.00     0.057 A 
ATOM     67  C   UNL A   1      41.678  23.315  28.237  1.00  0.00     0.134 A 
ATOM     68  C   UNL A   1      40.226  24.306  26.612  1.00  0.00     0.134 A 
ATOM     69  F   UNL A   1      42.719  23.369  29.082  1.00  0.00    -0.206 F 
ATOM     70  C   UNL A   1      41.008  22.097  28.102  1.00  0.00     0.040 A 
ATOM     71  C   UNL A   1      39.529  23.103  26.492  1.00  0.00     0.040 A 
ATOM     72  F   UNL A   1      39.819  25.345  25.866  1.00  0.00    -0.206 F 
ATOM     73  C   UNL A   1      39.924  21.993  27.233  1.00  0.00     0.006 A 
ENDBRANCH  52  66
BRANCH  53  74
ATOM     74  C   UNL A   1      45.700  33.322  28.769  1.00  0.00     0.057 A 
ATOM     75  C   UNL A   1      46.431  33.580  29.935  1.00  0.00     0.134 A 
ATOM     76  C   UNL A   1      45.606  34.356  27.829  1.00  0.00     0.134 A 
ATOM     77  F   UNL A   1      46.537  32.641  30.887  1.00  0.00    -0.206 F 
ATOM     78  C   UNL A   1      47.024  34.822  30.168  1.00  0.00     0.040 A 
ATOM     79  C   UNL A   1      46.219  35.592  28.034  1.00  0.00     0.040 A 
ATOM     80  F   UNL A   1      44.919  34.175  26.691  1.00  0.00    -0.206 F 
ATOM     81  C   UNL A   1      46.923  35.832  29.213  1.00  0.00     0.006 A 
ENDBRANCH  53  74
BRANCH  65  82
ATOM     82  C   UNL A   1      47.584  27.428  25.559  1.00  0.00     0.057 A 
ATOM     83  C   UNL A   1      47.687  27.621  24.175  1.00  0.00     0.134 A 
ATOM     84  C   UNL A   1      48.700  26.896  26.221  1.00  0.00     0.134 A 
ATOM     85  F   UNL A   1      46.654  28.118  23.479  1.00  0.00    -0.206 F 
ATOM     86  C   UNL A   1      48.844  27.274  23.475  1.00  0.00     0.040 A 
ATOM     87  C   UNL A   1      49.872  26.575  25.536  1.00  0.00     0.040 A 
ATOM     88  F   UNL A   1      48.675  26.697  27.547  1.00  0.00    -0.206 F 
ATOM     89  C   UNL A   1      49.944  26.756  24.157  1.00  0.00     0.006 A 
ENDBRANCH  65  82
ENDBRANCH  39  40
ENDBRANCH  32  34
ENDBRANCH  31  32
ENDBRANCH  30  31
ENDBRANCH  29  30
ENDBRANCH  28  29
ENDBRANCH  27  28
ENDBRANCH  26  27
ENDBRANCH  25  26
ENDBRANCH   1  25
TORSDOF 24
ENDMDL
MODEL 3
REMARK VINA RESULT:      -9.6      3.746      9.083
REMARK SMILES C[C@@H](C(=O)OCCOCCOCCOCCOC(=O)c1ccc(-c2c3nc(c(-c4c(F)cccc4F)c4ccc([nH]4)c(-c4c(F)cccc4F)c4nc(c(-c5c(F)cccc5F)c5ccc2[nH]5)C=C4)C=C3)cc1)c1ccc(C[C@H]2CCC[C@H]2O)cc1
REMARK SMILES IDX 10 1 9 2 8 3 7 4 6 5 5 6 3 7 4 8 2 9 1 10 74 11 75 12 86 13
REMARK SMILES IDX 76 14 85 15 77 16 78 17 79 18 80 19 83 20 81 21 82 22 84 23
REMARK SMILES IDX 11 25 12 26 13 27 14 28 15 29 16 30 17 31 18 32 19 33 20 34
REMARK SMILES IDX 21 35 73 36 22 37 72 38 23 39 24 40 25 41 66 42 26 43 71 44
REMARK SMILES IDX 65 45 67 46 27 47 70 48 64 49 63 50 28 52 54 53 37 54 53 55
REMARK SMILES IDX 38 56 41 57 52 58 68 59 39 60 40 61 51 63 69 64 42 65 29 66
REMARK SMILES IDX 30 67 35 68 31 69 32 70 34 71 36 72 33 73 55 74 56 75 61 76
REMARK SMILES IDX 57 77 58 78 60 79 62 80 59 81 43 82 44 83 49 84 45 85 46 86
REMARK SMILES IDX 48 87 50 88 47 89
REMARK H PARENT 84 24 67 51 41 62
REMARK Flexibility Score: inf
ROOT
ATOM      1  C   UNL A   1      33.295  36.758  31.385  1.00  0.00     0.188 C 
ENDROOT
BRANCH   1   2
ATOM      2  C   UNL A   1      33.983  35.701  32.259  1.00  0.00     0.188 C 
BRANCH   2   3
ATOM      3  O   UNL A   1      33.265  34.487  32.354  1.00  0.00    -0.376 OA
BRANCH   3   4
ATOM      4  C   UNL A   1      33.748  33.493  33.239  1.00  0.00     0.202 C 
BRANCH   4   5
ATOM      5  C   UNL A   1      35.237  33.081  33.281  1.00  0.00     0.261 C 
BRANCH   5   6
ATOM      6  O   UNL A   1      35.885  33.089  34.565  1.00  0.00    -0.463 OA
BRANCH   6   7
ATOM      7  C   UNL A   1      37.238  33.155  34.616  1.00  0.00     0.313 C 
ATOM      8  O   UNL A   1      37.854  33.905  35.367  1.00  0.00    -0.252 OA
BRANCH   7   9
ATOM      9  C   UNL A   1      37.931  32.120  33.706  1.00  0.00     0.126 C 
ATOM     10  C   UNL A   1      38.416  30.854  34.433  1.00  0.00     0.025 C 
BRANCH   9  11
ATOM     11  C   UNL A   1      38.990  32.711  32.769  1.00  0.00    -0.034 A 
ATOM     12  C   UNL A   1      40.352  32.451  32.940  1.00  0.00     0.005 A 
ATOM     13  C   UNL A   1      38.637  33.587  31.732  1.00  0.00     0.005 A 
ATOM     14  C   UNL A   1      41.319  32.988  32.101  1.00  0.00     0.004 A 
ATOM     15  C   UNL A   1      39.623  34.261  30.995  1.00  0.00     0.004 A 
ATOM     16  C   UNL A   1      40.980  34.016  31.239  1.00  0.00    -0.048 A 
BRANCH  16  17
ATOM     17  C   UNL A   1      42.073  34.936  30.751  1.00  0.00     0.041 C 
BRANCH  17  18
ATOM     18  C   UNL A   1      42.336  34.903  29.222  1.00  0.00     0.022 C 
ATOM     19  C   UNL A   1      41.416  35.800  28.372  1.00  0.00     0.007 C 
ATOM     20  C   UNL A   1      43.755  35.172  28.669  1.00  0.00     0.117 C 
ATOM     21  C   UNL A   1      42.231  36.223  27.147  1.00  0.00     0.003 C 
ATOM     22  C   UNL A   1      43.504  35.384  27.181  1.00  0.00     0.032 C 
BRANCH  20  23
ATOM     23  O   UNL A   1      44.409  36.330  29.150  1.00  0.00    -0.393 OA
ATOM     24  H   UNL A   1      45.316  36.354  28.809  1.00  0.00     0.210 HD
ENDBRANCH  20  23
ENDBRANCH  17  18
ENDBRANCH  16  17
ENDBRANCH   9  11
ENDBRANCH   7   9
ENDBRANCH   6   7
ENDBRANCH   5   6
ENDBRANCH   4   5
ENDBRANCH   3   4
ENDBRANCH   2   3
ENDBRANCH   1   2
BRANCH   1  25
ATOM     25  O   UNL A   1      32.386  36.272  30.411  1.00  0.00    -0.377 OA
BRANCH  25  26
ATOM     26  C   UNL A   1      32.890  35.924  29.121  1.00  0.00     0.188 C 
BRANCH  26  27
ATOM     27  C   UNL A   1      33.249  34.463  28.740  1.00  0.00     0.188 C 
BRANCH  27  28
ATOM     28  O   UNL A   1      34.536  34.275  28.179  1.00  0.00    -0.376 OA
BRANCH  28  29
ATOM     29  C   UNL A   1      35.654  34.272  29.052  1.00  0.00     0.202 C 
BRANCH  29  30
ATOM     30  C   UNL A   1      36.672  33.135  28.888  1.00  0.00     0.261 C 
BRANCH  30  31
ATOM     31  O   UNL A   1      36.143  31.800  28.927  1.00  0.00    -0.460 OA
BRANCH  31  32
ATOM     32  C   UNL A   1      36.494  31.014  29.966  1.00  0.00     0.338 C 
ATOM     33  O   UNL A   1      35.833  30.764  30.962  1.00  0.00    -0.246 OA
BRANCH  32  34
ATOM     34  C   UNL A   1      37.752  30.328  29.603  1.00  0.00     0.060 A 
ATOM     35  C   UNL A   1      38.700  30.067  30.602  1.00  0.00     0.016 A 
ATOM     36  C   UNL A   1      37.981  29.927  28.286  1.00  0.00     0.016 A 
ATOM     37  C   UNL A   1      39.900  29.436  30.278  1.00  0.00     0.010 A 
ATOM     38  C   UNL A   1      39.196  29.321  27.958  1.00  0.00     0.010 A 
ATOM     39  C   UNL A   1      40.175  29.107  28.946  1.00  0.00    -0.014 A 
BRANCH  39  40
ATOM     40  C   UNL A   1      41.558  28.751  28.550  1.00  0.00     0.031 A 
ATOM     41  C   UNL A   1      41.842  27.320  28.182  1.00  0.00     0.074 A 
ATOM     42  C   UNL A   1      42.535  29.672  28.491  1.00  0.00     0.049 A 
ATOM     43  N   UNL A   1      42.975  26.751  27.865  1.00  0.00    -0.248 NA
ATOM     44  C   UNL A   1      40.685  26.408  28.177  1.00  0.00     0.031 C 
ATOM     45  C   UNL A   1      42.375  31.097  28.773  1.00  0.00     0.029 A 
ATOM     46  N   UNL A   1      43.866  29.535  28.182  1.00  0.00    -0.354 N 
ATOM     47  C   UNL A   1      42.670  25.415  27.630  1.00  0.00     0.074 A 
ATOM     48  C   UNL A   1      41.254  25.252  27.873  1.00  0.00     0.031 C 
ATOM     49  C   UNL A   1      43.569  31.702  28.640  1.00  0.00     0.029 A 
ATOM     50  C   UNL A   1      44.580  30.702  28.299  1.00  0.00     0.049 A 
ATOM     51  H   UNL A   1      44.269  28.683  27.903  1.00  0.00     0.167 HD
ATOM     52  C   UNL A   1      43.495  24.416  27.239  1.00  0.00     0.037 A 
ATOM     53  C   UNL A   1      45.902  30.927  28.174  1.00  0.00     0.037 A 
ATOM     54  C   UNL A   1      44.904  24.581  27.003  1.00  0.00     0.049 A 
ATOM     55  C   UNL A   1      46.817  29.779  27.822  1.00  0.00     0.074 A 
ATOM     56  C   UNL A   1      45.826  23.633  26.594  1.00  0.00     0.029 A 
ATOM     57  N   UNL A   1      45.596  25.771  27.164  1.00  0.00    -0.354 N 
ATOM     58  N   UNL A   1      46.519  28.525  27.583  1.00  0.00    -0.248 NA
ATOM     59  C   UNL A   1      48.252  30.082  27.721  1.00  0.00     0.031 C 
ATOM     60  C   UNL A   1      47.086  24.236  26.567  1.00  0.00     0.029 A 
ATOM     61  C   UNL A   1      46.941  25.576  26.891  1.00  0.00     0.049 A 
ATOM     62  H   UNL A   1      45.193  26.628  27.433  1.00  0.00     0.167 HD
ATOM     63  C   UNL A   1      47.720  27.898  27.270  1.00  0.00     0.074 A 
ATOM     64  C   UNL A   1      48.749  28.915  27.337  1.00  0.00     0.031 C 
ATOM     65  C   UNL A   1      47.952  26.600  26.952  1.00  0.00     0.037 A 
BRANCH  52  66
ATOM     66  C   UNL A   1      42.897  23.049  27.075  1.00  0.00     0.057 A 
ATOM     67  C   UNL A   1      42.653  22.207  28.168  1.00  0.00     0.134 A 
ATOM     68  C   UNL A   1      42.535  22.579  25.806  1.00  0.00     0.134 A 
ATOM     69  F   UNL A   1      42.992  22.588  29.410  1.00  0.00    -0.206 F 
ATOM     70  C   UNL A   1      42.092  20.939  28.003  1.00  0.00     0.040 A 
ATOM     71  C   UNL A   1      41.945  21.326  25.632  1.00  0.00     0.040 A 
ATOM     72  F   UNL A   1      42.739  23.334  24.716  1.00  0.00    -0.206 F 
ATOM     73  C   UNL A   1      41.729  20.500  26.731  1.00  0.00     0.006 A 
ENDBRANCH  52  66
BRANCH  53  74
ATOM     74  C   UNL A   1      46.456  32.287  28.402  1.00  0.00     0.057 A 
ATOM     75  C   UNL A   1      46.581  33.209  27.356  1.00  0.00     0.134 A 
ATOM     76  C   UNL A   1      46.913  32.685  29.666  1.00  0.00     0.134 A 
ATOM     77  F   UNL A   1      46.187  32.881  26.116  1.00  0.00    -0.206 F 
ATOM     78  C   UNL A   1      47.157  34.466  27.551  1.00  0.00     0.040 A 
ATOM     79  C   UNL A   1      47.463  33.949  29.882  1.00  0.00     0.040 A 
ATOM     80  F   UNL A   1      46.825  31.850  30.711  1.00  0.00    -0.206 F 
ATOM     81  C   UNL A   1      47.596  34.840  28.819  1.00  0.00     0.006 A 
ENDBRANCH  53  74
BRANCH  65  82
ATOM     82  C   UNL A   1      49.361  26.211  26.605  1.00  0.00     0.057 A 
ATOM     83  C   UNL A   1      50.229  25.637  27.542  1.00  0.00     0.134 A 
ATOM     84  C   UNL A   1      49.840  26.373  25.297  1.00  0.00     0.134 A 
ATOM     85  F   UNL A   1      49.838  25.461  28.813  1.00  0.00    -0.206 F 
ATOM     86  C   UNL A   1      51.530  25.262  27.198  1.00  0.00     0.040 A 
ATOM     87  C   UNL A   1      51.127  25.973  24.934  1.00  0.00     0.040 A 
ATOM     88  F   UNL A   1      49.059  26.904  24.346  1.00  0.00    -0.206 F 
ATOM     89  C   UNL A   1      51.979  25.423  25.888  1.00  0.00     0.006 A 
ENDBRANCH  65  82
ENDBRANCH  39  40
ENDBRANCH  32  34
ENDBRANCH  31  32
ENDBRANCH  30  31
ENDBRANCH  29  30
ENDBRANCH  28  29
ENDBRANCH  27  28
ENDBRANCH  26  27
ENDBRANCH  25  26
ENDBRANCH   1  25
TORSDOF 24
ENDMDL
