MODEL 1
REMARK VINA RESULT:      -9.7      0.000      0.000
REMARK SMILES CC[C@H](CNC(=O)[C@H]1CSc2ccccc21)C(=O)OCCOCCOCCOCCOC(=O)c1ccc(-c2c3nc(c(-c4c(F)cccc4F)c4ccc([nH]4)c(-c4c(F)cccc4F)c4nc(c(-c5c(F)cccc5F)c5ccc2[nH]5)C=C4)C=C3)cc1
REMARK SMILES IDX 24 1 23 2 22 3 21 4 20 5 19 6 17 7 18 8 3 9 2 10 1 11 4 12
REMARK SMILES IDX 5 13 6 14 7 16 8 17 9 18 16 19 10 20 11 21 15 22 12 23 14 24
REMARK SMILES IDX 13 25 25 26 26 27 27 28 28 29 29 30 30 31 31 32 32 33 33 34
REMARK SMILES IDX 34 35 35 36 87 37 36 38 86 39 37 40 38 41 39 42 80 43 40 44
REMARK SMILES IDX 85 45 79 46 81 47 41 48 84 49 78 50 77 51 42 53 68 54 51 55
REMARK SMILES IDX 67 56 52 57 55 58 66 59 82 60 53 61 54 62 65 64 83 65 56 66
REMARK SMILES IDX 43 67 44 68 49 69 45 70 46 71 48 72 50 73 47 74 69 75 70 76
REMARK SMILES IDX 75 77 71 78 72 79 74 80 76 81 73 82 57 83 58 84 63 85 59 86
REMARK SMILES IDX 60 87 62 88 64 89 61 90
REMARK H PARENT 5 15 81 52 55 63
REMARK Flexibility Score: inf
ROOT
ATOM      1  C   UNL A   1      34.328  18.593  24.352  1.00  0.00     0.188 C 
ENDROOT
BRANCH   1   2
ATOM      2  C   UNL A   1      33.227  18.813  25.385  1.00  0.00     0.188 C 
BRANCH   2   3
ATOM      3  O   UNL A   1      32.143  19.635  24.973  1.00  0.00    -0.376 OA
BRANCH   3   4
ATOM      4  C   UNL A   1      32.486  20.831  24.292  1.00  0.00     0.202 C 
BRANCH   4   5
ATOM      5  C   UNL A   1      31.509  21.965  24.615  1.00  0.00     0.261 C 
BRANCH   5   6
ATOM      6  O   UNL A   1      30.762  21.793  25.839  1.00  0.00    -0.463 OA
BRANCH   6   7
ATOM      7  C   UNL A   1      30.818  22.836  26.714  1.00  0.00     0.310 C 
ATOM      8  O   UNL A   1      29.892  23.198  27.434  1.00  0.00    -0.252 OA
BRANCH   7   9
ATOM      9  C   UNL A   1      32.089  23.669  26.585  1.00  0.00     0.118 C 
BRANCH   9  10
ATOM     10  C   UNL A   1      32.913  23.200  27.807  1.00  0.00     0.014 C 
ATOM     11  C   UNL A   1      33.798  21.988  27.630  1.00  0.00     0.005 C 
ENDBRANCH   9  10
BRANCH   9  12
ATOM     12  C   UNL A   1      31.901  25.199  26.380  1.00  0.00     0.131 C 
BRANCH  12  13
ATOM     13  N   UNL A   1      30.609  25.517  25.745  1.00  0.00    -0.355 N 
ATOM     14  C   UNL A   1      30.246  26.352  24.724  1.00  0.00     0.228 C 
ATOM     15  H   UNL A   1      29.850  25.025  26.135  1.00  0.00     0.163 HD
ATOM     16  O   UNL A   1      29.041  26.358  24.448  1.00  0.00    -0.274 OA
BRANCH  14  17
ATOM     17  C   UNL A   1      31.264  27.199  23.951  1.00  0.00     0.120 C 
ATOM     18  C   UNL A   1      30.639  27.606  22.581  1.00  0.00     0.093 C 
ATOM     19  C   UNL A   1      31.568  28.506  24.651  1.00  0.00    -0.021 A 
ATOM     20  S   UNL A   1      29.679  29.210  22.615  1.00  0.00    -0.125 SA
ATOM     21  C   UNL A   1      30.471  29.803  24.076  1.00  0.00     0.011 A 
ATOM     22  C   UNL A   1      32.605  28.787  26.106  1.00  0.00     0.006 A 
ATOM     23  C   UNL A   1      30.320  31.370  24.955  1.00  0.00     0.015 A 
ATOM     24  C   UNL A   1      32.543  30.406  26.980  1.00  0.00     0.000 A 
ATOM     25  C   UNL A   1      31.358  31.691  26.433  1.00  0.00     0.001 A 
ENDBRANCH  14  17
ENDBRANCH  12  13
ENDBRANCH   9  12
ENDBRANCH   7   9
ENDBRANCH   6   7
ENDBRANCH   5   6
ENDBRANCH   4   5
ENDBRANCH   3   4
ENDBRANCH   2   3
ENDBRANCH   1   2
BRANCH   1  26
ATOM     26  O   UNL A   1      35.629  19.067  24.674  1.00  0.00    -0.377 OA
BRANCH  26  27
ATOM     27  C   UNL A   1      35.768  20.444  25.021  1.00  0.00     0.188 C 
BRANCH  27  28
ATOM     28  C   UNL A   1      37.066  21.184  24.619  1.00  0.00     0.188 C 
BRANCH  28  29
ATOM     29  O   UNL A   1      38.222  21.077  25.450  1.00  0.00    -0.376 OA
BRANCH  29  30
ATOM     30  C   UNL A   1      38.761  22.229  26.122  1.00  0.00     0.202 C 
BRANCH  30  31
ATOM     31  C   UNL A   1      40.280  22.089  26.498  1.00  0.00     0.261 C 
BRANCH  31  32
ATOM     32  O   UNL A   1      41.083  23.562  26.150  1.00  0.00    -0.460 OA
BRANCH  32  33
ATOM     33  C   UNL A   1      41.451  25.378  26.172  1.00  0.00     0.338 C 
ATOM     34  O   UNL A   1      41.289  26.219  25.231  1.00  0.00    -0.246 OA
BRANCH  33  35
ATOM     35  C   UNL A   1      41.836  26.265  27.384  1.00  0.00     0.060 A 
ATOM     36  C   UNL A   1      42.341  27.536  27.120  1.00  0.00     0.016 A 
ATOM     37  C   UNL A   1      41.354  25.972  28.687  1.00  0.00     0.016 A 
ATOM     38  C   UNL A   1      42.378  28.487  28.139  1.00  0.00     0.010 A 
ATOM     39  C   UNL A   1      41.410  26.909  29.709  1.00  0.00     0.010 A 
ATOM     40  C   UNL A   1      41.880  28.187  29.421  1.00  0.00    -0.014 A 
BRANCH  40  41
ATOM     41  C   UNL A   1      41.666  29.279  30.389  1.00  0.00     0.031 A 
ATOM     42  C   UNL A   1      40.478  30.173  30.293  1.00  0.00     0.074 A 
ATOM     43  C   UNL A   1      42.575  29.427  31.373  1.00  0.00     0.049 A 
ATOM     44  N   UNL A   1      40.037  31.043  31.162  1.00  0.00    -0.248 NA
ATOM     45  C   UNL A   1      39.681  30.086  29.060  1.00  0.00     0.031 C 
ATOM     46  C   UNL A   1      43.811  28.649  31.500  1.00  0.00     0.029 A 
ATOM     47  N   UNL A   1      42.581  30.249  32.467  1.00  0.00    -0.354 N 
ATOM     48  C   UNL A   1      38.887  31.578  30.605  1.00  0.00     0.074 A 
ATOM     49  C   UNL A   1      38.737  30.989  29.291  1.00  0.00     0.031 C 
ATOM     50  C   UNL A   1      44.417  28.977  32.652  1.00  0.00     0.029 A 
ATOM     51  C   UNL A   1      43.624  29.997  33.327  1.00  0.00     0.049 A 
ATOM     52  H   UNL A   1      41.908  30.949  32.623  1.00  0.00     0.167 HD
ATOM     53  C   UNL A   1      38.021  32.459  31.161  1.00  0.00     0.037 A 
ATOM     54  C   UNL A   1      43.884  30.513  34.542  1.00  0.00     0.037 A 
ATOM     55  C   UNL A   1      38.212  33.065  32.453  1.00  0.00     0.049 A 
ATOM     56  C   UNL A   1      42.923  31.514  35.117  1.00  0.00     0.074 A 
ATOM     57  C   UNL A   1      37.405  33.975  33.112  1.00  0.00     0.029 A 
ATOM     58  N   UNL A   1      39.304  32.829  33.279  1.00  0.00    -0.354 N 
ATOM     59  N   UNL A   1      41.792  31.956  34.621  1.00  0.00    -0.248 NA
ATOM     60  C   UNL A   1      43.273  32.083  36.424  1.00  0.00     0.031 C 
ATOM     61  C   UNL A   1      38.026  34.317  34.319  1.00  0.00     0.029 A 
ATOM     62  C   UNL A   1      39.200  33.587  34.433  1.00  0.00     0.049 A 
ATOM     63  H   UNL A   1      40.044  32.213  33.073  1.00  0.00     0.167 HD
ATOM     64  C   UNL A   1      41.286  32.842  35.562  1.00  0.00     0.074 A 
ATOM     65  C   UNL A   1      42.222  32.853  36.668  1.00  0.00     0.031 C 
ATOM     66  C   UNL A   1      40.152  33.583  35.515  1.00  0.00     0.037 A 
BRANCH  53  67
ATOM     67  C   UNL A   1      36.795  32.798  30.366  1.00  0.00     0.057 A 
ATOM     68  C   UNL A   1      36.814  33.808  29.398  1.00  0.00     0.134 A 
ATOM     69  C   UNL A   1      35.585  32.116  30.566  1.00  0.00     0.134 A 
ATOM     70  F   UNL A   1      37.937  34.500  29.157  1.00  0.00    -0.206 F 
ATOM     71  C   UNL A   1      35.676  34.124  28.652  1.00  0.00     0.040 A 
ATOM     72  C   UNL A   1      34.449  32.408  29.811  1.00  0.00     0.040 A 
ATOM     73  F   UNL A   1      35.504  31.126  31.468  1.00  0.00    -0.206 F 
ATOM     74  C   UNL A   1      34.492  33.417  28.852  1.00  0.00     0.006 A 
ENDBRANCH  53  67
BRANCH  54  75
ATOM     75  C   UNL A   1      45.062  30.051  35.316  1.00  0.00     0.057 A 
ATOM     76  C   UNL A   1      44.983  28.962  36.191  1.00  0.00     0.134 A 
ATOM     77  C   UNL A   1      46.304  30.684  35.186  1.00  0.00     0.134 A 
ATOM     78  F   UNL A   1      43.820  28.316  36.366  1.00  0.00    -0.206 F 
ATOM     79  C   UNL A   1      46.095  28.521  36.911  1.00  0.00     0.040 A 
ATOM     80  C   UNL A   1      47.430  30.239  35.881  1.00  0.00     0.040 A 
ATOM     81  F   UNL A   1      46.447  31.724  34.350  1.00  0.00    -0.206 F 
ATOM     82  C   UNL A   1      47.324  29.155  36.750  1.00  0.00     0.006 A 
ENDBRANCH  54  75
BRANCH  66  83
ATOM     83  C   UNL A   1      39.867  34.449  36.706  1.00  0.00     0.057 A 
ATOM     84  C   UNL A   1      40.272  35.789  36.727  1.00  0.00     0.134 A 
ATOM     85  C   UNL A   1      39.204  33.953  37.836  1.00  0.00     0.134 A 
ATOM     86  F   UNL A   1      40.917  36.324  35.679  1.00  0.00    -0.206 F 
ATOM     87  C   UNL A   1      40.025  36.607  37.831  1.00  0.00     0.040 A 
ATOM     88  C   UNL A   1      38.929  34.767  38.934  1.00  0.00     0.040 A 
ATOM     89  F   UNL A   1      38.776  32.681  37.869  1.00  0.00    -0.206 F 
ATOM     90  C   UNL A   1      39.346  36.097  38.936  1.00  0.00     0.006 A 
ENDBRANCH  66  83
ENDBRANCH  40  41
ENDBRANCH  33  35
ENDBRANCH  32  33
ENDBRANCH  31  32
ENDBRANCH  30  31
ENDBRANCH  29  30
ENDBRANCH  28  29
ENDBRANCH  27  28
ENDBRANCH  26  27
ENDBRANCH   1  26
TORSDOF 24
ENDMDL
MODEL 2
REMARK VINA RESULT:      -9.1      6.514      8.960
REMARK SMILES CC[C@H](CNC(=O)[C@H]1CSc2ccccc21)C(=O)OCCOCCOCCOCCOC(=O)c1ccc(-c2c3nc(c(-c4c(F)cccc4F)c4ccc([nH]4)c(-c4c(F)cccc4F)c4nc(c(-c5c(F)cccc5F)c5ccc2[nH]5)C=C4)C=C3)cc1
REMARK SMILES IDX 24 1 23 2 22 3 21 4 20 5 19 6 17 7 18 8 3 9 2 10 1 11 4 12
REMARK SMILES IDX 5 13 6 14 7 16 8 17 9 18 16 19 10 20 11 21 15 22 12 23 14 24
REMARK SMILES IDX 13 25 25 26 26 27 27 28 28 29 29 30 30 31 31 32 32 33 33 34
REMARK SMILES IDX 34 35 35 36 87 37 36 38 86 39 37 40 38 41 39 42 80 43 40 44
REMARK SMILES IDX 85 45 79 46 81 47 41 48 84 49 78 50 77 51 42 53 68 54 51 55
REMARK SMILES IDX 67 56 52 57 55 58 66 59 82 60 53 61 54 62 65 64 83 65 56 66
REMARK SMILES IDX 43 67 44 68 49 69 45 70 46 71 48 72 50 73 47 74 69 75 70 76
REMARK SMILES IDX 75 77 71 78 72 79 74 80 76 81 73 82 57 83 58 84 63 85 59 86
REMARK SMILES IDX 60 87 62 88 64 89 61 90
REMARK H PARENT 5 15 81 52 55 63
REMARK Flexibility Score: inf
ROOT
ATOM      1  C   UNL A   1      34.350  17.292  24.059  1.00  0.00     0.188 C 
ENDROOT
BRANCH   1   2
ATOM      2  C   UNL A   1      33.160  17.306  25.013  1.00  0.00     0.188 C 
BRANCH   2   3
ATOM      3  O   UNL A   1      32.015  18.019  24.568  1.00  0.00    -0.376 OA
BRANCH   3   4
ATOM      4  C   UNL A   1      32.200  18.868  23.446  1.00  0.00     0.202 C 
BRANCH   4   5
ATOM      5  C   UNL A   1      32.300  20.339  23.860  1.00  0.00     0.261 C 
BRANCH   5   6
ATOM      6  O   UNL A   1      32.007  20.600  25.250  1.00  0.00    -0.463 OA
BRANCH   6   7
ATOM      7  C   UNL A   1      32.780  21.550  25.846  1.00  0.00     0.310 C 
ATOM      8  O   UNL A   1      33.383  21.401  26.904  1.00  0.00    -0.252 OA
BRANCH   7   9
ATOM      9  C   UNL A   1      32.678  22.919  25.181  1.00  0.00     0.118 C 
BRANCH   9  10
ATOM     10  C   UNL A   1      34.023  23.016  24.424  1.00  0.00     0.014 C 
ATOM     11  C   UNL A   1      35.033  24.025  24.918  1.00  0.00     0.005 C 
ENDBRANCH   9  10
BRANCH   9  12
ATOM     12  C   UNL A   1      32.273  24.109  26.097  1.00  0.00     0.131 C 
BRANCH  12  13
ATOM     13  N   UNL A   1      30.996  24.717  25.682  1.00  0.00    -0.355 N 
ATOM     14  C   UNL A   1      30.677  25.737  24.827  1.00  0.00     0.228 C 
ATOM     15  H   UNL A   1      30.209  24.303  26.106  1.00  0.00     0.163 HD
ATOM     16  O   UNL A   1      29.469  25.976  24.716  1.00  0.00    -0.274 OA
BRANCH  14  17
ATOM     17  C   UNL A   1      31.738  26.511  24.036  1.00  0.00     0.120 C 
ATOM     18  C   UNL A   1      31.037  27.269  22.868  1.00  0.00     0.093 C 
ATOM     19  C   UNL A   1      32.397  27.590  24.869  1.00  0.00    -0.021 A 
ATOM     20  S   UNL A   1      30.443  28.988  23.306  1.00  0.00    -0.125 SA
ATOM     21  C   UNL A   1      31.527  29.149  24.689  1.00  0.00     0.011 A 
ATOM     22  C   UNL A   1      33.652  27.406  26.158  1.00  0.00     0.006 A 
ATOM     23  C   UNL A   1      31.822  30.529  25.811  1.00  0.00     0.015 A 
ATOM     24  C   UNL A   1      34.043  28.821  27.268  1.00  0.00     0.000 A 
ATOM     25  C   UNL A   1      33.090  30.379  27.128  1.00  0.00     0.001 A 
ENDBRANCH  14  17
ENDBRANCH  12  13
ENDBRANCH   9  12
ENDBRANCH   7   9
ENDBRANCH   6   7
ENDBRANCH   5   6
ENDBRANCH   4   5
ENDBRANCH   3   4
ENDBRANCH   2   3
ENDBRANCH   1   2
BRANCH   1  26
ATOM     26  O   UNL A   1      35.565  17.868  24.522  1.00  0.00    -0.377 OA
BRANCH  26  27
ATOM     27  C   UNL A   1      35.523  19.213  25.001  1.00  0.00     0.188 C 
BRANCH  27  28
ATOM     28  C   UNL A   1      36.628  20.197  24.548  1.00  0.00     0.188 C 
BRANCH  28  29
ATOM     29  O   UNL A   1      37.832  20.300  25.310  1.00  0.00    -0.376 OA
BRANCH  29  30
ATOM     30  C   UNL A   1      38.397  21.583  25.630  1.00  0.00     0.202 C 
BRANCH  30  31
ATOM     31  C   UNL A   1      39.706  21.499  26.497  1.00  0.00     0.261 C 
BRANCH  31  32
ATOM     32  O   UNL A   1      40.524  23.002  26.425  1.00  0.00    -0.460 OA
BRANCH  32  33
ATOM     33  C   UNL A   1      41.160  24.653  26.976  1.00  0.00     0.338 C 
ATOM     34  O   UNL A   1      40.565  25.520  27.693  1.00  0.00    -0.246 OA
BRANCH  33  35
ATOM     35  C   UNL A   1      42.598  25.221  26.845  1.00  0.00     0.060 A 
ATOM     36  C   UNL A   1      43.053  25.538  25.566  1.00  0.00     0.016 A 
ATOM     37  C   UNL A   1      43.279  25.753  27.971  1.00  0.00     0.016 A 
ATOM     38  C   UNL A   1      44.172  26.355  25.419  1.00  0.00     0.010 A 
ATOM     39  C   UNL A   1      44.407  26.548  27.827  1.00  0.00     0.010 A 
ATOM     40  C   UNL A   1      44.827  26.890  26.544  1.00  0.00    -0.014 A 
BRANCH  40  41
ATOM     41  C   UNL A   1      45.818  27.967  26.363  1.00  0.00     0.031 A 
ATOM     42  C   UNL A   1      45.435  29.400  26.508  1.00  0.00     0.074 A 
ATOM     43  C   UNL A   1      47.085  27.607  26.079  1.00  0.00     0.049 A 
ATOM     44  N   UNL A   1      46.210  30.449  26.577  1.00  0.00    -0.248 NA
ATOM     45  C   UNL A   1      43.997  29.696  26.579  1.00  0.00     0.031 C 
ATOM     46  C   UNL A   1      47.536  26.232  25.840  1.00  0.00     0.029 A 
ATOM     47  N   UNL A   1      48.227  28.356  25.983  1.00  0.00    -0.354 N 
ATOM     48  C   UNL A   1      45.359  31.530  26.744  1.00  0.00     0.074 A 
ATOM     49  C   UNL A   1      44.005  31.018  26.693  1.00  0.00     0.031 C 
ATOM     50  C   UNL A   1      48.871  26.228  25.702  1.00  0.00     0.029 A 
ATOM     51  C   UNL A   1      49.360  27.596  25.822  1.00  0.00     0.049 A 
ATOM     52  H   UNL A   1      48.235  29.339  26.024  1.00  0.00     0.167 HD
ATOM     53  C   UNL A   1      45.687  32.827  26.954  1.00  0.00     0.037 A 
ATOM     54  C   UNL A   1      50.654  27.967  25.810  1.00  0.00     0.037 A 
ATOM     55  C   UNL A   1      47.040  33.322  26.958  1.00  0.00     0.049 A 
ATOM     56  C   UNL A   1      50.985  29.419  26.010  1.00  0.00     0.074 A 
ATOM     57  C   UNL A   1      47.490  34.616  27.152  1.00  0.00     0.029 A 
ATOM     58  N   UNL A   1      48.165  32.536  26.742  1.00  0.00    -0.354 N 
ATOM     59  N   UNL A   1      50.181  30.426  26.250  1.00  0.00    -0.248 NA
ATOM     60  C   UNL A   1      52.405  29.783  25.943  1.00  0.00     0.031 C 
ATOM     61  C   UNL A   1      48.884  34.619  27.018  1.00  0.00     0.029 A 
ATOM     62  C   UNL A   1      49.306  33.319  26.782  1.00  0.00     0.049 A 
ATOM     63  H   UNL A   1      48.152  31.564  26.584  1.00  0.00     0.167 HD
ATOM     64  C   UNL A   1      50.997  31.541  26.380  1.00  0.00     0.074 A 
ATOM     65  C   UNL A   1      52.361  31.078  26.217  1.00  0.00     0.031 C 
ATOM     66  C   UNL A   1      50.652  32.831  26.609  1.00  0.00     0.037 A 
BRANCH  53  67
ATOM     67  C   UNL A   1      44.557  33.782  27.201  1.00  0.00     0.057 A 
ATOM     68  C   UNL A   1      44.061  34.001  28.491  1.00  0.00     0.134 A 
ATOM     69  C   UNL A   1      43.957  34.489  26.149  1.00  0.00     0.134 A 
ATOM     70  F   UNL A   1      44.590  33.357  29.543  1.00  0.00    -0.206 F 
ATOM     71  C   UNL A   1      43.014  34.893  28.727  1.00  0.00     0.040 A 
ATOM     72  C   UNL A   1      42.925  35.400  26.376  1.00  0.00     0.040 A 
ATOM     73  F   UNL A   1      44.396  34.336  24.890  1.00  0.00    -0.206 F 
ATOM     74  C   UNL A   1      42.448  35.602  27.668  1.00  0.00     0.006 A 
ENDBRANCH  53  67
BRANCH  54  75
ATOM     75  C   UNL A   1      51.724  26.951  25.664  1.00  0.00     0.057 A 
ATOM     76  C   UNL A   1      52.258  26.285  26.773  1.00  0.00     0.134 A 
ATOM     77  C   UNL A   1      52.230  26.612  24.404  1.00  0.00     0.134 A 
ATOM     78  F   UNL A   1      51.822  26.569  28.009  1.00  0.00    -0.206 F 
ATOM     79  C   UNL A   1      53.259  25.321  26.635  1.00  0.00     0.040 A 
ATOM     80  C   UNL A   1      53.212  25.632  24.248  1.00  0.00     0.040 A 
ATOM     81  F   UNL A   1      51.747  27.204  23.301  1.00  0.00    -0.206 F 
ATOM     82  C   UNL A   1      53.732  24.986  25.368  1.00  0.00     0.006 A 
ENDBRANCH  54  75
BRANCH  66  83
ATOM     83  C   UNL A   1      51.776  33.819  26.710  1.00  0.00     0.057 A 
ATOM     84  C   UNL A   1      52.238  34.495  25.574  1.00  0.00     0.134 A 
ATOM     85  C   UNL A   1      52.411  34.090  27.930  1.00  0.00     0.134 A 
ATOM     86  F   UNL A   1      51.677  34.274  24.375  1.00  0.00    -0.206 F 
ATOM     87  C   UNL A   1      53.290  35.408  25.647  1.00  0.00     0.040 A 
ATOM     88  C   UNL A   1      53.446  35.020  28.020  1.00  0.00     0.040 A 
ATOM     89  F   UNL A   1      52.003  33.487  29.057  1.00  0.00    -0.206 F 
ATOM     90  C   UNL A   1      53.892  35.678  26.875  1.00  0.00     0.006 A 
ENDBRANCH  66  83
ENDBRANCH  40  41
ENDBRANCH  33  35
ENDBRANCH  32  33
ENDBRANCH  31  32
ENDBRANCH  30  31
ENDBRANCH  29  30
ENDBRANCH  28  29
ENDBRANCH  27  28
ENDBRANCH  26  27
ENDBRANCH   1  26
TORSDOF 24
ENDMDL
MODEL 3
REMARK VINA RESULT:      -9.0      5.376     10.634
REMARK SMILES CC[C@H](CNC(=O)[C@H]1CSc2ccccc21)C(=O)OCCOCCOCCOCCOC(=O)c1ccc(-c2c3nc(c(-c4c(F)cccc4F)c4ccc([nH]4)c(-c4c(F)cccc4F)c4nc(c(-c5c(F)cccc5F)c5ccc2[nH]5)C=C4)C=C3)cc1
REMARK SMILES IDX 24 1 23 2 22 3 21 4 20 5 19 6 17 7 18 8 3 9 2 10 1 11 4 12
REMARK SMILES IDX 5 13 6 14 7 16 8 17 9 18 16 19 10 20 11 21 15 22 12 23 14 24
REMARK SMILES IDX 13 25 25 26 26 27 27 28 28 29 29 30 30 31 31 32 32 33 33 34
REMARK SMILES IDX 34 35 35 36 87 37 36 38 86 39 37 40 38 41 39 42 80 43 40 44
REMARK SMILES IDX 85 45 79 46 81 47 41 48 84 49 78 50 77 51 42 53 68 54 51 55
REMARK SMILES IDX 67 56 52 57 55 58 66 59 82 60 53 61 54 62 65 64 83 65 56 66
REMARK SMILES IDX 43 67 44 68 49 69 45 70 46 71 48 72 50 73 47 74 69 75 70 76
REMARK SMILES IDX 75 77 71 78 72 79 74 80 76 81 73 82 57 83 58 84 63 85 59 86
REMARK SMILES IDX 60 87 62 88 64 89 61 90
REMARK H PARENT 5 15 81 52 55 63
REMARK Flexibility Score: inf
ROOT
ATOM      1  C   UNL A   1      35.624  31.461  28.195  1.00  0.00     0.188 C 
ENDROOT
BRANCH   1   2
ATOM      2  C   UNL A   1      35.101  30.327  27.319  1.00  0.00     0.188 C 
BRANCH   2   3
ATOM      3  O   UNL A   1      33.695  30.290  27.123  1.00  0.00    -0.376 OA
BRANCH   3   4
ATOM      4  C   UNL A   1      33.088  29.008  27.169  1.00  0.00     0.202 C 
BRANCH   4   5
ATOM      5  C   UNL A   1      33.146  28.306  25.810  1.00  0.00     0.261 C 
BRANCH   5   6
ATOM      6  O   UNL A   1      31.914  28.339  25.056  1.00  0.00    -0.463 OA
BRANCH   6   7
ATOM      7  C   UNL A   1      31.364  27.125  24.774  1.00  0.00     0.310 C 
ATOM      8  O   UNL A   1      31.060  26.282  25.613  1.00  0.00    -0.252 OA
BRANCH   7   9
ATOM      9  C   UNL A   1      31.334  26.803  23.284  1.00  0.00     0.118 C 
BRANCH   9  10
ATOM     10  C   UNL A   1      30.433  27.928  22.724  1.00  0.00     0.014 C 
ATOM     11  C   UNL A   1      28.977  27.924  23.126  1.00  0.00     0.005 C 
ENDBRANCH   9  10
BRANCH   9  12
ATOM     12  C   UNL A   1      30.991  25.337  22.896  1.00  0.00     0.131 C 
BRANCH  12  13
ATOM     13  N   UNL A   1      32.164  24.615  22.370  1.00  0.00    -0.355 N 
ATOM     14  C   UNL A   1      33.098  23.798  22.945  1.00  0.00     0.228 C 
ATOM     15  H   UNL A   1      32.302  24.746  21.404  1.00  0.00     0.163 HD
ATOM     16  O   UNL A   1      33.957  23.352  22.176  1.00  0.00    -0.274 OA
BRANCH  14  17
ATOM     17  C   UNL A   1      33.067  23.431  24.434  1.00  0.00     0.120 C 
ATOM     18  C   UNL A   1      32.188  22.157  24.618  1.00  0.00     0.093 C 
ATOM     19  C   UNL A   1      34.435  23.048  24.956  1.00  0.00    -0.021 A 
ATOM     20  S   UNL A   1      33.124  20.544  24.479  1.00  0.00    -0.125 SA
ATOM     21  C   UNL A   1      34.694  21.278  24.813  1.00  0.00     0.011 A 
ATOM     22  C   UNL A   1      35.827  24.128  25.364  1.00  0.00     0.006 A 
ATOM     23  C   UNL A   1      36.331  20.546  24.998  1.00  0.00     0.015 A 
ATOM     24  C   UNL A   1      37.497  23.408  25.647  1.00  0.00     0.000 A 
ATOM     25  C   UNL A   1      37.765  21.611  25.416  1.00  0.00     0.001 A 
ENDBRANCH  14  17
ENDBRANCH  12  13
ENDBRANCH   9  12
ENDBRANCH   7   9
ENDBRANCH   6   7
ENDBRANCH   5   6
ENDBRANCH   4   5
ENDBRANCH   3   4
ENDBRANCH   2   3
ENDBRANCH   1   2
BRANCH   1  26
ATOM     26  O   UNL A   1      35.363  32.790  27.766  1.00  0.00    -0.377 OA
BRANCH  26  27
ATOM     27  C   UNL A   1      35.464  33.834  28.735  1.00  0.00     0.188 C 
BRANCH  27  28
ATOM     28  C   UNL A   1      34.301  34.032  29.737  1.00  0.00     0.188 C 
BRANCH  28  29
ATOM     29  O   UNL A   1      34.028  33.018  30.706  1.00  0.00    -0.376 OA
BRANCH  29  30
ATOM     30  C   UNL A   1      34.405  33.191  32.083  1.00  0.00     0.202 C 
BRANCH  30  31
ATOM     31  C   UNL A   1      35.951  33.379  32.296  1.00  0.00     0.261 C 
BRANCH  31  32
ATOM     32  O   UNL A   1      36.782  32.072  31.564  1.00  0.00    -0.460 OA
BRANCH  32  33
ATOM     33  C   UNL A   1      37.890  30.595  31.413  1.00  0.00     0.338 C 
ATOM     34  O   UNL A   1      37.555  29.369  31.353  1.00  0.00    -0.246 OA
BRANCH  33  35
ATOM     35  C   UNL A   1      39.416  30.564  31.132  1.00  0.00     0.060 A 
ATOM     36  C   UNL A   1      40.230  29.919  32.061  1.00  0.00     0.016 A 
ATOM     37  C   UNL A   1      39.926  30.829  29.835  1.00  0.00     0.016 A 
ATOM     38  C   UNL A   1      41.529  29.561  31.704  1.00  0.00     0.010 A 
ATOM     39  C   UNL A   1      41.227  30.494  29.484  1.00  0.00     0.010 A 
ATOM     40  C   UNL A   1      42.016  29.814  30.408  1.00  0.00    -0.014 A 
BRANCH  40  41
ATOM     41  C   UNL A   1      43.272  29.181  29.968  1.00  0.00     0.031 A 
ATOM     42  C   UNL A   1      43.275  27.831  29.336  1.00  0.00     0.074 A 
ATOM     43  C   UNL A   1      44.415  29.873  30.142  1.00  0.00     0.049 A 
ATOM     44  N   UNL A   1      44.251  27.219  28.720  1.00  0.00    -0.248 NA
ATOM     45  C   UNL A   1      42.023  27.063  29.408  1.00  0.00     0.031 C 
ATOM     46  C   UNL A   1      44.518  31.168  30.823  1.00  0.00     0.029 A 
ATOM     47  N   UNL A   1      45.692  29.608  29.729  1.00  0.00    -0.354 N 
ATOM     48  C   UNL A   1      43.723  26.012  28.290  1.00  0.00     0.074 A 
ATOM     49  C   UNL A   1      42.361  25.945  28.779  1.00  0.00     0.031 C 
ATOM     50  C   UNL A   1      45.776  31.620  30.713  1.00  0.00     0.029 A 
ATOM     51  C   UNL A   1      46.565  30.641  29.975  1.00  0.00     0.049 A 
ATOM     52  H   UNL A   1      45.959  28.764  29.300  1.00  0.00     0.167 HD
ATOM     53  C   UNL A   1      44.318  25.064  27.529  1.00  0.00     0.037 A 
ATOM     54  C   UNL A   1      47.852  30.789  29.609  1.00  0.00     0.037 A 
ATOM     55  C   UNL A   1      45.688  25.131  27.089  1.00  0.00     0.049 A 
ATOM     56  C   UNL A   1      48.495  29.703  28.794  1.00  0.00     0.074 A 
ATOM     57  C   UNL A   1      46.398  24.225  26.320  1.00  0.00     0.029 A 
ATOM     58  N   UNL A   1      46.563  26.166  27.396  1.00  0.00    -0.354 N 
ATOM     59  N   UNL A   1      47.967  28.600  28.321  1.00  0.00    -0.248 NA
ATOM     60  C   UNL A   1      49.912  29.888  28.459  1.00  0.00     0.031 C 
ATOM     61  C   UNL A   1      47.711  24.694  26.193  1.00  0.00     0.029 A 
ATOM     62  C   UNL A   1      47.809  25.913  26.847  1.00  0.00     0.049 A 
ATOM     63  H   UNL A   1      46.330  26.962  27.927  1.00  0.00     0.167 HD
ATOM     64  C   UNL A   1      48.981  27.967  27.616  1.00  0.00     0.074 A 
ATOM     65  C   UNL A   1      50.147  28.823  27.705  1.00  0.00     0.031 C 
ATOM     66  C   UNL A   1      48.954  26.782  26.958  1.00  0.00     0.037 A 
BRANCH  53  67
ATOM     67  C   UNL A   1      43.476  23.889  27.126  1.00  0.00     0.057 A 
ATOM     68  C   UNL A   1      42.887  23.819  25.859  1.00  0.00     0.134 A 
ATOM     69  C   UNL A   1      43.249  22.821  28.006  1.00  0.00     0.134 A 
ATOM     70  F   UNL A   1      43.064  24.807  24.970  1.00  0.00    -0.206 F 
ATOM     71  C   UNL A   1      42.107  22.725  25.478  1.00  0.00     0.040 A 
ATOM     72  C   UNL A   1      42.491  21.712  27.628  1.00  0.00     0.040 A 
ATOM     73  F   UNL A   1      43.798  22.819  29.230  1.00  0.00    -0.206 F 
ATOM     74  C   UNL A   1      41.914  21.663  26.362  1.00  0.00     0.006 A 
ENDBRANCH  53  67
BRANCH  54  75
ATOM     75  C   UNL A   1      48.592  32.027  29.955  1.00  0.00     0.057 A 
ATOM     76  C   UNL A   1      48.608  33.134  29.099  1.00  0.00     0.134 A 
ATOM     77  C   UNL A   1      49.293  32.136  31.162  1.00  0.00     0.134 A 
ATOM     78  F   UNL A   1      47.962  33.092  27.924  1.00  0.00    -0.206 F 
ATOM     79  C   UNL A   1      49.295  34.304  29.429  1.00  0.00     0.040 A 
ATOM     80  C   UNL A   1      49.964  33.307  31.516  1.00  0.00     0.040 A 
ATOM     81  F   UNL A   1      49.301  31.115  32.031  1.00  0.00    -0.206 F 
ATOM     82  C   UNL A   1      49.969  34.395  30.645  1.00  0.00     0.006 A 
ENDBRANCH  54  75
BRANCH  66  83
ATOM     83  C   UNL A   1      50.222  26.364  26.276  1.00  0.00     0.057 A 
ATOM     84  C   UNL A   1      51.175  25.591  26.951  1.00  0.00     0.134 A 
ATOM     85  C   UNL A   1      50.507  26.738  24.956  1.00  0.00     0.134 A 
ATOM     86  F   UNL A   1      50.966  25.205  28.219  1.00  0.00    -0.206 F 
ATOM     87  C   UNL A   1      52.366  25.203  26.336  1.00  0.00     0.040 A 
ATOM     88  C   UNL A   1      51.681  26.334  24.322  1.00  0.00     0.040 A 
ATOM     89  F   UNL A   1      49.626  27.465  24.251  1.00  0.00    -0.206 F 
ATOM     90  C   UNL A   1      52.618  25.569  25.015  1.00  0.00     0.006 A 
ENDBRANCH  66  83
ENDBRANCH  40  41
ENDBRANCH  33  35
ENDBRANCH  32  33
ENDBRANCH  31  32
ENDBRANCH  30  31
ENDBRANCH  29  30
ENDBRANCH  28  29
ENDBRANCH  27  28
ENDBRANCH  26  27
ENDBRANCH   1  26
TORSDOF 24
ENDMDL
