MODEL 1
REMARK VINA RESULT:      -8.8      0.000      0.000
REMARK SMILES COc1ccc(-c2ccc(S(=O)(=O)NC(C)(C)C)cc2)c(C(=O)OCCOCCOCCOCCOC(=O)c2ccc(-c3c4nc(c(-c5c(F)cccc5F)c5ccc([nH]5)c(-c5c(F)cccc5F)c5nc(c(-c6c(F)cccc6F)c6ccc3[nH]6)C=C5)C=C4)cc2)c1
REMARK SMILES IDX 29 1 28 2 27 3 26 4 25 5 24 6 22 7 23 8 21 9 3 10 4 11 93 12
REMARK SMILES IDX 5 13 6 14 2 15 1 16 7 17 8 18 20 19 9 20 19 21 10 22 11 23
REMARK SMILES IDX 12 24 13 25 14 26 15 28 16 29 17 30 18 31 30 32 31 33 32 34
REMARK SMILES IDX 33 35 34 36 35 37 36 38 37 39 38 40 39 41 40 42 92 43 41 44
REMARK SMILES IDX 91 45 42 46 43 47 44 48 85 49 45 50 90 51 84 52 86 53 46 54
REMARK SMILES IDX 89 55 83 56 82 57 47 59 73 60 56 61 72 62 57 63 60 64 71 65
REMARK SMILES IDX 87 66 58 67 59 68 70 70 88 71 61 72 48 73 49 74 54 75 50 76
REMARK SMILES IDX 51 77 53 78 55 79 52 80 74 81 75 82 80 83 76 84 77 85 79 86
REMARK SMILES IDX 81 87 78 88 62 89 63 90 68 91 64 92 65 93 67 94 69 95 66 96
REMARK H PARENT 14 27 86 58 60 69
REMARK Flexibility Score: inf
ROOT
ATOM      1  C   UNL A   1      38.364  29.736  28.096  1.00  0.00     0.188 C 
ENDROOT
BRANCH   1   2
ATOM      2  C   UNL A   1      36.885  29.350  27.924  1.00  0.00     0.188 C 
BRANCH   2   3
ATOM      3  O   UNL A   1      35.973  30.295  28.472  1.00  0.00    -0.376 OA
BRANCH   3   4
ATOM      4  C   UNL A   1      34.859  30.566  27.623  1.00  0.00     0.202 C 
BRANCH   4   5
ATOM      5  C   UNL A   1      34.180  29.278  27.160  1.00  0.00     0.261 C 
BRANCH   5   6
ATOM      6  O   UNL A   1      33.145  29.478  26.180  1.00  0.00    -0.460 OA
BRANCH   6   7
ATOM      7  C   UNL A   1      31.945  28.877  26.379  1.00  0.00     0.338 C 
ATOM      8  O   UNL A   1      31.464  28.587  27.458  1.00  0.00    -0.246 OA
BRANCH   7   9
ATOM      9  C   UNL A   1      31.296  28.677  25.045  1.00  0.00     0.071 A 
ATOM     10  C   UNL A   1      29.971  29.654  23.247  1.00  0.00     0.119 A 
ATOM     11  C   UNL A   1      29.987  28.426  22.591  1.00  0.00     0.047 A 
ATOM     12  C   UNL A   1      30.643  29.784  24.460  1.00  0.00     0.062 A 
ATOM     13  C   UNL A   1      30.638  27.325  23.153  1.00  0.00     0.013 A 
ATOM     14  C   UNL A   1      31.283  27.418  24.399  1.00  0.00    -0.004 A 
BRANCH  10  15
ATOM     15  O   UNL A   1      29.257  30.632  22.613  1.00  0.00    -0.497 OA
ATOM     16  C   UNL A   1      28.280  31.325  23.381  1.00  0.00     0.278 C 
ENDBRANCH  10  15
BRANCH  14  17
ATOM     17  C   UNL A   1      31.713  26.164  25.037  1.00  0.00    -0.017 A 
ATOM     18  C   UNL A   1      30.869  25.344  25.795  1.00  0.00     0.010 A 
ATOM     19  C   UNL A   1      33.063  25.810  24.949  1.00  0.00     0.010 A 
ATOM     20  C   UNL A   1      31.381  24.209  26.447  1.00  0.00     0.022 A 
ATOM     21  C   UNL A   1      33.552  24.629  25.489  1.00  0.00     0.022 A 
ATOM     22  C   UNL A   1      32.730  23.861  26.294  1.00  0.00     0.082 A 
BRANCH  22  23
ATOM     23  S   UNL A   1      33.384  22.483  27.195  1.00  0.00     0.241 S 
ATOM     24  O   UNL A   1      34.823  22.577  27.152  1.00  0.00    -0.207 OA
ATOM     25  O   UNL A   1      32.664  22.451  28.452  1.00  0.00    -0.207 OA
BRANCH  23  26
ATOM     26  N   UNL A   1      32.877  21.095  26.385  1.00  0.00    -0.206 NA
ATOM     27  H   UNL A   1      31.859  21.124  26.434  1.00  0.00     0.141 HD
BRANCH  26  28
ATOM     28  C   UNL A   1      33.176  20.695  24.983  1.00  0.00     0.025 C 
ATOM     29  C   UNL A   1      32.309  21.422  23.955  1.00  0.00     0.028 C 
ATOM     30  C   UNL A   1      34.649  21.090  24.737  1.00  0.00     0.028 C 
ATOM     31  C   UNL A   1      33.060  19.183  24.779  1.00  0.00     0.028 C 
ENDBRANCH  26  28
ENDBRANCH  23  26
ENDBRANCH  22  23
ENDBRANCH  14  17
ENDBRANCH   7   9
ENDBRANCH   6   7
ENDBRANCH   5   6
ENDBRANCH   4   5
ENDBRANCH   3   4
ENDBRANCH   2   3
ENDBRANCH   1   2
BRANCH   1  32
ATOM     32  O   UNL A   1      39.344  28.718  28.203  1.00  0.00    -0.377 OA
BRANCH  32  33
ATOM     33  C   UNL A   1      40.642  28.969  27.695  1.00  0.00     0.188 C 
BRANCH  33  34
ATOM     34  C   UNL A   1      40.970  28.510  26.265  1.00  0.00     0.188 C 
BRANCH  34  35
ATOM     35  O   UNL A   1      42.340  28.168  26.061  1.00  0.00    -0.376 OA
BRANCH  35  36
ATOM     36  C   UNL A   1      42.652  26.782  26.169  1.00  0.00     0.202 C 
BRANCH  36  37
ATOM     37  C   UNL A   1      44.149  26.495  26.331  1.00  0.00     0.261 C 
BRANCH  37  38
ATOM     38  O   UNL A   1      44.676  26.762  27.640  1.00  0.00    -0.460 OA
BRANCH  38  39
ATOM     39  C   UNL A   1      45.205  27.983  27.870  1.00  0.00     0.338 C 
ATOM     40  O   UNL A   1      46.005  28.590  27.183  1.00  0.00    -0.246 OA
BRANCH  39  41
ATOM     41  C   UNL A   1      44.477  28.559  29.019  1.00  0.00     0.060 A 
ATOM     42  C   UNL A   1      44.625  29.924  29.297  1.00  0.00     0.016 A 
ATOM     43  C   UNL A   1      43.601  27.769  29.766  1.00  0.00     0.016 A 
ATOM     44  C   UNL A   1      43.898  30.502  30.337  1.00  0.00     0.010 A 
ATOM     45  C   UNL A   1      42.895  28.343  30.824  1.00  0.00     0.010 A 
ATOM     46  C   UNL A   1      43.054  29.706  31.124  1.00  0.00    -0.014 A 
BRANCH  46  47
ATOM     47  C   UNL A   1      42.480  30.244  32.378  1.00  0.00     0.031 A 
ATOM     48  C   UNL A   1      41.111  30.860  32.320  1.00  0.00     0.074 A 
ATOM     49  C   UNL A   1      43.166  30.213  33.534  1.00  0.00     0.049 A 
ATOM     50  N   UNL A   1      40.427  31.453  33.262  1.00  0.00    -0.248 NA
ATOM     51  C   UNL A   1      40.424  30.805  31.018  1.00  0.00     0.031 C 
ATOM     52  C   UNL A   1      44.493  29.631  33.720  1.00  0.00     0.029 A 
ATOM     53  N   UNL A   1      42.838  30.710  34.772  1.00  0.00    -0.354 N 
ATOM     54  C   UNL A   1      39.233  31.840  32.670  1.00  0.00     0.074 A 
ATOM     55  C   UNL A   1      39.290  31.435  31.283  1.00  0.00     0.031 C 
ATOM     56  C   UNL A   1      44.878  29.825  34.994  1.00  0.00     0.029 A 
ATOM     57  C   UNL A   1      43.836  30.566  35.703  1.00  0.00     0.049 A 
ATOM     58  H   UNL A   1      41.970  31.129  34.971  1.00  0.00     0.167 HD
ATOM     59  C   UNL A   1      38.179  32.472  33.234  1.00  0.00     0.037 A 
ATOM     60  C   UNL A   1      43.904  31.007  36.975  1.00  0.00     0.037 A 
ATOM     61  C   UNL A   1      38.122  32.885  34.609  1.00  0.00     0.049 A 
ATOM     62  C   UNL A   1      42.741  31.768  37.560  1.00  0.00     0.074 A 
ATOM     63  C   UNL A   1      37.083  33.502  35.281  1.00  0.00     0.029 A 
ATOM     64  N   UNL A   1      39.158  32.734  35.518  1.00  0.00    -0.354 N 
ATOM     65  N   UNL A   1      41.594  32.079  37.008  1.00  0.00    -0.248 NA
ATOM     66  C   UNL A   1      42.887  32.242  38.945  1.00  0.00     0.031 C 
ATOM     67  C   UNL A   1      37.505  33.765  36.588  1.00  0.00     0.029 A 
ATOM     68  C   UNL A   1      38.793  33.274  36.739  1.00  0.00     0.049 A 
ATOM     69  H   UNL A   1      40.024  32.307  35.324  1.00  0.00     0.167 HD
ATOM     70  C   UNL A   1      40.874  32.762  37.982  1.00  0.00     0.074 A 
ATOM     71  C   UNL A   1      41.709  32.809  39.164  1.00  0.00     0.031 C 
ATOM     72  C   UNL A   1      39.634  33.304  37.905  1.00  0.00     0.037 A 
BRANCH  59  73
ATOM     73  C   UNL A   1      37.007  32.775  32.355  1.00  0.00     0.057 A 
ATOM     74  C   UNL A   1      36.885  34.002  31.690  1.00  0.00     0.134 A 
ATOM     75  C   UNL A   1      36.011  31.816  32.139  1.00  0.00     0.134 A 
ATOM     76  F   UNL A   1      37.798  34.968  31.873  1.00  0.00    -0.206 F 
ATOM     77  C   UNL A   1      35.805  34.267  30.847  1.00  0.00     0.040 A 
ATOM     78  C   UNL A   1      34.936  32.062  31.283  1.00  0.00     0.040 A 
ATOM     79  F   UNL A   1      36.070  30.623  32.750  1.00  0.00    -0.206 F 
ATOM     80  C   UNL A   1      34.832  33.292  30.635  1.00  0.00     0.006 A 
ENDBRANCH  59  73
BRANCH  60  81
ATOM     81  C   UNL A   1      45.126  30.776  37.787  1.00  0.00     0.057 A 
ATOM     82  C   UNL A   1      46.098  31.772  37.937  1.00  0.00     0.134 A 
ATOM     83  C   UNL A   1      45.376  29.535  38.385  1.00  0.00     0.134 A 
ATOM     84  F   UNL A   1      45.928  32.972  37.363  1.00  0.00    -0.206 F 
ATOM     85  C   UNL A   1      47.285  31.536  38.633  1.00  0.00     0.040 A 
ATOM     86  C   UNL A   1      46.549  29.292  39.101  1.00  0.00     0.040 A 
ATOM     87  F   UNL A   1      44.486  28.538  38.274  1.00  0.00    -0.206 F 
ATOM     88  C   UNL A   1      47.512  30.293  39.219  1.00  0.00     0.006 A 
ENDBRANCH  60  81
BRANCH  72  89
ATOM     89  C   UNL A   1      39.096  33.971  39.135  1.00  0.00     0.057 A 
ATOM     90  C   UNL A   1      38.406  33.253  40.120  1.00  0.00     0.134 A 
ATOM     91  C   UNL A   1      39.316  35.336  39.361  1.00  0.00     0.134 A 
ATOM     92  F   UNL A   1      38.154  31.946  39.957  1.00  0.00    -0.206 F 
ATOM     93  C   UNL A   1      37.938  33.875  41.279  1.00  0.00     0.040 A 
ATOM     94  C   UNL A   1      38.873  35.962  40.528  1.00  0.00     0.040 A 
ATOM     95  F   UNL A   1      39.979  36.077  38.462  1.00  0.00    -0.206 F 
ATOM     96  C   UNL A   1      38.178  35.231  41.489  1.00  0.00     0.006 A 
ENDBRANCH  72  89
ENDBRANCH  46  47
ENDBRANCH  39  41
ENDBRANCH  38  39
ENDBRANCH  37  38
ENDBRANCH  36  37
ENDBRANCH  35  36
ENDBRANCH  34  35
ENDBRANCH  33  34
ENDBRANCH  32  33
ENDBRANCH   1  32
TORSDOF 25
ENDMDL
MODEL 2
REMARK VINA RESULT:      -8.4      6.503     13.981
REMARK SMILES COc1ccc(-c2ccc(S(=O)(=O)NC(C)(C)C)cc2)c(C(=O)OCCOCCOCCOCCOC(=O)c2ccc(-c3c4nc(c(-c5c(F)cccc5F)c5ccc([nH]5)c(-c5c(F)cccc5F)c5nc(c(-c6c(F)cccc6F)c6ccc3[nH]6)C=C5)C=C4)cc2)c1
REMARK SMILES IDX 29 1 28 2 27 3 26 4 25 5 24 6 22 7 23 8 21 9 3 10 4 11 93 12
REMARK SMILES IDX 5 13 6 14 2 15 1 16 7 17 8 18 20 19 9 20 19 21 10 22 11 23
REMARK SMILES IDX 12 24 13 25 14 26 15 28 16 29 17 30 18 31 30 32 31 33 32 34
REMARK SMILES IDX 33 35 34 36 35 37 36 38 37 39 38 40 39 41 40 42 92 43 41 44
REMARK SMILES IDX 91 45 42 46 43 47 44 48 85 49 45 50 90 51 84 52 86 53 46 54
REMARK SMILES IDX 89 55 83 56 82 57 47 59 73 60 56 61 72 62 57 63 60 64 71 65
REMARK SMILES IDX 87 66 58 67 59 68 70 70 88 71 61 72 48 73 49 74 54 75 50 76
REMARK SMILES IDX 51 77 53 78 55 79 52 80 74 81 75 82 80 83 76 84 77 85 79 86
REMARK SMILES IDX 81 87 78 88 62 89 63 90 68 91 64 92 65 93 67 94 69 95 66 96
REMARK H PARENT 14 27 86 58 60 69
REMARK Flexibility Score: inf
ROOT
ATOM      1  C   UNL A   1      41.112  29.564  34.520  1.00  0.00     0.188 C 
ENDROOT
BRANCH   1   2
ATOM      2  C   UNL A   1      41.566  28.901  35.831  1.00  0.00     0.188 C 
BRANCH   2   3
ATOM      3  O   UNL A   1      41.164  27.541  35.961  1.00  0.00    -0.376 OA
BRANCH   3   4
ATOM      4  C   UNL A   1      42.017  26.777  36.812  1.00  0.00     0.202 C 
BRANCH   4   5
ATOM      5  C   UNL A   1      42.151  25.336  36.325  1.00  0.00     0.261 C 
BRANCH   5   6
ATOM      6  O   UNL A   1      42.531  25.215  34.942  1.00  0.00    -0.460 OA
BRANCH   6   7
ATOM      7  C   UNL A   1      43.211  24.107  34.555  1.00  0.00     0.338 C 
ATOM      8  O   UNL A   1      42.790  22.966  34.586  1.00  0.00    -0.246 OA
BRANCH   7   9
ATOM      9  C   UNL A   1      44.549  24.536  34.041  1.00  0.00     0.071 A 
ATOM     10  C   UNL A   1      45.785  25.844  32.395  1.00  0.00     0.119 A 
ATOM     11  C   UNL A   1      46.976  25.369  32.938  1.00  0.00     0.047 A 
ATOM     12  C   UNL A   1      44.576  25.446  32.960  1.00  0.00     0.062 A 
ATOM     13  C   UNL A   1      46.965  24.477  34.013  1.00  0.00     0.013 A 
ATOM     14  C   UNL A   1      45.757  24.023  34.571  1.00  0.00    -0.004 A 
BRANCH  10  15
ATOM     15  O   UNL A   1      45.937  26.669  31.317  1.00  0.00    -0.497 OA
ATOM     16  C   UNL A   1      47.178  26.610  30.623  1.00  0.00     0.278 C 
ENDBRANCH  10  15
BRANCH  14  17
ATOM     17  C   UNL A   1      45.824  22.897  35.515  1.00  0.00    -0.017 A 
ATOM     18  C   UNL A   1      45.879  23.045  36.906  1.00  0.00     0.010 A 
ATOM     19  C   UNL A   1      45.920  21.604  34.991  1.00  0.00     0.010 A 
ATOM     20  C   UNL A   1      46.033  21.921  37.734  1.00  0.00     0.022 A 
ATOM     21  C   UNL A   1      45.953  20.479  35.804  1.00  0.00     0.022 A 
ATOM     22  C   UNL A   1      46.077  20.637  37.173  1.00  0.00     0.082 A 
BRANCH  22  23
ATOM     23  S   UNL A   1      46.366  19.236  38.219  1.00  0.00     0.241 S 
ATOM     24  O   UNL A   1      45.501  18.172  37.771  1.00  0.00    -0.207 OA
ATOM     25  O   UNL A   1      47.805  19.071  38.274  1.00  0.00    -0.207 OA
BRANCH  23  26
ATOM     26  N   UNL A   1      45.937  19.705  39.779  1.00  0.00    -0.206 NA
ATOM     27  H   UNL A   1      44.925  19.830  39.743  1.00  0.00     0.141 HD
BRANCH  26  28
ATOM     28  C   UNL A   1      46.183  18.974  41.052  1.00  0.00     0.025 C 
ATOM     29  C   UNL A   1      45.342  19.500  42.216  1.00  0.00     0.028 C 
ATOM     30  C   UNL A   1      45.773  17.509  40.784  1.00  0.00     0.028 C 
ATOM     31  C   UNL A   1      47.662  18.978  41.441  1.00  0.00     0.028 C 
ENDBRANCH  26  28
ENDBRANCH  23  26
ENDBRANCH  22  23
ENDBRANCH  14  17
ENDBRANCH   7   9
ENDBRANCH   6   7
ENDBRANCH   5   6
ENDBRANCH   4   5
ENDBRANCH   3   4
ENDBRANCH   2   3
ENDBRANCH   1   2
BRANCH   1  32
ATOM     32  O   UNL A   1      40.605  30.887  34.545  1.00  0.00    -0.377 OA
BRANCH  32  33
ATOM     33  C   UNL A   1      39.803  31.285  35.643  1.00  0.00     0.188 C 
BRANCH  33  34
ATOM     34  C   UNL A   1      38.322  30.872  35.656  1.00  0.00     0.188 C 
BRANCH  34  35
ATOM     35  O   UNL A   1      37.417  31.934  35.357  1.00  0.00    -0.376 OA
BRANCH  35  36
ATOM     36  C   UNL A   1      37.479  32.441  34.028  1.00  0.00     0.202 C 
BRANCH  36  37
ATOM     37  C   UNL A   1      36.372  31.909  33.110  1.00  0.00     0.261 C 
BRANCH  37  38
ATOM     38  O   UNL A   1      36.702  30.704  32.401  1.00  0.00    -0.460 OA
BRANCH  38  39
ATOM     39  C   UNL A   1      36.570  30.708  31.057  1.00  0.00     0.338 C 
ATOM     40  O   UNL A   1      35.661  31.177  30.399  1.00  0.00    -0.246 OA
BRANCH  39  41
ATOM     41  C   UNL A   1      37.844  30.214  30.497  1.00  0.00     0.060 A 
ATOM     42  C   UNL A   1      38.812  29.702  31.371  1.00  0.00     0.016 A 
ATOM     43  C   UNL A   1      38.047  30.192  29.116  1.00  0.00     0.016 A 
ATOM     44  C   UNL A   1      39.996  29.171  30.860  1.00  0.00     0.010 A 
ATOM     45  C   UNL A   1      39.243  29.685  28.607  1.00  0.00     0.010 A 
ATOM     46  C   UNL A   1      40.229  29.191  29.478  1.00  0.00    -0.014 A 
BRANCH  46  47
ATOM     47  C   UNL A   1      41.572  28.871  28.945  1.00  0.00     0.031 A 
ATOM     48  C   UNL A   1      41.841  27.459  28.506  1.00  0.00     0.074 A 
ATOM     49  C   UNL A   1      42.540  29.802  28.878  1.00  0.00     0.049 A 
ATOM     50  N   UNL A   1      42.949  26.923  28.069  1.00  0.00    -0.248 NA
ATOM     51  C   UNL A   1      40.703  26.526  28.577  1.00  0.00     0.031 C 
ATOM     52  C   UNL A   1      42.398  31.205  29.260  1.00  0.00     0.029 A 
ATOM     53  N   UNL A   1      43.850  29.691  28.481  1.00  0.00    -0.354 N 
ATOM     54  C   UNL A   1      42.645  25.593  27.813  1.00  0.00     0.074 A 
ATOM     55  C   UNL A   1      41.255  25.396  28.161  1.00  0.00     0.031 C 
ATOM     56  C   UNL A   1      43.584  31.821  29.101  1.00  0.00     0.029 A 
ATOM     57  C   UNL A   1      44.570  30.850  28.631  1.00  0.00     0.049 A 
ATOM     58  H   UNL A   1      44.235  28.858  28.123  1.00  0.00     0.167 HD
ATOM     59  C   UNL A   1      43.450  24.623  27.325  1.00  0.00     0.037 A 
ATOM     60  C   UNL A   1      45.882  31.086  28.434  1.00  0.00     0.037 A 
ATOM     61  C   UNL A   1      44.833  24.812  26.987  1.00  0.00     0.049 A 
ATOM     62  C   UNL A   1      46.774  29.969  27.953  1.00  0.00     0.074 A 
ATOM     63  C   UNL A   1      45.723  23.898  26.454  1.00  0.00     0.029 A 
ATOM     64  N   UNL A   1      45.531  25.997  27.166  1.00  0.00    -0.354 N 
ATOM     65  N   UNL A   1      46.463  28.730  27.660  1.00  0.00    -0.248 NA
ATOM     66  C   UNL A   1      48.200  30.285  27.779  1.00  0.00     0.031 C 
ATOM     67  C   UNL A   1      46.973  24.516  26.350  1.00  0.00     0.029 A 
ATOM     68  C   UNL A   1      46.850  25.827  26.780  1.00  0.00     0.049 A 
ATOM     69  H   UNL A   1      45.146  26.833  27.515  1.00  0.00     0.167 HD
ATOM     70  C   UNL A   1      47.646  28.127  27.246  1.00  0.00     0.074 A 
ATOM     71  C   UNL A   1      48.678  29.140  27.313  1.00  0.00     0.031 C 
ATOM     72  C   UNL A   1      47.860  26.849  26.848  1.00  0.00     0.037 A 
BRANCH  59  73
ATOM     73  C   UNL A   1      42.858  23.260  27.147  1.00  0.00     0.057 A 
ATOM     74  C   UNL A   1      42.510  22.770  25.883  1.00  0.00     0.134 A 
ATOM     75  C   UNL A   1      42.670  22.416  28.248  1.00  0.00     0.134 A 
ATOM     76  F   UNL A   1      42.648  23.539  24.793  1.00  0.00    -0.206 F 
ATOM     77  C   UNL A   1      41.986  21.486  25.720  1.00  0.00     0.040 A 
ATOM     78  C   UNL A   1      42.165  21.124  28.096  1.00  0.00     0.040 A 
ATOM     79  F   UNL A   1      42.980  22.830  29.486  1.00  0.00    -0.206 F 
ATOM     80  C   UNL A   1      41.821  20.657  26.828  1.00  0.00     0.006 A 
ENDBRANCH  59  73
BRANCH  60  81
ATOM     81  C   UNL A   1      46.457  32.426  28.719  1.00  0.00     0.057 A 
ATOM     82  C   UNL A   1      46.525  33.412  27.728  1.00  0.00     0.134 A 
ATOM     83  C   UNL A   1      47.002  32.731  29.972  1.00  0.00     0.134 A 
ATOM     84  F   UNL A   1      46.047  33.168  26.499  1.00  0.00    -0.206 F 
ATOM     85  C   UNL A   1      47.136  34.645  27.966  1.00  0.00     0.040 A 
ATOM     86  C   UNL A   1      47.595  33.967  30.230  1.00  0.00     0.040 A 
ATOM     87  F   UNL A   1      46.970  31.827  30.962  1.00  0.00    -0.206 F 
ATOM     88  C   UNL A   1      47.671  34.926  29.221  1.00  0.00     0.006 A 
ENDBRANCH  60  81
BRANCH  72  89
ATOM     89  C   UNL A   1      49.252  26.481  26.432  1.00  0.00     0.057 A 
ATOM     90  C   UNL A   1      50.135  25.834  27.307  1.00  0.00     0.134 A 
ATOM     91  C   UNL A   1      49.697  26.728  25.128  1.00  0.00     0.134 A 
ATOM     92  F   UNL A   1      49.772  25.579  28.572  1.00  0.00    -0.206 F 
ATOM     93  C   UNL A   1      51.418  25.462  26.902  1.00  0.00     0.040 A 
ATOM     94  C   UNL A   1      50.969  26.340  24.705  1.00  0.00     0.040 A 
ATOM     95  F   UNL A   1      48.896  27.335  24.239  1.00  0.00    -0.206 F 
ATOM     96  C   UNL A   1      51.835  25.708  25.595  1.00  0.00     0.006 A 
ENDBRANCH  72  89
ENDBRANCH  46  47
ENDBRANCH  39  41
ENDBRANCH  38  39
ENDBRANCH  37  38
ENDBRANCH  36  37
ENDBRANCH  35  36
ENDBRANCH  34  35
ENDBRANCH  33  34
ENDBRANCH  32  33
ENDBRANCH   1  32
TORSDOF 25
ENDMDL
MODEL 3
REMARK VINA RESULT:      -8.1      3.407      7.048
REMARK SMILES COc1ccc(-c2ccc(S(=O)(=O)NC(C)(C)C)cc2)c(C(=O)OCCOCCOCCOCCOC(=O)c2ccc(-c3c4nc(c(-c5c(F)cccc5F)c5ccc([nH]5)c(-c5c(F)cccc5F)c5nc(c(-c6c(F)cccc6F)c6ccc3[nH]6)C=C5)C=C4)cc2)c1
REMARK SMILES IDX 29 1 28 2 27 3 26 4 25 5 24 6 22 7 23 8 21 9 3 10 4 11 93 12
REMARK SMILES IDX 5 13 6 14 2 15 1 16 7 17 8 18 20 19 9 20 19 21 10 22 11 23
REMARK SMILES IDX 12 24 13 25 14 26 15 28 16 29 17 30 18 31 30 32 31 33 32 34
REMARK SMILES IDX 33 35 34 36 35 37 36 38 37 39 38 40 39 41 40 42 92 43 41 44
REMARK SMILES IDX 91 45 42 46 43 47 44 48 85 49 45 50 90 51 84 52 86 53 46 54
REMARK SMILES IDX 89 55 83 56 82 57 47 59 73 60 56 61 72 62 57 63 60 64 71 65
REMARK SMILES IDX 87 66 58 67 59 68 70 70 88 71 61 72 48 73 49 74 54 75 50 76
REMARK SMILES IDX 51 77 53 78 55 79 52 80 74 81 75 82 80 83 76 84 77 85 79 86
REMARK SMILES IDX 81 87 78 88 62 89 63 90 68 91 64 92 65 93 67 94 69 95 66 96
REMARK H PARENT 14 27 86 58 60 69
REMARK Flexibility Score: inf
ROOT
ATOM      1  C   UNL A   1      36.357  30.219  29.080  1.00  0.00     0.188 C 
ENDROOT
BRANCH   1   2
ATOM      2  C   UNL A   1      35.661  30.372  27.717  1.00  0.00     0.188 C 
BRANCH   2   3
ATOM      3  O   UNL A   1      34.616  31.338  27.706  1.00  0.00    -0.376 OA
BRANCH   3   4
ATOM      4  C   UNL A   1      33.370  30.820  27.242  1.00  0.00     0.202 C 
BRANCH   4   5
ATOM      5  C   UNL A   1      33.495  29.360  26.811  1.00  0.00     0.261 C 
BRANCH   5   6
ATOM      6  O   UNL A   1      32.365  28.867  26.069  1.00  0.00    -0.460 OA
BRANCH   6   7
ATOM      7  C   UNL A   1      32.511  28.657  24.737  1.00  0.00     0.338 C 
ATOM      8  O   UNL A   1      33.564  28.642  24.130  1.00  0.00    -0.246 OA
BRANCH   7   9
ATOM      9  C   UNL A   1      31.156  28.401  24.153  1.00  0.00     0.071 A 
ATOM     10  C   UNL A   1      29.145  29.352  23.155  1.00  0.00     0.119 A 
ATOM     11  C   UNL A   1      28.590  28.076  23.100  1.00  0.00     0.047 A 
ATOM     12  C   UNL A   1      30.433  29.509  23.660  1.00  0.00     0.062 A 
ATOM     13  C   UNL A   1      29.298  26.968  23.574  1.00  0.00     0.013 A 
ATOM     14  C   UNL A   1      30.581  27.108  24.132  1.00  0.00    -0.004 A 
BRANCH  10  15
ATOM     15  O   UNL A   1      28.328  30.350  22.704  1.00  0.00    -0.497 OA
ATOM     16  C   UNL A   1      28.083  30.408  21.304  1.00  0.00     0.278 C 
ENDBRANCH  10  15
BRANCH  14  17
ATOM     17  C   UNL A   1      31.144  25.948  24.841  1.00  0.00    -0.017 A 
ATOM     18  C   UNL A   1      30.625  25.434  26.035  1.00  0.00     0.010 A 
ATOM     19  C   UNL A   1      32.315  25.375  24.336  1.00  0.00     0.010 A 
ATOM     20  C   UNL A   1      31.277  24.378  26.695  1.00  0.00     0.022 A 
ATOM     21  C   UNL A   1      32.898  24.257  24.917  1.00  0.00     0.022 A 
ATOM     22  C   UNL A   1      32.421  23.798  26.132  1.00  0.00     0.082 A 
BRANCH  22  23
ATOM     23  S   UNL A   1      33.287  22.533  27.020  1.00  0.00     0.241 S 
ATOM     24  O   UNL A   1      34.695  22.702  26.757  1.00  0.00    -0.207 OA
ATOM     25  O   UNL A   1      32.759  22.562  28.369  1.00  0.00    -0.207 OA
BRANCH  23  26
ATOM     26  N   UNL A   1      32.760  21.060  26.394  1.00  0.00    -0.206 NA
ATOM     27  H   UNL A   1      31.744  21.146  26.352  1.00  0.00     0.141 HD
BRANCH  26  28
ATOM     28  C   UNL A   1      33.139  20.430  25.100  1.00  0.00     0.025 C 
ATOM     29  C   UNL A   1      34.609  20.644  24.739  1.00  0.00     0.028 C 
ATOM     30  C   UNL A   1      32.904  18.914  25.284  1.00  0.00     0.028 C 
ATOM     31  C   UNL A   1      32.250  20.901  23.948  1.00  0.00     0.028 C 
ENDBRANCH  26  28
ENDBRANCH  23  26
ENDBRANCH  22  23
ENDBRANCH  14  17
ENDBRANCH   7   9
ENDBRANCH   6   7
ENDBRANCH   5   6
ENDBRANCH   4   5
ENDBRANCH   3   4
ENDBRANCH   2   3
ENDBRANCH   1   2
BRANCH   1  32
ATOM     32  O   UNL A   1      37.756  29.994  29.129  1.00  0.00    -0.377 OA
BRANCH  32  33
ATOM     33  C   UNL A   1      38.290  28.888  28.423  1.00  0.00     0.188 C 
BRANCH  33  34
ATOM     34  C   UNL A   1      39.804  28.854  28.156  1.00  0.00     0.188 C 
BRANCH  34  35
ATOM     35  O   UNL A   1      40.159  28.340  26.872  1.00  0.00    -0.376 OA
BRANCH  35  36
ATOM     36  C   UNL A   1      41.277  28.964  26.247  1.00  0.00     0.202 C 
BRANCH  36  37
ATOM     37  C   UNL A   1      42.068  28.031  25.324  1.00  0.00     0.261 C 
BRANCH  37  38
ATOM     38  O   UNL A   1      43.243  27.451  25.913  1.00  0.00    -0.460 OA
BRANCH  38  39
ATOM     39  C   UNL A   1      43.092  26.318  26.633  1.00  0.00     0.338 C 
ATOM     40  O   UNL A   1      42.900  25.191  26.217  1.00  0.00    -0.246 OA
BRANCH  39  41
ATOM     41  C   UNL A   1      43.410  26.653  28.035  1.00  0.00     0.060 A 
ATOM     42  C   UNL A   1      44.694  27.123  28.343  1.00  0.00     0.016 A 
ATOM     43  C   UNL A   1      42.425  26.573  29.022  1.00  0.00     0.016 A 
ATOM     44  C   UNL A   1      44.997  27.507  29.649  1.00  0.00     0.010 A 
ATOM     45  C   UNL A   1      42.737  26.932  30.333  1.00  0.00     0.010 A 
ATOM     46  C   UNL A   1      44.029  27.382  30.655  1.00  0.00    -0.014 A 
BRANCH  46  47
ATOM     47  C   UNL A   1      44.408  27.539  32.077  1.00  0.00     0.031 A 
ATOM     48  C   UNL A   1      44.880  26.322  32.821  1.00  0.00     0.074 A 
ATOM     49  C   UNL A   1      44.310  28.725  32.702  1.00  0.00     0.049 A 
ATOM     50  N   UNL A   1      45.203  26.192  34.080  1.00  0.00    -0.248 NA
ATOM     51  C   UNL A   1      44.996  25.080  32.036  1.00  0.00     0.031 C 
ATOM     52  C   UNL A   1      43.880  29.978  32.086  1.00  0.00     0.029 A 
ATOM     53  N   UNL A   1      44.548  29.057  34.013  1.00  0.00    -0.354 N 
ATOM     54  C   UNL A   1      45.560  24.860  34.239  1.00  0.00     0.074 A 
ATOM     55  C   UNL A   1      45.396  24.216  32.955  1.00  0.00     0.031 C 
ATOM     56  C   UNL A   1      43.861  30.941  33.026  1.00  0.00     0.029 A 
ATOM     57  C   UNL A   1      44.254  30.365  34.311  1.00  0.00     0.049 A 
ATOM     58  H   UNL A   1      44.897  28.418  34.676  1.00  0.00     0.167 HD
ATOM     59  C   UNL A   1      45.993  24.231  35.355  1.00  0.00     0.037 A 
ATOM     60  C   UNL A   1      44.276  31.010  35.493  1.00  0.00     0.037 A 
ATOM     61  C   UNL A   1      46.149  24.866  36.634  1.00  0.00     0.049 A 
ATOM     62  C   UNL A   1      44.699  30.268  36.736  1.00  0.00     0.074 A 
ATOM     63  C   UNL A   1      46.614  24.320  37.817  1.00  0.00     0.029 A 
ATOM     64  N   UNL A   1      45.828  26.188  36.900  1.00  0.00    -0.354 N 
ATOM     65  N   UNL A   1      45.089  29.023  36.865  1.00  0.00    -0.248 NA
ATOM     66  C   UNL A   1      44.681  31.022  37.999  1.00  0.00     0.031 C 
ATOM     67  C   UNL A   1      46.533  25.300  38.810  1.00  0.00     0.029 A 
ATOM     68  C   UNL A   1      46.056  26.468  38.236  1.00  0.00     0.049 A 
ATOM     69  H   UNL A   1      45.488  26.832  36.237  1.00  0.00     0.167 HD
ATOM     70  C   UNL A   1      45.384  28.852  38.213  1.00  0.00     0.074 A 
ATOM     71  C   UNL A   1      45.141  30.124  38.859  1.00  0.00     0.031 C 
ATOM     72  C   UNL A   1      45.815  27.742  38.859  1.00  0.00     0.037 A 
BRANCH  59  73
ATOM     73  C   UNL A   1      46.309  22.773  35.245  1.00  0.00     0.057 A 
ATOM     74  C   UNL A   1      45.301  21.800  35.257  1.00  0.00     0.134 A 
ATOM     75  C   UNL A   1      47.631  22.340  35.085  1.00  0.00     0.134 A 
ATOM     76  F   UNL A   1      44.019  22.152  35.427  1.00  0.00    -0.206 F 
ATOM     77  C   UNL A   1      45.600  20.443  35.123  1.00  0.00     0.040 A 
ATOM     78  C   UNL A   1      47.940  20.988  34.931  1.00  0.00     0.040 A 
ATOM     79  F   UNL A   1      48.640  23.224  35.069  1.00  0.00    -0.206 F 
ATOM     80  C   UNL A   1      46.921  20.036  34.950  1.00  0.00     0.006 A 
ENDBRANCH  59  73
BRANCH  60  81
ATOM     81  C   UNL A   1      43.858  32.432  35.583  1.00  0.00     0.057 A 
ATOM     82  C   UNL A   1      42.515  32.785  35.756  1.00  0.00     0.134 A 
ATOM     83  C   UNL A   1      44.785  33.472  35.442  1.00  0.00     0.134 A 
ATOM     84  F   UNL A   1      41.576  31.833  35.867  1.00  0.00    -0.206 F 
ATOM     85  C   UNL A   1      42.104  34.119  35.761  1.00  0.00     0.040 A 
ATOM     86  C   UNL A   1      44.392  34.810  35.467  1.00  0.00     0.040 A 
ATOM     87  F   UNL A   1      46.087  33.200  35.269  1.00  0.00    -0.206 F 
ATOM     88  C   UNL A   1      43.045  35.137  35.618  1.00  0.00     0.006 A 
ENDBRANCH  60  81
BRANCH  72  89
ATOM     89  C   UNL A   1      46.075  27.857  40.331  1.00  0.00     0.057 A 
ATOM     90  C   UNL A   1      45.154  27.393  41.279  1.00  0.00     0.134 A 
ATOM     91  C   UNL A   1      47.279  28.392  40.804  1.00  0.00     0.134 A 
ATOM     92  F   UNL A   1      43.978  26.880  40.891  1.00  0.00    -0.206 F 
ATOM     93  C   UNL A   1      45.419  27.472  42.648  1.00  0.00     0.040 A 
ATOM     94  C   UNL A   1      47.564  28.455  42.169  1.00  0.00     0.040 A 
ATOM     95  F   UNL A   1      48.206  28.845  39.946  1.00  0.00    -0.206 F 
ATOM     96  C   UNL A   1      46.629  27.997  43.095  1.00  0.00     0.006 A 
ENDBRANCH  72  89
ENDBRANCH  46  47
ENDBRANCH  39  41
ENDBRANCH  38  39
ENDBRANCH  37  38
ENDBRANCH  36  37
ENDBRANCH  35  36
ENDBRANCH  34  35
ENDBRANCH  33  34
ENDBRANCH  32  33
ENDBRANCH   1  32
TORSDOF 25
ENDMDL
