MODEL 1
REMARK VINA RESULT:      -7.5      0.000      0.000
REMARK SMILES O=C(OCCOCCOCCOCCOC(=O)c1ccc(-c2c3nc(c(-c4c(F)cccc4F)c4ccc([nH]4)c(-c4c(F)cccc4F)c4nc(c(-c5c(F)cccc5F)c5ccc2[nH]5)C=C4)C=C3)cc1)c1ccc(/[NH+]=C2\S[C@@H](Cc3ccc(F)cc3)C(=O)N2Cc2ccccc2)cc1
REMARK SMILES IDX 8 1 7 2 6 3 5 4 4 5 3 6 2 7 1 8 72 9 73 10 99 11 74 12 98 13
REMARK SMILES IDX 75 14 76 15 77 16 78 18 90 19 79 20 88 21 89 22 91 23 92 24
REMARK SMILES IDX 93 25 97 26 94 27 96 28 95 29 80 30 81 31 82 32 87 33 83 34
REMARK SMILES IDX 86 35 84 36 85 37 9 38 10 39 11 40 12 41 13 42 14 43 15 44
REMARK SMILES IDX 16 45 17 46 18 47 19 48 71 49 20 50 70 51 21 52 22 53 23 54
REMARK SMILES IDX 64 55 24 56 69 57 63 58 65 59 25 60 68 61 62 62 61 63 26 65
REMARK SMILES IDX 52 66 35 67 51 68 36 69 39 70 50 71 66 72 37 73 38 74 49 76
REMARK SMILES IDX 67 77 40 78 27 79 28 80 33 81 29 82 30 83 32 84 34 85 31 86
REMARK SMILES IDX 53 87 54 88 59 89 55 90 56 91 58 92 60 93 57 94 41 95 42 96
REMARK SMILES IDX 47 97 43 98 44 99 46 100 48 101 45 102
REMARK H PARENT 76 17 65 64 39 75
REMARK Flexibility Score: inf
ROOT
ATOM      1  C   UNL A   1      44.178  23.383  27.825  1.00  0.00     0.188 C 
ENDROOT
BRANCH   1   2
ATOM      2  C   UNL A   1      42.842  23.513  28.562  1.00  0.00     0.188 C 
BRANCH   2   3
ATOM      3  O   UNL A   1      41.809  22.742  27.947  1.00  0.00    -0.376 OA
BRANCH   3   4
ATOM      4  C   UNL A   1      40.938  23.405  27.036  1.00  0.00     0.202 C 
BRANCH   4   5
ATOM      5  C   UNL A   1      40.207  24.637  27.562  1.00  0.00     0.261 C 
BRANCH   5   6
ATOM      6  O   UNL A   1      40.605  25.868  26.948  1.00  0.00    -0.460 OA
BRANCH   6   7
ATOM      7  C   UNL A   1      40.842  27.074  27.508  1.00  0.00     0.338 C 
ATOM      8  O   UNL A   1      41.929  27.608  27.283  1.00  0.00    -0.246 OA
BRANCH   7   9
ATOM      9  C   UNL A   1      39.890  27.824  28.381  1.00  0.00     0.060 A 
ATOM     10  C   UNL A   1      39.591  27.541  29.714  1.00  0.00     0.020 A 
ATOM     11  C   UNL A   1      39.351  28.999  27.829  1.00  0.00     0.020 A 
ATOM     12  C   UNL A   1      38.769  28.373  30.465  1.00  0.00     0.052 A 
ATOM     13  C   UNL A   1      38.502  29.826  28.567  1.00  0.00     0.052 A 
ATOM     14  C   UNL A   1      38.179  29.485  29.876  1.00  0.00     0.125 A 
BRANCH  14  15
ATOM     15  N   UNL A   1      37.170  30.141  30.581  1.00  0.00    -0.235 N 
ATOM     16  C   UNL A   1      37.522  31.183  31.259  1.00  0.00     0.320 C 
ATOM     17  H   UNL A   1      36.237  29.825  30.563  1.00  0.00     0.313 HD
ATOM     18  S   UNL A   1      39.159  31.756  31.514  1.00  0.00    -0.022 SA
ATOM     19  N   UNL A   1      36.629  32.016  31.864  1.00  0.00    -0.186 N 
ATOM     20  C   UNL A   1      38.646  32.688  32.968  1.00  0.00     0.178 C 
ATOM     21  C   UNL A   1      37.160  32.946  32.737  1.00  0.00     0.324 C 
ATOM     22  O   UNL A   1      36.506  33.800  33.322  1.00  0.00    -0.245 OA
BRANCH  19  23
ATOM     23  C   UNL A   1      35.202  31.956  31.583  1.00  0.00     0.283 C 
BRANCH  23  24
ATOM     24  C   UNL A   1      34.796  32.757  30.357  1.00  0.00    -0.006 A 
ATOM     25  C   UNL A   1      34.505  34.124  30.458  1.00  0.00     0.008 A 
ATOM     26  C   UNL A   1      34.665  32.144  29.100  1.00  0.00     0.008 A 
ATOM     27  C   UNL A   1      34.090  34.851  29.337  1.00  0.00     0.000 A 
ATOM     28  C   UNL A   1      34.277  32.873  27.975  1.00  0.00     0.000 A 
ATOM     29  C   UNL A   1      33.982  34.227  28.095  1.00  0.00     0.000 A 
ENDBRANCH  23  24
ENDBRANCH  19  23
BRANCH  20  30
ATOM     30  C   UNL A   1      39.522  33.924  33.136  1.00  0.00     0.063 C 
BRANCH  30  31
ATOM     31  C   UNL A   1      39.706  34.262  34.594  1.00  0.00    -0.046 A 
ATOM     32  C   UNL A   1      39.932  35.590  34.979  1.00  0.00     0.007 A 
ATOM     33  C   UNL A   1      39.572  33.268  35.579  1.00  0.00     0.007 A 
ATOM     34  C   UNL A   1      39.975  35.928  36.329  1.00  0.00     0.039 A 
ATOM     35  C   UNL A   1      39.606  33.612  36.928  1.00  0.00     0.039 A 
ATOM     36  C   UNL A   1      39.799  34.940  37.290  1.00  0.00     0.123 A 
ATOM     37  F   UNL A   1      39.804  35.274  38.586  1.00  0.00    -0.207 F 
ENDBRANCH  30  31
ENDBRANCH  20  30
ENDBRANCH  14  15
ENDBRANCH   7   9
ENDBRANCH   6   7
ENDBRANCH   5   6
ENDBRANCH   4   5
ENDBRANCH   3   4
ENDBRANCH   2   3
ENDBRANCH   1   2
BRANCH   1  38
ATOM     38  O   UNL A   1      45.335  23.782  28.556  1.00  0.00    -0.377 OA
BRANCH  38  39
ATOM     39  C   UNL A   1      45.347  25.121  29.036  1.00  0.00     0.188 C 
BRANCH  39  40
ATOM     40  C   UNL A   1      45.493  25.359  30.557  1.00  0.00     0.188 C 
BRANCH  40  41
ATOM     41  O   UNL A   1      44.353  24.988  31.314  1.00  0.00    -0.376 OA
BRANCH  41  42
ATOM     42  C   UNL A   1      44.586  24.560  32.650  1.00  0.00     0.202 C 
BRANCH  42  43
ATOM     43  C   UNL A   1      43.830  25.249  33.805  1.00  0.00     0.261 C 
BRANCH  43  44
ATOM     44  O   UNL A   1      43.608  26.664  33.680  1.00  0.00    -0.460 OA
BRANCH  44  45
ATOM     45  C   UNL A   1      42.639  27.227  34.432  1.00  0.00     0.338 C 
ATOM     46  O   UNL A   1      41.876  26.652  35.191  1.00  0.00    -0.246 OA
BRANCH  45  47
ATOM     47  C   UNL A   1      42.828  28.701  34.392  1.00  0.00     0.060 A 
ATOM     48  C   UNL A   1      41.683  29.504  34.282  1.00  0.00     0.016 A 
ATOM     49  C   UNL A   1      44.083  29.299  34.573  1.00  0.00     0.016 A 
ATOM     50  C   UNL A   1      41.793  30.895  34.315  1.00  0.00     0.010 A 
ATOM     51  C   UNL A   1      44.194  30.696  34.581  1.00  0.00     0.010 A 
ATOM     52  C   UNL A   1      43.053  31.501  34.413  1.00  0.00    -0.014 A 
BRANCH  52  53
ATOM     53  C   UNL A   1      43.165  32.946  34.084  1.00  0.00     0.031 A 
ATOM     54  C   UNL A   1      43.315  33.913  35.229  1.00  0.00     0.074 A 
ATOM     55  C   UNL A   1      43.240  33.390  32.816  1.00  0.00     0.049 A 
ATOM     56  N   UNL A   1      43.521  35.205  35.210  1.00  0.00    -0.248 NA
ATOM     57  C   UNL A   1      43.229  33.338  36.582  1.00  0.00     0.031 C 
ATOM     58  C   UNL A   1      43.140  32.559  31.618  1.00  0.00     0.029 A 
ATOM     59  N   UNL A   1      43.430  34.661  32.329  1.00  0.00    -0.354 N 
ATOM     60  C   UNL A   1      43.609  35.591  36.542  1.00  0.00     0.074 A 
ATOM     61  C   UNL A   1      43.383  34.409  37.344  1.00  0.00     0.031 C 
ATOM     62  C   UNL A   1      43.266  33.344  30.532  1.00  0.00     0.029 A 
ATOM     63  C   UNL A   1      43.438  34.733  30.957  1.00  0.00     0.049 A 
ATOM     64  H   UNL A   1      43.548  35.447  32.910  1.00  0.00     0.167 HD
ATOM     65  C   UNL A   1      43.877  36.814  37.056  1.00  0.00     0.037 A 
ATOM     66  C   UNL A   1      43.562  35.801  30.142  1.00  0.00     0.037 A 
ATOM     67  C   UNL A   1      44.081  37.996  36.265  1.00  0.00     0.049 A 
ATOM     68  C   UNL A   1      43.783  37.169  30.741  1.00  0.00     0.074 A 
ATOM     69  C   UNL A   1      44.343  39.286  36.693  1.00  0.00     0.029 A 
ATOM     70  N   UNL A   1      44.037  38.036  34.879  1.00  0.00    -0.354 N 
ATOM     71  N   UNL A   1      43.893  37.516  32.001  1.00  0.00    -0.248 NA
ATOM     72  C   UNL A   1      43.909  38.291  29.800  1.00  0.00     0.031 C 
ATOM     73  C   UNL A   1      44.407  40.115  35.568  1.00  0.00     0.029 A 
ATOM     74  C   UNL A   1      44.247  39.331  34.437  1.00  0.00     0.049 A 
ATOM     75  H   UNL A   1      43.879  37.258  34.297  1.00  0.00     0.167 HD
ATOM     76  C   UNL A   1      44.126  38.887  32.002  1.00  0.00     0.074 A 
ATOM     77  C   UNL A   1      44.170  39.302  30.616  1.00  0.00     0.031 C 
ATOM     78  C   UNL A   1      44.284  39.731  33.053  1.00  0.00     0.037 A 
BRANCH  65  79
ATOM     79  C   UNL A   1      43.946  36.929  38.551  1.00  0.00     0.057 A 
ATOM     80  C   UNL A   1      45.135  36.694  39.256  1.00  0.00     0.134 A 
ATOM     81  C   UNL A   1      42.819  37.301  39.293  1.00  0.00     0.134 A 
ATOM     82  F   UNL A   1      46.246  36.313  38.607  1.00  0.00    -0.206 F 
ATOM     83  C   UNL A   1      45.194  36.806  40.646  1.00  0.00     0.040 A 
ATOM     84  C   UNL A   1      42.873  37.444  40.681  1.00  0.00     0.040 A 
ATOM     85  F   UNL A   1      41.649  37.538  38.683  1.00  0.00    -0.206 F 
ATOM     86  C   UNL A   1      44.063  37.191  41.362  1.00  0.00     0.006 A 
ENDBRANCH  65  79
BRANCH  66  87
ATOM     87  C   UNL A   1      43.462  35.636  28.666  1.00  0.00     0.057 A 
ATOM     88  C   UNL A   1      42.239  35.747  27.993  1.00  0.00     0.134 A 
ATOM     89  C   UNL A   1      44.588  35.307  27.900  1.00  0.00     0.134 A 
ATOM     90  F   UNL A   1      41.118  36.031  28.672  1.00  0.00    -0.206 F 
ATOM     91  C   UNL A   1      42.134  35.512  26.620  1.00  0.00     0.040 A 
ATOM     92  C   UNL A   1      44.503  35.100  26.523  1.00  0.00     0.040 A 
ATOM     93  F   UNL A   1      45.789  35.181  28.482  1.00  0.00    -0.206 F 
ATOM     94  C   UNL A   1      43.270  35.191  25.880  1.00  0.00     0.006 A 
ENDBRANCH  66  87
BRANCH  78  95
ATOM     95  C   UNL A   1      44.550  41.177  32.740  1.00  0.00     0.057 A 
ATOM     96  C   UNL A   1      43.514  42.114  32.621  1.00  0.00     0.134 A 
ATOM     97  C   UNL A   1      45.860  41.641  32.565  1.00  0.00     0.134 A 
ATOM     98  F   UNL A   1      42.235  41.736  32.768  1.00  0.00    -0.206 F 
ATOM     99  C   UNL A   1      43.769  43.448  32.296  1.00  0.00     0.040 A 
ATOM    100  C   UNL A   1      46.130  42.979  32.273  1.00  0.00     0.040 A 
ATOM    101  F   UNL A   1      46.902  40.803  32.680  1.00  0.00    -0.206 F 
ATOM    102  C   UNL A   1      45.081  43.884  32.124  1.00  0.00     0.006 A 
ENDBRANCH  78  95
ENDBRANCH  52  53
ENDBRANCH  45  47
ENDBRANCH  44  45
ENDBRANCH  43  44
ENDBRANCH  42  43
ENDBRANCH  41  42
ENDBRANCH  40  41
ENDBRANCH  39  40
ENDBRANCH  38  39
ENDBRANCH   1  38
TORSDOF 25
ENDMDL
MODEL 2
REMARK VINA RESULT:      -6.9      5.674     10.909
REMARK SMILES O=C(OCCOCCOCCOCCOC(=O)c1ccc(-c2c3nc(c(-c4c(F)cccc4F)c4ccc([nH]4)c(-c4c(F)cccc4F)c4nc(c(-c5c(F)cccc5F)c5ccc2[nH]5)C=C4)C=C3)cc1)c1ccc(/[NH+]=C2\S[C@@H](Cc3ccc(F)cc3)C(=O)N2Cc2ccccc2)cc1
REMARK SMILES IDX 8 1 7 2 6 3 5 4 4 5 3 6 2 7 1 8 72 9 73 10 99 11 74 12 98 13
REMARK SMILES IDX 75 14 76 15 77 16 78 18 90 19 79 20 88 21 89 22 91 23 92 24
REMARK SMILES IDX 93 25 97 26 94 27 96 28 95 29 80 30 81 31 82 32 87 33 83 34
REMARK SMILES IDX 86 35 84 36 85 37 9 38 10 39 11 40 12 41 13 42 14 43 15 44
REMARK SMILES IDX 16 45 17 46 18 47 19 48 71 49 20 50 70 51 21 52 22 53 23 54
REMARK SMILES IDX 64 55 24 56 69 57 63 58 65 59 25 60 68 61 62 62 61 63 26 65
REMARK SMILES IDX 52 66 35 67 51 68 36 69 39 70 50 71 66 72 37 73 38 74 49 76
REMARK SMILES IDX 67 77 40 78 27 79 28 80 33 81 29 82 30 83 32 84 34 85 31 86
REMARK SMILES IDX 53 87 54 88 59 89 55 90 56 91 58 92 60 93 57 94 41 95 42 96
REMARK SMILES IDX 47 97 43 98 44 99 46 100 48 101 45 102
REMARK H PARENT 76 17 65 64 39 75
REMARK Flexibility Score: inf
ROOT
ATOM      1  C   UNL A   1      41.950  26.643  28.171  1.00  0.00     0.188 C 
ENDROOT
BRANCH   1   2
ATOM      2  C   UNL A   1      43.105  25.749  28.632  1.00  0.00     0.188 C 
BRANCH   2   3
ATOM      3  O   UNL A   1      43.767  25.116  27.536  1.00  0.00    -0.376 OA
BRANCH   3   4
ATOM      4  C   UNL A   1      43.359  23.796  27.187  1.00  0.00     0.202 C 
BRANCH   4   5
ATOM      5  C   UNL A   1      42.505  23.656  25.930  1.00  0.00     0.261 C 
BRANCH   5   6
ATOM      6  O   UNL A   1      41.247  23.005  26.140  1.00  0.00    -0.460 OA
BRANCH   6   7
ATOM      7  C   UNL A   1      40.905  21.710  25.961  1.00  0.00     0.338 C 
ATOM      8  O   UNL A   1      41.802  20.867  26.016  1.00  0.00    -0.246 OA
BRANCH   7   9
ATOM      9  C   UNL A   1      39.522  21.208  25.705  1.00  0.00     0.060 A 
ATOM     10  C   UNL A   1      39.146  19.879  25.510  1.00  0.00     0.020 A 
ATOM     11  C   UNL A   1      38.498  22.168  25.799  1.00  0.00     0.020 A 
ATOM     12  C   UNL A   1      37.810  19.515  25.387  1.00  0.00     0.052 A 
ATOM     13  C   UNL A   1      37.155  21.814  25.649  1.00  0.00     0.052 A 
ATOM     14  C   UNL A   1      36.818  20.488  25.400  1.00  0.00     0.125 A 
BRANCH  14  15
ATOM     15  N   UNL A   1      35.530  20.114  25.020  1.00  0.00    -0.235 N 
ATOM     16  C   UNL A   1      34.571  20.904  25.375  1.00  0.00     0.320 C 
ATOM     17  H   UNL A   1      35.360  19.290  24.508  1.00  0.00     0.313 HD
ATOM     18  S   UNL A   1      34.706  22.304  26.421  1.00  0.00    -0.022 SA
ATOM     19  N   UNL A   1      33.286  20.759  24.943  1.00  0.00    -0.186 N 
ATOM     20  C   UNL A   1      32.944  22.247  26.788  1.00  0.00     0.178 C 
ATOM     21  C   UNL A   1      32.338  21.532  25.584  1.00  0.00     0.324 C 
ATOM     22  O   UNL A   1      31.150  21.562  25.286  1.00  0.00    -0.245 OA
BRANCH  19  23
ATOM     23  C   UNL A   1      32.935  19.868  23.846  1.00  0.00     0.283 C 
BRANCH  23  24
ATOM     24  C   UNL A   1      33.089  18.397  24.191  1.00  0.00    -0.006 A 
ATOM     25  C   UNL A   1      33.800  17.533  23.347  1.00  0.00     0.008 A 
ATOM     26  C   UNL A   1      32.493  17.855  25.342  1.00  0.00     0.008 A 
ATOM     27  C   UNL A   1      33.905  16.170  23.645  1.00  0.00     0.000 A 
ATOM     28  C   UNL A   1      32.619  16.500  25.654  1.00  0.00     0.000 A 
ATOM     29  C   UNL A   1      33.320  15.655  24.800  1.00  0.00     0.000 A 
ENDBRANCH  23  24
ENDBRANCH  19  23
BRANCH  20  30
ATOM     30  C   UNL A   1      32.420  23.651  27.066  1.00  0.00     0.063 C 
BRANCH  30  31
ATOM     31  C   UNL A   1      32.706  24.575  25.909  1.00  0.00    -0.046 A 
ATOM     32  C   UNL A   1      33.691  25.563  26.032  1.00  0.00     0.007 A 
ATOM     33  C   UNL A   1      32.050  24.400  24.678  1.00  0.00     0.007 A 
ATOM     34  C   UNL A   1      34.049  26.334  24.929  1.00  0.00     0.039 A 
ATOM     35  C   UNL A   1      32.418  25.167  23.576  1.00  0.00     0.039 A 
ATOM     36  C   UNL A   1      33.420  26.120  23.709  1.00  0.00     0.123 A 
ATOM     37  F   UNL A   1      33.792  26.837  22.642  1.00  0.00    -0.207 F 
ENDBRANCH  30  31
ENDBRANCH  20  30
ENDBRANCH  14  15
ENDBRANCH   7   9
ENDBRANCH   6   7
ENDBRANCH   5   6
ENDBRANCH   4   5
ENDBRANCH   3   4
ENDBRANCH   2   3
ENDBRANCH   1   2
BRANCH   1  38
ATOM     38  O   UNL A   1      40.657  26.295  28.664  1.00  0.00    -0.377 OA
BRANCH  38  39
ATOM     39  C   UNL A   1      39.593  27.170  28.313  1.00  0.00     0.188 C 
BRANCH  39  40
ATOM     40  C   UNL A   1      39.150  28.243  29.336  1.00  0.00     0.188 C 
BRANCH  40  41
ATOM     41  O   UNL A   1      38.894  29.516  28.767  1.00  0.00    -0.376 OA
BRANCH  41  42
ATOM     42  C   UNL A   1      37.644  29.683  28.111  1.00  0.00     0.202 C 
BRANCH  42  43
ATOM     43  C   UNL A   1      36.701  30.817  28.563  1.00  0.00     0.261 C 
BRANCH  43  44
ATOM     44  O   UNL A   1      36.061  30.657  29.840  1.00  0.00    -0.460 OA
BRANCH  44  45
ATOM     45  C   UNL A   1      35.985  31.730  30.655  1.00  0.00     0.338 C 
ATOM     46  O   UNL A   1      35.082  32.549  30.702  1.00  0.00    -0.246 OA
BRANCH  45  47
ATOM     47  C   UNL A   1      37.055  31.602  31.680  1.00  0.00     0.060 A 
ATOM     48  C   UNL A   1      38.358  31.968  31.313  1.00  0.00     0.016 A 
ATOM     49  C   UNL A   1      36.780  31.243  33.006  1.00  0.00     0.016 A 
ATOM     50  C   UNL A   1      39.388  31.941  32.254  1.00  0.00     0.010 A 
ATOM     51  C   UNL A   1      37.821  31.192  33.944  1.00  0.00     0.010 A 
ATOM     52  C   UNL A   1      39.137  31.504  33.562  1.00  0.00    -0.014 A 
BRANCH  52  53
ATOM     53  C   UNL A   1      40.298  31.145  34.418  1.00  0.00     0.031 A 
ATOM     54  C   UNL A   1      40.779  32.173  35.409  1.00  0.00     0.074 A 
ATOM     55  C   UNL A   1      40.850  29.918  34.402  1.00  0.00     0.049 A 
ATOM     56  N   UNL A   1      41.706  32.078  36.327  1.00  0.00    -0.248 NA
ATOM     57  C   UNL A   1      40.112  33.485  35.361  1.00  0.00     0.031 C 
ATOM     58  C   UNL A   1      40.460  28.823  33.515  1.00  0.00     0.029 A 
ATOM     59  N   UNL A   1      41.857  29.386  35.172  1.00  0.00    -0.354 N 
ATOM     60  C   UNL A   1      41.718  33.307  36.976  1.00  0.00     0.074 A 
ATOM     61  C   UNL A   1      40.745  34.148  36.315  1.00  0.00     0.031 C 
ATOM     62  C   UNL A   1      41.225  27.749  33.789  1.00  0.00     0.029 A 
ATOM     63  C   UNL A   1      42.166  28.085  34.858  1.00  0.00     0.049 A 
ATOM     64  H   UNL A   1      42.314  29.892  35.882  1.00  0.00     0.167 HD
ATOM     65  C   UNL A   1      42.455  33.697  38.042  1.00  0.00     0.037 A 
ATOM     66  C   UNL A   1      43.108  27.266  35.370  1.00  0.00     0.037 A 
ATOM     67  C   UNL A   1      43.439  32.874  38.690  1.00  0.00     0.049 A 
ATOM     68  C   UNL A   1      43.972  27.751  36.508  1.00  0.00     0.074 A 
ATOM     69  C   UNL A   1      44.250  33.184  39.767  1.00  0.00     0.029 A 
ATOM     70  N   UNL A   1      43.755  31.577  38.312  1.00  0.00    -0.354 N 
ATOM     71  N   UNL A   1      43.954  28.904  37.131  1.00  0.00    -0.248 NA
ATOM     72  C   UNL A   1      44.979  26.811  37.021  1.00  0.00     0.031 C 
ATOM     73  C   UNL A   1      45.091  32.093  40.010  1.00  0.00     0.029 A 
ATOM     74  C   UNL A   1      44.762  31.080  39.123  1.00  0.00     0.049 A 
ATOM     75  H   UNL A   1      43.326  31.083  37.576  1.00  0.00     0.167 HD
ATOM     76  C   UNL A   1      44.927  28.819  38.122  1.00  0.00     0.074 A 
ATOM     77  C   UNL A   1      45.494  27.491  38.035  1.00  0.00     0.031 C 
ATOM     78  C   UNL A   1      45.320  29.756  39.022  1.00  0.00     0.037 A 
BRANCH  65  79
ATOM     79  C   UNL A   1      42.230  35.088  38.559  1.00  0.00     0.057 A 
ATOM     80  C   UNL A   1      41.282  35.361  39.555  1.00  0.00     0.134 A 
ATOM     81  C   UNL A   1      42.984  36.163  38.073  1.00  0.00     0.134 A 
ATOM     82  F   UNL A   1      40.512  34.379  40.048  1.00  0.00    -0.206 F 
ATOM     83  C   UNL A   1      41.080  36.656  40.035  1.00  0.00     0.040 A 
ATOM     84  C   UNL A   1      42.810  37.458  38.565  1.00  0.00     0.040 A 
ATOM     85  F   UNL A   1      43.906  35.973  37.118  1.00  0.00    -0.206 F 
ATOM     86  C   UNL A   1      41.852  37.708  39.546  1.00  0.00     0.006 A 
ENDBRANCH  65  79
BRANCH  66  87
ATOM     87  C   UNL A   1      43.306  25.903  34.804  1.00  0.00     0.057 A 
ATOM     88  C   UNL A   1      44.153  25.674  33.712  1.00  0.00     0.134 A 
ATOM     89  C   UNL A   1      42.605  24.803  35.314  1.00  0.00     0.134 A 
ATOM     90  F   UNL A   1      44.831  26.690  33.159  1.00  0.00    -0.206 F 
ATOM     91  C   UNL A   1      44.275  24.409  33.133  1.00  0.00     0.040 A 
ATOM     92  C   UNL A   1      42.742  23.527  34.764  1.00  0.00     0.040 A 
ATOM     93  F   UNL A   1      41.775  24.952  36.356  1.00  0.00    -0.206 F 
ATOM     94  C   UNL A   1      43.572  23.330  33.663  1.00  0.00     0.006 A 
ENDBRANCH  66  87
BRANCH  78  95
ATOM     95  C   UNL A   1      46.393  29.362  40.000  1.00  0.00     0.057 A 
ATOM     96  C   UNL A   1      46.095  28.747  41.222  1.00  0.00     0.134 A 
ATOM     97  C   UNL A   1      47.743  29.594  39.709  1.00  0.00     0.134 A 
ATOM     98  F   UNL A   1      44.821  28.502  41.568  1.00  0.00    -0.206 F 
ATOM     99  C   UNL A   1      47.096  28.416  42.137  1.00  0.00     0.040 A 
ATOM    100  C   UNL A   1      48.756  29.238  40.601  1.00  0.00     0.040 A 
ATOM    101  F   UNL A   1      48.103  30.166  38.549  1.00  0.00    -0.206 F 
ATOM    102  C   UNL A   1      48.432  28.659  41.826  1.00  0.00     0.006 A 
ENDBRANCH  78  95
ENDBRANCH  52  53
ENDBRANCH  45  47
ENDBRANCH  44  45
ENDBRANCH  43  44
ENDBRANCH  42  43
ENDBRANCH  41  42
ENDBRANCH  40  41
ENDBRANCH  39  40
ENDBRANCH  38  39
ENDBRANCH   1  38
TORSDOF 25
ENDMDL
MODEL 3
REMARK VINA RESULT:      -6.9      1.185      5.678
REMARK SMILES O=C(OCCOCCOCCOCCOC(=O)c1ccc(-c2c3nc(c(-c4c(F)cccc4F)c4ccc([nH]4)c(-c4c(F)cccc4F)c4nc(c(-c5c(F)cccc5F)c5ccc2[nH]5)C=C4)C=C3)cc1)c1ccc(/[NH+]=C2\S[C@@H](Cc3ccc(F)cc3)C(=O)N2Cc2ccccc2)cc1
REMARK SMILES IDX 8 1 7 2 6 3 5 4 4 5 3 6 2 7 1 8 72 9 73 10 99 11 74 12 98 13
REMARK SMILES IDX 75 14 76 15 77 16 78 18 90 19 79 20 88 21 89 22 91 23 92 24
REMARK SMILES IDX 93 25 97 26 94 27 96 28 95 29 80 30 81 31 82 32 87 33 83 34
REMARK SMILES IDX 86 35 84 36 85 37 9 38 10 39 11 40 12 41 13 42 14 43 15 44
REMARK SMILES IDX 16 45 17 46 18 47 19 48 71 49 20 50 70 51 21 52 22 53 23 54
REMARK SMILES IDX 64 55 24 56 69 57 63 58 65 59 25 60 68 61 62 62 61 63 26 65
REMARK SMILES IDX 52 66 35 67 51 68 36 69 39 70 50 71 66 72 37 73 38 74 49 76
REMARK SMILES IDX 67 77 40 78 27 79 28 80 33 81 29 82 30 83 32 84 34 85 31 86
REMARK SMILES IDX 53 87 54 88 59 89 55 90 56 91 58 92 60 93 57 94 41 95 42 96
REMARK SMILES IDX 47 97 43 98 44 99 46 100 48 101 45 102
REMARK H PARENT 76 17 65 64 39 75
REMARK Flexibility Score: inf
ROOT
ATOM      1  C   UNL A   1      41.980  23.000  28.589  1.00  0.00     0.188 C 
ENDROOT
BRANCH   1   2
ATOM      2  C   UNL A   1      41.446  24.413  28.343  1.00  0.00     0.188 C 
BRANCH   2   3
ATOM      3  O   UNL A   1      41.068  24.619  26.981  1.00  0.00    -0.376 OA
BRANCH   3   4
ATOM      4  C   UNL A   1      42.100  24.619  25.998  1.00  0.00     0.202 C 
BRANCH   4   5
ATOM      5  C   UNL A   1      42.705  25.974  25.643  1.00  0.00     0.261 C 
BRANCH   5   6
ATOM      6  O   UNL A   1      43.590  26.505  26.634  1.00  0.00    -0.460 OA
BRANCH   6   7
ATOM      7  C   UNL A   1      43.540  27.683  27.294  1.00  0.00     0.338 C 
ATOM      8  O   UNL A   1      44.494  28.452  27.168  1.00  0.00    -0.246 OA
BRANCH   7   9
ATOM      9  C   UNL A   1      42.416  28.138  28.166  1.00  0.00     0.060 A 
ATOM     10  C   UNL A   1      42.303  27.939  29.542  1.00  0.00     0.020 A 
ATOM     11  C   UNL A   1      41.454  28.954  27.545  1.00  0.00     0.020 A 
ATOM     12  C   UNL A   1      41.264  28.502  30.272  1.00  0.00     0.052 A 
ATOM     13  C   UNL A   1      40.390  29.501  28.267  1.00  0.00     0.052 A 
ATOM     14  C   UNL A   1      40.276  29.236  29.627  1.00  0.00     0.125 A 
BRANCH  14  15
ATOM     15  N   UNL A   1      39.127  29.562  30.347  1.00  0.00    -0.235 N 
ATOM     16  C   UNL A   1      39.149  30.681  30.994  1.00  0.00     0.320 C 
ATOM     17  H   UNL A   1      38.340  28.970  30.361  1.00  0.00     0.313 HD
ATOM     18  S   UNL A   1      40.528  31.744  31.192  1.00  0.00    -0.022 SA
ATOM     19  N   UNL A   1      38.052  31.208  31.608  1.00  0.00    -0.186 N 
ATOM     20  C   UNL A   1      39.779  32.508  32.641  1.00  0.00     0.178 C 
ATOM     21  C   UNL A   1      38.283  32.282  32.447  1.00  0.00     0.324 C 
ATOM     22  O   UNL A   1      37.405  32.904  33.033  1.00  0.00    -0.245 OA
BRANCH  19  23
ATOM     23  C   UNL A   1      36.710  30.698  31.367  1.00  0.00     0.283 C 
BRANCH  23  24
ATOM     24  C   UNL A   1      36.014  31.363  30.192  1.00  0.00    -0.006 A 
ATOM     25  C   UNL A   1      35.073  32.380  30.399  1.00  0.00     0.008 A 
ATOM     26  C   UNL A   1      36.266  30.952  28.873  1.00  0.00     0.008 A 
ATOM     27  C   UNL A   1      34.401  32.962  29.318  1.00  0.00     0.000 A 
ATOM     28  C   UNL A   1      35.616  31.550  27.792  1.00  0.00     0.000 A 
ATOM     29  C   UNL A   1      34.677  32.552  28.015  1.00  0.00     0.000 A 
ENDBRANCH  23  24
ENDBRANCH  19  23
BRANCH  20  30
ATOM     30  C   UNL A   1      40.226  33.960  32.760  1.00  0.00     0.063 C 
BRANCH  30  31
ATOM     31  C   UNL A   1      40.402  34.355  34.205  1.00  0.00    -0.046 A 
ATOM     32  C   UNL A   1      40.563  35.704  34.544  1.00  0.00     0.007 A 
ATOM     33  C   UNL A   1      40.323  33.389  35.223  1.00  0.00     0.007 A 
ATOM     34  C   UNL A   1      40.597  36.089  35.883  1.00  0.00     0.039 A 
ATOM     35  C   UNL A   1      40.348  33.779  36.559  1.00  0.00     0.039 A 
ATOM     36  C   UNL A   1      40.476  35.126  36.877  1.00  0.00     0.123 A 
ATOM     37  F   UNL A   1      40.472  35.503  38.161  1.00  0.00    -0.207 F 
ENDBRANCH  30  31
ENDBRANCH  20  30
ENDBRANCH  14  15
ENDBRANCH   7   9
ENDBRANCH   6   7
ENDBRANCH   5   6
ENDBRANCH   4   5
ENDBRANCH   3   4
ENDBRANCH   2   3
ENDBRANCH   1   2
BRANCH   1  38
ATOM     38  O   UNL A   1      43.272  22.917  29.189  1.00  0.00    -0.377 OA
BRANCH  38  39
ATOM     39  C   UNL A   1      44.165  23.989  28.914  1.00  0.00     0.188 C 
BRANCH  39  40
ATOM     40  C   UNL A   1      44.877  24.680  30.101  1.00  0.00     0.188 C 
BRANCH  40  41
ATOM     41  O   UNL A   1      44.038  24.927  31.216  1.00  0.00    -0.376 OA
BRANCH  41  42
ATOM     42  C   UNL A   1      44.568  24.608  32.497  1.00  0.00     0.202 C 
BRANCH  42  43
ATOM     43  C   UNL A   1      44.671  25.714  33.567  1.00  0.00     0.261 C 
BRANCH  43  44
ATOM     44  O   UNL A   1      44.397  27.058  33.138  1.00  0.00    -0.460 OA
BRANCH  44  45
ATOM     45  C   UNL A   1      43.264  27.648  33.572  1.00  0.00     0.338 C 
ATOM     46  O   UNL A   1      42.265  27.090  33.995  1.00  0.00    -0.246 OA
BRANCH  45  47
ATOM     47  C   UNL A   1      43.531  29.105  33.708  1.00  0.00     0.060 A 
ATOM     48  C   UNL A   1      42.452  29.940  34.033  1.00  0.00     0.016 A 
ATOM     49  C   UNL A   1      44.826  29.638  33.634  1.00  0.00     0.016 A 
ATOM     50  C   UNL A   1      42.656  31.304  34.247  1.00  0.00     0.010 A 
ATOM     51  C   UNL A   1      45.025  31.012  33.824  1.00  0.00     0.010 A 
ATOM     52  C   UNL A   1      43.935  31.858  34.094  1.00  0.00    -0.014 A 
BRANCH  52  53
ATOM     53  C   UNL A   1      44.050  33.334  33.970  1.00  0.00     0.031 A 
ATOM     54  C   UNL A   1      43.988  33.927  32.587  1.00  0.00     0.074 A 
ATOM     55  C   UNL A   1      44.102  34.143  35.045  1.00  0.00     0.049 A 
ATOM     56  N   UNL A   1      43.974  35.181  32.214  1.00  0.00    -0.248 NA
ATOM     57  C   UNL A   1      43.925  32.967  31.471  1.00  0.00     0.031 C 
ATOM     58  C   UNL A   1      44.137  33.702  36.438  1.00  0.00     0.029 A 
ATOM     59  N   UNL A   1      44.123  35.515  35.125  1.00  0.00    -0.354 N 
ATOM     60  C   UNL A   1      43.879  35.160  30.828  1.00  0.00     0.074 A 
ATOM     61  C   UNL A   1      43.892  33.772  30.421  1.00  0.00     0.031 C 
ATOM     62  C   UNL A   1      44.179  34.786  37.236  1.00  0.00     0.029 A 
ATOM     63  C   UNL A   1      44.191  35.994  36.410  1.00  0.00     0.049 A 
ATOM     64  H   UNL A   1      44.093  36.099  34.334  1.00  0.00     0.167 HD
ATOM     65  C   UNL A   1      43.768  36.199  29.969  1.00  0.00     0.037 A 
ATOM     66  C   UNL A   1      44.263  37.262  36.864  1.00  0.00     0.037 A 
ATOM     67  C   UNL A   1      43.776  37.581  30.365  1.00  0.00     0.049 A 
ATOM     68  C   UNL A   1      44.216  38.406  35.880  1.00  0.00     0.074 A 
ATOM     69  C   UNL A   1      43.685  38.708  29.568  1.00  0.00     0.029 A 
ATOM     70  N   UNL A   1      43.892  38.025  31.674  1.00  0.00    -0.354 N 
ATOM     71  N   UNL A   1      44.097  38.373  34.575  1.00  0.00    -0.248 NA
ATOM     72  C   UNL A   1      44.299  39.763  36.438  1.00  0.00     0.031 C 
ATOM     73  C   UNL A   1      43.796  39.835  30.389  1.00  0.00     0.029 A 
ATOM     74  C   UNL A   1      43.895  39.410  31.704  1.00  0.00     0.049 A 
ATOM     75  H   UNL A   1      43.963  37.442  32.464  1.00  0.00     0.167 HD
ATOM     76  C   UNL A   1      44.066  39.700  34.159  1.00  0.00     0.074 A 
ATOM     77  C   UNL A   1      44.150  40.512  35.355  1.00  0.00     0.031 C 
ATOM     78  C   UNL A   1      43.982  40.205  32.903  1.00  0.00     0.037 A 
BRANCH  65  79
ATOM     79  C   UNL A   1      43.644  35.872  28.509  1.00  0.00     0.057 A 
ATOM     80  C   UNL A   1      44.771  35.720  27.689  1.00  0.00     0.134 A 
ATOM     81  C   UNL A   1      42.388  35.685  27.921  1.00  0.00     0.134 A 
ATOM     82  F   UNL A   1      46.004  35.907  28.185  1.00  0.00    -0.206 F 
ATOM     83  C   UNL A   1      44.651  35.412  26.333  1.00  0.00     0.040 A 
ATOM     84  C   UNL A   1      42.257  35.349  26.572  1.00  0.00     0.040 A 
ATOM     85  F   UNL A   1      41.269  35.817  28.647  1.00  0.00    -0.206 F 
ATOM     86  C   UNL A   1      43.391  35.217  25.773  1.00  0.00     0.006 A 
ENDBRANCH  65  79
BRANCH  66  87
ATOM     87  C   UNL A   1      44.408  37.532  38.321  1.00  0.00     0.057 A 
ATOM     88  C   UNL A   1      43.300  37.803  39.135  1.00  0.00     0.134 A 
ATOM     89  C   UNL A   1      45.672  37.577  38.923  1.00  0.00     0.134 A 
ATOM     90  F   UNL A   1      42.065  37.804  38.615  1.00  0.00    -0.206 F 
ATOM     91  C   UNL A   1      43.446  38.135  40.484  1.00  0.00     0.040 A 
ATOM     92  C   UNL A   1      45.829  37.877  40.277  1.00  0.00     0.040 A 
ATOM     93  F   UNL A   1      46.775  37.331  38.201  1.00  0.00    -0.206 F 
ATOM     94  C   UNL A   1      44.714  38.168  41.060  1.00  0.00     0.006 A 
ENDBRANCH  66  87
BRANCH  78  95
ATOM     95  C   UNL A   1      43.946  41.702  32.764  1.00  0.00     0.057 A 
ATOM     96  C   UNL A   1      42.743  42.421  32.781  1.00  0.00     0.134 A 
ATOM     97  C   UNL A   1      45.131  42.435  32.622  1.00  0.00     0.134 A 
ATOM     98  F   UNL A   1      41.570  41.781  32.905  1.00  0.00    -0.206 F 
ATOM     99  C   UNL A   1      42.717  43.807  32.617  1.00  0.00     0.040 A 
ATOM    100  C   UNL A   1      45.121  43.824  32.492  1.00  0.00     0.040 A 
ATOM    101  F   UNL A   1      46.321  41.814  32.614  1.00  0.00    -0.206 F 
ATOM    102  C   UNL A   1      43.910  44.513  32.475  1.00  0.00     0.006 A 
ENDBRANCH  78  95
ENDBRANCH  52  53
ENDBRANCH  45  47
ENDBRANCH  44  45
ENDBRANCH  43  44
ENDBRANCH  42  43
ENDBRANCH  41  42
ENDBRANCH  40  41
ENDBRANCH  39  40
ENDBRANCH  38  39
ENDBRANCH   1  38
TORSDOF 25
ENDMDL
