MODEL 1
REMARK VINA RESULT:     -10.4      0.000      0.000
REMARK SMILES CC1(C)CCSC[C@@]1(Nc1ccccc1Br)C(=O)OCCOCCOCCOCCOC(=O)c1ccc(-c2c3nc(c(-c4c(F)cccc4F)c4ccc([nH]4)c(-c4c(F)cccc4F)c4nc(c(-c5c(F)cccc5F)c5ccc2[nH]5)C=C4)C=C3)cc1
REMARK SMILES IDX 25 1 24 2 23 3 22 4 21 5 20 6 19 7 17 8 18 9 8 10 1 11 2 12
REMARK SMILES IDX 3 13 4 14 5 15 7 16 6 17 9 18 10 20 11 21 15 22 12 23 14 24
REMARK SMILES IDX 16 25 13 26 26 27 27 28 28 29 29 30 30 31 31 32 32 33 33 34
REMARK SMILES IDX 34 35 35 36 87 37 36 38 86 39 37 40 38 41 39 42 80 43 40 44
REMARK SMILES IDX 85 45 79 46 81 47 41 48 84 49 78 50 77 51 42 53 68 54 51 55
REMARK SMILES IDX 67 56 52 57 55 58 66 59 82 60 53 61 54 62 65 64 83 65 56 66
REMARK SMILES IDX 43 67 44 68 49 69 45 70 46 71 48 72 50 73 47 74 69 75 70 76
REMARK SMILES IDX 75 77 71 78 72 79 74 80 76 81 73 82 57 83 58 84 63 85 59 86
REMARK SMILES IDX 60 87 62 88 64 89 61 90
REMARK H PARENT 9 19 81 52 55 63
REMARK Flexibility Score: inf
ROOT
ATOM      1  O   UNL A   1      40.575  20.035  27.333  1.00  0.00    -0.377 OA
ENDROOT
BRANCH   1   2
ATOM      2  C   UNL A   1      40.695  21.440  27.498  1.00  0.00     0.188 C 
BRANCH   2   3
ATOM      3  C   UNL A   1      40.186  22.172  26.251  1.00  0.00     0.188 C 
BRANCH   3   4
ATOM      4  O   UNL A   1      39.013  22.936  26.498  1.00  0.00    -0.376 OA
BRANCH   4   5
ATOM      5  C   UNL A   1      37.891  22.763  25.636  1.00  0.00     0.202 C 
BRANCH   5   6
ATOM      6  C   UNL A   1      36.479  22.487  26.180  1.00  0.00     0.261 C 
BRANCH   6   7
ATOM      7  O   UNL A   1      35.640  23.664  26.245  1.00  0.00    -0.461 OA
BRANCH   7   8
ATOM      8  C   UNL A   1      34.302  23.509  26.312  1.00  0.00     0.333 C 
ATOM      9  O   UNL A   1      33.754  22.969  27.270  1.00  0.00    -0.249 OA
BRANCH   8  10
ATOM     10  C   UNL A   1      33.519  24.068  25.045  1.00  0.00     0.150 C 
ATOM     11  C   UNL A   1      32.853  21.634  24.253  1.00  0.00     0.014 C 
ATOM     12  C   UNL A   1      33.266  23.060  23.800  1.00  0.00     0.000 C 
ATOM     13  C   UNL A   1      34.505  22.965  22.866  1.00  0.00     0.014 C 
ATOM     14  C   UNL A   1      32.139  23.556  22.820  1.00  0.00     0.020 C 
ATOM     15  C   UNL A   1      30.765  23.811  23.416  1.00  0.00     0.070 C 
ATOM     16  C   UNL A   1      32.143  24.434  25.692  1.00  0.00     0.110 C 
ATOM     17  S   UNL A   1      30.865  25.149  24.609  1.00  0.00    -0.159 SA
BRANCH  10  18
ATOM     18  N   UNL A   1      34.229  25.281  24.491  1.00  0.00    -0.368 N 
ATOM     19  H   UNL A   1      34.987  25.155  23.875  1.00  0.00     0.161 HD
BRANCH  18  20
ATOM     20  C   UNL A   1      33.837  26.580  24.833  1.00  0.00     0.049 A 
ATOM     21  C   UNL A   1      33.861  26.942  26.187  1.00  0.00     0.027 A 
ATOM     22  C   UNL A   1      33.436  27.567  23.914  1.00  0.00     0.041 A 
ATOM     23  C   UNL A   1      33.587  28.246  26.604  1.00  0.00     0.002 A 
ATOM     24  C   UNL A   1      33.180  28.881  24.324  1.00  0.00     0.018 A 
ATOM     25  Br  UNL A   1      33.049  27.185  22.102  1.00  0.00    -0.049 Br
ATOM     26  C   UNL A   1      33.269  29.223  25.669  1.00  0.00     0.001 A 
ENDBRANCH  18  20
ENDBRANCH  10  18
ENDBRANCH   8  10
ENDBRANCH   7   8
ENDBRANCH   6   7
ENDBRANCH   5   6
ENDBRANCH   4   5
ENDBRANCH   3   4
ENDBRANCH   2   3
ENDBRANCH   1   2
BRANCH   1  27
ATOM     27  C   UNL A   1      41.135  19.552  26.128  1.00  0.00     0.188 C 
BRANCH  27  28
ATOM     28  C   UNL A   1      42.649  19.288  26.098  1.00  0.00     0.188 C 
BRANCH  28  29
ATOM     29  O   UNL A   1      43.340  20.033  25.089  1.00  0.00    -0.376 OA
BRANCH  29  30
ATOM     30  C   UNL A   1      43.987  21.236  25.489  1.00  0.00     0.202 C 
BRANCH  30  31
ATOM     31  C   UNL A   1      44.116  22.276  24.366  1.00  0.00     0.261 C 
BRANCH  31  32
ATOM     32  O   UNL A   1      43.516  23.553  24.638  1.00  0.00    -0.460 OA
BRANCH  32  33
ATOM     33  C   UNL A   1      44.325  24.538  25.084  1.00  0.00     0.338 C 
ATOM     34  O   UNL A   1      45.445  24.810  24.687  1.00  0.00    -0.246 OA
BRANCH  33  35
ATOM     35  C   UNL A   1      43.539  25.392  25.999  1.00  0.00     0.060 A 
ATOM     36  C   UNL A   1      43.805  26.768  26.012  1.00  0.00     0.016 A 
ATOM     37  C   UNL A   1      42.513  24.859  26.784  1.00  0.00     0.016 A 
ATOM     38  C   UNL A   1      43.059  27.614  26.832  1.00  0.00     0.010 A 
ATOM     39  C   UNL A   1      41.794  25.700  27.637  1.00  0.00     0.010 A 
ATOM     40  C   UNL A   1      42.088  27.074  27.686  1.00  0.00    -0.014 A 
BRANCH  40  41
ATOM     41  C   UNL A   1      41.591  27.890  28.818  1.00  0.00     0.031 A 
ATOM     42  C   UNL A   1      42.305  27.746  30.135  1.00  0.00     0.074 A 
ATOM     43  C   UNL A   1      40.546  28.725  28.694  1.00  0.00     0.049 A 
ATOM     44  N   UNL A   1      42.067  28.331  31.280  1.00  0.00    -0.248 NA
ATOM     45  C   UNL A   1      43.443  26.809  30.164  1.00  0.00     0.031 C 
ATOM     46  C   UNL A   1      39.786  28.965  27.469  1.00  0.00     0.029 A 
ATOM     47  N   UNL A   1      39.935  29.522  29.632  1.00  0.00    -0.354 N 
ATOM     48  C   UNL A   1      43.024  27.838  32.156  1.00  0.00     0.074 A 
ATOM     49  C   UNL A   1      43.835  26.893  31.425  1.00  0.00     0.031 C 
ATOM     50  C   UNL A   1      38.794  29.834  27.737  1.00  0.00     0.029 A 
ATOM     51  C   UNL A   1      38.841  30.198  29.153  1.00  0.00     0.049 A 
ATOM     52  H   UNL A   1      40.254  29.601  30.560  1.00  0.00     0.167 HD
ATOM     53  C   UNL A   1      43.214  28.147  33.458  1.00  0.00     0.037 A 
ATOM     54  C   UNL A   1      37.971  31.002  29.796  1.00  0.00     0.037 A 
ATOM     55  C   UNL A   1      42.403  29.075  34.193  1.00  0.00     0.049 A 
ATOM     56  C   UNL A   1      38.172  31.283  31.266  1.00  0.00     0.074 A 
ATOM     57  C   UNL A   1      42.534  29.479  35.509  1.00  0.00     0.029 A 
ATOM     58  N   UNL A   1      41.299  29.731  33.675  1.00  0.00    -0.354 N 
ATOM     59  N   UNL A   1      39.121  30.866  32.067  1.00  0.00    -0.248 NA
ATOM     60  C   UNL A   1      37.178  32.151  31.917  1.00  0.00     0.031 C 
ATOM     61  C   UNL A   1      41.479  30.349  35.801  1.00  0.00     0.029 A 
ATOM     62  C   UNL A   1      40.719  30.516  34.654  1.00  0.00     0.049 A 
ATOM     63  H   UNL A   1      40.974  29.649  32.749  1.00  0.00     0.167 HD
ATOM     64  C   UNL A   1      38.859  31.445  33.304  1.00  0.00     0.074 A 
ATOM     65  C   UNL A   1      37.665  32.249  33.146  1.00  0.00     0.031 C 
ATOM     66  C   UNL A   1      39.542  31.324  34.468  1.00  0.00     0.037 A 
BRANCH  53  67
ATOM     67  C   UNL A   1      44.327  27.450  34.175  1.00  0.00     0.057 A 
ATOM     68  C   UNL A   1      45.614  27.999  34.245  1.00  0.00     0.134 A 
ATOM     69  C   UNL A   1      44.102  26.233  34.827  1.00  0.00     0.134 A 
ATOM     70  F   UNL A   1      45.897  29.152  33.620  1.00  0.00    -0.206 F 
ATOM     71  C   UNL A   1      46.642  27.354  34.934  1.00  0.00     0.040 A 
ATOM     72  C   UNL A   1      45.116  25.588  35.534  1.00  0.00     0.040 A 
ATOM     73  F   UNL A   1      42.893  25.654  34.789  1.00  0.00    -0.206 F 
ATOM     74  C   UNL A   1      46.392  26.148  35.588  1.00  0.00     0.006 A 
ENDBRANCH  53  67
BRANCH  54  75
ATOM     75  C   UNL A   1      36.810  31.590  29.079  1.00  0.00     0.057 A 
ATOM     76  C   UNL A   1      36.812  32.927  28.664  1.00  0.00     0.134 A 
ATOM     77  C   UNL A   1      35.646  30.847  28.852  1.00  0.00     0.134 A 
ATOM     78  F   UNL A   1      37.888  33.699  28.880  1.00  0.00    -0.206 F 
ATOM     79  C   UNL A   1      35.689  33.513  28.077  1.00  0.00     0.040 A 
ATOM     80  C   UNL A   1      34.523  31.413  28.244  1.00  0.00     0.040 A 
ATOM     81  F   UNL A   1      35.577  29.562  29.230  1.00  0.00    -0.206 F 
ATOM     82  C   UNL A   1      34.540  32.753  27.864  1.00  0.00     0.006 A 
ENDBRANCH  54  75
BRANCH  66  83
ATOM     83  C   UNL A   1      39.046  32.105  35.648  1.00  0.00     0.057 A 
ATOM     84  C   UNL A   1      38.222  31.528  36.620  1.00  0.00     0.134 A 
ATOM     85  C   UNL A   1      39.450  33.432  35.842  1.00  0.00     0.134 A 
ATOM     86  F   UNL A   1      37.793  30.263  36.486  1.00  0.00    -0.206 F 
ATOM     87  C   UNL A   1      37.802  32.250  37.738  1.00  0.00     0.040 A 
ATOM     88  C   UNL A   1      39.057  34.156  36.967  1.00  0.00     0.040 A 
ATOM     89  F   UNL A   1      40.251  34.037  34.951  1.00  0.00    -0.206 F 
ATOM     90  C   UNL A   1      38.226  33.566  37.917  1.00  0.00     0.006 A 
ENDBRANCH  66  83
ENDBRANCH  40  41
ENDBRANCH  33  35
ENDBRANCH  32  33
ENDBRANCH  31  32
ENDBRANCH  30  31
ENDBRANCH  29  30
ENDBRANCH  28  29
ENDBRANCH  27  28
ENDBRANCH   1  27
TORSDOF 22
ENDMDL
MODEL 2
REMARK VINA RESULT:     -10.3      1.295      2.699
REMARK SMILES CC1(C)CCSC[C@@]1(Nc1ccccc1Br)C(=O)OCCOCCOCCOCCOC(=O)c1ccc(-c2c3nc(c(-c4c(F)cccc4F)c4ccc([nH]4)c(-c4c(F)cccc4F)c4nc(c(-c5c(F)cccc5F)c5ccc2[nH]5)C=C4)C=C3)cc1
REMARK SMILES IDX 25 1 24 2 23 3 22 4 21 5 20 6 19 7 17 8 18 9 8 10 1 11 2 12
REMARK SMILES IDX 3 13 4 14 5 15 7 16 6 17 9 18 10 20 11 21 15 22 12 23 14 24
REMARK SMILES IDX 16 25 13 26 26 27 27 28 28 29 29 30 30 31 31 32 32 33 33 34
REMARK SMILES IDX 34 35 35 36 87 37 36 38 86 39 37 40 38 41 39 42 80 43 40 44
REMARK SMILES IDX 85 45 79 46 81 47 41 48 84 49 78 50 77 51 42 53 68 54 51 55
REMARK SMILES IDX 67 56 52 57 55 58 66 59 82 60 53 61 54 62 65 64 83 65 56 66
REMARK SMILES IDX 43 67 44 68 49 69 45 70 46 71 48 72 50 73 47 74 69 75 70 76
REMARK SMILES IDX 75 77 71 78 72 79 74 80 76 81 73 82 57 83 58 84 63 85 59 86
REMARK SMILES IDX 60 87 62 88 64 89 61 90
REMARK H PARENT 9 19 81 52 55 63
REMARK Flexibility Score: inf
ROOT
ATOM      1  O   UNL A   1      39.957  21.531  27.148  1.00  0.00    -0.377 OA
ENDROOT
BRANCH   1   2
ATOM      2  C   UNL A   1      39.436  21.645  25.833  1.00  0.00     0.188 C 
BRANCH   2   3
ATOM      3  C   UNL A   1      38.052  20.992  25.746  1.00  0.00     0.188 C 
BRANCH   3   4
ATOM      4  O   UNL A   1      37.463  21.113  24.458  1.00  0.00    -0.376 OA
BRANCH   4   5
ATOM      5  C   UNL A   1      36.340  21.977  24.299  1.00  0.00     0.202 C 
BRANCH   5   6
ATOM      6  C   UNL A   1      36.496  23.452  23.892  1.00  0.00     0.261 C 
BRANCH   6   7
ATOM      7  O   UNL A   1      35.238  24.122  23.639  1.00  0.00    -0.461 OA
BRANCH   7   8
ATOM      8  C   UNL A   1      34.576  24.678  24.674  1.00  0.00     0.333 C 
ATOM      9  O   UNL A   1      35.057  24.734  25.803  1.00  0.00    -0.249 OA
BRANCH   8  10
ATOM     10  C   UNL A   1      33.131  25.227  24.300  1.00  0.00     0.150 C 
ATOM     11  C   UNL A   1      33.824  27.721  24.843  1.00  0.00     0.014 C 
ATOM     12  C   UNL A   1      32.685  26.668  24.898  1.00  0.00     0.000 C 
ATOM     13  C   UNL A   1      32.156  26.556  26.356  1.00  0.00     0.014 C 
ATOM     14  C   UNL A   1      31.461  27.302  24.140  1.00  0.00     0.020 C 
ATOM     15  C   UNL A   1      31.607  27.515  22.643  1.00  0.00     0.070 C 
ATOM     16  C   UNL A   1      33.252  25.336  22.745  1.00  0.00     0.110 C 
ATOM     17  S   UNL A   1      31.797  25.929  21.824  1.00  0.00    -0.159 SA
BRANCH  10  18
ATOM     18  N   UNL A   1      32.074  24.232  24.721  1.00  0.00    -0.368 N 
ATOM     19  H   UNL A   1      31.220  24.562  25.083  1.00  0.00     0.161 HD
BRANCH  18  20
ATOM     20  C   UNL A   1      32.280  22.852  24.608  1.00  0.00     0.049 A 
ATOM     21  C   UNL A   1      32.048  22.249  23.364  1.00  0.00     0.027 A 
ATOM     22  C   UNL A   1      32.727  22.019  25.650  1.00  0.00     0.041 A 
ATOM     23  C   UNL A   1      32.330  20.901  23.138  1.00  0.00     0.002 A 
ATOM     24  C   UNL A   1      33.030  20.670  25.423  1.00  0.00     0.018 A 
ATOM     25  Br  UNL A   1      32.800  22.581  27.455  1.00  0.00    -0.049 Br
ATOM     26  C   UNL A   1      32.844  20.115  24.161  1.00  0.00     0.001 A 
ENDBRANCH  18  20
ENDBRANCH  10  18
ENDBRANCH   8  10
ENDBRANCH   7   8
ENDBRANCH   6   7
ENDBRANCH   5   6
ENDBRANCH   4   5
ENDBRANCH   3   4
ENDBRANCH   2   3
ENDBRANCH   1   2
BRANCH   1  27
ATOM     27  C   UNL A   1      41.083  20.681  27.246  1.00  0.00     0.188 C 
BRANCH  27  28
ATOM     28  C   UNL A   1      41.308  19.660  26.119  1.00  0.00     0.188 C 
BRANCH  28  29
ATOM     29  O   UNL A   1      42.624  19.708  25.556  1.00  0.00    -0.376 OA
BRANCH  29  30
ATOM     30  C   UNL A   1      43.444  20.820  25.897  1.00  0.00     0.202 C 
BRANCH  30  31
ATOM     31  C   UNL A   1      43.866  21.675  24.694  1.00  0.00     0.261 C 
BRANCH  31  32
ATOM     32  O   UNL A   1      43.284  22.987  24.635  1.00  0.00    -0.460 OA
BRANCH  32  33
ATOM     33  C   UNL A   1      44.093  24.038  24.894  1.00  0.00     0.338 C 
ATOM     34  O   UNL A   1      45.154  24.304  24.353  1.00  0.00    -0.246 OA
BRANCH  33  35
ATOM     35  C   UNL A   1      43.372  24.954  25.800  1.00  0.00     0.060 A 
ATOM     36  C   UNL A   1      43.782  26.294  25.852  1.00  0.00     0.016 A 
ATOM     37  C   UNL A   1      42.269  24.521  26.540  1.00  0.00     0.016 A 
ATOM     38  C   UNL A   1      43.102  27.199  26.665  1.00  0.00     0.010 A 
ATOM     39  C   UNL A   1      41.614  25.418  27.387  1.00  0.00     0.010 A 
ATOM     40  C   UNL A   1      42.051  26.751  27.476  1.00  0.00    -0.014 A 
BRANCH  40  41
ATOM     41  C   UNL A   1      41.604  27.595  28.608  1.00  0.00     0.031 A 
ATOM     42  C   UNL A   1      42.351  27.454  29.907  1.00  0.00     0.074 A 
ATOM     43  C   UNL A   1      40.576  28.453  28.500  1.00  0.00     0.049 A 
ATOM     44  N   UNL A   1      42.159  28.062  31.049  1.00  0.00    -0.248 NA
ATOM     45  C   UNL A   1      43.468  26.492  29.919  1.00  0.00     0.031 C 
ATOM     46  C   UNL A   1      39.787  28.692  27.293  1.00  0.00     0.029 A 
ATOM     47  N   UNL A   1      40.010  29.278  29.442  1.00  0.00    -0.354 N 
ATOM     48  C   UNL A   1      43.129  27.560  31.906  1.00  0.00     0.074 A 
ATOM     49  C   UNL A   1      43.897  26.585  31.167  1.00  0.00     0.031 C 
ATOM     50  C   UNL A   1      38.823  29.589  27.574  1.00  0.00     0.029 A 
ATOM     51  C   UNL A   1      38.918  29.972  28.983  1.00  0.00     0.049 A 
ATOM     52  H   UNL A   1      40.356  29.363  30.359  1.00  0.00     0.167 HD
ATOM     53  C   UNL A   1      43.362  27.883  33.197  1.00  0.00     0.037 A 
ATOM     54  C   UNL A   1      38.086  30.805  29.638  1.00  0.00     0.037 A 
ATOM     55  C   UNL A   1      42.594  28.841  33.939  1.00  0.00     0.049 A 
ATOM     56  C   UNL A   1      38.334  31.104  31.096  1.00  0.00     0.074 A 
ATOM     57  C   UNL A   1      42.771  29.262  35.245  1.00  0.00     0.029 A 
ATOM     58  N   UNL A   1      41.490  29.515  33.442  1.00  0.00    -0.354 N 
ATOM     59  N   UNL A   1      39.295  30.677  31.878  1.00  0.00    -0.248 NA
ATOM     60  C   UNL A   1      37.379  32.004  31.761  1.00  0.00     0.031 C 
ATOM     61  C   UNL A   1      41.744  30.160  35.553  1.00  0.00     0.029 A 
ATOM     62  C   UNL A   1      40.957  30.328  34.425  1.00  0.00     0.049 A 
ATOM     63  H   UNL A   1      41.138  29.427  32.527  1.00  0.00     0.167 HD
ATOM     64  C   UNL A   1      39.081  31.280  33.112  1.00  0.00     0.074 A 
ATOM     65  C   UNL A   1      37.902  32.109  32.975  1.00  0.00     0.031 C 
ATOM     66  C   UNL A   1      39.794  31.160  34.258  1.00  0.00     0.037 A 
BRANCH  53  67
ATOM     67  C   UNL A   1      44.479  27.171  33.894  1.00  0.00     0.057 A 
ATOM     68  C   UNL A   1      45.783  27.680  33.900  1.00  0.00     0.134 A 
ATOM     69  C   UNL A   1      44.239  25.981  34.589  1.00  0.00     0.134 A 
ATOM     70  F   UNL A   1      46.080  28.805  33.232  1.00  0.00    -0.206 F 
ATOM     71  C   UNL A   1      46.815  27.022  34.571  1.00  0.00     0.040 A 
ATOM     72  C   UNL A   1      45.258  25.325  35.278  1.00  0.00     0.040 A 
ATOM     73  F   UNL A   1      43.012  25.442  34.612  1.00  0.00    -0.206 F 
ATOM     74  C   UNL A   1      46.552  25.844  35.268  1.00  0.00     0.006 A 
ENDBRANCH  53  67
BRANCH  54  75
ATOM     75  C   UNL A   1      36.919  31.410  28.944  1.00  0.00     0.057 A 
ATOM     76  C   UNL A   1      36.927  32.750  28.538  1.00  0.00     0.134 A 
ATOM     77  C   UNL A   1      35.743  30.680  28.731  1.00  0.00     0.134 A 
ATOM     78  F   UNL A   1      38.014  33.510  28.742  1.00  0.00    -0.206 F 
ATOM     79  C   UNL A   1      35.800  33.351  27.973  1.00  0.00     0.040 A 
ATOM     80  C   UNL A   1      34.617  31.261  28.146  1.00  0.00     0.040 A 
ATOM     81  F   UNL A   1      35.669  29.393  29.102  1.00  0.00    -0.206 F 
ATOM     82  C   UNL A   1      34.640  32.604  27.774  1.00  0.00     0.006 A 
ENDBRANCH  54  75
BRANCH  66  83
ATOM     83  C   UNL A   1      39.349  31.970  35.439  1.00  0.00     0.057 A 
ATOM     84  C   UNL A   1      39.737  33.305  35.605  1.00  0.00     0.134 A 
ATOM     85  C   UNL A   1      38.474  31.424  36.387  1.00  0.00     0.134 A 
ATOM     86  F   UNL A   1      40.580  33.882  34.736  1.00  0.00    -0.206 F 
ATOM     87  C   UNL A   1      39.281  34.064  36.683  1.00  0.00     0.040 A 
ATOM     88  C   UNL A   1      37.994  32.181  37.455  1.00  0.00     0.040 A 
ATOM     89  F   UNL A   1      38.058  30.154  36.276  1.00  0.00    -0.206 F 
ATOM     90  C   UNL A   1      38.400  33.504  37.608  1.00  0.00     0.006 A 
ENDBRANCH  66  83
ENDBRANCH  40  41
ENDBRANCH  33  35
ENDBRANCH  32  33
ENDBRANCH  31  32
ENDBRANCH  30  31
ENDBRANCH  29  30
ENDBRANCH  28  29
ENDBRANCH  27  28
ENDBRANCH   1  27
TORSDOF 22
ENDMDL
MODEL 3
REMARK VINA RESULT:     -10.2      4.687     10.017
REMARK SMILES CC1(C)CCSC[C@@]1(Nc1ccccc1Br)C(=O)OCCOCCOCCOCCOC(=O)c1ccc(-c2c3nc(c(-c4c(F)cccc4F)c4ccc([nH]4)c(-c4c(F)cccc4F)c4nc(c(-c5c(F)cccc5F)c5ccc2[nH]5)C=C4)C=C3)cc1
REMARK SMILES IDX 25 1 24 2 23 3 22 4 21 5 20 6 19 7 17 8 18 9 8 10 1 11 2 12
REMARK SMILES IDX 3 13 4 14 5 15 7 16 6 17 9 18 10 20 11 21 15 22 12 23 14 24
REMARK SMILES IDX 16 25 13 26 26 27 27 28 28 29 29 30 30 31 31 32 32 33 33 34
REMARK SMILES IDX 34 35 35 36 87 37 36 38 86 39 37 40 38 41 39 42 80 43 40 44
REMARK SMILES IDX 85 45 79 46 81 47 41 48 84 49 78 50 77 51 42 53 68 54 51 55
REMARK SMILES IDX 67 56 52 57 55 58 66 59 82 60 53 61 54 62 65 64 83 65 56 66
REMARK SMILES IDX 43 67 44 68 49 69 45 70 46 71 48 72 50 73 47 74 69 75 70 76
REMARK SMILES IDX 75 77 71 78 72 79 74 80 76 81 73 82 57 83 58 84 63 85 59 86
REMARK SMILES IDX 60 87 62 88 64 89 61 90
REMARK H PARENT 9 19 81 52 55 63
REMARK Flexibility Score: inf
ROOT
ATOM      1  O   UNL A   1      34.566  33.847  27.495  1.00  0.00    -0.377 OA
ENDROOT
BRANCH   1   2
ATOM      2  C   UNL A   1      35.221  32.662  27.920  1.00  0.00     0.188 C 
BRANCH   2   3
ATOM      3  C   UNL A   1      34.198  31.558  28.210  1.00  0.00     0.188 C 
BRANCH   3   4
ATOM      4  O   UNL A   1      34.436  30.373  27.461  1.00  0.00    -0.376 OA
BRANCH   4   5
ATOM      5  C   UNL A   1      33.444  29.942  26.532  1.00  0.00     0.202 C 
BRANCH   5   6
ATOM      6  C   UNL A   1      32.341  28.943  26.922  1.00  0.00     0.261 C 
BRANCH   6   7
ATOM      7  O   UNL A   1      31.554  28.478  25.799  1.00  0.00    -0.461 OA
BRANCH   7   8
ATOM      8  C   UNL A   1      31.163  27.188  25.767  1.00  0.00     0.333 C 
ATOM      9  O   UNL A   1      30.559  26.665  26.701  1.00  0.00    -0.249 OA
BRANCH   8  10
ATOM     10  C   UNL A   1      31.565  26.420  24.434  1.00  0.00     0.150 C 
ATOM     11  C   UNL A   1      34.036  26.017  25.289  1.00  0.00     0.014 C 
ATOM     12  C   UNL A   1      33.140  26.320  24.057  1.00  0.00     0.000 C 
ATOM     13  C   UNL A   1      33.653  27.607  23.352  1.00  0.00     0.014 C 
ATOM     14  C   UNL A   1      33.454  25.202  22.996  1.00  0.00     0.020 C 
ATOM     15  C   UNL A   1      33.033  23.784  23.339  1.00  0.00     0.070 C 
ATOM     16  C   UNL A   1      31.025  24.987  24.749  1.00  0.00     0.110 C 
ATOM     17  S   UNL A   1      31.244  23.704  23.475  1.00  0.00    -0.159 SA
BRANCH  10  18
ATOM     18  N   UNL A   1      30.869  27.044  23.247  1.00  0.00    -0.368 N 
ATOM     19  H   UNL A   1      31.374  27.187  22.414  1.00  0.00     0.161 HD
BRANCH  18  20
ATOM     20  C   UNL A   1      29.522  27.422  23.302  1.00  0.00     0.049 A 
ATOM     21  C   UNL A   1      28.597  26.497  23.807  1.00  0.00     0.027 A 
ATOM     22  C   UNL A   1      29.023  28.676  22.908  1.00  0.00     0.041 A 
ATOM     23  C   UNL A   1      27.255  26.830  23.995  1.00  0.00     0.002 A 
ATOM     24  C   UNL A   1      27.681  29.022  23.113  1.00  0.00     0.018 A 
ATOM     25  Br  UNL A   1      30.051  29.929  21.930  1.00  0.00    -0.049 Br
ATOM     26  C   UNL A   1      26.800  28.102  23.670  1.00  0.00     0.001 A 
ENDBRANCH  18  20
ENDBRANCH  10  18
ENDBRANCH   8  10
ENDBRANCH   7   8
ENDBRANCH   6   7
ENDBRANCH   5   6
ENDBRANCH   4   5
ENDBRANCH   3   4
ENDBRANCH   2   3
ENDBRANCH   1   2
BRANCH   1  27
ATOM     27  C   UNL A   1      33.517  34.258  28.349  1.00  0.00     0.188 C 
BRANCH  27  28
ATOM     28  C   UNL A   1      33.882  35.126  29.564  1.00  0.00     0.188 C 
BRANCH  28  29
ATOM     29  O   UNL A   1      33.085  34.856  30.722  1.00  0.00    -0.376 OA
BRANCH  29  30
ATOM     30  C   UNL A   1      33.725  34.928  31.991  1.00  0.00     0.202 C 
BRANCH  30  31
ATOM     31  C   UNL A   1      34.327  33.596  32.461  1.00  0.00     0.261 C 
BRANCH  31  32
ATOM     32  O   UNL A   1      35.726  33.420  32.183  1.00  0.00    -0.460 OA
BRANCH  32  33
ATOM     33  C   UNL A   1      36.440  32.664  33.044  1.00  0.00     0.338 C 
ATOM     34  O   UNL A   1      36.247  32.524  34.240  1.00  0.00    -0.246 OA
BRANCH  33  35
ATOM     35  C   UNL A   1      37.380  31.841  32.254  1.00  0.00     0.060 A 
ATOM     36  C   UNL A   1      38.330  31.075  32.943  1.00  0.00     0.016 A 
ATOM     37  C   UNL A   1      37.287  31.773  30.862  1.00  0.00     0.016 A 
ATOM     38  C   UNL A   1      39.209  30.255  32.237  1.00  0.00     0.010 A 
ATOM     39  C   UNL A   1      38.195  30.984  30.151  1.00  0.00     0.010 A 
ATOM     40  C   UNL A   1      39.179  30.249  30.836  1.00  0.00    -0.014 A 
BRANCH  40  41
ATOM     41  C   UNL A   1      40.341  29.710  30.093  1.00  0.00     0.031 A 
ATOM     42  C   UNL A   1      41.478  30.656  29.812  1.00  0.00     0.074 A 
ATOM     43  C   UNL A   1      40.395  28.434  29.675  1.00  0.00     0.049 A 
ATOM     44  N   UNL A   1      42.599  30.444  29.175  1.00  0.00    -0.248 NA
ATOM     45  C   UNL A   1      41.324  32.032  30.320  1.00  0.00     0.031 C 
ATOM     46  C   UNL A   1      39.368  27.419  29.901  1.00  0.00     0.029 A 
ATOM     47  N   UNL A   1      41.363  27.779  28.954  1.00  0.00    -0.354 N 
ATOM     48  C   UNL A   1      43.282  31.653  29.210  1.00  0.00     0.074 A 
ATOM     49  C   UNL A   1      42.446  32.601  29.911  1.00  0.00     0.031 C 
ATOM     50  C   UNL A   1      39.752  26.272  29.308  1.00  0.00     0.029 A 
ATOM     51  C   UNL A   1      41.042  26.480  28.650  1.00  0.00     0.049 A 
ATOM     52  H   UNL A   1      42.209  28.203  28.682  1.00  0.00     0.167 HD
ATOM     53  C   UNL A   1      44.499  31.949  28.705  1.00  0.00     0.037 A 
ATOM     54  C   UNL A   1      41.711  25.574  27.909  1.00  0.00     0.037 A 
ATOM     55  C   UNL A   1      45.327  31.015  27.997  1.00  0.00     0.049 A 
ATOM     56  C   UNL A   1      43.042  25.950  27.306  1.00  0.00     0.074 A 
ATOM     57  C   UNL A   1      46.592  31.210  27.472  1.00  0.00     0.029 A 
ATOM     58  N   UNL A   1      44.961  29.712  27.701  1.00  0.00    -0.354 N 
ATOM     59  N   UNL A   1      43.709  27.074  27.404  1.00  0.00    -0.248 NA
ATOM     60  C   UNL A   1      43.714  24.926  26.489  1.00  0.00     0.031 C 
ATOM     61  C   UNL A   1      46.974  30.035  26.819  1.00  0.00     0.029 A 
ATOM     62  C   UNL A   1      45.965  29.098  26.975  1.00  0.00     0.049 A 
ATOM     63  H   UNL A   1      44.114  29.287  27.968  1.00  0.00     0.167 HD
ATOM     64  C   UNL A   1      44.889  26.882  26.693  1.00  0.00     0.074 A 
ATOM     65  C   UNL A   1      44.851  25.531  26.175  1.00  0.00     0.031 C 
ATOM     66  C   UNL A   1      45.913  27.745  26.487  1.00  0.00     0.037 A 
BRANCH  53  67
ATOM     67  C   UNL A   1      44.993  33.351  28.878  1.00  0.00     0.057 A 
ATOM     68  C   UNL A   1      44.691  34.357  27.951  1.00  0.00     0.134 A 
ATOM     69  C   UNL A   1      45.754  33.703  29.998  1.00  0.00     0.134 A 
ATOM     70  F   UNL A   1      43.985  34.075  26.846  1.00  0.00    -0.206 F 
ATOM     71  C   UNL A   1      45.137  35.667  28.131  1.00  0.00     0.040 A 
ATOM     72  C   UNL A   1      46.189  35.013  30.198  1.00  0.00     0.040 A 
ATOM     73  F   UNL A   1      46.082  32.782  30.915  1.00  0.00    -0.206 F 
ATOM     74  C   UNL A   1      45.882  35.999  29.261  1.00  0.00     0.006 A 
ENDBRANCH  53  67
BRANCH  54  75
ATOM     75  C   UNL A   1      41.138  24.226  27.663  1.00  0.00     0.057 A 
ATOM     76  C   UNL A   1      41.624  23.095  28.333  1.00  0.00     0.134 A 
ATOM     77  C   UNL A   1      40.139  24.025  26.704  1.00  0.00     0.134 A 
ATOM     78  F   UNL A   1      42.602  23.219  29.243  1.00  0.00    -0.206 F 
ATOM     79  C   UNL A   1      41.158  21.812  28.038  1.00  0.00     0.040 A 
ATOM     80  C   UNL A   1      39.647  22.751  26.415  1.00  0.00     0.040 A 
ATOM     81  F   UNL A   1      39.635  25.065  26.023  1.00  0.00    -0.206 F 
ATOM     82  C   UNL A   1      40.164  21.639  27.076  1.00  0.00     0.006 A 
ENDBRANCH  54  75
BRANCH  66  83
ATOM     83  C   UNL A   1      47.092  27.247  25.705  1.00  0.00     0.057 A 
ATOM     84  C   UNL A   1      47.225  27.495  24.334  1.00  0.00     0.134 A 
ATOM     85  C   UNL A   1      48.133  26.565  26.347  1.00  0.00     0.134 A 
ATOM     86  F   UNL A   1      46.257  28.135  23.661  1.00  0.00    -0.206 F 
ATOM     87  C   UNL A   1      48.347  27.066  23.625  1.00  0.00     0.040 A 
ATOM     88  C   UNL A   1      49.270  26.153  25.653  1.00  0.00     0.040 A 
ATOM     89  F   UNL A   1      48.070  26.309  27.662  1.00  0.00    -0.206 F 
ATOM     90  C   UNL A   1      49.378  26.399  24.286  1.00  0.00     0.006 A 
ENDBRANCH  66  83
ENDBRANCH  40  41
ENDBRANCH  33  35
ENDBRANCH  32  33
ENDBRANCH  31  32
ENDBRANCH  30  31
ENDBRANCH  29  30
ENDBRANCH  28  29
ENDBRANCH  27  28
ENDBRANCH   1  27
TORSDOF 22
ENDMDL
