MODEL 1
REMARK VINA RESULT:      -9.1      0.000      0.000
REMARK SMILES CCC(CC)(NC(=O)c1cc(C)ccc1OC)C(=O)OCCOCCOCCOCCOC(=O)c1ccc(-c2c3nc(c(-c4c(F)cccc4F)c4ccc([nH]4)c(-c4c(F)cccc4F)c4nc(c(-c5c(F)cccc5F)c5ccc2[nH]5)C=C4)C=C3)cc1
REMARK SMILES IDX 25 1 24 2 23 3 22 4 21 5 20 6 18 7 19 8 3 9 2 10 1 11 4 12
REMARK SMILES IDX 5 13 6 14 7 15 8 17 9 18 10 19 15 20 11 21 14 22 12 23 13 24
REMARK SMILES IDX 16 25 17 26 26 27 27 28 28 29 29 30 30 31 31 32 32 33 33 34
REMARK SMILES IDX 34 35 35 36 36 37 88 38 37 39 87 40 38 41 39 42 40 43 81 44
REMARK SMILES IDX 41 45 86 46 80 47 82 48 42 49 85 50 79 51 78 52 43 54 69 55
REMARK SMILES IDX 52 56 68 57 53 58 56 59 67 60 83 61 54 62 55 63 66 65 84 66
REMARK SMILES IDX 57 67 44 68 45 69 50 70 46 71 47 72 49 73 51 74 48 75 70 76
REMARK SMILES IDX 71 77 76 78 72 79 73 80 75 81 77 82 74 83 58 84 59 85 64 86
REMARK SMILES IDX 60 87 61 88 63 89 65 90 62 91
REMARK H PARENT 6 16 82 53 56 64
REMARK Flexibility Score: inf
ROOT
ATOM      1  C   UNL A   1      39.638  20.923  26.002  1.00  0.00     0.188 C 
ENDROOT
BRANCH   1   2
ATOM      2  C   UNL A   1      38.605  22.017  25.758  1.00  0.00     0.188 C 
BRANCH   2   3
ATOM      3  O   UNL A   1      37.471  21.823  24.945  1.00  0.00    -0.376 OA
BRANCH   3   4
ATOM      4  C   UNL A   1      36.877  20.549  24.985  1.00  0.00     0.202 C 
BRANCH   4   5
ATOM      5  C   UNL A   1      35.418  20.483  24.736  1.00  0.00     0.261 C 
BRANCH   5   6
ATOM      6  O   UNL A   1      35.096  21.807  24.359  1.00  0.00    -0.461 OA
BRANCH   6   7
ATOM      7  C   UNL A   1      33.868  21.994  24.775  1.00  0.00     0.331 C 
ATOM      8  O   UNL A   1      33.042  21.106  24.602  1.00  0.00    -0.249 OA
BRANCH   7   9
ATOM      9  C   UNL A   1      33.675  23.358  25.452  1.00  0.00     0.137 C 
BRANCH   9  10
ATOM     10  C   UNL A   1      34.317  24.250  24.221  1.00  0.00     0.037 C 
ATOM     11  C   UNL A   1      33.518  24.302  22.846  1.00  0.00     0.007 C 
ENDBRANCH   9  10
BRANCH   9  12
ATOM     12  C   UNL A   1      34.697  23.305  26.626  1.00  0.00     0.037 C 
ATOM     13  C   UNL A   1      34.393  22.312  27.737  1.00  0.00     0.007 C 
ENDBRANCH   9  12
BRANCH   9  14
ATOM     14  N   UNL A   1      32.082  23.983  25.870  1.00  0.00    -0.336 N 
ATOM     15  C   UNL A   1      30.867  24.883  25.885  1.00  0.00     0.255 C 
ATOM     16  H   UNL A   1      31.795  23.299  26.518  1.00  0.00     0.165 HD
ATOM     17  O   UNL A   1      29.929  24.385  26.541  1.00  0.00    -0.269 OA
BRANCH  15  18
ATOM     18  C   UNL A   1      30.393  26.283  25.169  1.00  0.00     0.082 A 
ATOM     19  C   UNL A   1      29.141  26.735  23.899  1.00  0.00     0.021 A 
ATOM     20  C   UNL A   1      31.490  27.381  25.639  1.00  0.00     0.131 A 
ATOM     21  C   UNL A   1      28.918  28.412  23.162  1.00  0.00    -0.050 A 
ATOM     22  C   UNL A   1      31.439  29.040  25.084  1.00  0.00     0.047 A 
ATOM     23  C   UNL A   1      27.644  28.928  22.533  1.00  0.00     0.044 C 
ATOM     24  C   UNL A   1      30.109  29.696  23.716  1.00  0.00     0.007 A 
BRANCH  20  25
ATOM     25  O   UNL A   1      32.418  27.109  26.594  1.00  0.00    -0.496 OA
ATOM     26  C   UNL A   1      33.727  27.234  26.065  1.00  0.00     0.278 C 
ENDBRANCH  20  25
ENDBRANCH  15  18
ENDBRANCH   9  14
ENDBRANCH   7   9
ENDBRANCH   6   7
ENDBRANCH   5   6
ENDBRANCH   4   5
ENDBRANCH   3   4
ENDBRANCH   2   3
ENDBRANCH   1   2
BRANCH   1  27
ATOM     27  O   UNL A   1      40.344  20.871  27.217  1.00  0.00    -0.377 OA
BRANCH  27  28
ATOM     28  C   UNL A   1      41.730  20.998  27.210  1.00  0.00     0.188 C 
BRANCH  28  29
ATOM     29  C   UNL A   1      42.221  22.210  26.473  1.00  0.00     0.188 C 
BRANCH  29  30
ATOM     30  O   UNL A   1      42.798  22.065  25.210  1.00  0.00    -0.376 OA
BRANCH  30  31
ATOM     31  C   UNL A   1      44.200  21.816  25.239  1.00  0.00     0.202 C 
BRANCH  31  32
ATOM     32  C   UNL A   1      45.150  22.821  25.992  1.00  0.00     0.261 C 
BRANCH  32  33
ATOM     33  O   UNL A   1      45.161  24.187  25.349  1.00  0.00    -0.460 OA
BRANCH  33  34
ATOM     34  C   UNL A   1      44.470  25.309  25.800  1.00  0.00     0.338 C 
ATOM     35  O   UNL A   1      43.888  26.046  25.016  1.00  0.00    -0.246 OA
BRANCH  34  36
ATOM     36  C   UNL A   1      44.470  25.618  27.354  1.00  0.00     0.060 A 
ATOM     37  C   UNL A   1      43.763  24.898  28.315  1.00  0.00     0.016 A 
ATOM     38  C   UNL A   1      45.063  26.704  27.942  1.00  0.00     0.016 A 
ATOM     39  C   UNL A   1      43.236  25.514  29.534  1.00  0.00     0.010 A 
ATOM     40  C   UNL A   1      44.392  27.380  29.016  1.00  0.00     0.010 A 
ATOM     41  C   UNL A   1      43.309  26.890  29.785  1.00  0.00    -0.014 A 
BRANCH  41  42
ATOM     42  C   UNL A   1      42.497  27.895  30.839  1.00  0.00     0.031 A 
ATOM     43  C   UNL A   1      41.640  28.968  30.093  1.00  0.00     0.074 A 
ATOM     44  C   UNL A   1      42.220  27.677  32.222  1.00  0.00     0.049 A 
ATOM     45  N   UNL A   1      40.785  29.757  30.648  1.00  0.00    -0.248 NA
ATOM     46  C   UNL A   1      41.481  29.073  28.636  1.00  0.00     0.031 C 
ATOM     47  C   UNL A   1      41.270  28.119  33.335  1.00  0.00     0.029 A 
ATOM     48  N   UNL A   1      42.789  26.773  33.080  1.00  0.00    -0.354 N 
ATOM     49  C   UNL A   1      39.709  29.977  29.766  1.00  0.00     0.074 A 
ATOM     50  C   UNL A   1      40.248  29.589  28.492  1.00  0.00     0.031 C 
ATOM     51  C   UNL A   1      41.652  27.791  34.601  1.00  0.00     0.029 A 
ATOM     52  C   UNL A   1      42.963  27.277  34.419  1.00  0.00     0.049 A 
ATOM     53  H   UNL A   1      43.054  25.864  32.809  1.00  0.00     0.167 HD
ATOM     54  C   UNL A   1      38.469  30.321  30.281  1.00  0.00     0.037 A 
ATOM     55  C   UNL A   1      44.161  27.764  34.920  1.00  0.00     0.037 A 
ATOM     56  C   UNL A   1      38.539  30.331  31.765  1.00  0.00     0.049 A 
ATOM     57  C   UNL A   1      43.818  29.321  34.828  1.00  0.00     0.074 A 
ATOM     58  C   UNL A   1      37.881  29.725  32.823  1.00  0.00     0.029 A 
ATOM     59  N   UNL A   1      39.655  30.913  32.336  1.00  0.00    -0.354 N 
ATOM     60  N   UNL A   1      42.979  29.866  33.942  1.00  0.00    -0.248 NA
ATOM     61  C   UNL A   1      44.019  30.254  35.935  1.00  0.00     0.031 C 
ATOM     62  C   UNL A   1      38.660  29.958  34.018  1.00  0.00     0.029 A 
ATOM     63  C   UNL A   1      39.821  30.658  33.670  1.00  0.00     0.049 A 
ATOM     64  H   UNL A   1      40.283  31.469  31.822  1.00  0.00     0.167 HD
ATOM     65  C   UNL A   1      42.266  30.912  34.522  1.00  0.00     0.074 A 
ATOM     66  C   UNL A   1      43.177  31.261  35.615  1.00  0.00     0.031 C 
ATOM     67  C   UNL A   1      40.936  31.338  34.345  1.00  0.00     0.037 A 
BRANCH  54  68
ATOM     68  C   UNL A   1      37.115  30.564  29.561  1.00  0.00     0.057 A 
ATOM     69  C   UNL A   1      36.345  31.727  29.843  1.00  0.00     0.134 A 
ATOM     70  C   UNL A   1      36.535  29.772  28.549  1.00  0.00     0.134 A 
ATOM     71  F   UNL A   1      36.735  32.637  30.744  1.00  0.00    -0.206 F 
ATOM     72  C   UNL A   1      35.140  32.068  29.199  1.00  0.00     0.040 A 
ATOM     73  C   UNL A   1      35.332  30.115  27.878  1.00  0.00     0.040 A 
ATOM     74  F   UNL A   1      37.101  28.639  28.127  1.00  0.00    -0.206 F 
ATOM     75  C   UNL A   1      34.632  31.268  28.197  1.00  0.00     0.006 A 
ENDBRANCH  54  68
BRANCH  55  76
ATOM     76  C   UNL A   1      45.550  26.754  34.524  1.00  0.00     0.057 A 
ATOM     77  C   UNL A   1      46.584  27.194  33.099  1.00  0.00     0.134 A 
ATOM     78  C   UNL A   1      46.250  26.863  36.045  1.00  0.00     0.134 A 
ATOM     79  F   UNL A   1      45.937  27.355  31.928  1.00  0.00    -0.206 F 
ATOM     80  C   UNL A   1      48.171  28.075  33.160  1.00  0.00     0.040 A 
ATOM     81  C   UNL A   1      47.650  27.964  36.362  1.00  0.00     0.040 A 
ATOM     82  F   UNL A   1      45.589  26.219  37.011  1.00  0.00    -0.206 F 
ATOM     83  C   UNL A   1      48.768  28.590  34.802  1.00  0.00     0.006 A 
ENDBRANCH  55  76
BRANCH  67  84
ATOM     84  C   UNL A   1      40.596  32.775  34.628  1.00  0.00     0.057 A 
ATOM     85  C   UNL A   1      40.943  33.796  33.769  1.00  0.00     0.134 A 
ATOM     86  C   UNL A   1      39.799  33.148  35.743  1.00  0.00     0.134 A 
ATOM     87  F   UNL A   1      41.938  33.643  32.883  1.00  0.00    -0.206 F 
ATOM     88  C   UNL A   1      40.236  34.991  33.779  1.00  0.00     0.040 A 
ATOM     89  C   UNL A   1      39.180  34.378  35.834  1.00  0.00     0.040 A 
ATOM     90  F   UNL A   1      39.533  32.350  36.784  1.00  0.00    -0.206 F 
ATOM     91  C   UNL A   1      39.320  35.266  34.791  1.00  0.00     0.006 A 
ENDBRANCH  67  84
ENDBRANCH  41  42
ENDBRANCH  34  36
ENDBRANCH  33  34
ENDBRANCH  32  33
ENDBRANCH  31  32
ENDBRANCH  30  31
ENDBRANCH  29  30
ENDBRANCH  28  29
ENDBRANCH  27  28
ENDBRANCH   1  27
TORSDOF 25
ENDMDL
MODEL 2
REMARK VINA RESULT:      -8.8      2.102      3.313
REMARK SMILES CCC(CC)(NC(=O)c1cc(C)ccc1OC)C(=O)OCCOCCOCCOCCOC(=O)c1ccc(-c2c3nc(c(-c4c(F)cccc4F)c4ccc([nH]4)c(-c4c(F)cccc4F)c4nc(c(-c5c(F)cccc5F)c5ccc2[nH]5)C=C4)C=C3)cc1
REMARK SMILES IDX 25 1 24 2 23 3 22 4 21 5 20 6 18 7 19 8 3 9 2 10 1 11 4 12
REMARK SMILES IDX 5 13 6 14 7 15 8 17 9 18 10 19 15 20 11 21 14 22 12 23 13 24
REMARK SMILES IDX 16 25 17 26 26 27 27 28 28 29 29 30 30 31 31 32 32 33 33 34
REMARK SMILES IDX 34 35 35 36 36 37 88 38 37 39 87 40 38 41 39 42 40 43 81 44
REMARK SMILES IDX 41 45 86 46 80 47 82 48 42 49 85 50 79 51 78 52 43 54 69 55
REMARK SMILES IDX 52 56 68 57 53 58 56 59 67 60 83 61 54 62 55 63 66 65 84 66
REMARK SMILES IDX 57 67 44 68 45 69 50 70 46 71 47 72 49 73 51 74 48 75 70 76
REMARK SMILES IDX 71 77 76 78 72 79 73 80 75 81 77 82 74 83 58 84 59 85 64 86
REMARK SMILES IDX 60 87 61 88 63 89 65 90 62 91
REMARK H PARENT 6 16 82 53 56 64
REMARK Flexibility Score: inf
ROOT
ATOM      1  C   UNL A   1      38.259  21.864  25.681  1.00  0.00     0.188 C 
ENDROOT
BRANCH   1   2
ATOM      2  C   UNL A   1      36.866  22.482  25.745  1.00  0.00     0.188 C 
BRANCH   2   3
ATOM      3  O   UNL A   1      35.816  22.076  24.900  1.00  0.00    -0.376 OA
BRANCH   3   4
ATOM      4  C   UNL A   1      35.471  20.713  24.931  1.00  0.00     0.202 C 
BRANCH   4   5
ATOM      5  C   UNL A   1      34.033  20.390  25.078  1.00  0.00     0.261 C 
BRANCH   5   6
ATOM      6  O   UNL A   1      33.394  21.449  24.394  1.00  0.00    -0.461 OA
BRANCH   6   7
ATOM      7  C   UNL A   1      32.259  21.628  25.024  1.00  0.00     0.331 C 
ATOM      8  O   UNL A   1      31.563  20.654  25.280  1.00  0.00    -0.249 OA
BRANCH   7   9
ATOM      9  C   UNL A   1      31.994  23.103  25.356  1.00  0.00     0.137 C 
BRANCH   9  10
ATOM     10  C   UNL A   1      31.460  22.838  26.894  1.00  0.00     0.037 C 
ATOM     11  C   UNL A   1      29.890  22.882  27.153  1.00  0.00     0.007 C 
ENDBRANCH   9  10
BRANCH   9  12
ATOM     12  C   UNL A   1      30.775  23.444  24.448  1.00  0.00     0.037 C 
ATOM     13  C   UNL A   1      30.993  23.303  22.950  1.00  0.00     0.007 C 
ENDBRANCH   9  12
BRANCH   9  14
ATOM     14  N   UNL A   1      33.278  24.309  25.373  1.00  0.00    -0.336 N 
ATOM     15  C   UNL A   1      33.967  25.651  25.485  1.00  0.00     0.255 C 
ATOM     16  H   UNL A   1      34.056  23.733  25.192  1.00  0.00     0.165 HD
ATOM     17  O   UNL A   1      35.210  25.536  25.474  1.00  0.00    -0.269 OA
BRANCH  15  18
ATOM     18  C   UNL A   1      33.532  27.213  25.746  1.00  0.00     0.082 A 
ATOM     19  C   UNL A   1      33.972  28.494  26.991  1.00  0.00     0.021 A 
ATOM     20  C   UNL A   1      32.299  27.475  24.725  1.00  0.00     0.131 A 
ATOM     21  C   UNL A   1      33.201  30.165  27.127  1.00  0.00    -0.050 A 
ATOM     22  C   UNL A   1      31.453  29.006  24.669  1.00  0.00     0.047 A 
ATOM     23  C   UNL A   1      33.845  31.375  27.765  1.00  0.00     0.044 C 
ATOM     24  C   UNL A   1      31.837  30.518  25.947  1.00  0.00     0.007 A 
BRANCH  20  25
ATOM     25  O   UNL A   1      31.952  26.575  23.769  1.00  0.00    -0.496 OA
ATOM     26  C   UNL A   1      32.788  26.711  22.632  1.00  0.00     0.278 C 
ENDBRANCH  20  25
ENDBRANCH  15  18
ENDBRANCH   9  14
ENDBRANCH   7   9
ENDBRANCH   6   7
ENDBRANCH   5   6
ENDBRANCH   4   5
ENDBRANCH   3   4
ENDBRANCH   2   3
ENDBRANCH   1   2
BRANCH   1  27
ATOM     27  O   UNL A   1      39.275  22.311  26.545  1.00  0.00    -0.377 OA
BRANCH  27  28
ATOM     28  C   UNL A   1      40.348  21.473  26.830  1.00  0.00     0.188 C 
BRANCH  28  29
ATOM     29  C   UNL A   1      41.675  22.022  26.396  1.00  0.00     0.188 C 
BRANCH  29  30
ATOM     30  O   UNL A   1      42.472  21.289  25.514  1.00  0.00    -0.376 OA
BRANCH  30  31
ATOM     31  C   UNL A   1      43.631  21.985  25.065  1.00  0.00     0.202 C 
BRANCH  31  32
ATOM     32  C   UNL A   1      43.546  23.534  24.789  1.00  0.00     0.261 C 
BRANCH  32  33
ATOM     33  O   UNL A   1      44.865  24.229  25.022  1.00  0.00    -0.460 OA
BRANCH  33  34
ATOM     34  C   UNL A   1      45.942  23.719  25.744  1.00  0.00     0.338 C 
ATOM     35  O   UNL A   1      46.882  23.181  25.174  1.00  0.00    -0.246 OA
BRANCH  34  36
ATOM     36  C   UNL A   1      45.912  23.836  27.323  1.00  0.00     0.060 A 
ATOM     37  C   UNL A   1      44.940  23.277  28.151  1.00  0.00     0.016 A 
ATOM     38  C   UNL A   1      46.764  24.602  28.074  1.00  0.00     0.016 A 
ATOM     39  C   UNL A   1      44.533  23.888  29.417  1.00  0.00     0.010 A 
ATOM     40  C   UNL A   1      46.253  25.333  29.200  1.00  0.00     0.010 A 
ATOM     41  C   UNL A   1      45.012  25.132  29.850  1.00  0.00    -0.014 A 
BRANCH  41  42
ATOM     42  C   UNL A   1      44.470  26.219  30.993  1.00  0.00     0.031 A 
ATOM     43  C   UNL A   1      43.748  27.445  30.349  1.00  0.00     0.074 A 
ATOM     44  C   UNL A   1      44.277  26.001  32.391  1.00  0.00     0.049 A 
ATOM     45  N   UNL A   1      43.086  28.345  30.993  1.00  0.00    -0.248 NA
ATOM     46  C   UNL A   1      43.488  27.627  28.914  1.00  0.00     0.031 C 
ATOM     47  C   UNL A   1      43.511  26.554  33.592  1.00  0.00     0.029 A 
ATOM     48  N   UNL A   1      44.755  24.984  33.176  1.00  0.00    -0.354 N 
ATOM     49  C   UNL A   1      41.993  28.771  30.214  1.00  0.00     0.074 A 
ATOM     50  C   UNL A   1      42.351  28.345  28.890  1.00  0.00     0.031 C 
ATOM     51  C   UNL A   1      43.936  26.122  34.812  1.00  0.00     0.029 A 
ATOM     52  C   UNL A   1      45.122  25.405  34.504  1.00  0.00     0.049 A 
ATOM     53  H   UNL A   1      44.841  24.055  32.863  1.00  0.00     0.167 HD
ATOM     54  C   UNL A   1      40.875  29.296  30.843  1.00  0.00     0.037 A 
ATOM     55  C   UNL A   1      46.422  25.669  34.908  1.00  0.00     0.037 A 
ATOM     56  C   UNL A   1      41.069  29.242  32.316  1.00  0.00     0.049 A 
ATOM     57  C   UNL A   1      46.340  27.263  34.880  1.00  0.00     0.074 A 
ATOM     58  C   UNL A   1      40.409  28.716  33.414  1.00  0.00     0.029 A 
ATOM     59  N   UNL A   1      42.310  29.611  32.799  1.00  0.00    -0.354 N 
ATOM     60  N   UNL A   1      45.533  27.971  34.083  1.00  0.00    -0.248 NA
ATOM     61  C   UNL A   1      46.786  28.110  35.984  1.00  0.00     0.031 C 
ATOM     62  C   UNL A   1      41.313  28.774  34.540  1.00  0.00     0.029 A 
ATOM     63  C   UNL A   1      42.542  29.284  34.106  1.00  0.00     0.049 A 
ATOM     64  H   UNL A   1      42.978  30.072  32.242  1.00  0.00     0.167 HD
ATOM     65  C   UNL A   1      45.056  29.099  34.745  1.00  0.00     0.074 A 
ATOM     66  C   UNL A   1      46.101  29.253  35.762  1.00  0.00     0.031 C 
ATOM     67  C   UNL A   1      43.807  29.746  34.696  1.00  0.00     0.037 A 
BRANCH  54  68
ATOM     68  C   UNL A   1      39.526  29.786  30.250  1.00  0.00     0.057 A 
ATOM     69  C   UNL A   1      38.486  28.860  29.960  1.00  0.00     0.134 A 
ATOM     70  C   UNL A   1      39.139  31.119  30.005  1.00  0.00     0.134 A 
ATOM     71  F   UNL A   1      38.627  27.545  30.159  1.00  0.00    -0.206 F 
ATOM     72  C   UNL A   1      37.208  29.213  29.481  1.00  0.00     0.040 A 
ATOM     73  C   UNL A   1      37.849  31.489  29.542  1.00  0.00     0.040 A 
ATOM     74  F   UNL A   1      39.966  32.146  30.220  1.00  0.00    -0.206 F 
ATOM     75  C   UNL A   1      36.875  30.536  29.284  1.00  0.00     0.006 A 
ENDBRANCH  54  68
BRANCH  55  76
ATOM     76  C   UNL A   1      47.585  24.457  34.370  1.00  0.00     0.057 A 
ATOM     77  C   UNL A   1      49.031  24.986  33.411  1.00  0.00     0.134 A 
ATOM     78  C   UNL A   1      47.864  23.831  35.901  1.00  0.00     0.134 A 
ATOM     79  F   UNL A   1      48.773  25.721  32.310  1.00  0.00    -0.206 F 
ATOM     80  C   UNL A   1      50.708  25.243  34.057  1.00  0.00     0.040 A 
ATOM     81  C   UNL A   1      49.352  24.259  36.838  1.00  0.00     0.040 A 
ATOM     82  F   UNL A   1      46.839  23.152  36.423  1.00  0.00    -0.206 F 
ATOM     83  C   UNL A   1      50.957  24.971  35.842  1.00  0.00     0.006 A 
ENDBRANCH  55  76
BRANCH  67  84
ATOM     84  C   UNL A   1      43.738  31.208  35.037  1.00  0.00     0.057 A 
ATOM     85  C   UNL A   1      44.277  32.180  34.222  1.00  0.00     0.134 A 
ATOM     86  C   UNL A   1      43.014  31.677  36.166  1.00  0.00     0.134 A 
ATOM     87  F   UNL A   1      45.234  31.881  33.332  1.00  0.00    -0.206 F 
ATOM     88  C   UNL A   1      43.805  33.485  34.281  1.00  0.00     0.040 A 
ATOM     89  C   UNL A   1      42.634  32.996  36.308  1.00  0.00     0.040 A 
ATOM     90  F   UNL A   1      42.595  30.901  37.173  1.00  0.00    -0.206 F 
ATOM     91  C   UNL A   1      42.946  33.884  35.303  1.00  0.00     0.006 A 
ENDBRANCH  67  84
ENDBRANCH  41  42
ENDBRANCH  34  36
ENDBRANCH  33  34
ENDBRANCH  32  33
ENDBRANCH  31  32
ENDBRANCH  30  31
ENDBRANCH  29  30
ENDBRANCH  28  29
ENDBRANCH  27  28
ENDBRANCH   1  27
TORSDOF 25
ENDMDL
MODEL 3
REMARK VINA RESULT:      -8.5      5.494      8.126
REMARK SMILES CCC(CC)(NC(=O)c1cc(C)ccc1OC)C(=O)OCCOCCOCCOCCOC(=O)c1ccc(-c2c3nc(c(-c4c(F)cccc4F)c4ccc([nH]4)c(-c4c(F)cccc4F)c4nc(c(-c5c(F)cccc5F)c5ccc2[nH]5)C=C4)C=C3)cc1
REMARK SMILES IDX 25 1 24 2 23 3 22 4 21 5 20 6 18 7 19 8 3 9 2 10 1 11 4 12
REMARK SMILES IDX 5 13 6 14 7 15 8 17 9 18 10 19 15 20 11 21 14 22 12 23 13 24
REMARK SMILES IDX 16 25 17 26 26 27 27 28 28 29 29 30 30 31 31 32 32 33 33 34
REMARK SMILES IDX 34 35 35 36 36 37 88 38 37 39 87 40 38 41 39 42 40 43 81 44
REMARK SMILES IDX 41 45 86 46 80 47 82 48 42 49 85 50 79 51 78 52 43 54 69 55
REMARK SMILES IDX 52 56 68 57 53 58 56 59 67 60 83 61 54 62 55 63 66 65 84 66
REMARK SMILES IDX 57 67 44 68 45 69 50 70 46 71 47 72 49 73 51 74 48 75 70 76
REMARK SMILES IDX 71 77 76 78 72 79 73 80 75 81 77 82 74 83 58 84 59 85 64 86
REMARK SMILES IDX 60 87 61 88 63 89 65 90 62 91
REMARK H PARENT 6 16 82 53 56 64
REMARK Flexibility Score: inf
ROOT
ATOM      1  C   UNL A   1      38.607  21.026  25.705  1.00  0.00     0.188 C 
ENDROOT
BRANCH   1   2
ATOM      2  C   UNL A   1      37.252  21.670  25.430  1.00  0.00     0.188 C 
BRANCH   2   3
ATOM      3  O   UNL A   1      36.321  21.122  24.526  1.00  0.00    -0.376 OA
BRANCH   3   4
ATOM      4  C   UNL A   1      35.727  19.902  24.893  1.00  0.00     0.202 C 
BRANCH   4   5
ATOM      5  C   UNL A   1      34.246  19.854  24.900  1.00  0.00     0.261 C 
BRANCH   5   6
ATOM      6  O   UNL A   1      33.882  21.100  24.340  1.00  0.00    -0.461 OA
BRANCH   6   7
ATOM      7  C   UNL A   1      32.830  21.487  25.018  1.00  0.00     0.331 C 
ATOM      8  O   UNL A   1      31.962  20.665  25.287  1.00  0.00    -0.249 OA
BRANCH   7   9
ATOM      9  C   UNL A   1      32.879  22.976  25.385  1.00  0.00     0.137 C 
BRANCH   9  10
ATOM     10  C   UNL A   1      33.354  23.503  23.895  1.00  0.00     0.037 C 
ATOM     11  C   UNL A   1      34.579  24.516  23.821  1.00  0.00     0.007 C 
ENDBRANCH   9  10
BRANCH   9  12
ATOM     12  C   UNL A   1      34.093  23.049  26.358  1.00  0.00     0.037 C 
ATOM     13  C   UNL A   1      33.919  22.355  27.700  1.00  0.00     0.007 C 
ENDBRANCH   9  12
BRANCH   9  14
ATOM     14  N   UNL A   1      31.448  23.866  25.900  1.00  0.00    -0.336 N 
ATOM     15  C   UNL A   1      30.392  24.947  25.964  1.00  0.00     0.255 C 
ATOM     16  H   UNL A   1      31.124  23.269  26.614  1.00  0.00     0.165 HD
ATOM     17  O   UNL A   1      29.457  24.637  26.730  1.00  0.00    -0.269 OA
BRANCH  15  18
ATOM     18  C   UNL A   1      30.070  26.366  25.202  1.00  0.00     0.082 A 
ATOM     19  C   UNL A   1      28.881  26.905  23.907  1.00  0.00     0.021 A 
ATOM     20  C   UNL A   1      31.272  27.359  25.652  1.00  0.00     0.131 A 
ATOM     21  C   UNL A   1      28.837  28.574  23.119  1.00  0.00    -0.050 A 
ATOM     22  C   UNL A   1      31.395  28.996  25.047  1.00  0.00     0.047 A 
ATOM     23  C   UNL A   1      27.627  29.199  22.462  1.00  0.00     0.044 C 
ATOM     24  C   UNL A   1      30.150  29.745  23.648  1.00  0.00     0.007 A 
BRANCH  20  25
ATOM     25  O   UNL A   1      32.159  27.021  26.623  1.00  0.00    -0.496 OA
ATOM     26  C   UNL A   1      33.458  26.869  26.078  1.00  0.00     0.278 C 
ENDBRANCH  20  25
ENDBRANCH  15  18
ENDBRANCH   9  14
ENDBRANCH   7   9
ENDBRANCH   6   7
ENDBRANCH   5   6
ENDBRANCH   4   5
ENDBRANCH   3   4
ENDBRANCH   2   3
ENDBRANCH   1   2
BRANCH   1  27
ATOM     27  O   UNL A   1      39.703  21.816  26.096  1.00  0.00    -0.377 OA
BRANCH  27  28
ATOM     28  C   UNL A   1      40.483  21.417  27.177  1.00  0.00     0.188 C 
BRANCH  28  29
ATOM     29  C   UNL A   1      41.821  20.862  26.783  1.00  0.00     0.188 C 
BRANCH  29  30
ATOM     30  O   UNL A   1      42.371  21.195  25.543  1.00  0.00    -0.376 OA
BRANCH  30  31
ATOM     31  C   UNL A   1      42.918  22.509  25.487  1.00  0.00     0.202 C 
BRANCH  31  32
ATOM     32  C   UNL A   1      44.368  22.768  26.044  1.00  0.00     0.261 C 
BRANCH  32  33
ATOM     33  O   UNL A   1      45.061  23.903  25.328  1.00  0.00    -0.460 OA
BRANCH  33  34
ATOM     34  C   UNL A   1      46.387  23.911  24.901  1.00  0.00     0.338 C 
ATOM     35  O   UNL A   1      46.829  23.006  24.206  1.00  0.00    -0.246 OA
BRANCH  34  36
ATOM     36  C   UNL A   1      47.315  25.112  25.353  1.00  0.00     0.060 A 
ATOM     37  C   UNL A   1      47.695  25.382  26.666  1.00  0.00     0.016 A 
ATOM     38  C   UNL A   1      47.765  26.114  24.533  1.00  0.00     0.016 A 
ATOM     39  C   UNL A   1      47.946  26.740  27.153  1.00  0.00     0.010 A 
ATOM     40  C   UNL A   1      47.803  27.463  25.021  1.00  0.00     0.010 A 
ATOM     41  C   UNL A   1      47.727  27.882  26.371  1.00  0.00    -0.014 A 
BRANCH  41  42
ATOM     42  C   UNL A   1      47.552  29.496  26.748  1.00  0.00     0.031 A 
ATOM     43  C   UNL A   1      48.926  30.212  26.943  1.00  0.00     0.074 A 
ATOM     44  C   UNL A   1      46.401  30.321  26.565  1.00  0.00     0.049 A 
ATOM     45  N   UNL A   1      49.095  31.484  27.070  1.00  0.00    -0.248 NA
ATOM     46  C   UNL A   1      50.247  29.593  26.755  1.00  0.00     0.031 C 
ATOM     47  C   UNL A   1      45.990  31.787  26.431  1.00  0.00     0.029 A 
ATOM     48  N   UNL A   1      45.103  29.946  26.331  1.00  0.00    -0.354 N 
ATOM     49  C   UNL A   1      50.305  31.861  26.457  1.00  0.00     0.074 A 
ATOM     50  C   UNL A   1      51.018  30.618  26.355  1.00  0.00     0.031 C 
ATOM     51  C   UNL A   1      44.658  32.041  26.567  1.00  0.00     0.029 A 
ATOM     52  C   UNL A   1      44.132  30.789  26.981  1.00  0.00     0.049 A 
ATOM     53  H   UNL A   1      44.857  29.174  25.772  1.00  0.00     0.167 HD
ATOM     54  C   UNL A   1      50.457  33.159  25.995  1.00  0.00     0.037 A 
ATOM     55  C   UNL A   1      43.493  30.469  28.169  1.00  0.00     0.037 A 
ATOM     56  C   UNL A   1      49.193  33.910  26.218  1.00  0.00     0.049 A 
ATOM     57  C   UNL A   1      44.341  31.417  29.135  1.00  0.00     0.074 A 
ATOM     58  C   UNL A   1      48.288  34.634  25.459  1.00  0.00     0.029 A 
ATOM     59  N   UNL A   1      48.564  33.731  27.435  1.00  0.00    -0.354 N 
ATOM     60  N   UNL A   1      45.607  31.788  28.920  1.00  0.00    -0.248 NA
ATOM     61  C   UNL A   1      43.733  32.327  30.104  1.00  0.00     0.031 C 
ATOM     62  C   UNL A   1      47.110  34.849  26.268  1.00  0.00     0.029 A 
ATOM     63  C   UNL A   1      47.283  34.205  27.499  1.00  0.00     0.049 A 
ATOM     64  H   UNL A   1      49.005  33.294  28.199  1.00  0.00     0.167 HD
ATOM     65  C   UNL A   1      45.811  33.101  29.336  1.00  0.00     0.074 A 
ATOM     66  C   UNL A   1      44.719  33.228  30.306  1.00  0.00     0.031 C 
ATOM     67  C   UNL A   1      46.607  34.131  28.802  1.00  0.00     0.037 A 
BRANCH  54  68
ATOM     68  C   UNL A   1      51.640  33.826  25.243  1.00  0.00     0.057 A 
ATOM     69  C   UNL A   1      52.242  35.011  25.749  1.00  0.00     0.134 A 
ATOM     70  C   UNL A   1      52.287  33.351  24.084  1.00  0.00     0.134 A 
ATOM     71  F   UNL A   1      51.809  35.608  26.865  1.00  0.00    -0.206 F 
ATOM     72  C   UNL A   1      53.357  35.653  25.176  1.00  0.00     0.040 A 
ATOM     73  C   UNL A   1      53.424  33.977  23.508  1.00  0.00     0.040 A 
ATOM     74  F   UNL A   1      51.885  32.244  23.453  1.00  0.00    -0.206 F 
ATOM     75  C   UNL A   1      53.967  35.129  24.056  1.00  0.00     0.006 A 
ENDBRANCH  54  68
BRANCH  55  76
ATOM     76  C   UNL A   1      42.911  28.806  28.229  1.00  0.00     0.057 A 
ATOM     77  C   UNL A   1      44.006  27.510  28.871  1.00  0.00     0.134 A 
ATOM     78  C   UNL A   1      41.535  29.164  29.120  1.00  0.00     0.134 A 
ATOM     79  F   UNL A   1      45.220  27.424  28.293  1.00  0.00    -0.206 F 
ATOM     80  C   UNL A   1      43.965  26.808  30.545  1.00  0.00     0.040 A 
ATOM     81  C   UNL A   1      41.451  28.831  30.897  1.00  0.00     0.040 A 
ATOM     82  F   UNL A   1      40.604  29.857  28.458  1.00  0.00    -0.206 F 
ATOM     83  C   UNL A   1      42.727  27.487  31.697  1.00  0.00     0.006 A 
ENDBRANCH  55  76
BRANCH  67  84
ATOM     84  C   UNL A   1      47.091  35.218  29.721  1.00  0.00     0.057 A 
ATOM     85  C   UNL A   1      48.245  35.094  30.464  1.00  0.00     0.134 A 
ATOM     86  C   UNL A   1      46.444  36.481  29.788  1.00  0.00     0.134 A 
ATOM     87  F   UNL A   1      48.760  33.888  30.741  1.00  0.00    -0.206 F 
ATOM     88  C   UNL A   1      48.920  36.225  30.903  1.00  0.00     0.040 A 
ATOM     89  C   UNL A   1      47.048  37.597  30.329  1.00  0.00     0.040 A 
ATOM     90  F   UNL A   1      45.220  36.731  29.307  1.00  0.00    -0.206 F 
ATOM     91  C   UNL A   1      48.338  37.486  30.797  1.00  0.00     0.006 A 
ENDBRANCH  67  84
ENDBRANCH  41  42
ENDBRANCH  34  36
ENDBRANCH  33  34
ENDBRANCH  32  33
ENDBRANCH  31  32
ENDBRANCH  30  31
ENDBRANCH  29  30
ENDBRANCH  28  29
ENDBRANCH  27  28
ENDBRANCH   1  27
TORSDOF 25
ENDMDL
