MODEL 1
REMARK VINA RESULT:     -12.6      0.000      0.000
REMARK SMILES Cc1ccc(C(=O)N2C[C@@H](C(=O)OCCOCCOCCOCCOC(=O)c3ccc(-c4c5nc(c(-c6c(F)cccc6F)c6ccc([nH]6)c(-c6c(F)cccc6F)c6nc(c(-c7c(F)cccc7F)c7ccc4[nH]7)C=C6)C=C5)cc3)C[C@H](C(=O)N3CCOCC3)C2)cc1F
REMARK SMILES IDX 19 1 18 2 17 3 16 4 15 5 14 6 13 7 11 8 12 9 10 10 8 11 9 12
REMARK SMILES IDX 92 13 83 14 82 15 6 16 7 17 5 18 1 19 2 20 3 21 94 22 4 23
REMARK SMILES IDX 93 24 95 25 84 26 85 27 86 28 87 29 91 30 88 31 90 32 89 33
REMARK SMILES IDX 20 34 21 35 22 36 23 37 24 38 25 39 26 40 27 41 28 42 29 43
REMARK SMILES IDX 81 44 30 45 80 46 31 47 32 48 33 49 74 50 34 51 79 52 73 53
REMARK SMILES IDX 75 54 35 55 78 56 72 57 71 58 36 60 62 61 45 62 61 63 46 64
REMARK SMILES IDX 49 65 60 66 76 67 47 68 48 69 59 71 77 72 50 73 37 74 38 75
REMARK SMILES IDX 43 76 39 77 40 78 42 79 44 80 41 81 63 82 64 83 69 84 65 85
REMARK SMILES IDX 66 86 68 87 70 88 67 89 51 90 52 91 57 92 53 93 54 94 56 95
REMARK SMILES IDX 58 96 55 97
REMARK H PARENT 75 59 49 70
REMARK Flexibility Score: inf
ROOT
ATOM      1  O   UNL A   1      41.602  18.989  25.533  1.00  0.00    -0.377 OA
ENDROOT
BRANCH   1   2
ATOM      2  C   UNL A   1      40.615  19.599  26.343  1.00  0.00     0.188 C 
BRANCH   2   3
ATOM      3  C   UNL A   1      40.928  20.932  27.027  1.00  0.00     0.188 C 
BRANCH   3   4
ATOM      4  O   UNL A   1      40.692  22.073  26.244  1.00  0.00    -0.376 OA
BRANCH   4   5
ATOM      5  C   UNL A   1      39.395  22.595  26.015  1.00  0.00     0.202 C 
BRANCH   5   6
ATOM      6  C   UNL A   1      38.103  21.793  25.726  1.00  0.00     0.261 C 
BRANCH   6   7
ATOM      7  O   UNL A   1      37.734  21.501  24.371  1.00  0.00    -0.463 OA
BRANCH   7   8
ATOM      8  C   UNL A   1      36.702  22.242  23.932  1.00  0.00     0.310 C 
ATOM      9  O   UNL A   1      36.823  23.152  23.112  1.00  0.00    -0.252 OA
BRANCH   8  10
ATOM     10  C   UNL A   1      35.347  21.927  24.508  1.00  0.00     0.119 C 
ATOM     11  N   UNL A   1      33.328  23.093  25.080  1.00  0.00    -0.337 N 
ATOM     12  C   UNL A   1      34.771  23.218  25.018  1.00  0.00     0.135 C 
ATOM     13  C   UNL A   1      32.757  21.990  25.861  1.00  0.00     0.133 C 
ATOM     14  C   UNL A   1      33.457  20.640  25.606  1.00  0.00     0.099 C 
ATOM     15  C   UNL A   1      34.989  20.805  25.484  1.00  0.00     0.032 C 
BRANCH  11  16
ATOM     16  C   UNL A   1      32.587  24.017  24.373  1.00  0.00     0.254 C 
ATOM     17  O   UNL A   1      31.984  23.752  23.339  1.00  0.00    -0.269 OA
BRANCH  16  18
ATOM     18  C   UNL A   1      32.716  25.426  24.780  1.00  0.00     0.042 A 
ATOM     19  C   UNL A   1      33.949  29.200  26.359  1.00  0.00     0.047 C 
ATOM     20  C   UNL A   1      33.434  27.916  25.788  1.00  0.00    -0.015 A 
ATOM     21  C   UNL A   1      32.681  27.044  26.577  1.00  0.00     0.007 A 
ATOM     22  C   UNL A   1      33.777  27.544  24.482  1.00  0.00     0.126 A 
ATOM     23  C   UNL A   1      32.331  25.796  26.077  1.00  0.00     0.014 A 
ATOM     24  C   UNL A   1      33.431  26.303  23.970  1.00  0.00     0.053 A 
ATOM     25  F   UNL A   1      34.507  28.373  23.724  1.00  0.00    -0.207 F 
ENDBRANCH  16  18
ENDBRANCH  11  16
BRANCH  14  26
ATOM     26  C   UNL A   1      32.660  19.814  24.555  1.00  0.00     0.227 C 
ATOM     27  O   UNL A   1      32.041  20.419  23.674  1.00  0.00    -0.275 OA
ATOM     28  N   UNL A   1      32.875  18.457  24.437  1.00  0.00    -0.338 N 
ATOM     29  C   UNL A   1      32.334  17.434  25.333  1.00  0.00     0.148 C 
ATOM     30  C   UNL A   1      33.167  17.893  23.120  1.00  0.00     0.148 C 
ATOM     31  C   UNL A   1      33.339  16.279  25.465  1.00  0.00     0.181 C 
ATOM     32  C   UNL A   1      34.154  16.730  23.286  1.00  0.00     0.181 C 
ATOM     33  O   UNL A   1      33.623  15.723  24.169  1.00  0.00    -0.378 OA
ENDBRANCH  14  26
ENDBRANCH   8  10
ENDBRANCH   7   8
ENDBRANCH   6   7
ENDBRANCH   5   6
ENDBRANCH   4   5
ENDBRANCH   3   4
ENDBRANCH   2   3
ENDBRANCH   1   2
BRANCH   1  34
ATOM     34  C   UNL A   1      42.968  19.129  25.894  1.00  0.00     0.188 C 
BRANCH  34  35
ATOM     35  C   UNL A   1      44.085  18.719  24.907  1.00  0.00     0.188 C 
BRANCH  35  36
ATOM     36  O   UNL A   1      45.269  18.204  25.500  1.00  0.00    -0.376 OA
BRANCH  36  37
ATOM     37  C   UNL A   1      46.466  18.966  25.474  1.00  0.00     0.202 C 
BRANCH  37  38
ATOM     38  C   UNL A   1      46.516  20.279  24.671  1.00  0.00     0.261 C 
BRANCH  38  39
ATOM     39  O   UNL A   1      46.396  21.475  25.429  1.00  0.00    -0.460 OA
BRANCH  39  40
ATOM     40  C   UNL A   1      45.781  22.468  24.776  1.00  0.00     0.338 C 
ATOM     41  O   UNL A   1      46.312  23.280  24.015  1.00  0.00    -0.246 OA
BRANCH  40  42
ATOM     42  C   UNL A   1      44.340  22.502  25.102  1.00  0.00     0.060 A 
ATOM     43  C   UNL A   1      43.708  23.549  24.414  1.00  0.00     0.016 A 
ATOM     44  C   UNL A   1      44.177  22.304  26.470  1.00  0.00     0.016 A 
ATOM     45  C   UNL A   1      43.479  24.694  25.134  1.00  0.00     0.010 A 
ATOM     46  C   UNL A   1      43.975  23.440  27.193  1.00  0.00     0.010 A 
ATOM     47  C   UNL A   1      43.744  24.635  26.500  1.00  0.00    -0.014 A 
BRANCH  47  48
ATOM     48  C   UNL A   1      43.688  25.798  27.331  1.00  0.00     0.031 A 
ATOM     49  C   UNL A   1      42.369  26.430  27.390  1.00  0.00     0.074 A 
ATOM     50  C   UNL A   1      44.788  26.195  28.000  1.00  0.00     0.049 A 
ATOM     51  N   UNL A   1      42.175  27.696  27.449  1.00  0.00    -0.248 NA
ATOM     52  C   UNL A   1      41.132  25.658  27.228  1.00  0.00     0.031 C 
ATOM     53  C   UNL A   1      44.836  27.125  29.116  1.00  0.00     0.029 A 
ATOM     54  N   UNL A   1      46.129  25.891  27.798  1.00  0.00    -0.354 N 
ATOM     55  C   UNL A   1      40.840  27.856  27.738  1.00  0.00     0.074 A 
ATOM     56  C   UNL A   1      40.209  26.609  27.389  1.00  0.00     0.031 C 
ATOM     57  C   UNL A   1      46.107  27.523  29.296  1.00  0.00     0.029 A 
ATOM     58  C   UNL A   1      46.891  26.990  28.194  1.00  0.00     0.049 A 
ATOM     59  H   UNL A   1      46.482  25.044  27.436  1.00  0.00     0.167 HD
ATOM     60  C   UNL A   1      40.462  28.923  28.493  1.00  0.00     0.037 A 
ATOM     61  C   UNL A   1      47.634  27.766  27.349  1.00  0.00     0.037 A 
ATOM     62  C   UNL A   1      41.641  29.690  28.883  1.00  0.00     0.049 A 
ATOM     63  C   UNL A   1      47.122  29.187  27.261  1.00  0.00     0.074 A 
ATOM     64  C   UNL A   1      42.445  29.605  30.010  1.00  0.00     0.029 A 
ATOM     65  N   UNL A   1      42.379  30.368  27.923  1.00  0.00    -0.354 N 
ATOM     66  N   UNL A   1      45.894  29.529  27.539  1.00  0.00    -0.248 NA
ATOM     67  C   UNL A   1      47.943  30.327  26.865  1.00  0.00     0.031 C 
ATOM     68  C   UNL A   1      43.673  30.246  29.724  1.00  0.00     0.029 A 
ATOM     69  C   UNL A   1      43.618  30.720  28.425  1.00  0.00     0.049 A 
ATOM     70  H   UNL A   1      42.065  30.570  27.012  1.00  0.00     0.167 HD
ATOM     71  C   UNL A   1      45.748  30.884  27.394  1.00  0.00     0.074 A 
ATOM     72  C   UNL A   1      47.065  31.338  26.986  1.00  0.00     0.031 C 
ATOM     73  C   UNL A   1      44.552  31.503  27.630  1.00  0.00     0.037 A 
BRANCH  60  74
ATOM     74  C   UNL A   1      39.131  29.017  29.188  1.00  0.00     0.057 A 
ATOM     75  C   UNL A   1      38.002  29.513  28.509  1.00  0.00     0.134 A 
ATOM     76  C   UNL A   1      38.898  28.652  30.525  1.00  0.00     0.134 A 
ATOM     77  F   UNL A   1      38.040  29.830  27.208  1.00  0.00    -0.206 F 
ATOM     78  C   UNL A   1      36.766  29.712  29.130  1.00  0.00     0.040 A 
ATOM     79  C   UNL A   1      37.676  28.886  31.173  1.00  0.00     0.040 A 
ATOM     80  F   UNL A   1      39.829  28.017  31.250  1.00  0.00    -0.206 F 
ATOM     81  C   UNL A   1      36.605  29.425  30.474  1.00  0.00     0.006 A 
ENDBRANCH  60  74
BRANCH  61  82
ATOM     82  C   UNL A   1      48.259  27.036  26.226  1.00  0.00     0.057 A 
ATOM     83  C   UNL A   1      47.596  27.058  24.989  1.00  0.00     0.134 A 
ATOM     84  C   UNL A   1      49.619  26.719  26.235  1.00  0.00     0.134 A 
ATOM     85  F   UNL A   1      46.281  27.322  24.932  1.00  0.00    -0.206 F 
ATOM     86  C   UNL A   1      48.289  26.928  23.789  1.00  0.00     0.040 A 
ATOM     87  C   UNL A   1      50.324  26.583  25.040  1.00  0.00     0.040 A 
ATOM     88  F   UNL A   1      50.307  26.668  27.385  1.00  0.00    -0.206 F 
ATOM     89  C   UNL A   1      49.663  26.717  23.818  1.00  0.00     0.006 A 
ENDBRANCH  61  82
BRANCH  73  90
ATOM     90  C   UNL A   1      44.160  32.917  27.252  1.00  0.00     0.057 A 
ATOM     91  C   UNL A   1      43.886  33.349  25.950  1.00  0.00     0.134 A 
ATOM     92  C   UNL A   1      43.912  33.889  28.256  1.00  0.00     0.134 A 
ATOM     93  F   UNL A   1      43.937  32.520  24.901  1.00  0.00    -0.206 F 
ATOM     94  C   UNL A   1      43.475  34.658  25.658  1.00  0.00     0.040 A 
ATOM     95  C   UNL A   1      43.427  35.169  27.983  1.00  0.00     0.040 A 
ATOM     96  F   UNL A   1      44.102  33.642  29.559  1.00  0.00    -0.206 F 
ATOM     97  C   UNL A   1      43.229  35.568  26.675  1.00  0.00     0.006 A 
ENDBRANCH  73  90
ENDBRANCH  47  48
ENDBRANCH  40  42
ENDBRANCH  39  40
ENDBRANCH  38  39
ENDBRANCH  37  38
ENDBRANCH  36  37
ENDBRANCH  35  36
ENDBRANCH  34  35
ENDBRANCH   1  34
TORSDOF 23
ENDMDL
MODEL 2
REMARK VINA RESULT:     -12.2      1.588      4.139
REMARK SMILES Cc1ccc(C(=O)N2C[C@@H](C(=O)OCCOCCOCCOCCOC(=O)c3ccc(-c4c5nc(c(-c6c(F)cccc6F)c6ccc([nH]6)c(-c6c(F)cccc6F)c6nc(c(-c7c(F)cccc7F)c7ccc4[nH]7)C=C6)C=C5)cc3)C[C@H](C(=O)N3CCOCC3)C2)cc1F
REMARK SMILES IDX 19 1 18 2 17 3 16 4 15 5 14 6 13 7 11 8 12 9 10 10 8 11 9 12
REMARK SMILES IDX 92 13 83 14 82 15 6 16 7 17 5 18 1 19 2 20 3 21 94 22 4 23
REMARK SMILES IDX 93 24 95 25 84 26 85 27 86 28 87 29 91 30 88 31 90 32 89 33
REMARK SMILES IDX 20 34 21 35 22 36 23 37 24 38 25 39 26 40 27 41 28 42 29 43
REMARK SMILES IDX 81 44 30 45 80 46 31 47 32 48 33 49 74 50 34 51 79 52 73 53
REMARK SMILES IDX 75 54 35 55 78 56 72 57 71 58 36 60 62 61 45 62 61 63 46 64
REMARK SMILES IDX 49 65 60 66 76 67 47 68 48 69 59 71 77 72 50 73 37 74 38 75
REMARK SMILES IDX 43 76 39 77 40 78 42 79 44 80 41 81 63 82 64 83 69 84 65 85
REMARK SMILES IDX 66 86 68 87 70 88 67 89 51 90 52 91 57 92 53 93 54 94 56 95
REMARK SMILES IDX 58 96 55 97
REMARK H PARENT 75 59 49 70
REMARK Flexibility Score: inf
ROOT
ATOM      1  O   UNL A   1      41.810  20.132  25.615  1.00  0.00    -0.377 OA
ENDROOT
BRANCH   1   2
ATOM      2  C   UNL A   1      40.664  20.256  26.436  1.00  0.00     0.188 C 
BRANCH   2   3
ATOM      3  C   UNL A   1      40.518  21.486  27.335  1.00  0.00     0.188 C 
BRANCH   3   4
ATOM      4  O   UNL A   1      39.859  22.578  26.748  1.00  0.00    -0.376 OA
BRANCH   4   5
ATOM      5  C   UNL A   1      38.651  22.448  26.019  1.00  0.00     0.202 C 
BRANCH   5   6
ATOM      6  C   UNL A   1      37.680  23.582  25.611  1.00  0.00     0.261 C 
BRANCH   6   7
ATOM      7  O   UNL A   1      36.291  23.291  25.404  1.00  0.00    -0.463 OA
BRANCH   7   8
ATOM      8  C   UNL A   1      35.904  23.443  24.125  1.00  0.00     0.310 C 
ATOM      9  O   UNL A   1      36.689  23.447  23.177  1.00  0.00    -0.252 OA
BRANCH   8  10
ATOM     10  C   UNL A   1      34.431  23.633  23.880  1.00  0.00     0.119 C 
ATOM     11  N   UNL A   1      32.431  22.305  23.863  1.00  0.00    -0.337 N 
ATOM     12  C   UNL A   1      33.853  22.278  23.581  1.00  0.00     0.135 C 
ATOM     13  C   UNL A   1      31.606  23.318  23.197  1.00  0.00     0.133 C 
ATOM     14  C   UNL A   1      32.239  24.724  23.216  1.00  0.00     0.099 C 
ATOM     15  C   UNL A   1      33.764  24.667  22.971  1.00  0.00     0.032 C 
BRANCH  11  16
ATOM     16  C   UNL A   1      31.954  21.378  24.768  1.00  0.00     0.254 C 
ATOM     17  O   UNL A   1      31.278  21.676  25.747  1.00  0.00    -0.269 OA
BRANCH  16  18
ATOM     18  C   UNL A   1      32.473  20.006  24.651  1.00  0.00     0.042 A 
ATOM     19  C   UNL A   1      33.037  15.772  24.523  1.00  0.00     0.047 C 
ATOM     20  C   UNL A   1      32.931  17.264  24.564  1.00  0.00    -0.015 A 
ATOM     21  C   UNL A   1      33.082  17.951  25.770  1.00  0.00     0.007 A 
ATOM     22  C   UNL A   1      32.598  17.974  23.403  1.00  0.00     0.126 A 
ATOM     23  C   UNL A   1      32.843  19.318  25.816  1.00  0.00     0.014 A 
ATOM     24  C   UNL A   1      32.361  19.339  23.434  1.00  0.00     0.053 A 
ATOM     25  F   UNL A   1      32.444  17.319  22.244  1.00  0.00    -0.207 F 
ENDBRANCH  16  18
ENDBRANCH  11  16
BRANCH  14  26
ATOM     26  C   UNL A   1      31.653  25.559  24.391  1.00  0.00     0.227 C 
ATOM     27  O   UNL A   1      30.799  25.038  25.117  1.00  0.00    -0.275 OA
ATOM     28  N   UNL A   1      32.271  26.726  24.785  1.00  0.00    -0.338 N 
ATOM     29  C   UNL A   1      32.162  28.015  24.100  1.00  0.00     0.148 C 
ATOM     30  C   UNL A   1      32.608  26.914  26.196  1.00  0.00     0.148 C 
ATOM     31  C   UNL A   1      33.487  28.782  24.228  1.00  0.00     0.181 C 
ATOM     32  C   UNL A   1      33.921  27.702  26.292  1.00  0.00     0.181 C 
ATOM     33  O   UNL A   1      33.815  28.970  25.616  1.00  0.00    -0.378 OA
ENDBRANCH  14  26
ENDBRANCH   8  10
ENDBRANCH   7   8
ENDBRANCH   6   7
ENDBRANCH   5   6
ENDBRANCH   4   5
ENDBRANCH   3   4
ENDBRANCH   2   3
ENDBRANCH   1   2
BRANCH   1  34
ATOM     34  C   UNL A   1      42.686  19.032  25.822  1.00  0.00     0.188 C 
BRANCH  34  35
ATOM     35  C   UNL A   1      43.906  18.819  24.898  1.00  0.00     0.188 C 
BRANCH  35  36
ATOM     36  O   UNL A   1      45.050  18.245  25.515  1.00  0.00    -0.376 OA
BRANCH  36  37
ATOM     37  C   UNL A   1      46.284  18.947  25.513  1.00  0.00     0.202 C 
BRANCH  37  38
ATOM     38  C   UNL A   1      46.417  20.254  24.711  1.00  0.00     0.261 C 
BRANCH  38  39
ATOM     39  O   UNL A   1      46.364  21.456  25.469  1.00  0.00    -0.460 OA
BRANCH  39  40
ATOM     40  C   UNL A   1      45.767  22.469  24.833  1.00  0.00     0.338 C 
ATOM     41  O   UNL A   1      46.313  23.291  24.094  1.00  0.00    -0.246 OA
BRANCH  40  42
ATOM     42  C   UNL A   1      44.324  22.515  25.149  1.00  0.00     0.060 A 
ATOM     43  C   UNL A   1      43.706  23.570  24.460  1.00  0.00     0.016 A 
ATOM     44  C   UNL A   1      44.149  22.311  26.514  1.00  0.00     0.016 A 
ATOM     45  C   UNL A   1      43.481  24.713  25.184  1.00  0.00     0.010 A 
ATOM     46  C   UNL A   1      43.951  23.446  27.241  1.00  0.00     0.010 A 
ATOM     47  C   UNL A   1      43.736  24.646  26.552  1.00  0.00    -0.014 A 
BRANCH  47  48
ATOM     48  C   UNL A   1      43.683  25.806  27.387  1.00  0.00     0.031 A 
ATOM     49  C   UNL A   1      42.364  26.438  27.454  1.00  0.00     0.074 A 
ATOM     50  C   UNL A   1      44.786  26.200  28.053  1.00  0.00     0.049 A 
ATOM     51  N   UNL A   1      42.171  27.704  27.519  1.00  0.00    -0.248 NA
ATOM     52  C   UNL A   1      41.126  25.667  27.295  1.00  0.00     0.031 C 
ATOM     53  C   UNL A   1      44.839  27.126  29.172  1.00  0.00     0.029 A 
ATOM     54  N   UNL A   1      46.126  25.896  27.844  1.00  0.00    -0.354 N 
ATOM     55  C   UNL A   1      40.837  27.863  27.814  1.00  0.00     0.074 A 
ATOM     56  C   UNL A   1      40.204  26.617  27.463  1.00  0.00     0.031 C 
ATOM     57  C   UNL A   1      46.111  27.523  29.349  1.00  0.00     0.029 A 
ATOM     58  C   UNL A   1      46.890  26.994  28.242  1.00  0.00     0.049 A 
ATOM     59  H   UNL A   1      46.477  25.051  27.478  1.00  0.00     0.167 HD
ATOM     60  C   UNL A   1      40.463  28.927  28.575  1.00  0.00     0.037 A 
ATOM     61  C   UNL A   1      47.630  27.773  27.397  1.00  0.00     0.037 A 
ATOM     62  C   UNL A   1      41.644  29.692  28.962  1.00  0.00     0.049 A 
ATOM     63  C   UNL A   1      47.117  29.194  27.316  1.00  0.00     0.074 A 
ATOM     64  C   UNL A   1      42.452  29.603  30.086  1.00  0.00     0.029 A 
ATOM     65  N   UNL A   1      42.378  30.374  28.002  1.00  0.00    -0.354 N 
ATOM     66  N   UNL A   1      45.891  29.535  27.600  1.00  0.00    -0.248 NA
ATOM     67  C   UNL A   1      47.937  30.335  26.921  1.00  0.00     0.031 C 
ATOM     68  C   UNL A   1      43.679  30.245  29.798  1.00  0.00     0.029 A 
ATOM     69  C   UNL A   1      43.619  30.724  28.501  1.00  0.00     0.049 A 
ATOM     70  H   UNL A   1      42.060  30.579  27.093  1.00  0.00     0.167 HD
ATOM     71  C   UNL A   1      45.745  30.891  27.461  1.00  0.00     0.074 A 
ATOM     72  C   UNL A   1      47.060  31.347  27.049  1.00  0.00     0.031 C 
ATOM     73  C   UNL A   1      44.550  31.509  27.705  1.00  0.00     0.037 A 
BRANCH  60  74
ATOM     74  C   UNL A   1      39.135  29.018  29.276  1.00  0.00     0.057 A 
ATOM     75  C   UNL A   1      37.998  29.498  28.597  1.00  0.00     0.134 A 
ATOM     76  C   UNL A   1      38.912  28.667  30.618  1.00  0.00     0.134 A 
ATOM     77  F   UNL A   1      38.028  29.801  27.293  1.00  0.00    -0.206 F 
ATOM     78  C   UNL A   1      36.764  29.695  29.222  1.00  0.00     0.040 A 
ATOM     79  C   UNL A   1      37.691  28.900  31.270  1.00  0.00     0.040 A 
ATOM     80  F   UNL A   1      39.851  28.047  31.345  1.00  0.00    -0.206 F 
ATOM     81  C   UNL A   1      36.612  29.422  30.570  1.00  0.00     0.006 A 
ENDBRANCH  60  74
BRANCH  61  82
ATOM     82  C   UNL A   1      48.250  27.047  26.268  1.00  0.00     0.057 A 
ATOM     83  C   UNL A   1      47.585  27.079  25.032  1.00  0.00     0.134 A 
ATOM     84  C   UNL A   1      49.609  26.724  26.273  1.00  0.00     0.134 A 
ATOM     85  F   UNL A   1      46.272  27.350  24.979  1.00  0.00    -0.206 F 
ATOM     86  C   UNL A   1      48.276  26.954  23.830  1.00  0.00     0.040 A 
ATOM     87  C   UNL A   1      50.311  26.592  25.077  1.00  0.00     0.040 A 
ATOM     88  F   UNL A   1      50.298  26.663  27.422  1.00  0.00    -0.206 F 
ATOM     89  C   UNL A   1      49.649  26.737  23.857  1.00  0.00     0.006 A 
ENDBRANCH  61  82
BRANCH  73  90
ATOM     90  C   UNL A   1      44.157  32.925  27.334  1.00  0.00     0.057 A 
ATOM     91  C   UNL A   1      43.958  33.382  26.026  1.00  0.00     0.134 A 
ATOM     92  C   UNL A   1      43.828  33.869  28.341  1.00  0.00     0.134 A 
ATOM     93  F   UNL A   1      44.091  32.579  24.964  1.00  0.00    -0.206 F 
ATOM     94  C   UNL A   1      43.542  34.690  25.737  1.00  0.00     0.040 A 
ATOM     95  C   UNL A   1      43.337  35.147  28.065  1.00  0.00     0.040 A 
ATOM     96  F   UNL A   1      43.938  33.595  29.648  1.00  0.00    -0.206 F 
ATOM     97  C   UNL A   1      43.216  35.573  26.756  1.00  0.00     0.006 A 
ENDBRANCH  73  90
ENDBRANCH  47  48
ENDBRANCH  40  42
ENDBRANCH  39  40
ENDBRANCH  38  39
ENDBRANCH  37  38
ENDBRANCH  36  37
ENDBRANCH  35  36
ENDBRANCH  34  35
ENDBRANCH   1  34
TORSDOF 23
ENDMDL
MODEL 3
REMARK VINA RESULT:     -11.4      4.894     10.644
REMARK SMILES Cc1ccc(C(=O)N2C[C@@H](C(=O)OCCOCCOCCOCCOC(=O)c3ccc(-c4c5nc(c(-c6c(F)cccc6F)c6ccc([nH]6)c(-c6c(F)cccc6F)c6nc(c(-c7c(F)cccc7F)c7ccc4[nH]7)C=C6)C=C5)cc3)C[C@H](C(=O)N3CCOCC3)C2)cc1F
REMARK SMILES IDX 19 1 18 2 17 3 16 4 15 5 14 6 13 7 11 8 12 9 10 10 8 11 9 12
REMARK SMILES IDX 92 13 83 14 82 15 6 16 7 17 5 18 1 19 2 20 3 21 94 22 4 23
REMARK SMILES IDX 93 24 95 25 84 26 85 27 86 28 87 29 91 30 88 31 90 32 89 33
REMARK SMILES IDX 20 34 21 35 22 36 23 37 24 38 25 39 26 40 27 41 28 42 29 43
REMARK SMILES IDX 81 44 30 45 80 46 31 47 32 48 33 49 74 50 34 51 79 52 73 53
REMARK SMILES IDX 75 54 35 55 78 56 72 57 71 58 36 60 62 61 45 62 61 63 46 64
REMARK SMILES IDX 49 65 60 66 76 67 47 68 48 69 59 71 77 72 50 73 37 74 38 75
REMARK SMILES IDX 43 76 39 77 40 78 42 79 44 80 41 81 63 82 64 83 69 84 65 85
REMARK SMILES IDX 66 86 68 87 70 88 67 89 51 90 52 91 57 92 53 93 54 94 56 95
REMARK SMILES IDX 58 96 55 97
REMARK H PARENT 75 59 49 70
REMARK Flexibility Score: inf
ROOT
ATOM      1  O   UNL A   1      33.652  35.753  30.030  1.00  0.00    -0.377 OA
ENDROOT
BRANCH   1   2
ATOM      2  C   UNL A   1      33.026  34.805  29.186  1.00  0.00     0.188 C 
BRANCH   2   3
ATOM      3  C   UNL A   1      33.862  34.072  28.135  1.00  0.00     0.188 C 
BRANCH   3   4
ATOM      4  O   UNL A   1      33.326  32.852  27.693  1.00  0.00    -0.376 OA
BRANCH   4   5
ATOM      5  C   UNL A   1      34.035  31.627  27.763  1.00  0.00     0.202 C 
BRANCH   5   6
ATOM      6  C   UNL A   1      33.500  30.217  27.414  1.00  0.00     0.261 C 
BRANCH   6   7
ATOM      7  O   UNL A   1      32.086  29.988  27.351  1.00  0.00    -0.463 OA
BRANCH   7   8
ATOM      8  C   UNL A   1      31.769  28.716  27.051  1.00  0.00     0.310 C 
ATOM      9  O   UNL A   1      31.637  27.834  27.900  1.00  0.00    -0.252 OA
BRANCH   8  10
ATOM     10  C   UNL A   1      31.590  28.387  25.594  1.00  0.00     0.119 C 
ATOM     11  N   UNL A   1      31.930  26.521  24.122  1.00  0.00    -0.337 N 
ATOM     12  C   UNL A   1      32.448  27.188  25.300  1.00  0.00     0.135 C 
ATOM     13  C   UNL A   1      31.784  27.299  22.888  1.00  0.00     0.133 C 
ATOM     14  C   UNL A   1      31.140  28.680  23.114  1.00  0.00     0.099 C 
ATOM     15  C   UNL A   1      31.662  29.349  24.407  1.00  0.00     0.032 C 
BRANCH  11  16
ATOM     16  C   UNL A   1      31.586  25.191  24.255  1.00  0.00     0.254 C 
ATOM     17  O   UNL A   1      30.427  24.795  24.316  1.00  0.00    -0.269 OA
BRANCH  16  18
ATOM     18  C   UNL A   1      32.677  24.247  24.550  1.00  0.00     0.042 A 
ATOM     19  C   UNL A   1      35.303  20.889  24.843  1.00  0.00     0.047 C 
ATOM     20  C   UNL A   1      34.434  22.107  24.806  1.00  0.00    -0.015 A 
ATOM     21  C   UNL A   1      33.399  22.265  25.731  1.00  0.00     0.007 A 
ATOM     22  C   UNL A   1      34.602  23.056  23.790  1.00  0.00     0.126 A 
ATOM     23  C   UNL A   1      32.516  23.328  25.596  1.00  0.00     0.014 A 
ATOM     24  C   UNL A   1      33.730  24.124  23.648  1.00  0.00     0.053 A 
ATOM     25  F   UNL A   1      35.588  22.905  22.896  1.00  0.00    -0.207 F 
ENDBRANCH  16  18
ENDBRANCH  11  16
BRANCH  14  26
ATOM     26  C   UNL A   1      29.615  28.617  22.812  1.00  0.00     0.227 C 
ATOM     27  O   UNL A   1      29.014  27.559  23.027  1.00  0.00    -0.275 OA
ATOM     28  N   UNL A   1      28.905  29.778  22.592  1.00  0.00    -0.338 N 
ATOM     29  C   UNL A   1      28.900  30.543  21.344  1.00  0.00     0.148 C 
ATOM     30  C   UNL A   1      27.683  30.024  23.357  1.00  0.00     0.148 C 
ATOM     31  C   UNL A   1      28.766  32.042  21.657  1.00  0.00     0.181 C 
ATOM     32  C   UNL A   1      27.565  31.528  23.635  1.00  0.00     0.181 C 
ATOM     33  O   UNL A   1      27.562  32.282  22.407  1.00  0.00    -0.378 OA
ENDBRANCH  14  26
ENDBRANCH   8  10
ENDBRANCH   7   8
ENDBRANCH   6   7
ENDBRANCH   5   6
ENDBRANCH   4   5
ENDBRANCH   3   4
ENDBRANCH   2   3
ENDBRANCH   1   2
BRANCH   1  34
ATOM     34  C   UNL A   1      33.655  35.524  31.432  1.00  0.00     0.188 C 
BRANCH  34  35
ATOM     35  C   UNL A   1      34.926  34.996  32.137  1.00  0.00     0.188 C 
BRANCH  35  36
ATOM     36  O   UNL A   1      34.729  33.891  33.007  1.00  0.00    -0.376 OA
BRANCH  36  37
ATOM     37  C   UNL A   1      34.902  32.568  32.523  1.00  0.00     0.202 C 
BRANCH  37  38
ATOM     38  C   UNL A   1      35.455  32.340  31.105  1.00  0.00     0.261 C 
BRANCH  38  39
ATOM     39  O   UNL A   1      36.540  31.428  30.999  1.00  0.00    -0.460 OA
BRANCH  39  40
ATOM     40  C   UNL A   1      37.102  31.396  29.787  1.00  0.00     0.338 C 
ATOM     41  O   UNL A   1      37.616  32.348  29.195  1.00  0.00    -0.246 OA
BRANCH  40  42
ATOM     42  C   UNL A   1      37.010  30.044  29.196  1.00  0.00     0.060 A 
ATOM     43  C   UNL A   1      37.121  29.066  30.196  1.00  0.00     0.016 A 
ATOM     44  C   UNL A   1      37.764  30.004  28.027  1.00  0.00     0.016 A 
ATOM     45  C   UNL A   1      38.352  28.477  30.330  1.00  0.00     0.010 A 
ATOM     46  C   UNL A   1      38.998  29.443  28.161  1.00  0.00     0.010 A 
ATOM     47  C   UNL A   1      39.303  28.790  29.361  1.00  0.00    -0.014 A 
BRANCH  47  48
ATOM     48  C   UNL A   1      40.663  28.359  29.470  1.00  0.00     0.031 A 
ATOM     49  C   UNL A   1      40.934  27.062  28.847  1.00  0.00     0.074 A 
ATOM     50  C   UNL A   1      41.567  29.152  30.078  1.00  0.00     0.049 A 
ATOM     51  N   UNL A   1      41.747  26.190  29.317  1.00  0.00    -0.248 NA
ATOM     52  C   UNL A   1      40.167  26.583  27.692  1.00  0.00     0.031 C 
ATOM     53  C   UNL A   1      43.014  29.039  29.993  1.00  0.00     0.029 A 
ATOM     54  N   UNL A   1      41.394  30.216  30.956  1.00  0.00    -0.354 N 
ATOM     55  C   UNL A   1      41.897  25.249  28.325  1.00  0.00     0.074 A 
ATOM     56  C   UNL A   1      40.767  25.416  27.448  1.00  0.00     0.031 C 
ATOM     57  C   UNL A   1      43.565  29.774  30.975  1.00  0.00     0.029 A 
ATOM     58  C   UNL A   1      42.485  30.246  31.824  1.00  0.00     0.049 A 
ATOM     59  H   UNL A   1      40.632  30.840  30.964  1.00  0.00     0.167 HD
ATOM     60  C   UNL A   1      43.097  24.619  28.205  1.00  0.00     0.037 A 
ATOM     61  C   UNL A   1      42.417  30.002  33.168  1.00  0.00     0.037 A 
ATOM     62  C   UNL A   1      44.028  25.144  29.198  1.00  0.00     0.049 A 
ATOM     63  C   UNL A   1      43.171  28.756  33.572  1.00  0.00     0.074 A 
ATOM     64  C   UNL A   1      44.946  26.181  29.120  1.00  0.00     0.029 A 
ATOM     65  N   UNL A   1      43.810  24.912  30.549  1.00  0.00    -0.354 N 
ATOM     66  N   UNL A   1      43.441  27.779  32.752  1.00  0.00    -0.248 NA
ATOM     67  C   UNL A   1      43.687  28.515  34.917  1.00  0.00     0.031 C 
ATOM     68  C   UNL A   1      45.286  26.568  30.437  1.00  0.00     0.029 A 
ATOM     69  C   UNL A   1      44.576  25.769  31.316  1.00  0.00     0.049 A 
ATOM     70  H   UNL A   1      43.195  24.233  30.910  1.00  0.00     0.167 HD
ATOM     71  C   UNL A   1      44.159  26.811  33.407  1.00  0.00     0.074 A 
ATOM     72  C   UNL A   1      44.299  27.328  34.755  1.00  0.00     0.031 C 
ATOM     73  C   UNL A   1      44.574  25.676  32.768  1.00  0.00     0.037 A 
BRANCH  60  74
ATOM     74  C   UNL A   1      43.519  23.869  26.970  1.00  0.00     0.057 A 
ATOM     75  C   UNL A   1      44.121  24.546  25.892  1.00  0.00     0.134 A 
ATOM     76  C   UNL A   1      43.348  22.488  26.774  1.00  0.00     0.134 A 
ATOM     77  F   UNL A   1      44.424  25.849  25.954  1.00  0.00    -0.206 F 
ATOM     78  C   UNL A   1      44.445  23.921  24.685  1.00  0.00     0.040 A 
ATOM     79  C   UNL A   1      43.629  21.855  25.553  1.00  0.00     0.040 A 
ATOM     80  F   UNL A   1      42.940  21.685  27.766  1.00  0.00    -0.206 F 
ATOM     81  C   UNL A   1      44.175  22.575  24.501  1.00  0.00     0.006 A 
ENDBRANCH  60  74
BRANCH  61  82
ATOM     82  C   UNL A   1      41.176  30.472  33.820  1.00  0.00     0.057 A 
ATOM     83  C   UNL A   1      41.115  31.821  34.204  1.00  0.00     0.134 A 
ATOM     84  C   UNL A   1      39.973  29.777  33.675  1.00  0.00     0.134 A 
ATOM     85  F   UNL A   1      42.245  32.521  34.391  1.00  0.00    -0.206 F 
ATOM     86  C   UNL A   1      39.903  32.502  34.285  1.00  0.00     0.040 A 
ATOM     87  C   UNL A   1      38.753  30.446  33.757  1.00  0.00     0.040 A 
ATOM     88  F   UNL A   1      39.963  28.484  33.324  1.00  0.00    -0.206 F 
ATOM     89  C   UNL A   1      38.722  31.815  34.033  1.00  0.00     0.006 A 
ENDBRANCH  61  82
BRANCH  73  90
ATOM     90  C   UNL A   1      45.118  24.412  33.405  1.00  0.00     0.057 A 
ATOM     91  C   UNL A   1      46.422  24.260  33.890  1.00  0.00     0.134 A 
ATOM     92  C   UNL A   1      44.261  23.314  33.673  1.00  0.00     0.134 A 
ATOM     93  F   UNL A   1      47.319  25.251  33.841  1.00  0.00    -0.206 F 
ATOM     94  C   UNL A   1      46.863  23.086  34.519  1.00  0.00     0.040 A 
ATOM     95  C   UNL A   1      44.668  22.174  34.369  1.00  0.00     0.040 A 
ATOM     96  F   UNL A   1      42.975  23.297  33.298  1.00  0.00    -0.206 F 
ATOM     97  C   UNL A   1      45.983  22.045  34.775  1.00  0.00     0.006 A 
ENDBRANCH  73  90
ENDBRANCH  47  48
ENDBRANCH  40  42
ENDBRANCH  39  40
ENDBRANCH  38  39
ENDBRANCH  37  38
ENDBRANCH  36  37
ENDBRANCH  35  36
ENDBRANCH  34  35
ENDBRANCH   1  34
TORSDOF 23
ENDMDL
