MODEL 1
REMARK VINA RESULT:     -10.0      0.000      0.000
REMARK SMILES Cn1ncc(C(=O)OCCOCCOCCOCCOC(=O)c2ccc(-c3c4nc(c(-c5c(F)cccc5F)c5ccc([nH]5)c(-c5c(F)cccc5F)c5nc(c(-c6c(F)cccc6F)c6ccc3[nH]6)C=C5)C=C4)cc2)c1C(=O)Nc1nccc(-c2ccc(OC(F)F)cc2)n1
REMARK SMILES IDX 12 1 11 2 10 3 9 4 8 5 6 6 7 7 5 8 1 9 2 10 3 11 77 12 4 13
REMARK SMILES IDX 78 14 79 15 80 16 81 18 82 19 96 20 83 21 85 22 84 23 86 24
REMARK SMILES IDX 87 25 95 26 88 27 94 28 89 29 90 30 91 31 92 32 93 33 13 34
REMARK SMILES IDX 14 35 15 36 16 37 17 38 18 39 19 40 20 41 21 42 22 43 23 44
REMARK SMILES IDX 24 45 76 46 25 47 75 48 26 49 27 50 28 51 69 52 29 53 74 54
REMARK SMILES IDX 68 55 70 56 30 57 73 58 67 59 66 60 31 62 57 63 40 64 56 65
REMARK SMILES IDX 41 66 44 67 55 68 71 69 42 70 43 71 54 73 72 74 45 75 32 76
REMARK SMILES IDX 33 77 38 78 34 79 35 80 37 81 39 82 36 83 58 84 59 85 64 86
REMARK SMILES IDX 60 87 61 88 63 89 65 90 62 91 46 92 47 93 52 94 48 95 49 96
REMARK SMILES IDX 51 97 53 98 50 99
REMARK H PARENT 80 17 70 61 44 72
REMARK Flexibility Score: inf
ROOT
ATOM      1  C   UNL A   1      31.662  29.191  23.957  1.00  0.00     0.188 C 
ENDROOT
BRANCH   1   2
ATOM      2  O   UNL A   1      30.552  28.394  24.361  1.00  0.00    -0.376 OA
BRANCH   2   3
ATOM      3  C   UNL A   1      29.624  28.050  23.340  1.00  0.00     0.202 C 
BRANCH   3   4
ATOM      4  C   UNL A   1      28.954  26.697  23.589  1.00  0.00     0.261 C 
BRANCH   4   5
ATOM      5  O   UNL A   1      29.802  25.808  24.327  1.00  0.00    -0.460 OA
BRANCH   5   6
ATOM      6  C   UNL A   1      30.412  24.851  23.587  1.00  0.00     0.342 C 
ATOM      7  O   UNL A   1      29.819  23.965  22.979  1.00  0.00    -0.246 OA
BRANCH   6   8
ATOM      8  C   UNL A   1      31.825  25.092  23.399  1.00  0.00     0.111 A 
ATOM      9  C   UNL A   1      35.222  24.302  23.554  1.00  0.00     0.174 C 
ATOM     10  N   UNL A   1      33.989  25.048  23.474  1.00  0.00    -0.262 N 
ATOM     11  N   UNL A   1      33.719  25.566  22.254  1.00  0.00    -0.180 NA
ATOM     12  C   UNL A   1      32.888  24.993  24.309  1.00  0.00     0.140 A 
ATOM     13  C   UNL A   1      32.399  25.479  22.175  1.00  0.00     0.151 A 
BRANCH  12  14
ATOM     14  C   UNL A   1      32.766  24.659  25.717  1.00  0.00     0.277 C 
ATOM     15  O   UNL A   1      32.209  25.444  26.495  1.00  0.00    -0.267 OA
ATOM     16  N   UNL A   1      33.105  23.478  26.302  1.00  0.00    -0.289 N 
ATOM     17  H   UNL A   1      32.771  23.422  27.227  1.00  0.00     0.173 HD
BRANCH  16  18
ATOM     18  C   UNL A   1      33.791  22.342  25.944  1.00  0.00     0.230 A 
ATOM     19  N   UNL A   1      32.981  21.406  25.425  1.00  0.00    -0.221 NA
ATOM     20  N   UNL A   1      35.118  22.231  26.016  1.00  0.00    -0.213 NA
ATOM     21  C   UNL A   1      33.561  20.342  24.847  1.00  0.00     0.117 A 
ATOM     22  C   UNL A   1      35.664  21.108  25.482  1.00  0.00     0.076 A 
ATOM     23  C   UNL A   1      34.914  20.144  24.838  1.00  0.00     0.049 A 
BRANCH  22  24
ATOM     24  C   UNL A   1      37.124  21.003  25.552  1.00  0.00     0.001 A 
ATOM     25  C   UNL A   1      37.785  19.834  25.156  1.00  0.00     0.014 A 
ATOM     26  C   UNL A   1      37.902  22.076  26.016  1.00  0.00     0.014 A 
ATOM     27  C   UNL A   1      39.179  19.740  25.241  1.00  0.00     0.047 A 
ATOM     28  C   UNL A   1      39.294  21.974  26.121  1.00  0.00     0.047 A 
ATOM     29  C   UNL A   1      39.940  20.800  25.741  1.00  0.00     0.126 A 
BRANCH  29  30
ATOM     30  O   UNL A   1      41.283  20.562  25.803  1.00  0.00    -0.435 OA
BRANCH  30  31
ATOM     31  C   UNL A   1      42.126  21.600  26.284  1.00  0.00     0.542 C 
ATOM     32  F   UNL A   1      42.781  21.185  27.396  1.00  0.00    -0.167 F 
ATOM     33  F   UNL A   1      43.047  21.932  25.347  1.00  0.00    -0.167 F 
ENDBRANCH  30  31
ENDBRANCH  29  30
ENDBRANCH  22  24
ENDBRANCH  16  18
ENDBRANCH  12  14
ENDBRANCH   6   8
ENDBRANCH   5   6
ENDBRANCH   4   5
ENDBRANCH   3   4
ENDBRANCH   2   3
ENDBRANCH   1   2
BRANCH   1  34
ATOM     34  C   UNL A   1      33.058  28.592  24.222  1.00  0.00     0.188 C 
BRANCH  34  35
ATOM     35  O   UNL A   1      33.780  28.923  25.397  1.00  0.00    -0.377 OA
BRANCH  35  36
ATOM     36  C   UNL A   1      33.169  28.784  26.669  1.00  0.00     0.188 C 
BRANCH  36  37
ATOM     37  C   UNL A   1      32.361  29.953  27.258  1.00  0.00     0.188 C 
BRANCH  37  38
ATOM     38  O   UNL A   1      32.425  31.157  26.502  1.00  0.00    -0.376 OA
BRANCH  38  39
ATOM     39  C   UNL A   1      31.652  32.240  27.006  1.00  0.00     0.202 C 
BRANCH  39  40
ATOM     40  C   UNL A   1      32.433  33.554  27.109  1.00  0.00     0.261 C 
BRANCH  40  41
ATOM     41  O   UNL A   1      32.339  34.211  28.384  1.00  0.00    -0.460 OA
BRANCH  41  42
ATOM     42  C   UNL A   1      33.393  34.958  28.776  1.00  0.00     0.338 C 
ATOM     43  O   UNL A   1      33.424  36.157  28.978  1.00  0.00    -0.246 OA
BRANCH  42  44
ATOM     44  C   UNL A   1      34.498  34.033  29.086  1.00  0.00     0.060 A 
ATOM     45  C   UNL A   1      34.207  32.816  29.714  1.00  0.00     0.016 A 
ATOM     46  C   UNL A   1      35.812  34.368  28.749  1.00  0.00     0.016 A 
ATOM     47  C   UNL A   1      35.243  31.938  30.034  1.00  0.00     0.010 A 
ATOM     48  C   UNL A   1      36.848  33.500  29.089  1.00  0.00     0.010 A 
ATOM     49  C   UNL A   1      36.570  32.296  29.760  1.00  0.00    -0.014 A 
BRANCH  49  50
ATOM     50  C   UNL A   1      37.682  31.520  30.354  1.00  0.00     0.031 A 
ATOM     51  C   UNL A   1      38.066  31.811  31.777  1.00  0.00     0.074 A 
ATOM     52  C   UNL A   1      38.344  30.588  29.647  1.00  0.00     0.049 A 
ATOM     53  N   UNL A   1      39.026  31.297  32.500  1.00  0.00    -0.248 NA
ATOM     54  C   UNL A   1      37.256  32.823  32.477  1.00  0.00     0.031 C 
ATOM     55  C   UNL A   1      38.052  30.202  28.268  1.00  0.00     0.029 A 
ATOM     56  N   UNL A   1      39.413  29.805  30.001  1.00  0.00    -0.354 N 
ATOM     57  C   UNL A   1      38.933  31.916  33.739  1.00  0.00     0.074 A 
ATOM     58  C   UNL A   1      37.843  32.864  33.663  1.00  0.00     0.031 C 
ATOM     59  C   UNL A   1      38.935  29.261  27.887  1.00  0.00     0.029 A 
ATOM     60  C   UNL A   1      39.863  28.998  28.986  1.00  0.00     0.049 A 
ATOM     61  H   UNL A   1      39.819  29.819  30.897  1.00  0.00     0.167 HD
ATOM     62  C   UNL A   1      39.682  31.708  34.846  1.00  0.00     0.037 A 
ATOM     63  C   UNL A   1      40.917  28.159  28.948  1.00  0.00     0.037 A 
ATOM     64  C   UNL A   1      40.775  30.779  34.922  1.00  0.00     0.049 A 
ATOM     65  C   UNL A   1      41.782  28.000  30.170  1.00  0.00     0.074 A 
ATOM     66  C   UNL A   1      41.587  30.488  36.003  1.00  0.00     0.029 A 
ATOM     67  N   UNL A   1      41.217  30.000  33.864  1.00  0.00    -0.354 N 
ATOM     68  N   UNL A   1      41.663  28.561  31.349  1.00  0.00    -0.248 NA
ATOM     69  C   UNL A   1      42.933  27.091  30.054  1.00  0.00     0.031 C 
ATOM     70  C   UNL A   1      42.548  29.559  35.588  1.00  0.00     0.029 A 
ATOM     71  C   UNL A   1      42.306  29.243  34.260  1.00  0.00     0.049 A 
ATOM     72  H   UNL A   1      40.815  29.985  32.965  1.00  0.00     0.167 HD
ATOM     73  C   UNL A   1      42.704  28.055  32.120  1.00  0.00     0.074 A 
ATOM     74  C   UNL A   1      43.440  27.135  31.279  1.00  0.00     0.031 C 
ATOM     75  C   UNL A   1      43.022  28.328  33.410  1.00  0.00     0.037 A 
BRANCH  62  76
ATOM     76  C   UNL A   1      39.347  32.520  36.060  1.00  0.00     0.057 A 
ATOM     77  C   UNL A   1      39.961  33.754  36.308  1.00  0.00     0.134 A 
ATOM     78  C   UNL A   1      38.396  32.070  36.981  1.00  0.00     0.134 A 
ATOM     79  F   UNL A   1      40.896  34.229  35.472  1.00  0.00    -0.206 F 
ATOM     80  C   UNL A   1      39.651  34.506  37.442  1.00  0.00     0.040 A 
ATOM     81  C   UNL A   1      38.062  32.821  38.109  1.00  0.00     0.040 A 
ATOM     82  F   UNL A   1      37.775  30.894  36.801  1.00  0.00    -0.206 F 
ATOM     83  C   UNL A   1      38.694  34.042  38.343  1.00  0.00     0.006 A 
ENDBRANCH  62  76
BRANCH  63  84
ATOM     84  C   UNL A   1      41.230  27.407  27.707  1.00  0.00     0.057 A 
ATOM     85  C   UNL A   1      42.128  27.914  26.762  1.00  0.00     0.134 A 
ATOM     86  C   UNL A   1      40.610  26.185  27.421  1.00  0.00     0.134 A 
ATOM     87  F   UNL A   1      42.731  29.095  26.968  1.00  0.00    -0.206 F 
ATOM     88  C   UNL A   1      42.386  27.241  25.566  1.00  0.00     0.040 A 
ATOM     89  C   UNL A   1      40.875  25.492  26.239  1.00  0.00     0.040 A 
ATOM     90  F   UNL A   1      39.734  25.651  28.285  1.00  0.00    -0.206 F 
ATOM     91  C   UNL A   1      41.760  26.024  25.304  1.00  0.00     0.006 A 
ENDBRANCH  63  84
BRANCH  75  92
ATOM     92  C   UNL A   1      44.195  27.605  33.998  1.00  0.00     0.057 A 
ATOM     93  C   UNL A   1      45.483  28.154  33.982  1.00  0.00     0.134 A 
ATOM     94  C   UNL A   1      44.025  26.368  34.634  1.00  0.00     0.134 A 
ATOM     95  F   UNL A   1      45.713  29.330  33.380  1.00  0.00    -0.206 F 
ATOM     96  C   UNL A   1      46.565  27.491  34.565  1.00  0.00     0.040 A 
ATOM     97  C   UNL A   1      45.094  25.707  35.240  1.00  0.00     0.040 A 
ATOM     98  F   UNL A   1      42.815  25.792  34.691  1.00  0.00    -0.206 F 
ATOM     99  C   UNL A   1      46.369  26.267  35.203  1.00  0.00     0.006 A 
ENDBRANCH  75  92
ENDBRANCH  49  50
ENDBRANCH  42  44
ENDBRANCH  41  42
ENDBRANCH  40  41
ENDBRANCH  39  40
ENDBRANCH  38  39
ENDBRANCH  37  38
ENDBRANCH  36  37
ENDBRANCH  35  36
ENDBRANCH  34  35
ENDBRANCH   1  34
TORSDOF 25
ENDMDL
MODEL 2
REMARK VINA RESULT:      -9.4      4.290      8.104
REMARK SMILES Cn1ncc(C(=O)OCCOCCOCCOCCOC(=O)c2ccc(-c3c4nc(c(-c5c(F)cccc5F)c5ccc([nH]5)c(-c5c(F)cccc5F)c5nc(c(-c6c(F)cccc6F)c6ccc3[nH]6)C=C5)C=C4)cc2)c1C(=O)Nc1nccc(-c2ccc(OC(F)F)cc2)n1
REMARK SMILES IDX 12 1 11 2 10 3 9 4 8 5 6 6 7 7 5 8 1 9 2 10 3 11 77 12 4 13
REMARK SMILES IDX 78 14 79 15 80 16 81 18 82 19 96 20 83 21 85 22 84 23 86 24
REMARK SMILES IDX 87 25 95 26 88 27 94 28 89 29 90 30 91 31 92 32 93 33 13 34
REMARK SMILES IDX 14 35 15 36 16 37 17 38 18 39 19 40 20 41 21 42 22 43 23 44
REMARK SMILES IDX 24 45 76 46 25 47 75 48 26 49 27 50 28 51 69 52 29 53 74 54
REMARK SMILES IDX 68 55 70 56 30 57 73 58 67 59 66 60 31 62 57 63 40 64 56 65
REMARK SMILES IDX 41 66 44 67 55 68 71 69 42 70 43 71 54 73 72 74 45 75 32 76
REMARK SMILES IDX 33 77 38 78 34 79 35 80 37 81 39 82 36 83 58 84 59 85 64 86
REMARK SMILES IDX 60 87 61 88 63 89 65 90 62 91 46 92 47 93 52 94 48 95 49 96
REMARK SMILES IDX 51 97 53 98 50 99
REMARK H PARENT 80 17 70 61 44 72
REMARK Flexibility Score: inf
ROOT
ATOM      1  C   UNL A   1      35.262  33.988  28.758  1.00  0.00     0.188 C 
ENDROOT
BRANCH   1   2
ATOM      2  O   UNL A   1      35.013  33.068  27.698  1.00  0.00    -0.376 OA
BRANCH   2   3
ATOM      3  C   UNL A   1      33.699  32.528  27.635  1.00  0.00     0.202 C 
BRANCH   3   4
ATOM      4  C   UNL A   1      33.699  31.004  27.493  1.00  0.00     0.261 C 
BRANCH   4   5
ATOM      5  O   UNL A   1      33.226  30.587  26.205  1.00  0.00    -0.460 OA
BRANCH   5   6
ATOM      6  C   UNL A   1      32.310  29.589  26.226  1.00  0.00     0.342 C 
ATOM      7  O   UNL A   1      31.841  29.102  27.251  1.00  0.00    -0.246 OA
BRANCH   6   8
ATOM      8  C   UNL A   1      31.765  29.291  24.921  1.00  0.00     0.111 A 
ATOM      9  C   UNL A   1      30.796  27.207  22.293  1.00  0.00     0.174 C 
ATOM     10  N   UNL A   1      31.203  28.371  23.043  1.00  0.00    -0.262 N 
ATOM     11  N   UNL A   1      30.220  29.272  23.267  1.00  0.00    -0.180 NA
ATOM     12  C   UNL A   1      32.299  28.528  23.871  1.00  0.00     0.140 A 
ATOM     13  C   UNL A   1      30.512  29.744  24.471  1.00  0.00     0.151 A 
BRANCH  12  14
ATOM     14  C   UNL A   1      33.604  27.891  23.870  1.00  0.00     0.277 C 
ATOM     15  O   UNL A   1      34.586  28.489  23.412  1.00  0.00    -0.267 OA
ATOM     16  N   UNL A   1      33.924  26.697  24.439  1.00  0.00    -0.289 N 
ATOM     17  H   UNL A   1      34.899  26.556  24.463  1.00  0.00     0.173 HD
BRANCH  16  18
ATOM     18  C   UNL A   1      33.247  25.636  24.991  1.00  0.00     0.230 A 
ATOM     19  N   UNL A   1      32.138  26.027  25.639  1.00  0.00    -0.221 NA
ATOM     20  N   UNL A   1      33.605  24.364  24.815  1.00  0.00    -0.213 NA
ATOM     21  C   UNL A   1      31.287  25.069  26.036  1.00  0.00     0.117 A 
ATOM     22  C   UNL A   1      32.751  23.421  25.291  1.00  0.00     0.076 A 
ATOM     23  C   UNL A   1      31.541  23.734  25.878  1.00  0.00     0.049 A 
BRANCH  22  24
ATOM     24  C   UNL A   1      33.145  22.025  25.077  1.00  0.00     0.001 A 
ATOM     25  C   UNL A   1      32.185  21.022  24.900  1.00  0.00     0.014 A 
ATOM     26  C   UNL A   1      34.500  21.657  25.043  1.00  0.00     0.014 A 
ATOM     27  C   UNL A   1      32.573  19.691  24.711  1.00  0.00     0.047 A 
ATOM     28  C   UNL A   1      34.886  20.323  24.875  1.00  0.00     0.047 A 
ATOM     29  C   UNL A   1      33.923  19.329  24.716  1.00  0.00     0.126 A 
BRANCH  29  30
ATOM     30  O   UNL A   1      34.159  17.994  24.558  1.00  0.00    -0.435 OA
BRANCH  30  31
ATOM     31  C   UNL A   1      33.361  17.278  23.623  1.00  0.00     0.542 C 
ATOM     32  F   UNL A   1      33.986  17.236  22.421  1.00  0.00    -0.167 F 
ATOM     33  F   UNL A   1      33.166  16.006  24.047  1.00  0.00    -0.167 F 
ENDBRANCH  30  31
ENDBRANCH  29  30
ENDBRANCH  22  24
ENDBRANCH  16  18
ENDBRANCH  12  14
ENDBRANCH   6   8
ENDBRANCH   5   6
ENDBRANCH   4   5
ENDBRANCH   3   4
ENDBRANCH   2   3
ENDBRANCH   1   2
BRANCH   1  34
ATOM     34  C   UNL A   1      34.364  33.845  30.002  1.00  0.00     0.188 C 
BRANCH  34  35
ATOM     35  O   UNL A   1      33.148  34.566  30.108  1.00  0.00    -0.377 OA
BRANCH  35  36
ATOM     36  C   UNL A   1      33.050  35.667  30.996  1.00  0.00     0.188 C 
BRANCH  36  37
ATOM     37  C   UNL A   1      34.140  35.889  32.058  1.00  0.00     0.188 C 
BRANCH  37  38
ATOM     38  O   UNL A   1      34.999  34.774  32.266  1.00  0.00    -0.376 OA
BRANCH  38  39
ATOM     39  C   UNL A   1      35.126  34.340  33.615  1.00  0.00     0.202 C 
BRANCH  39  40
ATOM     40  C   UNL A   1      36.543  34.494  34.177  1.00  0.00     0.261 C 
BRANCH  40  41
ATOM     41  O   UNL A   1      37.485  33.515  33.707  1.00  0.00    -0.460 OA
BRANCH  41  42
ATOM     42  C   UNL A   1      37.000  32.306  33.357  1.00  0.00     0.338 C 
ATOM     43  O   UNL A   1      35.902  31.842  33.603  1.00  0.00    -0.246 OA
BRANCH  42  44
ATOM     44  C   UNL A   1      37.986  31.676  32.461  1.00  0.00     0.060 A 
ATOM     45  C   UNL A   1      39.045  30.953  33.022  1.00  0.00     0.016 A 
ATOM     46  C   UNL A   1      37.857  31.796  31.075  1.00  0.00     0.016 A 
ATOM     47  C   UNL A   1      40.001  30.369  32.190  1.00  0.00     0.010 A 
ATOM     48  C   UNL A   1      38.823  31.230  30.245  1.00  0.00     0.010 A 
ATOM     49  C   UNL A   1      39.915  30.541  30.801  1.00  0.00    -0.014 A 
BRANCH  49  50
ATOM     50  C   UNL A   1      41.065  30.184  29.940  1.00  0.00     0.031 A 
ATOM     51  C   UNL A   1      41.130  28.789  29.388  1.00  0.00     0.074 A 
ATOM     52  C   UNL A   1      42.037  31.071  29.664  1.00  0.00     0.049 A 
ATOM     53  N   UNL A   1      42.051  28.229  28.649  1.00  0.00    -0.248 NA
ATOM     54  C   UNL A   1      39.999  27.904  29.717  1.00  0.00     0.031 C 
ATOM     55  C   UNL A   1      42.076  32.458  30.124  1.00  0.00     0.029 A 
ATOM     56  N   UNL A   1      43.188  30.922  28.933  1.00  0.00    -0.354 N 
ATOM     57  C   UNL A   1      41.611  26.933  28.420  1.00  0.00     0.074 A 
ATOM     58  C   UNL A   1      40.356  26.777  29.121  1.00  0.00     0.031 C 
ATOM     59  C   UNL A   1      43.208  33.031  29.673  1.00  0.00     0.029 A 
ATOM     60  C   UNL A   1      43.977  32.045  28.915  1.00  0.00     0.049 A 
ATOM     61  H   UNL A   1      43.425  30.090  28.464  1.00  0.00     0.167 HD
ATOM     62  C   UNL A   1      42.195  25.960  27.684  1.00  0.00     0.037 A 
ATOM     63  C   UNL A   1      45.191  32.242  28.365  1.00  0.00     0.037 A 
ATOM     64  C   UNL A   1      43.450  26.104  27.000  1.00  0.00     0.049 A 
ATOM     65  C   UNL A   1      45.856  31.118  27.614  1.00  0.00     0.074 A 
ATOM     66  C   UNL A   1      44.118  25.179  26.218  1.00  0.00     0.029 A 
ATOM     67  N   UNL A   1      44.232  27.248  27.029  1.00  0.00    -0.354 N 
ATOM     68  N   UNL A   1      45.415  29.908  27.370  1.00  0.00    -0.248 NA
ATOM     69  C   UNL A   1      47.193  31.390  27.062  1.00  0.00     0.031 C 
ATOM     70  C   UNL A   1      45.326  25.751  25.804  1.00  0.00     0.029 A 
ATOM     71  C   UNL A   1      45.389  27.045  26.297  1.00  0.00     0.049 A 
ATOM     72  H   UNL A   1      43.999  28.081  27.498  1.00  0.00     0.167 HD
ATOM     73  C   UNL A   1      46.404  29.285  26.618  1.00  0.00     0.074 A 
ATOM     74  C   UNL A   1      47.465  30.252  26.438  1.00  0.00     0.031 C 
ATOM     75  C   UNL A   1      46.431  28.023  26.122  1.00  0.00     0.037 A 
BRANCH  62  76
ATOM     76  C   UNL A   1      41.482  24.645  27.602  1.00  0.00     0.057 A 
ATOM     77  C   UNL A   1      40.406  24.448  26.727  1.00  0.00     0.134 A 
ATOM     78  C   UNL A   1      41.882  23.564  28.396  1.00  0.00     0.134 A 
ATOM     79  F   UNL A   1      39.964  25.452  25.956  1.00  0.00    -0.206 F 
ATOM     80  C   UNL A   1      39.741  23.223  26.657  1.00  0.00     0.040 A 
ATOM     81  C   UNL A   1      41.237  22.328  28.320  1.00  0.00     0.040 A 
ATOM     82  F   UNL A   1      42.903  23.691  29.256  1.00  0.00    -0.206 F 
ATOM     83  C   UNL A   1      40.161  22.157  27.451  1.00  0.00     0.006 A 
ENDBRANCH  62  76
BRANCH  63  84
ATOM     84  C   UNL A   1      45.874  33.552  28.510  1.00  0.00     0.057 A 
ATOM     85  C   UNL A   1      45.666  34.582  27.585  1.00  0.00     0.134 A 
ATOM     86  C   UNL A   1      46.777  33.791  29.552  1.00  0.00     0.134 A 
ATOM     87  F   UNL A   1      44.833  34.401  26.549  1.00  0.00    -0.206 F 
ATOM     88  C   UNL A   1      46.345  35.798  27.682  1.00  0.00     0.040 A 
ATOM     89  C   UNL A   1      47.447  35.009  29.672  1.00  0.00     0.040 A 
ATOM     90  F   UNL A   1      47.024  32.840  30.465  1.00  0.00    -0.206 F 
ATOM     91  C   UNL A   1      47.237  36.014  28.731  1.00  0.00     0.006 A 
ENDBRANCH  63  84
BRANCH  75  92
ATOM     92  C   UNL A   1      47.629  27.626  25.314  1.00  0.00     0.057 A 
ATOM     93  C   UNL A   1      48.780  27.100  25.912  1.00  0.00     0.134 A 
ATOM     94  C   UNL A   1      47.611  27.724  23.916  1.00  0.00     0.134 A 
ATOM     95  F   UNL A   1      48.864  26.990  27.246  1.00  0.00    -0.206 F 
ATOM     96  C   UNL A   1      49.878  26.697  25.149  1.00  0.00     0.040 A 
ATOM     97  C   UNL A   1      48.693  27.305  23.142  1.00  0.00     0.040 A 
ATOM     98  F   UNL A   1      46.535  28.213  23.281  1.00  0.00    -0.206 F 
ATOM     99  C   UNL A   1      49.832  26.793  23.759  1.00  0.00     0.006 A 
ENDBRANCH  75  92
ENDBRANCH  49  50
ENDBRANCH  42  44
ENDBRANCH  41  42
ENDBRANCH  40  41
ENDBRANCH  39  40
ENDBRANCH  38  39
ENDBRANCH  37  38
ENDBRANCH  36  37
ENDBRANCH  35  36
ENDBRANCH  34  35
ENDBRANCH   1  34
TORSDOF 25
ENDMDL
MODEL 3
REMARK VINA RESULT:      -9.0      3.752      6.481
REMARK SMILES Cn1ncc(C(=O)OCCOCCOCCOCCOC(=O)c2ccc(-c3c4nc(c(-c5c(F)cccc5F)c5ccc([nH]5)c(-c5c(F)cccc5F)c5nc(c(-c6c(F)cccc6F)c6ccc3[nH]6)C=C5)C=C4)cc2)c1C(=O)Nc1nccc(-c2ccc(OC(F)F)cc2)n1
REMARK SMILES IDX 12 1 11 2 10 3 9 4 8 5 6 6 7 7 5 8 1 9 2 10 3 11 77 12 4 13
REMARK SMILES IDX 78 14 79 15 80 16 81 18 82 19 96 20 83 21 85 22 84 23 86 24
REMARK SMILES IDX 87 25 95 26 88 27 94 28 89 29 90 30 91 31 92 32 93 33 13 34
REMARK SMILES IDX 14 35 15 36 16 37 17 38 18 39 19 40 20 41 21 42 22 43 23 44
REMARK SMILES IDX 24 45 76 46 25 47 75 48 26 49 27 50 28 51 69 52 29 53 74 54
REMARK SMILES IDX 68 55 70 56 30 57 73 58 67 59 66 60 31 62 57 63 40 64 56 65
REMARK SMILES IDX 41 66 44 67 55 68 71 69 42 70 43 71 54 73 72 74 45 75 32 76
REMARK SMILES IDX 33 77 38 78 34 79 35 80 37 81 39 82 36 83 58 84 59 85 64 86
REMARK SMILES IDX 60 87 61 88 63 89 65 90 62 91 46 92 47 93 52 94 48 95 49 96
REMARK SMILES IDX 51 97 53 98 50 99
REMARK H PARENT 80 17 70 61 44 72
REMARK Flexibility Score: inf
ROOT
ATOM      1  C   UNL A   1      33.163  28.504  25.389  1.00  0.00     0.188 C 
ENDROOT
BRANCH   1   2
ATOM      2  O   UNL A   1      32.838  27.170  25.007  1.00  0.00    -0.376 OA
BRANCH   2   3
ATOM      3  C   UNL A   1      32.665  26.943  23.614  1.00  0.00     0.202 C 
BRANCH   3   4
ATOM      4  C   UNL A   1      32.669  25.454  23.258  1.00  0.00     0.261 C 
BRANCH   4   5
ATOM      5  O   UNL A   1      31.408  24.835  23.539  1.00  0.00    -0.460 OA
BRANCH   5   6
ATOM      6  C   UNL A   1      31.471  23.513  23.831  1.00  0.00     0.342 C 
ATOM      7  O   UNL A   1      31.554  22.622  22.991  1.00  0.00    -0.246 OA
BRANCH   6   8
ATOM      8  C   UNL A   1      31.648  23.252  25.242  1.00  0.00     0.111 A 
ATOM      9  C   UNL A   1      33.461  22.407  28.104  1.00  0.00     0.174 C 
ATOM     10  N   UNL A   1      32.369  22.619  27.183  1.00  0.00    -0.262 N 
ATOM     11  N   UNL A   1      31.596  23.693  27.461  1.00  0.00    -0.180 NA
ATOM     12  C   UNL A   1      32.221  22.148  25.892  1.00  0.00     0.140 A 
ATOM     13  C   UNL A   1      31.257  24.140  26.260  1.00  0.00     0.151 A 
BRANCH  12  14
ATOM     14  C   UNL A   1      32.733  20.956  25.239  1.00  0.00     0.277 C 
ATOM     15  O   UNL A   1      32.029  19.941  25.160  1.00  0.00    -0.267 OA
ATOM     16  N   UNL A   1      33.912  20.842  24.568  1.00  0.00    -0.289 N 
ATOM     17  H   UNL A   1      33.962  19.997  24.064  1.00  0.00     0.173 HD
BRANCH  16  18
ATOM     18  C   UNL A   1      35.050  21.594  24.408  1.00  0.00     0.230 A 
ATOM     19  N   UNL A   1      34.877  22.589  23.524  1.00  0.00    -0.221 NA
ATOM     20  N   UNL A   1      36.161  21.409  25.123  1.00  0.00    -0.213 NA
ATOM     21  C   UNL A   1      35.847  23.513  23.440  1.00  0.00     0.117 A 
ATOM     22  C   UNL A   1      37.148  22.328  24.961  1.00  0.00     0.076 A 
ATOM     23  C   UNL A   1      37.013  23.437  24.151  1.00  0.00     0.049 A 
BRANCH  22  24
ATOM     24  C   UNL A   1      38.357  22.124  25.765  1.00  0.00     0.001 A 
ATOM     25  C   UNL A   1      38.849  23.135  26.599  1.00  0.00     0.014 A 
ATOM     26  C   UNL A   1      39.055  20.906  25.720  1.00  0.00     0.014 A 
ATOM     27  C   UNL A   1      40.012  22.935  27.350  1.00  0.00     0.047 A 
ATOM     28  C   UNL A   1      40.230  20.715  26.456  1.00  0.00     0.047 A 
ATOM     29  C   UNL A   1      40.721  21.733  27.270  1.00  0.00     0.126 A 
BRANCH  29  30
ATOM     30  O   UNL A   1      41.856  21.685  28.026  1.00  0.00    -0.435 OA
BRANCH  30  31
ATOM     31  C   UNL A   1      42.422  22.914  28.464  1.00  0.00     0.542 C 
ATOM     32  F   UNL A   1      43.013  22.745  29.671  1.00  0.00    -0.167 F 
ATOM     33  F   UNL A   1      43.362  23.339  27.586  1.00  0.00    -0.167 F 
ENDBRANCH  30  31
ENDBRANCH  29  30
ENDBRANCH  22  24
ENDBRANCH  16  18
ENDBRANCH  12  14
ENDBRANCH   6   8
ENDBRANCH   5   6
ENDBRANCH   4   5
ENDBRANCH   3   4
ENDBRANCH   2   3
ENDBRANCH   1   2
BRANCH   1  34
ATOM     34  C   UNL A   1      34.187  28.650  26.532  1.00  0.00     0.188 C 
BRANCH  34  35
ATOM     35  O   UNL A   1      33.963  29.558  27.598  1.00  0.00    -0.377 OA
BRANCH  35  36
ATOM     36  C   UNL A   1      34.246  30.937  27.428  1.00  0.00     0.188 C 
BRANCH  36  37
ATOM     37  C   UNL A   1      35.527  31.532  28.039  1.00  0.00     0.188 C 
BRANCH  37  38
ATOM     38  O   UNL A   1      35.580  31.489  29.460  1.00  0.00    -0.376 OA
BRANCH  38  39
ATOM     39  C   UNL A   1      34.724  32.402  30.135  1.00  0.00     0.202 C 
BRANCH  39  40
ATOM     40  C   UNL A   1      34.972  32.472  31.645  1.00  0.00     0.261 C 
BRANCH  40  41
ATOM     41  O   UNL A   1      36.316  32.821  32.018  1.00  0.00    -0.460 OA
BRANCH  41  42
ATOM     42  C   UNL A   1      36.744  32.422  33.234  1.00  0.00     0.338 C 
ATOM     43  O   UNL A   1      36.152  32.494  34.295  1.00  0.00    -0.246 OA
BRANCH  42  44
ATOM     44  C   UNL A   1      38.024  31.716  33.042  1.00  0.00     0.060 A 
ATOM     45  C   UNL A   1      39.145  32.140  33.766  1.00  0.00     0.016 A 
ATOM     46  C   UNL A   1      38.109  30.639  32.158  1.00  0.00     0.016 A 
ATOM     47  C   UNL A   1      40.370  31.498  33.581  1.00  0.00     0.010 A 
ATOM     48  C   UNL A   1      39.338  30.011  31.959  1.00  0.00     0.010 A 
ATOM     49  C   UNL A   1      40.479  30.459  32.647  1.00  0.00    -0.014 A 
BRANCH  49  50
ATOM     50  C   UNL A   1      41.815  29.976  32.231  1.00  0.00     0.031 A 
ATOM     51  C   UNL A   1      42.532  30.727  31.146  1.00  0.00     0.074 A 
ATOM     52  C   UNL A   1      42.375  28.891  32.793  1.00  0.00     0.049 A 
ATOM     53  N   UNL A   1      43.687  30.477  30.586  1.00  0.00    -0.248 NA
ATOM     54  C   UNL A   1      41.852  31.923  30.621  1.00  0.00     0.031 C 
ATOM     55  C   UNL A   1      41.788  28.091  33.867  1.00  0.00     0.029 A 
ATOM     56  N   UNL A   1      43.568  28.271  32.520  1.00  0.00    -0.354 N 
ATOM     57  C   UNL A   1      43.873  31.484  29.649  1.00  0.00     0.074 A 
ATOM     58  C   UNL A   1      42.703  32.333  29.694  1.00  0.00     0.031 C 
ATOM     59  C   UNL A   1      42.621  27.074  34.152  1.00  0.00     0.029 A 
ATOM     60  C   UNL A   1      43.783  27.140  33.268  1.00  0.00     0.049 A 
ATOM     61  H   UNL A   1      44.210  28.605  31.853  1.00  0.00     0.167 HD
ATOM     62  C   UNL A   1      44.929  31.691  28.829  1.00  0.00     0.037 A 
ATOM     63  C   UNL A   1      44.797  26.253  33.225  1.00  0.00     0.037 A 
ATOM     64  C   UNL A   1      46.087  30.841  28.769  1.00  0.00     0.049 A 
ATOM     65  C   UNL A   1      45.926  26.463  32.250  1.00  0.00     0.074 A 
ATOM     66  C   UNL A   1      47.214  30.973  27.979  1.00  0.00     0.029 A 
ATOM     67  N   UNL A   1      46.254  29.690  29.523  1.00  0.00    -0.354 N 
ATOM     68  N   UNL A   1      46.112  27.439  31.395  1.00  0.00    -0.248 NA
ATOM     69  C   UNL A   1      46.986  25.443  32.234  1.00  0.00     0.031 C 
ATOM     70  C   UNL A   1      48.050  29.879  28.228  1.00  0.00     0.029 A 
ATOM     71  C   UNL A   1      47.459  29.089  29.201  1.00  0.00     0.049 A 
ATOM     72  H   UNL A   1      45.614  29.352  30.189  1.00  0.00     0.167 HD
ATOM     73  C   UNL A   1      47.318  27.166  30.760  1.00  0.00     0.074 A 
ATOM     74  C   UNL A   1      47.824  25.937  31.333  1.00  0.00     0.031 C 
ATOM     75  C   UNL A   1      47.949  27.869  29.788  1.00  0.00     0.037 A 
BRANCH  62  76
ATOM     76  C   UNL A   1      44.865  32.877  27.918  1.00  0.00     0.057 A 
ATOM     77  C   UNL A   1      45.375  34.124  28.301  1.00  0.00     0.134 A 
ATOM     78  C   UNL A   1      44.298  32.770  26.643  1.00  0.00     0.134 A 
ATOM     79  F   UNL A   1      45.912  34.295  29.518  1.00  0.00    -0.206 F 
ATOM     80  C   UNL A   1      45.308  35.229  27.451  1.00  0.00     0.040 A 
ATOM     81  C   UNL A   1      44.244  33.863  25.777  1.00  0.00     0.040 A 
ATOM     82  F   UNL A   1      43.789  31.603  26.219  1.00  0.00    -0.206 F 
ATOM     83  C   UNL A   1      44.747  35.098  26.183  1.00  0.00     0.006 A 
ENDBRANCH  62  76
BRANCH  63  84
ATOM     84  C   UNL A   1      44.793  25.070  34.122  1.00  0.00     0.057 A 
ATOM     85  C   UNL A   1      44.284  23.840  33.694  1.00  0.00     0.134 A 
ATOM     86  C   UNL A   1      45.263  25.154  35.438  1.00  0.00     0.134 A 
ATOM     87  F   UNL A   1      43.793  23.706  32.453  1.00  0.00    -0.206 F 
ATOM     88  C   UNL A   1      44.225  22.737  34.549  1.00  0.00     0.040 A 
ATOM     89  C   UNL A   1      45.230  24.054  36.296  1.00  0.00     0.040 A 
ATOM     90  F   UNL A   1      45.757  26.309  35.908  1.00  0.00    -0.206 F 
ATOM     91  C   UNL A   1      44.703  22.843  35.854  1.00  0.00     0.006 A 
ENDBRANCH  63  84
BRANCH  75  92
ATOM     92  C   UNL A   1      49.268  27.345  29.304  1.00  0.00     0.057 A 
ATOM     93  C   UNL A   1      49.357  26.447  28.235  1.00  0.00     0.134 A 
ATOM     94  C   UNL A   1      50.466  27.787  29.882  1.00  0.00     0.134 A 
ATOM     95  F   UNL A   1      48.246  25.979  27.646  1.00  0.00    -0.206 F 
ATOM     96  C   UNL A   1      50.591  25.992  27.765  1.00  0.00     0.040 A 
ATOM     97  C   UNL A   1      51.705  27.357  29.407  1.00  0.00     0.040 A 
ATOM     98  F   UNL A   1      50.450  28.655  30.905  1.00  0.00    -0.206 F 
ATOM     99  C   UNL A   1      51.770  26.454  28.349  1.00  0.00     0.006 A 
ENDBRANCH  75  92
ENDBRANCH  49  50
ENDBRANCH  42  44
ENDBRANCH  41  42
ENDBRANCH  40  41
ENDBRANCH  39  40
ENDBRANCH  38  39
ENDBRANCH  37  38
ENDBRANCH  36  37
ENDBRANCH  35  36
ENDBRANCH  34  35
ENDBRANCH   1  34
TORSDOF 25
ENDMDL
