MODEL 1
REMARK VINA RESULT:     -10.6      0.000      0.000
REMARK SMILES Cc1cc(C)c2c(c1)C=C(C(=O)OCCOCCOCCOCCOC(=O)c1ccc(-c3c4nc(c(-c5c(F)cccc5F)c5ccc([nH]5)c(-c5c(F)cccc5F)c5nc(c(-c6c(F)cccc6F)c6ccc3[nH]6)C=C5)C=C4)cc1)[C@@H](C(F)(F)F)O2
REMARK SMILES IDX 20 1 19 2 18 3 17 4 16 5 15 6 14 7 13 8 11 9 12 10 10 11
REMARK SMILES IDX 1 12 2 13 3 14 8 15 4 16 7 17 5 18 6 19 9 20 87 21 82 22
REMARK SMILES IDX 83 23 84 24 85 25 86 26 21 27 22 28 23 29 24 30 25 31 26 32
REMARK SMILES IDX 27 33 28 34 29 35 81 36 30 37 80 38 31 39 32 40 33 41 74 42
REMARK SMILES IDX 34 43 79 44 73 45 75 46 35 47 78 48 72 49 71 50 36 52 62 53
REMARK SMILES IDX 45 54 61 55 46 56 49 57 60 58 76 59 47 60 48 61 59 63 77 64
REMARK SMILES IDX 50 65 37 66 38 67 43 68 39 69 40 70 42 71 44 72 41 73 63 74
REMARK SMILES IDX 64 75 69 76 65 77 66 78 68 79 70 80 67 81 51 82 52 83 57 84
REMARK SMILES IDX 53 85 54 86 56 87 58 88 55 89
REMARK H PARENT 75 51 49 62
REMARK Flexibility Score: inf
ROOT
ATOM      1  C   UNL A   1      32.686  35.827  30.883  1.00  0.00     0.188 C 
ENDROOT
BRANCH   1   2
ATOM      2  O   UNL A   1      32.666  34.930  29.769  1.00  0.00    -0.377 OA
BRANCH   2   3
ATOM      3  C   UNL A   1      33.643  35.103  28.755  1.00  0.00     0.188 C 
BRANCH   3   4
ATOM      4  C   UNL A   1      34.385  33.804  28.392  1.00  0.00     0.188 C 
BRANCH   4   5
ATOM      5  O   UNL A   1      33.505  32.706  28.166  1.00  0.00    -0.376 OA
BRANCH   5   6
ATOM      6  C   UNL A   1      34.082  31.413  28.054  1.00  0.00     0.202 C 
BRANCH   6   7
ATOM      7  C   UNL A   1      33.605  30.519  26.898  1.00  0.00     0.261 C 
BRANCH   7   8
ATOM      8  O   UNL A   1      33.786  29.109  27.095  1.00  0.00    -0.460 OA
BRANCH   8   9
ATOM      9  C   UNL A   1      32.692  28.326  27.048  1.00  0.00     0.338 C 
ATOM     10  O   UNL A   1      31.654  28.486  27.666  1.00  0.00    -0.246 OA
BRANCH   9  11
ATOM     11  C   UNL A   1      32.902  27.315  25.987  1.00  0.00     0.087 C 
ATOM     12  C   UNL A   1      36.689  22.754  24.307  1.00  0.00     0.044 C 
ATOM     13  C   UNL A   1      35.515  23.682  24.188  1.00  0.00    -0.050 A 
ATOM     14  C   UNL A   1      34.702  23.673  23.050  1.00  0.00     0.010 A 
ATOM     15  C   UNL A   1      35.226  24.580  25.223  1.00  0.00     0.015 A 
ATOM     16  C   UNL A   1      33.611  24.546  22.936  1.00  0.00    -0.008 A 
ATOM     17  C   UNL A   1      34.155  25.473  25.115  1.00  0.00     0.018 A 
ATOM     18  C   UNL A   1      32.771  24.539  21.689  1.00  0.00     0.048 C 
ATOM     19  C   UNL A   1      33.328  25.431  23.990  1.00  0.00     0.130 A 
ATOM     20  C   UNL A   1      33.942  26.485  26.137  1.00  0.00     0.027 C 
ATOM     21  O   UNL A   1      32.236  26.238  23.835  1.00  0.00    -0.475 OA
ATOM     22  C   UNL A   1      31.910  27.215  24.859  1.00  0.00     0.316 C 
BRANCH  22  23
ATOM     23  C   UNL A   1      31.685  28.562  24.156  1.00  0.00     0.430 C 
ATOM     24  F   UNL A   1      31.266  28.387  22.878  1.00  0.00    -0.167 F 
ATOM     25  F   UNL A   1      30.739  29.311  24.769  1.00  0.00    -0.167 F 
ATOM     26  F   UNL A   1      32.816  29.303  24.112  1.00  0.00    -0.167 F 
ENDBRANCH  22  23
ENDBRANCH   9  11
ENDBRANCH   8   9
ENDBRANCH   7   8
ENDBRANCH   6   7
ENDBRANCH   5   6
ENDBRANCH   4   5
ENDBRANCH   3   4
ENDBRANCH   2   3
ENDBRANCH   1   2
BRANCH   1  27
ATOM     27  C   UNL A   1      33.956  36.065  31.736  1.00  0.00     0.188 C 
BRANCH  27  28
ATOM     28  O   UNL A   1      33.953  35.396  32.992  1.00  0.00    -0.376 OA
BRANCH  28  29
ATOM     29  C   UNL A   1      33.756  33.990  32.972  1.00  0.00     0.202 C 
BRANCH  29  30
ATOM     30  C   UNL A   1      34.752  33.234  32.087  1.00  0.00     0.261 C 
BRANCH  30  31
ATOM     31  O   UNL A   1      35.266  32.016  32.648  1.00  0.00    -0.460 OA
BRANCH  31  32
ATOM     32  C   UNL A   1      36.436  32.080  33.320  1.00  0.00     0.338 C 
ATOM     33  O   UNL A   1      36.613  32.440  34.471  1.00  0.00    -0.246 OA
BRANCH  32  34
ATOM     34  C   UNL A   1      37.461  31.448  32.467  1.00  0.00     0.060 A 
ATOM     35  C   UNL A   1      38.520  30.758  33.069  1.00  0.00     0.016 A 
ATOM     36  C   UNL A   1      37.346  31.501  31.075  1.00  0.00     0.016 A 
ATOM     37  C   UNL A   1      39.477  30.128  32.274  1.00  0.00     0.010 A 
ATOM     38  C   UNL A   1      38.314  30.885  30.281  1.00  0.00     0.010 A 
ATOM     39  C   UNL A   1      39.395  30.215  30.877  1.00  0.00    -0.014 A 
BRANCH  39  40
ATOM     40  C   UNL A   1      40.523  29.740  30.043  1.00  0.00     0.031 A 
ATOM     41  C   UNL A   1      41.660  30.684  29.769  1.00  0.00     0.074 A 
ATOM     42  C   UNL A   1      40.552  28.485  29.560  1.00  0.00     0.049 A 
ATOM     43  N   UNL A   1      42.763  30.481  29.098  1.00  0.00    -0.248 NA
ATOM     44  C   UNL A   1      41.536  32.040  30.330  1.00  0.00     0.031 C 
ATOM     45  C   UNL A   1      39.521  27.473  29.774  1.00  0.00     0.029 A 
ATOM     46  N   UNL A   1      41.493  27.851  28.787  1.00  0.00    -0.354 N 
ATOM     47  C   UNL A   1      43.471  31.672  29.173  1.00  0.00     0.074 A 
ATOM     48  C   UNL A   1      42.655  32.610  29.911  1.00  0.00     0.031 C 
ATOM     49  C   UNL A   1      39.890  26.338  29.153  1.00  0.00     0.029 A 
ATOM     50  C   UNL A   1      41.172  26.551  28.481  1.00  0.00     0.049 A 
ATOM     51  H   UNL A   1      42.321  28.287  28.480  1.00  0.00     0.167 HD
ATOM     52  C   UNL A   1      44.702  31.953  28.688  1.00  0.00     0.037 A 
ATOM     53  C   UNL A   1      41.837  25.640  27.742  1.00  0.00     0.037 A 
ATOM     54  C   UNL A   1      45.507  31.024  27.942  1.00  0.00     0.049 A 
ATOM     55  C   UNL A   1      43.168  26.005  27.136  1.00  0.00     0.074 A 
ATOM     56  C   UNL A   1      46.772  31.216  27.414  1.00  0.00     0.029 A 
ATOM     57  N   UNL A   1      45.124  29.734  27.614  1.00  0.00    -0.354 N 
ATOM     58  N   UNL A   1      43.848  27.121  27.248  1.00  0.00    -0.248 NA
ATOM     59  C   UNL A   1      43.827  24.986  26.303  1.00  0.00     0.031 C 
ATOM     60  C   UNL A   1      47.133  30.058  26.722  1.00  0.00     0.029 A 
ATOM     61  C   UNL A   1      46.118  29.126  26.867  1.00  0.00     0.049 A 
ATOM     62  H   UNL A   1      44.273  29.312  27.873  1.00  0.00     0.167 HD
ATOM     63  C   UNL A   1      45.025  26.926  26.533  1.00  0.00     0.074 A 
ATOM     64  C   UNL A   1      44.968  25.586  25.990  1.00  0.00     0.031 C 
ATOM     65  C   UNL A   1      46.059  27.782  26.351  1.00  0.00     0.037 A 
BRANCH  52  66
ATOM     66  C   UNL A   1      45.258  33.319  28.949  1.00  0.00     0.057 A 
ATOM     67  C   UNL A   1      44.996  34.391  28.088  1.00  0.00     0.134 A 
ATOM     68  C   UNL A   1      46.009  33.581  30.101  1.00  0.00     0.134 A 
ATOM     69  F   UNL A   1      44.294  34.202  26.960  1.00  0.00    -0.206 F 
ATOM     70  C   UNL A   1      45.469  35.676  28.358  1.00  0.00     0.040 A 
ATOM     71  C   UNL A   1      46.467  34.866  30.395  1.00  0.00     0.040 A 
ATOM     72  F   UNL A   1      46.292  32.597  30.969  1.00  0.00    -0.206 F 
ATOM     73  C   UNL A   1      46.198  35.917  29.521  1.00  0.00     0.006 A 
ENDBRANCH  52  66
BRANCH  53  74
ATOM     74  C   UNL A   1      41.268  24.281  27.554  1.00  0.00     0.057 A 
ATOM     75  C   UNL A   1      40.200  24.060  26.677  1.00  0.00     0.134 A 
ATOM     76  C   UNL A   1      41.778  23.173  28.241  1.00  0.00     0.134 A 
ATOM     77  F   UNL A   1      39.654  25.085  26.007  1.00  0.00    -0.206 F 
ATOM     78  C   UNL A   1      39.653  22.789  26.496  1.00  0.00     0.040 A 
ATOM     79  C   UNL A   1      41.256  21.892  28.053  1.00  0.00     0.040 A 
ATOM     80  F   UNL A   1      42.799  23.318  29.097  1.00  0.00    -0.206 F 
ATOM     81  C   UNL A   1      40.187  21.698  27.178  1.00  0.00     0.006 A 
ENDBRANCH  53  74
BRANCH  65  82
ATOM     82  C   UNL A   1      47.242  27.308  25.560  1.00  0.00     0.057 A 
ATOM     83  C   UNL A   1      47.350  27.537  24.184  1.00  0.00     0.134 A 
ATOM     84  C   UNL A   1      48.344  26.733  26.210  1.00  0.00     0.134 A 
ATOM     85  F   UNL A   1      46.328  28.078  23.504  1.00  0.00    -0.206 F 
ATOM     86  C   UNL A   1      48.513  27.216  23.481  1.00  0.00     0.040 A 
ATOM     87  C   UNL A   1      49.520  26.430  25.523  1.00  0.00     0.040 A 
ATOM     88  F   UNL A   1      48.310  26.500  27.531  1.00  0.00    -0.206 F 
ATOM     89  C   UNL A   1      49.607  26.674  24.154  1.00  0.00     0.006 A 
ENDBRANCH  65  82
ENDBRANCH  39  40
ENDBRANCH  32  34
ENDBRANCH  31  32
ENDBRANCH  30  31
ENDBRANCH  29  30
ENDBRANCH  28  29
ENDBRANCH  27  28
ENDBRANCH   1  27
TORSDOF 21
ENDMDL
MODEL 2
REMARK VINA RESULT:     -10.4      4.785     10.111
REMARK SMILES Cc1cc(C)c2c(c1)C=C(C(=O)OCCOCCOCCOCCOC(=O)c1ccc(-c3c4nc(c(-c5c(F)cccc5F)c5ccc([nH]5)c(-c5c(F)cccc5F)c5nc(c(-c6c(F)cccc6F)c6ccc3[nH]6)C=C5)C=C4)cc1)[C@@H](C(F)(F)F)O2
REMARK SMILES IDX 20 1 19 2 18 3 17 4 16 5 15 6 14 7 13 8 11 9 12 10 10 11
REMARK SMILES IDX 1 12 2 13 3 14 8 15 4 16 7 17 5 18 6 19 9 20 87 21 82 22
REMARK SMILES IDX 83 23 84 24 85 25 86 26 21 27 22 28 23 29 24 30 25 31 26 32
REMARK SMILES IDX 27 33 28 34 29 35 81 36 30 37 80 38 31 39 32 40 33 41 74 42
REMARK SMILES IDX 34 43 79 44 73 45 75 46 35 47 78 48 72 49 71 50 36 52 62 53
REMARK SMILES IDX 45 54 61 55 46 56 49 57 60 58 76 59 47 60 48 61 59 63 77 64
REMARK SMILES IDX 50 65 37 66 38 67 43 68 39 69 40 70 42 71 44 72 41 73 63 74
REMARK SMILES IDX 64 75 69 76 65 77 66 78 68 79 70 80 67 81 51 82 52 83 57 84
REMARK SMILES IDX 53 85 54 86 56 87 58 88 55 89
REMARK H PARENT 75 51 49 62
REMARK Flexibility Score: inf
ROOT
ATOM      1  C   UNL A   1      40.378  20.547  26.451  1.00  0.00     0.188 C 
ENDROOT
BRANCH   1   2
ATOM      2  O   UNL A   1      38.977  20.825  26.380  1.00  0.00    -0.377 OA
BRANCH   2   3
ATOM      3  C   UNL A   1      38.519  21.690  25.354  1.00  0.00     0.188 C 
BRANCH   3   4
ATOM      4  C   UNL A   1      37.202  22.408  25.701  1.00  0.00     0.188 C 
BRANCH   4   5
ATOM      5  O   UNL A   1      36.084  21.526  25.747  1.00  0.00    -0.376 OA
BRANCH   5   6
ATOM      6  C   UNL A   1      35.088  21.776  26.728  1.00  0.00     0.202 C 
BRANCH   6   7
ATOM      7  C   UNL A   1      33.618  21.670  26.293  1.00  0.00     0.261 C 
BRANCH   7   8
ATOM      8  O   UNL A   1      32.753  22.704  26.785  1.00  0.00    -0.460 OA
BRANCH   8   9
ATOM      9  C   UNL A   1      31.798  23.168  25.956  1.00  0.00     0.338 C 
ATOM     10  O   UNL A   1      30.717  22.654  25.731  1.00  0.00    -0.246 OA
BRANCH   9  11
ATOM     11  C   UNL A   1      32.220  24.505  25.483  1.00  0.00     0.087 C 
ATOM     12  C   UNL A   1      31.697  30.504  26.786  1.00  0.00     0.044 C 
ATOM     13  C   UNL A   1      32.149  29.299  26.016  1.00  0.00    -0.050 A 
ATOM     14  C   UNL A   1      32.855  29.434  24.816  1.00  0.00     0.010 A 
ATOM     15  C   UNL A   1      31.856  28.015  26.492  1.00  0.00     0.015 A 
ATOM     16  C   UNL A   1      33.269  28.306  24.092  1.00  0.00    -0.008 A 
ATOM     17  C   UNL A   1      32.243  26.880  25.770  1.00  0.00     0.018 A 
ATOM     18  C   UNL A   1      33.999  28.477  22.789  1.00  0.00     0.048 C 
ATOM     19  C   UNL A   1      32.978  27.026  24.592  1.00  0.00     0.130 A 
ATOM     20  C   UNL A   1      31.823  25.559  26.208  1.00  0.00     0.027 C 
ATOM     21  O   UNL A   1      33.432  25.964  23.859  1.00  0.00    -0.475 OA
ATOM     22  C   UNL A   1      33.125  24.610  24.284  1.00  0.00     0.316 C 
BRANCH  22  23
ATOM     23  C   UNL A   1      32.572  23.858  23.065  1.00  0.00     0.430 C 
ATOM     24  F   UNL A   1      33.245  24.189  21.935  1.00  0.00    -0.167 F 
ATOM     25  F   UNL A   1      32.681  22.515  23.195  1.00  0.00    -0.167 F 
ATOM     26  F   UNL A   1      31.265  24.135  22.852  1.00  0.00    -0.167 F 
ENDBRANCH  22  23
ENDBRANCH   9  11
ENDBRANCH   8   9
ENDBRANCH   7   8
ENDBRANCH   6   7
ENDBRANCH   5   6
ENDBRANCH   4   5
ENDBRANCH   3   4
ENDBRANCH   2   3
ENDBRANCH   1   2
BRANCH   1  27
ATOM     27  C   UNL A   1      41.298  21.180  27.522  1.00  0.00     0.188 C 
BRANCH  27  28
ATOM     28  O   UNL A   1      42.661  21.300  27.128  1.00  0.00    -0.376 OA
BRANCH  28  29
ATOM     29  C   UNL A   1      42.987  20.898  25.806  1.00  0.00     0.202 C 
BRANCH  29  30
ATOM     30  C   UNL A   1      43.843  21.913  25.040  1.00  0.00     0.261 C 
BRANCH  30  31
ATOM     31  O   UNL A   1      43.300  23.240  24.969  1.00  0.00    -0.460 OA
BRANCH  31  32
ATOM     32  C   UNL A   1      44.139  24.273  25.197  1.00  0.00     0.338 C 
ATOM     33  O   UNL A   1      45.159  24.551  24.589  1.00  0.00    -0.246 OA
BRANCH  32  34
ATOM     34  C   UNL A   1      43.500  25.136  26.209  1.00  0.00     0.060 A 
ATOM     35  C   UNL A   1      43.983  26.436  26.402  1.00  0.00     0.016 A 
ATOM     36  C   UNL A   1      42.397  24.672  26.931  1.00  0.00     0.016 A 
ATOM     37  C   UNL A   1      43.366  27.272  27.332  1.00  0.00     0.010 A 
ATOM     38  C   UNL A   1      41.792  25.504  27.873  1.00  0.00     0.010 A 
ATOM     39  C   UNL A   1      42.287  26.800  28.093  1.00  0.00    -0.014 A 
BRANCH  39  40
ATOM     40  C   UNL A   1      41.779  27.605  29.227  1.00  0.00     0.031 A 
ATOM     41  C   UNL A   1      42.497  27.520  30.545  1.00  0.00     0.074 A 
ATOM     42  C   UNL A   1      40.717  28.417  29.085  1.00  0.00     0.049 A 
ATOM     43  N   UNL A   1      42.257  28.155  31.662  1.00  0.00    -0.248 NA
ATOM     44  C   UNL A   1      43.644  26.598  30.610  1.00  0.00     0.031 C 
ATOM     45  C   UNL A   1      39.951  28.600  27.854  1.00  0.00     0.029 A 
ATOM     46  N   UNL A   1      40.100  29.244  29.992  1.00  0.00    -0.354 N 
ATOM     47  C   UNL A   1      43.230  27.725  32.554  1.00  0.00     0.074 A 
ATOM     48  C   UNL A   1      44.034  26.740  31.867  1.00  0.00     0.031 C 
ATOM     49  C   UNL A   1      38.970  29.491  28.081  1.00  0.00     0.029 A 
ATOM     50  C   UNL A   1      39.025  29.925  29.477  1.00  0.00     0.049 A 
ATOM     51  H   UNL A   1      40.401  29.338  30.925  1.00  0.00     0.167 HD
ATOM     52  C   UNL A   1      43.446  28.131  33.825  1.00  0.00     0.037 A 
ATOM     53  C   UNL A   1      38.183  30.797  30.065  1.00  0.00     0.037 A 
ATOM     54  C   UNL A   1      42.637  29.100  34.513  1.00  0.00     0.049 A 
ATOM     55  C   UNL A   1      38.390  31.168  31.512  1.00  0.00     0.074 A 
ATOM     56  C   UNL A   1      42.782  29.579  35.803  1.00  0.00     0.029 A 
ATOM     57  N   UNL A   1      41.529  29.730  33.970  1.00  0.00    -0.354 N 
ATOM     58  N   UNL A   1      39.339  30.787  32.334  1.00  0.00    -0.248 NA
ATOM     59  C   UNL A   1      37.415  32.090  32.114  1.00  0.00     0.031 C 
ATOM     60  C   UNL A   1      41.732  30.463  36.058  1.00  0.00     0.029 A 
ATOM     61  C   UNL A   1      40.965  30.576  34.908  1.00  0.00     0.049 A 
ATOM     62  H   UNL A   1      41.193  29.597  33.054  1.00  0.00     0.167 HD
ATOM     63  C   UNL A   1      39.095  31.447  33.533  1.00  0.00     0.074 A 
ATOM     64  C   UNL A   1      37.910  32.253  33.335  1.00  0.00     0.031 C 
ATOM     65  C   UNL A   1      39.797  31.391  34.691  1.00  0.00     0.037 A 
BRANCH  52  66
ATOM     66  C   UNL A   1      44.606  27.530  34.560  1.00  0.00     0.057 A 
ATOM     67  C   UNL A   1      45.866  28.140  34.562  1.00  0.00     0.134 A 
ATOM     68  C   UNL A   1      44.447  26.367  35.322  1.00  0.00     0.134 A 
ATOM     69  F   UNL A   1      46.086  29.249  33.840  1.00  0.00    -0.206 F 
ATOM     70  C   UNL A   1      46.931  27.610  35.289  1.00  0.00     0.040 A 
ATOM     71  C   UNL A   1      45.498  25.840  36.073  1.00  0.00     0.040 A 
ATOM     72  F   UNL A   1      43.264  25.735  35.365  1.00  0.00    -0.206 F 
ATOM     73  C   UNL A   1      46.746  26.461  36.057  1.00  0.00     0.006 A 
ENDBRANCH  52  66
BRANCH  53  74
ATOM     74  C   UNL A   1      37.078  31.405  29.281  1.00  0.00     0.057 A 
ATOM     75  C   UNL A   1      35.904  30.691  29.014  1.00  0.00     0.134 A 
ATOM     76  C   UNL A   1      37.166  32.711  28.783  1.00  0.00     0.134 A 
ATOM     77  F   UNL A   1      35.769  29.429  29.444  1.00  0.00    -0.206 F 
ATOM     78  C   UNL A   1      34.861  31.250  28.274  1.00  0.00     0.040 A 
ATOM     79  C   UNL A   1      36.121  33.291  28.061  1.00  0.00     0.040 A 
ATOM     80  F   UNL A   1      38.265  33.447  29.003  1.00  0.00    -0.206 F 
ATOM     81  C   UNL A   1      34.964  32.556  27.801  1.00  0.00     0.006 A 
ENDBRANCH  53  74
BRANCH  65  82
ATOM     82  C   UNL A   1      39.341  32.242  35.839  1.00  0.00     0.057 A 
ATOM     83  C   UNL A   1      39.773  33.563  35.995  1.00  0.00     0.134 A 
ATOM     84  C   UNL A   1      38.357  31.773  36.721  1.00  0.00     0.134 A 
ATOM     85  F   UNL A   1      40.717  34.069  35.187  1.00  0.00    -0.206 F 
ATOM     86  C   UNL A   1      39.240  34.392  36.984  1.00  0.00     0.040 A 
ATOM     87  C   UNL A   1      37.800  32.598  37.698  1.00  0.00     0.040 A 
ATOM     88  F   UNL A   1      37.890  30.520  36.616  1.00  0.00    -0.206 F 
ATOM     89  C   UNL A   1      38.240  33.914  37.830  1.00  0.00     0.006 A 
ENDBRANCH  65  82
ENDBRANCH  39  40
ENDBRANCH  32  34
ENDBRANCH  31  32
ENDBRANCH  30  31
ENDBRANCH  29  30
ENDBRANCH  28  29
ENDBRANCH  27  28
ENDBRANCH   1  27
TORSDOF 21
ENDMDL
MODEL 3
REMARK VINA RESULT:     -10.4      1.136      6.083
REMARK SMILES Cc1cc(C)c2c(c1)C=C(C(=O)OCCOCCOCCOCCOC(=O)c1ccc(-c3c4nc(c(-c5c(F)cccc5F)c5ccc([nH]5)c(-c5c(F)cccc5F)c5nc(c(-c6c(F)cccc6F)c6ccc3[nH]6)C=C5)C=C4)cc1)[C@@H](C(F)(F)F)O2
REMARK SMILES IDX 20 1 19 2 18 3 17 4 16 5 15 6 14 7 13 8 11 9 12 10 10 11
REMARK SMILES IDX 1 12 2 13 3 14 8 15 4 16 7 17 5 18 6 19 9 20 87 21 82 22
REMARK SMILES IDX 83 23 84 24 85 25 86 26 21 27 22 28 23 29 24 30 25 31 26 32
REMARK SMILES IDX 27 33 28 34 29 35 81 36 30 37 80 38 31 39 32 40 33 41 74 42
REMARK SMILES IDX 34 43 79 44 73 45 75 46 35 47 78 48 72 49 71 50 36 52 62 53
REMARK SMILES IDX 45 54 61 55 46 56 49 57 60 58 76 59 47 60 48 61 59 63 77 64
REMARK SMILES IDX 50 65 37 66 38 67 43 68 39 69 40 70 42 71 44 72 41 73 63 74
REMARK SMILES IDX 64 75 69 76 65 77 66 78 68 79 70 80 67 81 51 82 52 83 57 84
REMARK SMILES IDX 53 85 54 86 56 87 58 88 55 89
REMARK H PARENT 75 51 49 62
REMARK Flexibility Score: inf
ROOT
ATOM      1  C   UNL A   1      33.087  35.932  30.540  1.00  0.00     0.188 C 
ENDROOT
BRANCH   1   2
ATOM      2  O   UNL A   1      33.060  34.588  30.053  1.00  0.00    -0.377 OA
BRANCH   2   3
ATOM      3  C   UNL A   1      34.102  34.171  29.187  1.00  0.00     0.188 C 
BRANCH   3   4
ATOM      4  C   UNL A   1      33.697  33.017  28.251  1.00  0.00     0.188 C 
BRANCH   4   5
ATOM      5  O   UNL A   1      34.812  32.268  27.778  1.00  0.00    -0.376 OA
BRANCH   5   6
ATOM      6  C   UNL A   1      34.648  30.864  27.633  1.00  0.00     0.202 C 
BRANCH   6   7
ATOM      7  C   UNL A   1      33.272  30.352  27.178  1.00  0.00     0.261 C 
BRANCH   7   8
ATOM      8  O   UNL A   1      33.179  28.934  26.974  1.00  0.00    -0.460 OA
BRANCH   8   9
ATOM      9  C   UNL A   1      33.271  28.476  25.711  1.00  0.00     0.338 C 
ATOM     10  O   UNL A   1      33.586  29.118  24.725  1.00  0.00    -0.246 OA
BRANCH   9  11
ATOM     11  C   UNL A   1      33.083  27.009  25.746  1.00  0.00     0.087 C 
ATOM     12  C   UNL A   1      36.213  21.705  25.565  1.00  0.00     0.044 C 
ATOM     13  C   UNL A   1      34.999  22.584  25.643  1.00  0.00    -0.050 A 
ATOM     14  C   UNL A   1      33.711  22.036  25.633  1.00  0.00     0.010 A 
ATOM     15  C   UNL A   1      35.146  23.974  25.716  1.00  0.00     0.015 A 
ATOM     16  C   UNL A   1      32.578  22.859  25.696  1.00  0.00    -0.008 A 
ATOM     17  C   UNL A   1      34.024  24.809  25.756  1.00  0.00     0.018 A 
ATOM     18  C   UNL A   1      31.204  22.249  25.653  1.00  0.00     0.048 C 
ATOM     19  C   UNL A   1      32.744  24.251  25.783  1.00  0.00     0.130 A 
ATOM     20  C   UNL A   1      34.187  26.253  25.704  1.00  0.00     0.027 C 
ATOM     21  O   UNL A   1      31.604  25.000  25.871  1.00  0.00    -0.475 OA
ATOM     22  C   UNL A   1      31.694  26.449  25.911  1.00  0.00     0.316 C 
BRANCH  22  23
ATOM     23  C   UNL A   1      30.712  27.001  24.867  1.00  0.00     0.430 C 
ATOM     24  F   UNL A   1      29.489  26.429  24.991  1.00  0.00    -0.167 F 
ATOM     25  F   UNL A   1      30.526  28.336  24.992  1.00  0.00    -0.167 F 
ATOM     26  F   UNL A   1      31.139  26.773  23.604  1.00  0.00    -0.167 F 
ENDBRANCH  22  23
ENDBRANCH   9  11
ENDBRANCH   8   9
ENDBRANCH   7   8
ENDBRANCH   6   7
ENDBRANCH   5   6
ENDBRANCH   4   5
ENDBRANCH   3   4
ENDBRANCH   2   3
ENDBRANCH   1   2
BRANCH   1  27
ATOM     27  C   UNL A   1      33.147  36.269  32.049  1.00  0.00     0.188 C 
BRANCH  27  28
ATOM     28  O   UNL A   1      34.465  36.380  32.574  1.00  0.00    -0.376 OA
BRANCH  28  29
ATOM     29  C   UNL A   1      34.987  35.247  33.251  1.00  0.00     0.202 C 
BRANCH  29  30
ATOM     30  C   UNL A   1      36.191  34.604  32.555  1.00  0.00     0.261 C 
BRANCH  30  31
ATOM     31  O   UNL A   1      36.485  33.258  32.960  1.00  0.00    -0.460 OA
BRANCH  31  32
ATOM     32  C   UNL A   1      36.030  32.255  32.179  1.00  0.00     0.338 C 
ATOM     33  O   UNL A   1      34.871  31.980  31.921  1.00  0.00    -0.246 OA
BRANCH  32  34
ATOM     34  C   UNL A   1      37.205  31.650  31.523  1.00  0.00     0.060 A 
ATOM     35  C   UNL A   1      38.224  31.106  32.314  1.00  0.00     0.016 A 
ATOM     36  C   UNL A   1      37.274  31.583  30.128  1.00  0.00     0.016 A 
ATOM     37  C   UNL A   1      39.324  30.501  31.706  1.00  0.00     0.010 A 
ATOM     38  C   UNL A   1      38.384  30.993  29.522  1.00  0.00     0.010 A 
ATOM     39  C   UNL A   1      39.424  30.470  30.308  1.00  0.00    -0.014 A 
BRANCH  39  40
ATOM     40  C   UNL A   1      40.686  30.031  29.670  1.00  0.00     0.031 A 
ATOM     41  C   UNL A   1      40.795  28.607  29.201  1.00  0.00     0.074 A 
ATOM     42  C   UNL A   1      41.707  30.886  29.484  1.00  0.00     0.049 A 
ATOM     43  N   UNL A   1      41.783  28.010  28.589  1.00  0.00    -0.248 NA
ATOM     44  C   UNL A   1      39.632  27.741  29.456  1.00  0.00     0.031 C 
ATOM     45  C   UNL A   1      41.713  32.294  29.876  1.00  0.00     0.029 A 
ATOM     46  N   UNL A   1      42.941  30.690  28.914  1.00  0.00    -0.354 N 
ATOM     47  C   UNL A   1      41.355  26.708  28.367  1.00  0.00     0.074 A 
ATOM     48  C   UNL A   1      40.039  26.586  28.954  1.00  0.00     0.031 C 
ATOM     49  C   UNL A   1      42.892  32.838  29.526  1.00  0.00     0.029 A 
ATOM     50  C   UNL A   1      43.731  31.813  28.905  1.00  0.00     0.049 A 
ATOM     51  H   UNL A   1      43.231  29.824  28.545  1.00  0.00     0.167 HD
ATOM     52  C   UNL A   1      41.993  25.710  27.715  1.00  0.00     0.037 A 
ATOM     53  C   UNL A   1      44.987  31.991  28.450  1.00  0.00     0.037 A 
ATOM     54  C   UNL A   1      43.307  25.828  27.145  1.00  0.00     0.049 A 
ATOM     55  C   UNL A   1      45.713  30.837  27.806  1.00  0.00     0.074 A 
ATOM     56  C   UNL A   1      44.034  24.872  26.459  1.00  0.00     0.029 A 
ATOM     57  N   UNL A   1      44.092  26.969  27.201  1.00  0.00    -0.354 N 
ATOM     58  N   UNL A   1      45.283  29.622  27.564  1.00  0.00    -0.248 NA
ATOM     59  C   UNL A   1      47.097  31.077  27.368  1.00  0.00     0.031 C 
ATOM     60  C   UNL A   1      45.280  25.418  26.143  1.00  0.00     0.029 A 
ATOM     61  C   UNL A   1      45.307  26.732  26.584  1.00  0.00     0.049 A 
ATOM     62  H   UNL A   1      43.825  27.821  27.617  1.00  0.00     0.167 HD
ATOM     63  C   UNL A   1      46.325  28.968  26.918  1.00  0.00     0.074 A 
ATOM     64  C   UNL A   1      47.411  29.918  26.804  1.00  0.00     0.031 C 
ATOM     65  C   UNL A   1      46.372  27.694  26.457  1.00  0.00     0.037 A 
BRANCH  52  66
ATOM     66  C   UNL A   1      41.279  24.400  27.579  1.00  0.00     0.057 A 
ATOM     67  C   UNL A   1      40.236  24.227  26.661  1.00  0.00     0.134 A 
ATOM     68  C   UNL A   1      41.677  23.285  28.326  1.00  0.00     0.134 A 
ATOM     69  F   UNL A   1      39.799  25.260  25.926  1.00  0.00    -0.206 F 
ATOM     70  C   UNL A   1      39.607  22.993  26.497  1.00  0.00     0.040 A 
ATOM     71  C   UNL A   1      41.073  22.040  28.154  1.00  0.00     0.040 A 
ATOM     72  F   UNL A   1      42.673  23.383  29.221  1.00  0.00    -0.206 F 
ATOM     73  C   UNL A   1      40.033  21.891  27.238  1.00  0.00     0.006 A 
ENDBRANCH  52  66
BRANCH  53  74
ATOM     74  C   UNL A   1      45.635  33.323  28.562  1.00  0.00     0.057 A 
ATOM     75  C   UNL A   1      46.384  33.669  29.692  1.00  0.00     0.134 A 
ATOM     76  C   UNL A   1      45.522  34.279  27.545  1.00  0.00     0.134 A 
ATOM     77  F   UNL A   1      46.510  32.805  30.709  1.00  0.00    -0.206 F 
ATOM     78  C   UNL A   1      46.993  34.919  29.811  1.00  0.00     0.040 A 
ATOM     79  C   UNL A   1      46.144  35.525  27.641  1.00  0.00     0.040 A 
ATOM     80  F   UNL A   1      44.816  34.010  26.438  1.00  0.00    -0.206 F 
ATOM     81  C   UNL A   1      46.880  35.849  28.780  1.00  0.00     0.006 A 
ENDBRANCH  53  74
BRANCH  65  82
ATOM     82  C   UNL A   1      47.616  27.240  25.752  1.00  0.00     0.057 A 
ATOM     83  C   UNL A   1      47.790  27.417  24.376  1.00  0.00     0.134 A 
ATOM     84  C   UNL A   1      48.702  26.740  26.485  1.00  0.00     0.134 A 
ATOM     85  F   UNL A   1      46.787  27.885  23.619  1.00  0.00    -0.206 F 
ATOM     86  C   UNL A   1      49.003  27.119  23.751  1.00  0.00     0.040 A 
ATOM     87  C   UNL A   1      49.926  26.460  25.876  1.00  0.00     0.040 A 
ATOM     88  F   UNL A   1      48.605  26.559  27.810  1.00  0.00    -0.206 F 
ATOM     89  C   UNL A   1      50.079  26.652  24.504  1.00  0.00     0.006 A 
ENDBRANCH  65  82
ENDBRANCH  39  40
ENDBRANCH  32  34
ENDBRANCH  31  32
ENDBRANCH  30  31
ENDBRANCH  29  30
ENDBRANCH  28  29
ENDBRANCH  27  28
ENDBRANCH   1  27
TORSDOF 21
ENDMDL
