MODEL 1
REMARK VINA RESULT:     -11.9      0.000      0.000
REMARK SMILES O=C(OCCOCCOCCOCCOC(=O)c1ccc(-c2c3nc(c(-c4c(F)cccc4F)c4ccc([nH]4)c(-c4c(F)cccc4F)c4nc(c(-c5c(F)cccc5F)c5ccc2[nH]5)C=C4)C=C3)cc1)C1=Cc2cc(Cl)cc(-c3ccc(Cl)cc3)c2O[C@@H]1C(F)(F)F
REMARK SMILES IDX 10 1 9 2 8 3 7 4 6 5 5 6 4 7 3 8 2 9 1 10 72 11 73 12 89 13
REMARK SMILES IDX 74 14 88 15 75 16 87 17 76 18 79 19 77 20 78 21 90 22 91 23
REMARK SMILES IDX 92 24 93 25 80 26 81 27 86 28 82 29 85 30 83 31 84 32 11 33
REMARK SMILES IDX 12 34 13 35 14 36 15 37 16 38 17 39 18 40 19 41 71 42 20 43
REMARK SMILES IDX 70 44 21 45 22 46 23 47 64 48 24 49 69 50 63 51 65 52 25 53
REMARK SMILES IDX 68 54 62 55 61 56 26 58 52 59 35 60 51 61 36 62 39 63 50 64
REMARK SMILES IDX 66 65 37 66 38 67 49 69 67 70 40 71 27 72 28 73 33 74 29 75
REMARK SMILES IDX 30 76 32 77 34 78 31 79 53 80 54 81 59 82 55 83 56 84 58 85
REMARK SMILES IDX 60 86 57 87 41 88 42 89 47 90 43 91 44 92 46 93 48 94 45 95
REMARK H PARENT 65 57 39 68
REMARK Flexibility Score: inf
ROOT
ATOM      1  C   UNL A   1      29.075  31.809  23.613  1.00  0.00     0.188 C 
ENDROOT
BRANCH   1   2
ATOM      2  O   UNL A   1      28.475  30.610  23.195  1.00  0.00    -0.377 OA
BRANCH   2   3
ATOM      3  C   UNL A   1      28.935  30.271  21.915  1.00  0.00     0.188 C 
BRANCH   3   4
ATOM      4  C   UNL A   1      29.829  29.044  21.999  1.00  0.00     0.188 C 
BRANCH   4   5
ATOM      5  O   UNL A   1      30.131  28.331  23.245  1.00  0.00    -0.376 OA
BRANCH   5   6
ATOM      6  C   UNL A   1      31.340  28.404  24.380  1.00  0.00     0.202 C 
BRANCH   6   7
ATOM      7  C   UNL A   1      31.441  27.363  26.295  1.00  0.00     0.261 C 
BRANCH   7   8
ATOM      8  O   UNL A   1      32.462  26.296  26.696  1.00  0.00    -0.460 OA
BRANCH   8   9
ATOM      9  C   UNL A   1      31.993  25.049  26.555  1.00  0.00     0.338 C 
ATOM     10  O   UNL A   1      31.581  24.295  27.399  1.00  0.00    -0.246 OA
BRANCH   9  11
ATOM     11  C   UNL A   1      32.576  24.814  25.251  1.00  0.00     0.087 C 
ATOM     12  C   UNL A   1      34.020  24.613  25.281  1.00  0.00     0.027 C 
ATOM     13  C   UNL A   1      31.282  23.492  24.735  1.00  0.00     0.316 C 
ATOM     14  C   UNL A   1      34.811  23.015  25.064  1.00  0.00     0.019 A 
ATOM     15  O   UNL A   1      32.100  21.715  24.615  1.00  0.00    -0.475 OA
ATOM     16  C   UNL A   1      36.175  22.984  25.216  1.00  0.00     0.032 A 
ATOM     17  C   UNL A   1      33.920  21.532  24.872  1.00  0.00     0.135 A 
ATOM     18  C   UNL A   1      36.751  21.714  25.195  1.00  0.00     0.042 A 
ATOM     19  C   UNL A   1      34.595  20.307  24.958  1.00  0.00     0.026 A 
ATOM     20  Cl  UNL A   1      38.474  21.616  25.366  1.00  0.00    -0.084 Cl
ATOM     21  C   UNL A   1      36.017  20.477  25.082  1.00  0.00     0.033 A 
BRANCH  13  22
ATOM     22  C   UNL A   1      30.621  24.575  23.615  1.00  0.00     0.430 C 
ATOM     23  F   UNL A   1      31.443  25.256  22.796  1.00  0.00    -0.167 F 
ATOM     24  F   UNL A   1      29.868  23.822  22.751  1.00  0.00    -0.167 F 
ATOM     25  F   UNL A   1      29.741  25.464  24.138  1.00  0.00    -0.167 F 
ENDBRANCH  13  22
BRANCH  19  26
ATOM     26  C   UNL A   1      34.133  18.921  24.983  1.00  0.00    -0.015 A 
ATOM     27  C   UNL A   1      34.762  17.887  24.273  1.00  0.00     0.010 A 
ATOM     28  C   UNL A   1      32.889  18.617  25.509  1.00  0.00     0.010 A 
ATOM     29  C   UNL A   1      34.266  16.571  24.302  1.00  0.00     0.021 A 
ATOM     30  C   UNL A   1      32.501  17.297  25.720  1.00  0.00     0.021 A 
ATOM     31  C   UNL A   1      33.180  16.267  25.106  1.00  0.00     0.041 A 
ATOM     32  Cl  UNL A   1      32.619  14.655  25.290  1.00  0.00    -0.084 Cl
ENDBRANCH  19  26
ENDBRANCH   9  11
ENDBRANCH   8   9
ENDBRANCH   7   8
ENDBRANCH   6   7
ENDBRANCH   5   6
ENDBRANCH   4   5
ENDBRANCH   3   4
ENDBRANCH   2   3
ENDBRANCH   1   2
BRANCH   1  33
ATOM     33  C   UNL A   1      29.692  31.904  25.007  1.00  0.00     0.188 C 
BRANCH  33  34
ATOM     34  O   UNL A   1      30.953  31.349  25.313  1.00  0.00    -0.376 OA
BRANCH  34  35
ATOM     35  C   UNL A   1      31.624  31.794  26.476  1.00  0.00     0.202 C 
BRANCH  35  36
ATOM     36  C   UNL A   1      32.541  30.813  27.241  1.00  0.00     0.261 C 
BRANCH  36  37
ATOM     37  O   UNL A   1      33.962  30.964  27.076  1.00  0.00    -0.460 OA
BRANCH  37  38
ATOM     38  C   UNL A   1      34.649  31.424  28.148  1.00  0.00     0.338 C 
ATOM     39  O   UNL A   1      34.319  32.315  28.909  1.00  0.00    -0.246 OA
BRANCH  38  40
ATOM     40  C   UNL A   1      35.829  30.545  28.363  1.00  0.00     0.060 A 
ATOM     41  C   UNL A   1      35.901  29.766  29.530  1.00  0.00     0.016 A 
ATOM     42  C   UNL A   1      36.856  30.480  27.420  1.00  0.00     0.016 A 
ATOM     43  C   UNL A   1      37.008  28.941  29.773  1.00  0.00     0.010 A 
ATOM     44  C   UNL A   1      37.967  29.660  27.666  1.00  0.00     0.010 A 
ATOM     45  C   UNL A   1      38.071  28.914  28.863  1.00  0.00    -0.014 A 
BRANCH  45  46
ATOM     46  C   UNL A   1      39.409  28.414  29.286  1.00  0.00     0.031 A 
ATOM     47  C   UNL A   1      40.082  29.193  30.388  1.00  0.00     0.074 A 
ATOM     48  C   UNL A   1      40.024  27.333  28.765  1.00  0.00     0.049 A 
ATOM     49  N   UNL A   1      41.244  29.008  30.957  1.00  0.00    -0.248 NA
ATOM     50  C   UNL A   1      39.339  30.357  30.906  1.00  0.00     0.031 C 
ATOM     51  C   UNL A   1      39.488  26.448  27.736  1.00  0.00     0.029 A 
ATOM     52  N   UNL A   1      41.267  26.804  29.037  1.00  0.00    -0.354 N 
ATOM     53  C   UNL A   1      41.356  30.026  31.896  1.00  0.00     0.074 A 
ATOM     54  C   UNL A   1      40.212  30.888  31.740  1.00  0.00     0.031 C 
ATOM     55  C   UNL A   1      40.410  25.514  27.428  1.00  0.00     0.029 A 
ATOM     56  C   UNL A   1      41.597  25.720  28.256  1.00  0.00     0.049 A 
ATOM     57  H   UNL A   1      41.866  27.169  29.727  1.00  0.00     0.167 HD
ATOM     58  C   UNL A   1      42.294  30.204  32.852  1.00  0.00     0.037 A 
ATOM     59  C   UNL A   1      42.720  24.971  28.229  1.00  0.00     0.037 A 
ATOM     60  C   UNL A   1      43.435  29.353  33.016  1.00  0.00     0.049 A 
ATOM     61  C   UNL A   1      43.817  25.249  29.231  1.00  0.00     0.074 A 
ATOM     62  C   UNL A   1      44.433  29.426  33.968  1.00  0.00     0.029 A 
ATOM     63  N   UNL A   1      43.738  28.281  32.190  1.00  0.00    -0.354 N 
ATOM     64  N   UNL A   1      43.870  26.160  30.174  1.00  0.00    -0.248 NA
ATOM     65  C   UNL A   1      44.990  24.362  29.196  1.00  0.00     0.031 C 
ATOM     66  C   UNL A   1      45.383  28.446  33.671  1.00  0.00     0.029 A 
ATOM     67  C   UNL A   1      44.930  27.705  32.591  1.00  0.00     0.049 A 
ATOM     68  H   UNL A   1      43.188  27.977  31.432  1.00  0.00     0.167 HD
ATOM     69  C   UNL A   1      45.038  25.909  30.887  1.00  0.00     0.074 A 
ATOM     70  C   UNL A   1      45.667  24.765  30.261  1.00  0.00     0.031 C 
ATOM     71  C   UNL A   1      45.534  26.552  31.974  1.00  0.00     0.037 A 
BRANCH  58  72
ATOM     72  C   UNL A   1      42.109  31.379  33.765  1.00  0.00     0.057 A 
ATOM     73  C   UNL A   1      41.359  31.293  34.947  1.00  0.00     0.134 A 
ATOM     74  C   UNL A   1      42.643  32.628  33.428  1.00  0.00     0.134 A 
ATOM     75  F   UNL A   1      40.793  30.132  35.313  1.00  0.00    -0.206 F 
ATOM     76  C   UNL A   1      41.104  32.418  35.733  1.00  0.00     0.040 A 
ATOM     77  C   UNL A   1      42.430  33.750  34.227  1.00  0.00     0.040 A 
ATOM     78  F   UNL A   1      43.367  32.780  32.308  1.00  0.00    -0.206 F 
ATOM     79  C   UNL A   1      41.646  33.649  35.375  1.00  0.00     0.006 A 
ENDBRANCH  58  72
BRANCH  59  80
ATOM     80  C   UNL A   1      42.865  23.838  27.271  1.00  0.00     0.057 A 
ATOM     81  C   UNL A   1      43.380  24.039  25.982  1.00  0.00     0.134 A 
ATOM     82  C   UNL A   1      42.428  22.546  27.587  1.00  0.00     0.134 A 
ATOM     83  F   UNL A   1      43.791  25.258  25.604  1.00  0.00    -0.206 F 
ATOM     84  C   UNL A   1      43.421  23.012  25.035  1.00  0.00     0.040 A 
ATOM     85  C   UNL A   1      42.486  21.503  26.657  1.00  0.00     0.040 A 
ATOM     86  F   UNL A   1      41.924  22.280  28.800  1.00  0.00    -0.206 F 
ATOM     87  C   UNL A   1      42.973  21.736  25.373  1.00  0.00     0.006 A 
ENDBRANCH  59  80
BRANCH  71  88
ATOM     88  C   UNL A   1      46.769  25.989  32.620  1.00  0.00     0.057 A 
ATOM     89  C   UNL A   1      48.062  26.303  32.182  1.00  0.00     0.134 A 
ATOM     90  C   UNL A   1      46.655  25.150  33.738  1.00  0.00     0.134 A 
ATOM     91  F   UNL A   1      48.247  27.097  31.117  1.00  0.00    -0.206 F 
ATOM     92  C   UNL A   1      49.193  25.771  32.807  1.00  0.00     0.040 A 
ATOM     93  C   UNL A   1      47.777  24.648  34.397  1.00  0.00     0.040 A 
ATOM     94  F   UNL A   1      45.448  24.822  34.225  1.00  0.00    -0.206 F 
ATOM     95  C   UNL A   1      49.051  24.948  33.922  1.00  0.00     0.006 A 
ENDBRANCH  71  88
ENDBRANCH  45  46
ENDBRANCH  38  40
ENDBRANCH  37  38
ENDBRANCH  36  37
ENDBRANCH  35  36
ENDBRANCH  34  35
ENDBRANCH  33  34
ENDBRANCH   1  33
TORSDOF 22
ENDMDL
MODEL 2
REMARK VINA RESULT:     -11.7      2.553      4.015
REMARK SMILES O=C(OCCOCCOCCOCCOC(=O)c1ccc(-c2c3nc(c(-c4c(F)cccc4F)c4ccc([nH]4)c(-c4c(F)cccc4F)c4nc(c(-c5c(F)cccc5F)c5ccc2[nH]5)C=C4)C=C3)cc1)C1=Cc2cc(Cl)cc(-c3ccc(Cl)cc3)c2O[C@@H]1C(F)(F)F
REMARK SMILES IDX 10 1 9 2 8 3 7 4 6 5 5 6 4 7 3 8 2 9 1 10 72 11 73 12 89 13
REMARK SMILES IDX 74 14 88 15 75 16 87 17 76 18 79 19 77 20 78 21 90 22 91 23
REMARK SMILES IDX 92 24 93 25 80 26 81 27 86 28 82 29 85 30 83 31 84 32 11 33
REMARK SMILES IDX 12 34 13 35 14 36 15 37 16 38 17 39 18 40 19 41 71 42 20 43
REMARK SMILES IDX 70 44 21 45 22 46 23 47 64 48 24 49 69 50 63 51 65 52 25 53
REMARK SMILES IDX 68 54 62 55 61 56 26 58 52 59 35 60 51 61 36 62 39 63 50 64
REMARK SMILES IDX 66 65 37 66 38 67 49 69 67 70 40 71 27 72 28 73 33 74 29 75
REMARK SMILES IDX 30 76 32 77 34 78 31 79 53 80 54 81 59 82 55 83 56 84 58 85
REMARK SMILES IDX 60 86 57 87 41 88 42 89 47 90 43 91 44 92 46 93 48 94 45 95
REMARK H PARENT 65 57 39 68
REMARK Flexibility Score: inf
ROOT
ATOM      1  C   UNL A   1      29.470  31.485  24.305  1.00  0.00     0.188 C 
ENDROOT
BRANCH   1   2
ATOM      2  O   UNL A   1      29.115  31.787  22.980  1.00  0.00    -0.377 OA
BRANCH   2   3
ATOM      3  C   UNL A   1      29.094  30.611  22.216  1.00  0.00     0.188 C 
BRANCH   3   4
ATOM      4  C   UNL A   1      27.838  29.816  22.533  1.00  0.00     0.188 C 
BRANCH   4   5
ATOM      5  O   UNL A   1      27.843  28.432  23.020  1.00  0.00    -0.376 OA
BRANCH   5   6
ATOM      6  C   UNL A   1      29.013  27.358  23.505  1.00  0.00     0.202 C 
BRANCH   6   7
ATOM      7  C   UNL A   1      30.664  26.557  22.324  1.00  0.00     0.261 C 
BRANCH   7   8
ATOM      8  O   UNL A   1      32.121  27.021  22.370  1.00  0.00    -0.460 OA
BRANCH   8   9
ATOM      9  C   UNL A   1      32.992  26.003  22.360  1.00  0.00     0.338 C 
ATOM     10  O   UNL A   1      33.576  25.515  21.426  1.00  0.00    -0.246 OA
BRANCH   9  11
ATOM     11  C   UNL A   1      32.615  25.468  23.651  1.00  0.00     0.087 C 
ATOM     12  C   UNL A   1      32.092  24.108  23.592  1.00  0.00     0.027 C 
ATOM     13  C   UNL A   1      34.245  25.993  24.522  1.00  0.00     0.316 C 
ATOM     14  C   UNL A   1      33.010  22.660  24.127  1.00  0.00     0.019 A 
ATOM     15  O   UNL A   1      35.323  24.429  25.002  1.00  0.00    -0.475 OA
ATOM     16  C   UNL A   1      32.409  21.444  23.914  1.00  0.00     0.032 A 
ATOM     17  C   UNL A   1      34.653  22.734  24.699  1.00  0.00     0.135 A 
ATOM     18  C   UNL A   1      33.198  20.329  24.195  1.00  0.00     0.042 A 
ATOM     19  C   UNL A   1      35.379  21.548  24.860  1.00  0.00     0.026 A 
ATOM     20  Cl  UNL A   1      32.484  18.766  23.961  1.00  0.00    -0.084 Cl
ATOM     21  C   UNL A   1      34.575  20.380  24.627  1.00  0.00     0.033 A 
BRANCH  13  22
ATOM     22  C   UNL A   1      33.398  27.168  25.399  1.00  0.00     0.430 C 
ATOM     23  F   UNL A   1      32.231  26.838  25.983  1.00  0.00    -0.167 F 
ATOM     24  F   UNL A   1      34.197  27.506  26.460  1.00  0.00    -0.167 F 
ATOM     25  F   UNL A   1      33.206  28.338  24.739  1.00  0.00    -0.167 F 
ENDBRANCH  13  22
BRANCH  19  26
ATOM     26  C   UNL A   1      36.781  21.280  25.177  1.00  0.00    -0.015 A 
ATOM     27  C   UNL A   1      37.387  20.028  24.986  1.00  0.00     0.010 A 
ATOM     28  C   UNL A   1      37.506  22.189  25.927  1.00  0.00     0.010 A 
ATOM     29  C   UNL A   1      38.733  19.806  25.332  1.00  0.00     0.021 A 
ATOM     30  C   UNL A   1      38.883  22.057  26.084  1.00  0.00     0.021 A 
ATOM     31  C   UNL A   1      39.502  20.859  25.800  1.00  0.00     0.041 A 
ATOM     32  Cl  UNL A   1      41.182  20.681  26.104  1.00  0.00    -0.084 Cl
ENDBRANCH  19  26
ENDBRANCH   9  11
ENDBRANCH   8   9
ENDBRANCH   7   8
ENDBRANCH   6   7
ENDBRANCH   5   6
ENDBRANCH   4   5
ENDBRANCH   3   4
ENDBRANCH   2   3
ENDBRANCH   1   2
BRANCH   1  33
ATOM     33  C   UNL A   1      30.644  30.549  24.581  1.00  0.00     0.188 C 
BRANCH  33  34
ATOM     34  O   UNL A   1      31.612  30.825  25.570  1.00  0.00    -0.376 OA
BRANCH  34  35
ATOM     35  C   UNL A   1      31.236  31.607  26.687  1.00  0.00     0.202 C 
BRANCH  35  36
ATOM     36  C   UNL A   1      31.771  33.051  26.812  1.00  0.00     0.261 C 
BRANCH  36  37
ATOM     37  O   UNL A   1      33.131  33.222  27.249  1.00  0.00    -0.460 OA
BRANCH  37  38
ATOM     38  C   UNL A   1      33.327  34.036  28.313  1.00  0.00     0.338 C 
ATOM     39  O   UNL A   1      32.602  34.936  28.697  1.00  0.00    -0.246 OA
BRANCH  38  40
ATOM     40  C   UNL A   1      34.513  33.550  29.065  1.00  0.00     0.060 A 
ATOM     41  C   UNL A   1      35.795  33.975  28.677  1.00  0.00     0.016 A 
ATOM     42  C   UNL A   1      34.368  32.687  30.153  1.00  0.00     0.016 A 
ATOM     43  C   UNL A   1      36.935  33.522  29.352  1.00  0.00     0.010 A 
ATOM     44  C   UNL A   1      35.510  32.227  30.825  1.00  0.00     0.010 A 
ATOM     45  C   UNL A   1      36.805  32.609  30.406  1.00  0.00    -0.014 A 
BRANCH  45  46
ATOM     46  C   UNL A   1      37.973  31.792  30.840  1.00  0.00     0.031 A 
ATOM     47  C   UNL A   1      38.505  32.088  32.219  1.00  0.00     0.074 A 
ATOM     48  C   UNL A   1      38.553  30.828  30.097  1.00  0.00     0.049 A 
ATOM     49  N   UNL A   1      39.508  31.553  32.864  1.00  0.00    -0.248 NA
ATOM     50  C   UNL A   1      37.810  33.152  32.968  1.00  0.00     0.031 C 
ATOM     51  C   UNL A   1      38.131  30.388  28.771  1.00  0.00     0.029 A 
ATOM     52  N   UNL A   1      39.655  30.045  30.365  1.00  0.00    -0.354 N 
ATOM     53  C   UNL A   1      39.550  32.215  34.085  1.00  0.00     0.074 A 
ATOM     54  C   UNL A   1      38.560  33.261  34.047  1.00  0.00     0.031 C 
ATOM     55  C   UNL A   1      38.985  29.448  28.320  1.00  0.00     0.029 A 
ATOM     56  C   UNL A   1      40.007  29.201  29.335  1.00  0.00     0.049 A 
ATOM     57  H   UNL A   1      40.147  30.085  31.216  1.00  0.00     0.167 HD
ATOM     58  C   UNL A   1      40.301  31.944  35.175  1.00  0.00     0.037 A 
ATOM     59  C   UNL A   1      41.025  28.320  29.236  1.00  0.00     0.037 A 
ATOM     60  C   UNL A   1      41.288  30.907  35.225  1.00  0.00     0.049 A 
ATOM     61  C   UNL A   1      41.932  28.104  30.425  1.00  0.00     0.074 A 
ATOM     62  C   UNL A   1      42.086  30.529  36.287  1.00  0.00     0.029 A 
ATOM     63  N   UNL A   1      41.623  30.093  34.154  1.00  0.00    -0.354 N 
ATOM     64  N   UNL A   1      41.904  28.673  31.607  1.00  0.00    -0.248 NA
ATOM     65  C   UNL A   1      42.986  27.086  30.282  1.00  0.00     0.031 C 
ATOM     66  C   UNL A   1      42.962  29.538  35.835  1.00  0.00     0.029 A 
ATOM     67  C   UNL A   1      42.645  29.236  34.520  1.00  0.00     0.049 A 
ATOM     68  H   UNL A   1      41.199  30.122  33.266  1.00  0.00     0.167 HD
ATOM     69  C   UNL A   1      42.879  28.033  32.366  1.00  0.00     0.074 A 
ATOM     70  C   UNL A   1      43.486  27.038  31.507  1.00  0.00     0.031 C 
ATOM     71  C   UNL A   1      43.225  28.235  33.663  1.00  0.00     0.037 A 
BRANCH  58  72
ATOM     72  C   UNL A   1      40.076  32.810  36.379  1.00  0.00     0.057 A 
ATOM     73  C   UNL A   1      39.042  32.559  37.294  1.00  0.00     0.134 A 
ATOM     74  C   UNL A   1      40.869  33.942  36.595  1.00  0.00     0.134 A 
ATOM     75  F   UNL A   1      38.225  31.507  37.129  1.00  0.00    -0.206 F 
ATOM     76  C   UNL A   1      38.775  33.431  38.350  1.00  0.00     0.040 A 
ATOM     77  C   UNL A   1      40.637  34.799  37.670  1.00  0.00     0.040 A 
ATOM     78  F   UNL A   1      41.871  34.243  35.755  1.00  0.00    -0.206 F 
ATOM     79  C   UNL A   1      39.578  34.552  38.542  1.00  0.00     0.006 A 
ENDBRANCH  58  72
BRANCH  59  80
ATOM     80  C   UNL A   1      41.224  27.514  27.998  1.00  0.00     0.057 A 
ATOM     81  C   UNL A   1      42.035  27.979  26.953  1.00  0.00     0.134 A 
ATOM     82  C   UNL A   1      40.557  26.300  27.794  1.00  0.00     0.134 A 
ATOM     83  F   UNL A   1      42.682  29.147  27.070  1.00  0.00    -0.206 F 
ATOM     84  C   UNL A   1      42.147  27.289  25.742  1.00  0.00     0.040 A 
ATOM     85  C   UNL A   1      40.680  25.586  26.598  1.00  0.00     0.040 A 
ATOM     86  F   UNL A   1      39.765  25.794  28.750  1.00  0.00    -0.206 F 
ATOM     87  C   UNL A   1      41.467  26.086  25.563  1.00  0.00     0.006 A 
ENDBRANCH  59  80
BRANCH  71  88
ATOM     88  C   UNL A   1      44.244  27.310  34.269  1.00  0.00     0.057 A 
ATOM     89  C   UNL A   1      45.600  27.643  34.376  1.00  0.00     0.134 A 
ATOM     90  C   UNL A   1      43.841  26.076  34.802  1.00  0.00     0.134 A 
ATOM     91  F   UNL A   1      46.057  28.805  33.886  1.00  0.00    -0.206 F 
ATOM     92  C   UNL A   1      46.523  26.767  34.952  1.00  0.00     0.040 A 
ATOM     93  C   UNL A   1      44.745  25.212  35.417  1.00  0.00     0.040 A 
ATOM     94  F   UNL A   1      42.554  25.699  34.752  1.00  0.00    -0.206 F 
ATOM     95  C   UNL A   1      46.094  25.551  35.482  1.00  0.00     0.006 A 
ENDBRANCH  71  88
ENDBRANCH  45  46
ENDBRANCH  38  40
ENDBRANCH  37  38
ENDBRANCH  36  37
ENDBRANCH  35  36
ENDBRANCH  34  35
ENDBRANCH  33  34
ENDBRANCH   1  33
TORSDOF 22
ENDMDL
MODEL 3
REMARK VINA RESULT:     -10.9      5.687      9.716
REMARK SMILES O=C(OCCOCCOCCOCCOC(=O)c1ccc(-c2c3nc(c(-c4c(F)cccc4F)c4ccc([nH]4)c(-c4c(F)cccc4F)c4nc(c(-c5c(F)cccc5F)c5ccc2[nH]5)C=C4)C=C3)cc1)C1=Cc2cc(Cl)cc(-c3ccc(Cl)cc3)c2O[C@@H]1C(F)(F)F
REMARK SMILES IDX 10 1 9 2 8 3 7 4 6 5 5 6 4 7 3 8 2 9 1 10 72 11 73 12 89 13
REMARK SMILES IDX 74 14 88 15 75 16 87 17 76 18 79 19 77 20 78 21 90 22 91 23
REMARK SMILES IDX 92 24 93 25 80 26 81 27 86 28 82 29 85 30 83 31 84 32 11 33
REMARK SMILES IDX 12 34 13 35 14 36 15 37 16 38 17 39 18 40 19 41 71 42 20 43
REMARK SMILES IDX 70 44 21 45 22 46 23 47 64 48 24 49 69 50 63 51 65 52 25 53
REMARK SMILES IDX 68 54 62 55 61 56 26 58 52 59 35 60 51 61 36 62 39 63 50 64
REMARK SMILES IDX 66 65 37 66 38 67 49 69 67 70 40 71 27 72 28 73 33 74 29 75
REMARK SMILES IDX 30 76 32 77 34 78 31 79 53 80 54 81 59 82 55 83 56 84 58 85
REMARK SMILES IDX 60 86 57 87 41 88 42 89 47 90 43 91 44 92 46 93 48 94 45 95
REMARK H PARENT 65 57 39 68
REMARK Flexibility Score: inf
ROOT
ATOM      1  C   UNL A   1      33.291  36.961  30.757  1.00  0.00     0.188 C 
ENDROOT
BRANCH   1   2
ATOM      2  O   UNL A   1      32.344  36.994  31.795  1.00  0.00    -0.377 OA
BRANCH   2   3
ATOM      3  C   UNL A   1      32.800  36.227  32.876  1.00  0.00     0.188 C 
BRANCH   3   4
ATOM      4  C   UNL A   1      34.153  35.619  32.539  1.00  0.00     0.188 C 
BRANCH   4   5
ATOM      5  O   UNL A   1      35.313  35.648  33.437  1.00  0.00    -0.376 OA
BRANCH   5   6
ATOM      6  C   UNL A   1      36.544  34.597  33.803  1.00  0.00     0.202 C 
BRANCH   6   7
ATOM      7  C   UNL A   1      37.700  33.359  32.426  1.00  0.00     0.261 C 
BRANCH   7   8
ATOM      8  O   UNL A   1      38.402  32.041  32.762  1.00  0.00    -0.460 OA
BRANCH   8   9
ATOM      9  C   UNL A   1      39.424  32.199  33.614  1.00  0.00     0.338 C 
ATOM     10  O   UNL A   1      40.343  32.975  33.560  1.00  0.00    -0.246 OA
BRANCH   9  11
ATOM     11  C   UNL A   1      39.283  30.911  34.260  1.00  0.00     0.087 C 
ATOM     12  C   UNL A   1      39.937  29.822  33.543  1.00  0.00     0.027 C 
ATOM     13  C   UNL A   1      39.782  31.551  36.001  1.00  0.00     0.316 C 
ATOM     14  C   UNL A   1      41.470  29.053  34.076  1.00  0.00     0.019 A 
ATOM     15  O   UNL A   1      41.516  30.822  36.549  1.00  0.00    -0.475 OA
ATOM     16  C   UNL A   1      42.003  28.107  33.237  1.00  0.00     0.032 A 
ATOM     17  C   UNL A   1      42.369  29.591  35.468  1.00  0.00     0.135 A 
ATOM     18  C   UNL A   1      43.265  27.633  33.592  1.00  0.00     0.042 A 
ATOM     19  C   UNL A   1      43.669  29.111  35.675  1.00  0.00     0.026 A 
ATOM     20  Cl  UNL A   1      43.979  26.423  32.575  1.00  0.00    -0.084 Cl
ATOM     21  C   UNL A   1      44.037  28.104  34.717  1.00  0.00     0.033 A 
BRANCH  13  22
ATOM     22  C   UNL A   1      38.187  31.352  36.531  1.00  0.00     0.430 C 
ATOM     23  F   UNL A   1      37.705  30.109  36.711  1.00  0.00    -0.167 F 
ATOM     24  F   UNL A   1      38.129  31.898  37.787  1.00  0.00    -0.167 F 
ATOM     25  F   UNL A   1      37.263  32.047  35.821  1.00  0.00    -0.167 F 
ENDBRANCH  13  22
BRANCH  19  26
ATOM     26  C   UNL A   1      44.712  29.461  36.636  1.00  0.00    -0.015 A 
ATOM     27  C   UNL A   1      45.414  30.675  36.602  1.00  0.00     0.010 A 
ATOM     28  C   UNL A   1      45.234  28.490  37.473  1.00  0.00     0.010 A 
ATOM     29  C   UNL A   1      46.433  30.959  37.531  1.00  0.00     0.021 A 
ATOM     30  C   UNL A   1      46.086  28.826  38.522  1.00  0.00     0.021 A 
ATOM     31  C   UNL A   1      46.701  30.059  38.549  1.00  0.00     0.041 A 
ATOM     32  Cl  UNL A   1      47.832  30.413  39.790  1.00  0.00    -0.084 Cl
ENDBRANCH  19  26
ENDBRANCH   9  11
ENDBRANCH   8   9
ENDBRANCH   7   8
ENDBRANCH   6   7
ENDBRANCH   5   6
ENDBRANCH   4   5
ENDBRANCH   3   4
ENDBRANCH   2   3
ENDBRANCH   1   2
BRANCH   1  33
ATOM     33  C   UNL A   1      32.830  36.758  29.316  1.00  0.00     0.188 C 
BRANCH  33  34
ATOM     34  O   UNL A   1      32.737  35.479  28.727  1.00  0.00    -0.376 OA
BRANCH  34  35
ATOM     35  C   UNL A   1      33.877  34.641  28.744  1.00  0.00     0.202 C 
BRANCH  35  36
ATOM     36  C   UNL A   1      33.737  33.167  28.303  1.00  0.00     0.261 C 
BRANCH  36  37
ATOM     37  O   UNL A   1      34.910  32.337  28.372  1.00  0.00    -0.460 OA
BRANCH  37  38
ATOM     38  C   UNL A   1      35.257  31.880  29.598  1.00  0.00     0.338 C 
ATOM     39  O   UNL A   1      34.650  32.036  30.642  1.00  0.00    -0.246 OA
BRANCH  38  40
ATOM     40  C   UNL A   1      36.440  30.993  29.452  1.00  0.00     0.060 A 
ATOM     41  C   UNL A   1      36.812  30.161  30.522  1.00  0.00     0.016 A 
ATOM     42  C   UNL A   1      37.179  30.970  28.268  1.00  0.00     0.016 A 
ATOM     43  C   UNL A   1      37.933  29.327  30.425  1.00  0.00     0.010 A 
ATOM     44  C   UNL A   1      38.305  30.141  28.173  1.00  0.00     0.010 A 
ATOM     45  C   UNL A   1      38.715  29.341  29.265  1.00  0.00    -0.014 A 
BRANCH  45  46
ATOM     46  C   UNL A   1      40.112  28.822  29.294  1.00  0.00     0.031 A 
ATOM     47  C   UNL A   1      41.149  29.763  29.854  1.00  0.00     0.074 A 
ATOM     48  C   UNL A   1      40.484  27.597  28.873  1.00  0.00     0.049 A 
ATOM     49  N   UNL A   1      42.437  29.599  30.000  1.00  0.00    -0.248 NA
ATOM     50  C   UNL A   1      40.658  31.080  30.298  1.00  0.00     0.031 C 
ATOM     51  C   UNL A   1      39.600  26.557  28.355  1.00  0.00     0.029 A 
ATOM     52  N   UNL A   1      41.736  27.025  28.806  1.00  0.00    -0.354 N 
ATOM     53  C   UNL A   1      42.895  30.788  30.554  1.00  0.00     0.074 A 
ATOM     54  C   UNL A   1      41.780  31.700  30.608  1.00  0.00     0.031 C 
ATOM     55  C   UNL A   1      40.337  25.492  27.981  1.00  0.00     0.029 A 
ATOM     56  C   UNL A   1      41.747  25.765  28.253  1.00  0.00     0.049 A 
ATOM     57  H   UNL A   1      42.549  27.478  29.124  1.00  0.00     0.167 HD
ATOM     58  C   UNL A   1      44.121  31.087  31.038  1.00  0.00     0.037 A 
ATOM     59  C   UNL A   1      42.776  24.924  28.014  1.00  0.00     0.037 A 
ATOM     60  C   UNL A   1      45.236  30.188  30.991  1.00  0.00     0.049 A 
ATOM     61  C   UNL A   1      44.167  25.315  28.459  1.00  0.00     0.074 A 
ATOM     62  C   UNL A   1      46.515  30.379  31.475  1.00  0.00     0.029 A 
ATOM     63  N   UNL A   1      45.205  28.933  30.404  1.00  0.00    -0.354 N 
ATOM     64  N   UNL A   1      44.570  26.407  29.064  1.00  0.00    -0.248 NA
ATOM     65  C   UNL A   1      45.238  24.333  28.229  1.00  0.00     0.031 C 
ATOM     66  C   UNL A   1      47.282  29.269  31.112  1.00  0.00     0.029 A 
ATOM     67  C   UNL A   1      46.457  28.350  30.483  1.00  0.00     0.049 A 
ATOM     68  H   UNL A   1      44.413  28.519  29.992  1.00  0.00     0.167 HD
ATOM     69  C   UNL A   1      45.917  26.211  29.353  1.00  0.00     0.074 A 
ATOM     70  C   UNL A   1      46.264  24.899  28.848  1.00  0.00     0.031 C 
ATOM     71  C   UNL A   1      46.783  27.034  29.997  1.00  0.00     0.037 A 
BRANCH  58  72
ATOM     72  C   UNL A   1      44.293  32.451  31.636  1.00  0.00     0.057 A 
ATOM     73  C   UNL A   1      44.738  33.545  30.878  1.00  0.00     0.134 A 
ATOM     74  C   UNL A   1      44.064  32.661  33.000  1.00  0.00     0.134 A 
ATOM     75  F   UNL A   1      45.006  33.405  29.570  1.00  0.00    -0.206 F 
ATOM     76  C   UNL A   1      44.997  34.784  31.467  1.00  0.00     0.040 A 
ATOM     77  C   UNL A   1      44.280  33.905  33.591  1.00  0.00     0.040 A 
ATOM     78  F   UNL A   1      43.642  31.656  33.783  1.00  0.00    -0.206 F 
ATOM     79  C   UNL A   1      44.763  34.966  32.827  1.00  0.00     0.006 A 
ENDBRANCH  58  72
BRANCH  59  80
ATOM     80  C   UNL A   1      42.549  23.594  27.379  1.00  0.00     0.057 A 
ATOM     81  C   UNL A   1      42.273  22.458  28.154  1.00  0.00     0.134 A 
ATOM     82  C   UNL A   1      42.674  23.407  25.998  1.00  0.00     0.134 A 
ATOM     83  F   UNL A   1      42.168  22.562  29.486  1.00  0.00    -0.206 F 
ATOM     84  C   UNL A   1      42.166  21.186  27.586  1.00  0.00     0.040 A 
ATOM     85  C   UNL A   1      42.544  22.143  25.413  1.00  0.00     0.040 A 
ATOM     86  F   UNL A   1      42.937  24.447  25.194  1.00  0.00    -0.206 F 
ATOM     87  C   UNL A   1      42.301  21.026  26.208  1.00  0.00     0.006 A 
ENDBRANCH  59  80
BRANCH  71  88
ATOM     88  C   UNL A   1      48.166  26.515  30.279  1.00  0.00     0.057 A 
ATOM     89  C   UNL A   1      48.488  25.817  31.449  1.00  0.00     0.134 A 
ATOM     90  C   UNL A   1      49.184  26.679  29.327  1.00  0.00     0.134 A 
ATOM     91  F   UNL A   1      47.566  25.625  32.405  1.00  0.00    -0.206 F 
ATOM     92  C   UNL A   1      49.780  25.339  31.681  1.00  0.00     0.040 A 
ATOM     93  C   UNL A   1      50.465  26.168  29.528  1.00  0.00     0.040 A 
ATOM     94  F   UNL A   1      48.942  27.320  28.173  1.00  0.00    -0.206 F 
ATOM     95  C   UNL A   1      50.770  25.507  30.715  1.00  0.00     0.006 A 
ENDBRANCH  71  88
ENDBRANCH  45  46
ENDBRANCH  38  40
ENDBRANCH  37  38
ENDBRANCH  36  37
ENDBRANCH  35  36
ENDBRANCH  34  35
ENDBRANCH  33  34
ENDBRANCH   1  33
TORSDOF 22
ENDMDL
