MODEL 1
REMARK VINA RESULT:      -9.8      0.000      0.000
REMARK SMILES CCn1ncc(NC(=O)[C@@H]2CCCC[C@@H]2C(=O)OCCOCCOCCOCCOC(=O)c2ccc(-c3c4nc(c(-c5c(F)cccc5F)c5ccc([nH]5)c(-c5c(F)cccc5F)c5nc(c(-c6c(F)cccc6F)c6ccc3[nH]6)C=C5)C=C4)cc2)c1C(=O)Nc1cnn(C)c1C
REMARK SMILES IDX 23 1 22 2 21 3 20 4 19 5 18 6 16 7 17 8 15 9 10 10 11 11
REMARK SMILES IDX 12 12 14 13 13 14 8 15 7 16 9 18 6 19 3 20 4 21 87 22 5 23
REMARK SMILES IDX 2 24 1 25 88 26 89 27 90 28 91 30 92 31 96 32 93 33 94 34
REMARK SMILES IDX 97 35 95 36 24 37 25 38 26 39 27 40 28 41 29 42 30 43 31 44
REMARK SMILES IDX 32 45 33 46 34 47 86 48 35 49 85 50 36 51 37 52 38 53 79 54
REMARK SMILES IDX 39 55 84 56 78 57 80 58 40 59 83 60 77 61 76 62 41 64 67 65
REMARK SMILES IDX 50 66 66 67 51 68 54 69 65 70 81 71 52 72 53 73 64 75 82 76
REMARK SMILES IDX 55 77 42 78 43 79 48 80 44 81 45 82 47 83 49 84 46 85 68 86
REMARK SMILES IDX 69 87 74 88 70 89 71 90 73 91 75 92 72 93 56 94 57 95 62 96
REMARK SMILES IDX 58 97 59 98 61 99 63 100 60 101
REMARK H PARENT 7 17 90 29 80 63 54 74
REMARK Flexibility Score: inf
ROOT
ATOM      1  C   UNL A   1      33.781  33.640  28.382  1.00  0.00     0.188 C 
ENDROOT
BRANCH   1   2
ATOM      2  C   UNL A   1      34.999  32.775  28.787  1.00  0.00     0.188 C 
BRANCH   2   3
ATOM      3  O   UNL A   1      35.537  31.987  27.735  1.00  0.00    -0.376 OA
BRANCH   3   4
ATOM      4  C   UNL A   1      35.402  30.580  27.823  1.00  0.00     0.202 C 
BRANCH   4   5
ATOM      5  C   UNL A   1      34.274  29.910  27.012  1.00  0.00     0.261 C 
BRANCH   5   6
ATOM      6  O   UNL A   1      34.459  28.506  26.746  1.00  0.00    -0.463 OA
BRANCH   6   7
ATOM      7  C   UNL A   1      34.155  28.149  25.479  1.00  0.00     0.309 C 
ATOM      8  O   UNL A   1      34.242  28.950  24.555  1.00  0.00    -0.252 OA
BRANCH   7   9
ATOM      9  C   UNL A   1      33.670  26.680  25.365  1.00  0.00     0.111 C 
ATOM     10  C   UNL A   1      32.935  26.293  24.026  1.00  0.00     0.093 C 
ATOM     11  C   UNL A   1      31.997  27.437  23.711  1.00  0.00     0.014 C 
ATOM     12  C   UNL A   1      31.020  27.647  24.870  1.00  0.00     0.001 C 
ATOM     13  C   UNL A   1      32.656  26.525  26.501  1.00  0.00     0.016 C 
ATOM     14  C   UNL A   1      31.501  27.507  26.318  1.00  0.00     0.001 C 
BRANCH  10  15
ATOM     15  C   UNL A   1      33.813  25.721  22.894  1.00  0.00     0.228 C 
ATOM     16  N   UNL A   1      34.558  24.580  22.958  1.00  0.00    -0.322 N 
ATOM     17  H   UNL A   1      34.951  24.333  22.090  1.00  0.00     0.170 HD
ATOM     18  O   UNL A   1      33.900  26.330  21.821  1.00  0.00    -0.274 OA
BRANCH  16  19
ATOM     19  C   UNL A   1      34.886  23.691  23.966  1.00  0.00     0.092 A 
ATOM     20  N   UNL A   1      35.413  21.922  25.087  1.00  0.00    -0.258 N 
ATOM     21  N   UNL A   1      36.125  22.905  25.691  1.00  0.00    -0.178 NA
ATOM     22  C   UNL A   1      34.375  22.432  24.317  1.00  0.00     0.150 A 
ATOM     23  C   UNL A   1      35.843  23.977  24.962  1.00  0.00     0.162 A 
BRANCH  20  24
ATOM     24  C   UNL A   1      36.015  20.604  25.158  1.00  0.00     0.142 C 
ATOM     25  C   UNL A   1      37.475  20.556  24.735  1.00  0.00     0.029 C 
ENDBRANCH  20  24
BRANCH  22  26
ATOM     26  C   UNL A   1      33.080  21.909  23.879  1.00  0.00     0.276 C 
ATOM     27  O   UNL A   1      32.981  21.327  22.794  1.00  0.00    -0.267 OA
ATOM     28  N   UNL A   1      32.003  21.756  24.722  1.00  0.00    -0.318 N 
ATOM     29  H   UNL A   1      31.616  20.850  24.735  1.00  0.00     0.170 HD
BRANCH  28  30
ATOM     30  C   UNL A   1      31.381  22.658  25.544  1.00  0.00     0.082 A 
ATOM     31  C   UNL A   1      31.443  22.773  26.944  1.00  0.00     0.161 A 
ATOM     32  C   UNL A   1      30.612  23.732  25.129  1.00  0.00     0.059 A 
ATOM     33  N   UNL A   1      30.617  23.713  27.402  1.00  0.00    -0.179 NA
ATOM     34  N   UNL A   1      30.051  24.214  26.288  1.00  0.00    -0.271 N 
ATOM     35  C   UNL A   1      30.221  24.254  23.794  1.00  0.00     0.068 C 
ATOM     36  C   UNL A   1      28.859  25.023  26.419  1.00  0.00     0.174 C 
ENDBRANCH  28  30
ENDBRANCH  22  26
ENDBRANCH  16  19
ENDBRANCH  10  15
ENDBRANCH   7   9
ENDBRANCH   6   7
ENDBRANCH   5   6
ENDBRANCH   4   5
ENDBRANCH   3   4
ENDBRANCH   2   3
ENDBRANCH   1   2
BRANCH   1  37
ATOM     37  O   UNL A   1      33.134  34.455  29.344  1.00  0.00    -0.377 OA
BRANCH  37  38
ATOM     38  C   UNL A   1      32.736  35.767  28.989  1.00  0.00     0.188 C 
BRANCH  38  39
ATOM     39  C   UNL A   1      33.458  37.024  29.541  1.00  0.00     0.188 C 
BRANCH  39  40
ATOM     40  O   UNL A   1      32.972  37.550  30.769  1.00  0.00    -0.376 OA
BRANCH  40  41
ATOM     41  C   UNL A   1      32.617  36.719  31.858  1.00  0.00     0.202 C 
BRANCH  41  42
ATOM     42  C   UNL A   1      33.685  36.430  32.912  1.00  0.00     0.261 C 
BRANCH  42  43
ATOM     43  O   UNL A   1      34.752  35.651  32.417  1.00  0.00    -0.460 OA
BRANCH  43  44
ATOM     44  C   UNL A   1      34.633  34.337  32.684  1.00  0.00     0.338 C 
ATOM     45  O   UNL A   1      33.677  33.619  32.472  1.00  0.00    -0.246 OA
BRANCH  44  46
ATOM     46  C   UNL A   1      35.845  33.908  33.382  1.00  0.00     0.060 A 
ATOM     47  C   UNL A   1      36.959  34.713  33.163  1.00  0.00     0.016 A 
ATOM     48  C   UNL A   1      35.924  32.562  33.761  1.00  0.00     0.016 A 
ATOM     49  C   UNL A   1      38.145  34.070  32.947  1.00  0.00     0.010 A 
ATOM     50  C   UNL A   1      37.099  31.917  33.512  1.00  0.00     0.010 A 
ATOM     51  C   UNL A   1      38.146  32.672  32.995  1.00  0.00    -0.014 A 
BRANCH  51  52
ATOM     52  C   UNL A   1      39.317  31.996  32.512  1.00  0.00     0.031 A 
ATOM     53  C   UNL A   1      40.323  31.848  33.570  1.00  0.00     0.074 A 
ATOM     54  C   UNL A   1      39.396  31.530  31.254  1.00  0.00     0.049 A 
ATOM     55  N   UNL A   1      41.421  32.511  33.697  1.00  0.00    -0.248 NA
ATOM     56  C   UNL A   1      39.947  31.053  34.749  1.00  0.00     0.031 C 
ATOM     57  C   UNL A   1      38.327  31.426  30.254  1.00  0.00     0.029 A 
ATOM     58  N   UNL A   1      40.459  30.961  30.633  1.00  0.00    -0.354 N 
ATOM     59  C   UNL A   1      41.991  32.028  34.867  1.00  0.00     0.074 A 
ATOM     60  C   UNL A   1      40.948  31.343  35.579  1.00  0.00     0.031 C 
ATOM     61  C   UNL A   1      38.746  30.633  29.240  1.00  0.00     0.029 A 
ATOM     62  C   UNL A   1      40.142  30.295  29.458  1.00  0.00     0.049 A 
ATOM     63  H   UNL A   1      41.376  31.016  30.985  1.00  0.00     0.167 HD
ATOM     64  C   UNL A   1      43.342  31.943  34.979  1.00  0.00     0.037 A 
ATOM     65  C   UNL A   1      40.971  29.473  28.771  1.00  0.00     0.037 A 
ATOM     66  C   UNL A   1      43.989  32.762  33.982  1.00  0.00     0.049 A 
ATOM     67  C   UNL A   1      42.356  29.779  29.205  1.00  0.00     0.074 A 
ATOM     68  C   UNL A   1      44.089  34.113  33.726  1.00  0.00     0.029 A 
ATOM     69  N   UNL A   1      44.348  32.109  32.830  1.00  0.00    -0.354 N 
ATOM     70  N   UNL A   1      42.973  30.892  28.923  1.00  0.00    -0.248 NA
ATOM     71  C   UNL A   1      42.929  29.018  30.309  1.00  0.00     0.031 C 
ATOM     72  C   UNL A   1      44.213  34.229  32.310  1.00  0.00     0.029 A 
ATOM     73  C   UNL A   1      44.215  32.947  31.757  1.00  0.00     0.049 A 
ATOM     74  H   UNL A   1      44.654  31.175  32.782  1.00  0.00     0.167 HD
ATOM     75  C   UNL A   1      43.720  31.181  30.054  1.00  0.00     0.074 A 
ATOM     76  C   UNL A   1      43.777  29.929  30.798  1.00  0.00     0.031 C 
ATOM     77  C   UNL A   1      43.956  32.477  30.413  1.00  0.00     0.037 A 
BRANCH  64  78
ATOM     78  C   UNL A   1      44.050  30.770  35.620  1.00  0.00     0.057 A 
ATOM     79  C   UNL A   1      44.904  31.025  36.706  1.00  0.00     0.134 A 
ATOM     80  C   UNL A   1      44.183  29.486  35.047  1.00  0.00     0.134 A 
ATOM     81  F   UNL A   1      44.878  32.207  37.340  1.00  0.00    -0.206 F 
ATOM     82  C   UNL A   1      45.882  30.114  37.121  1.00  0.00     0.040 A 
ATOM     83  C   UNL A   1      45.121  28.552  35.487  1.00  0.00     0.040 A 
ATOM     84  F   UNL A   1      43.498  29.090  33.969  1.00  0.00    -0.206 F 
ATOM     85  C   UNL A   1      46.002  28.877  36.503  1.00  0.00     0.006 A 
ENDBRANCH  64  78
BRANCH  65  86
ATOM     86  C   UNL A   1      40.635  28.276  27.973  1.00  0.00     0.057 A 
ATOM     87  C   UNL A   1      41.077  28.133  26.652  1.00  0.00     0.134 A 
ATOM     88  C   UNL A   1      40.099  27.126  28.577  1.00  0.00     0.134 A 
ATOM     89  F   UNL A   1      41.641  29.165  26.008  1.00  0.00    -0.206 F 
ATOM     90  C   UNL A   1      41.007  26.909  25.974  1.00  0.00     0.040 A 
ATOM     91  C   UNL A   1      40.019  25.899  27.910  1.00  0.00     0.040 A 
ATOM     92  F   UNL A   1      39.719  27.132  29.863  1.00  0.00    -0.206 F 
ATOM     93  C   UNL A   1      40.487  25.785  26.607  1.00  0.00     0.006 A 
ENDBRANCH  65  86
BRANCH  77  94
ATOM     94  C   UNL A   1      43.719  33.524  29.362  1.00  0.00     0.057 A 
ATOM     95  C   UNL A   1      44.606  33.801  28.312  1.00  0.00     0.134 A 
ATOM     96  C   UNL A   1      42.490  34.191  29.349  1.00  0.00     0.134 A 
ATOM     97  F   UNL A   1      45.769  33.147  28.198  1.00  0.00    -0.206 F 
ATOM     98  C   UNL A   1      44.298  34.733  27.316  1.00  0.00     0.040 A 
ATOM     99  C   UNL A   1      42.155  35.099  28.344  1.00  0.00     0.040 A 
ATOM    100  F   UNL A   1      41.574  33.935  30.296  1.00  0.00    -0.206 F 
ATOM    101  C   UNL A   1      43.065  35.379  27.327  1.00  0.00     0.006 A 
ENDBRANCH  77  94
ENDBRANCH  51  52
ENDBRANCH  44  46
ENDBRANCH  43  44
ENDBRANCH  42  43
ENDBRANCH  41  42
ENDBRANCH  40  41
ENDBRANCH  39  40
ENDBRANCH  38  39
ENDBRANCH  37  38
ENDBRANCH   1  37
TORSDOF 25
ENDMDL
MODEL 2
REMARK VINA RESULT:      -9.6      3.394      8.563
REMARK SMILES CCn1ncc(NC(=O)[C@@H]2CCCC[C@@H]2C(=O)OCCOCCOCCOCCOC(=O)c2ccc(-c3c4nc(c(-c5c(F)cccc5F)c5ccc([nH]5)c(-c5c(F)cccc5F)c5nc(c(-c6c(F)cccc6F)c6ccc3[nH]6)C=C5)C=C4)cc2)c1C(=O)Nc1cnn(C)c1C
REMARK SMILES IDX 23 1 22 2 21 3 20 4 19 5 18 6 16 7 17 8 15 9 10 10 11 11
REMARK SMILES IDX 12 12 14 13 13 14 8 15 7 16 9 18 6 19 3 20 4 21 87 22 5 23
REMARK SMILES IDX 2 24 1 25 88 26 89 27 90 28 91 30 92 31 96 32 93 33 94 34
REMARK SMILES IDX 97 35 95 36 24 37 25 38 26 39 27 40 28 41 29 42 30 43 31 44
REMARK SMILES IDX 32 45 33 46 34 47 86 48 35 49 85 50 36 51 37 52 38 53 79 54
REMARK SMILES IDX 39 55 84 56 78 57 80 58 40 59 83 60 77 61 76 62 41 64 67 65
REMARK SMILES IDX 50 66 66 67 51 68 54 69 65 70 81 71 52 72 53 73 64 75 82 76
REMARK SMILES IDX 55 77 42 78 43 79 48 80 44 81 45 82 47 83 49 84 46 85 68 86
REMARK SMILES IDX 69 87 74 88 70 89 71 90 73 91 75 92 72 93 56 94 57 95 62 96
REMARK SMILES IDX 58 97 59 98 61 99 63 100 60 101
REMARK H PARENT 7 17 90 29 80 63 54 74
REMARK Flexibility Score: inf
ROOT
ATOM      1  C   UNL A   1      41.994  21.297  26.246  1.00  0.00     0.188 C 
ENDROOT
BRANCH   1   2
ATOM      2  C   UNL A   1      40.484  21.636  26.266  1.00  0.00     0.188 C 
BRANCH   2   3
ATOM      3  O   UNL A   1      39.631  20.512  26.434  1.00  0.00    -0.376 OA
BRANCH   3   4
ATOM      4  C   UNL A   1      39.095  19.905  25.272  1.00  0.00     0.202 C 
BRANCH   4   5
ATOM      5  C   UNL A   1      37.584  20.065  25.006  1.00  0.00     0.261 C 
BRANCH   5   6
ATOM      6  O   UNL A   1      36.926  21.075  25.796  1.00  0.00    -0.463 OA
BRANCH   6   7
ATOM      7  C   UNL A   1      35.614  21.221  25.507  1.00  0.00     0.309 C 
ATOM      8  O   UNL A   1      34.973  20.312  24.993  1.00  0.00    -0.252 OA
BRANCH   7   9
ATOM      9  C   UNL A   1      35.070  22.630  25.860  1.00  0.00     0.111 C 
ATOM     10  C   UNL A   1      34.255  23.363  24.729  1.00  0.00     0.093 C 
ATOM     11  C   UNL A   1      35.015  23.135  23.442  1.00  0.00     0.014 C 
ATOM     12  C   UNL A   1      36.441  23.675  23.572  1.00  0.00     0.001 C 
ATOM     13  C   UNL A   1      36.325  23.465  26.129  1.00  0.00     0.016 C 
ATOM     14  C   UNL A   1      37.210  23.507  24.886  1.00  0.00     0.001 C 
BRANCH  10  15
ATOM     15  C   UNL A   1      32.726  23.157  24.732  1.00  0.00     0.228 C 
ATOM     16  N   UNL A   1      31.813  23.932  24.076  1.00  0.00    -0.322 N 
ATOM     17  H   UNL A   1      30.902  23.561  24.116  1.00  0.00     0.170 HD
ATOM     18  O   UNL A   1      32.233  22.237  25.395  1.00  0.00    -0.274 OA
BRANCH  16  19
ATOM     19  C   UNL A   1      31.878  25.119  23.369  1.00  0.00     0.092 A 
ATOM     20  N   UNL A   1      32.294  27.141  22.738  1.00  0.00    -0.258 N 
ATOM     21  N   UNL A   1      32.376  26.426  21.589  1.00  0.00    -0.178 NA
ATOM     22  C   UNL A   1      31.615  26.449  23.732  1.00  0.00     0.150 A 
ATOM     23  C   UNL A   1      32.179  25.179  21.992  1.00  0.00     0.162 A 
BRANCH  20  24
ATOM     24  C   UNL A   1      33.124  28.331  22.773  1.00  0.00     0.142 C 
ATOM     25  C   UNL A   1      34.414  28.223  21.975  1.00  0.00     0.029 C 
ENDBRANCH  20  24
BRANCH  22  26
ATOM     26  C   UNL A   1      30.839  26.852  24.906  1.00  0.00     0.276 C 
ATOM     27  O   UNL A   1      29.618  26.670  24.934  1.00  0.00    -0.267 OA
ATOM     28  N   UNL A   1      31.410  27.161  26.119  1.00  0.00    -0.318 N 
ATOM     29  H   UNL A   1      31.053  26.653  26.883  1.00  0.00     0.170 HD
BRANCH  28  30
ATOM     30  C   UNL A   1      32.392  28.061  26.437  1.00  0.00     0.082 A 
ATOM     31  C   UNL A   1      33.707  27.823  26.874  1.00  0.00     0.161 A 
ATOM     32  C   UNL A   1      32.305  29.436  26.295  1.00  0.00     0.059 A 
ATOM     33  N   UNL A   1      34.340  28.954  27.185  1.00  0.00    -0.179 NA
ATOM     34  N   UNL A   1      33.434  29.913  26.918  1.00  0.00    -0.271 N 
ATOM     35  C   UNL A   1      31.241  30.347  25.799  1.00  0.00     0.068 C 
ATOM     36  C   UNL A   1      33.652  31.241  27.448  1.00  0.00     0.174 C 
ENDBRANCH  28  30
ENDBRANCH  22  26
ENDBRANCH  16  19
ENDBRANCH  10  15
ENDBRANCH   7   9
ENDBRANCH   6   7
ENDBRANCH   5   6
ENDBRANCH   4   5
ENDBRANCH   3   4
ENDBRANCH   2   3
ENDBRANCH   1   2
BRANCH   1  37
ATOM     37  O   UNL A   1      42.958  22.336  26.254  1.00  0.00    -0.377 OA
BRANCH  37  38
ATOM     38  C   UNL A   1      43.440  22.846  25.024  1.00  0.00     0.188 C 
BRANCH  38  39
ATOM     39  C   UNL A   1      44.733  23.698  24.937  1.00  0.00     0.188 C 
BRANCH  39  40
ATOM     40  O   UNL A   1      44.903  24.704  25.927  1.00  0.00    -0.376 OA
BRANCH  40  41
ATOM     41  C   UNL A   1      44.647  26.071  25.665  1.00  0.00     0.202 C 
BRANCH  41  42
ATOM     42  C   UNL A   1      43.613  26.782  26.537  1.00  0.00     0.261 C 
BRANCH  42  43
ATOM     43  O   UNL A   1      42.562  25.936  26.948  1.00  0.00    -0.460 OA
BRANCH  43  44
ATOM     44  C   UNL A   1      41.494  25.962  26.129  1.00  0.00     0.338 C 
ATOM     45  O   UNL A   1      41.415  25.532  24.997  1.00  0.00    -0.246 OA
BRANCH  44  46
ATOM     46  C   UNL A   1      40.428  26.703  26.803  1.00  0.00     0.060 A 
ATOM     47  C   UNL A   1      40.384  28.062  26.506  1.00  0.00     0.016 A 
ATOM     48  C   UNL A   1      39.910  26.151  27.982  1.00  0.00     0.016 A 
ATOM     49  C   UNL A   1      40.172  28.911  27.555  1.00  0.00     0.010 A 
ATOM     50  C   UNL A   1      39.731  26.997  29.036  1.00  0.00     0.010 A 
ATOM     51  C   UNL A   1      39.986  28.347  28.822  1.00  0.00    -0.014 A 
BRANCH  51  52
ATOM     52  C   UNL A   1      40.029  29.233  29.951  1.00  0.00     0.031 A 
ATOM     53  C   UNL A   1      38.804  30.036  30.045  1.00  0.00     0.074 A 
ATOM     54  C   UNL A   1      41.064  29.236  30.809  1.00  0.00     0.049 A 
ATOM     55  N   UNL A   1      38.670  31.286  29.758  1.00  0.00    -0.248 NA
ATOM     56  C   UNL A   1      37.539  29.313  30.243  1.00  0.00     0.031 C 
ATOM     57  C   UNL A   1      42.173  28.280  30.899  1.00  0.00     0.029 A 
ATOM     58  N   UNL A   1      41.286  30.070  31.854  1.00  0.00    -0.354 N 
ATOM     59  C   UNL A   1      37.325  31.555  29.977  1.00  0.00     0.074 A 
ATOM     60  C   UNL A   1      36.655  30.286  30.023  1.00  0.00     0.031 C 
ATOM     61  C   UNL A   1      42.821  28.465  32.073  1.00  0.00     0.029 A 
ATOM     62  C   UNL A   1      42.259  29.627  32.739  1.00  0.00     0.049 A 
ATOM     63  H   UNL A   1      40.801  30.917  31.976  1.00  0.00     0.167 HD
ATOM     64  C   UNL A   1      36.944  32.774  30.438  1.00  0.00     0.037 A 
ATOM     65  C   UNL A   1      42.515  30.159  33.958  1.00  0.00     0.037 A 
ATOM     66  C   UNL A   1      37.995  33.745  30.245  1.00  0.00     0.049 A 
ATOM     67  C   UNL A   1      41.937  31.524  33.976  1.00  0.00     0.074 A 
ATOM     68  C   UNL A   1      38.603  34.339  29.160  1.00  0.00     0.029 A 
ATOM     69  N   UNL A   1      38.825  33.934  31.321  1.00  0.00    -0.354 N 
ATOM     70  N   UNL A   1      42.405  32.517  33.273  1.00  0.00    -0.248 NA
ATOM     71  C   UNL A   1      40.575  31.703  34.464  1.00  0.00     0.031 C 
ATOM     72  C   UNL A   1      39.944  34.604  29.567  1.00  0.00     0.029 A 
ATOM     73  C   UNL A   1      40.097  34.190  30.892  1.00  0.00     0.049 A 
ATOM     74  H   UNL A   1      38.545  33.889  32.264  1.00  0.00     0.167 HD
ATOM     75  C   UNL A   1      41.285  33.229  32.874  1.00  0.00     0.074 A 
ATOM     76  C   UNL A   1      40.217  32.780  33.758  1.00  0.00     0.031 C 
ATOM     77  C   UNL A   1      41.274  33.884  31.675  1.00  0.00     0.037 A 
BRANCH  64  78
ATOM     78  C   UNL A   1      35.874  32.966  31.491  1.00  0.00     0.057 A 
ATOM     79  C   UNL A   1      34.815  33.844  31.206  1.00  0.00     0.134 A 
ATOM     80  C   UNL A   1      35.990  32.595  32.848  1.00  0.00     0.134 A 
ATOM     81  F   UNL A   1      34.595  34.274  29.954  1.00  0.00    -0.206 F 
ATOM     82  C   UNL A   1      34.003  34.389  32.206  1.00  0.00     0.040 A 
ATOM     83  C   UNL A   1      35.152  33.093  33.846  1.00  0.00     0.040 A 
ATOM     84  F   UNL A   1      36.973  31.817  33.314  1.00  0.00    -0.206 F 
ATOM     85  C   UNL A   1      34.177  34.023  33.534  1.00  0.00     0.006 A 
ENDBRANCH  64  78
BRANCH  65  86
ATOM     86  C   UNL A   1      42.986  29.480  35.183  1.00  0.00     0.057 A 
ATOM     87  C   UNL A   1      42.352  28.329  35.667  1.00  0.00     0.134 A 
ATOM     88  C   UNL A   1      44.231  29.791  35.755  1.00  0.00     0.134 A 
ATOM     89  F   UNL A   1      41.181  27.929  35.152  1.00  0.00    -0.206 F 
ATOM     90  C   UNL A   1      42.934  27.521  36.654  1.00  0.00     0.040 A 
ATOM     91  C   UNL A   1      44.820  28.996  36.743  1.00  0.00     0.040 A 
ATOM     92  F   UNL A   1      44.958  30.827  35.310  1.00  0.00    -0.206 F 
ATOM     93  C   UNL A   1      44.176  27.848  37.187  1.00  0.00     0.006 A 
ENDBRANCH  65  86
BRANCH  77  94
ATOM     94  C   UNL A   1      42.606  34.117  31.020  1.00  0.00     0.057 A 
ATOM     95  C   UNL A   1      43.474  35.167  31.351  1.00  0.00     0.134 A 
ATOM     96  C   UNL A   1      43.073  33.170  30.103  1.00  0.00     0.134 A 
ATOM     97  F   UNL A   1      43.144  36.071  32.282  1.00  0.00    -0.206 F 
ATOM     98  C   UNL A   1      44.737  35.290  30.763  1.00  0.00     0.040 A 
ATOM     99  C   UNL A   1      44.343  33.262  29.532  1.00  0.00     0.040 A 
ATOM    100  F   UNL A   1      42.313  32.112  29.779  1.00  0.00    -0.206 F 
ATOM    101  C   UNL A   1      45.176  34.330  29.855  1.00  0.00     0.006 A 
ENDBRANCH  77  94
ENDBRANCH  51  52
ENDBRANCH  44  46
ENDBRANCH  43  44
ENDBRANCH  42  43
ENDBRANCH  41  42
ENDBRANCH  40  41
ENDBRANCH  39  40
ENDBRANCH  38  39
ENDBRANCH  37  38
ENDBRANCH   1  37
TORSDOF 25
ENDMDL
MODEL 3
REMARK VINA RESULT:      -9.4      1.491      3.461
REMARK SMILES CCn1ncc(NC(=O)[C@@H]2CCCC[C@@H]2C(=O)OCCOCCOCCOCCOC(=O)c2ccc(-c3c4nc(c(-c5c(F)cccc5F)c5ccc([nH]5)c(-c5c(F)cccc5F)c5nc(c(-c6c(F)cccc6F)c6ccc3[nH]6)C=C5)C=C4)cc2)c1C(=O)Nc1cnn(C)c1C
REMARK SMILES IDX 23 1 22 2 21 3 20 4 19 5 18 6 16 7 17 8 15 9 10 10 11 11
REMARK SMILES IDX 12 12 14 13 13 14 8 15 7 16 9 18 6 19 3 20 4 21 87 22 5 23
REMARK SMILES IDX 2 24 1 25 88 26 89 27 90 28 91 30 92 31 96 32 93 33 94 34
REMARK SMILES IDX 97 35 95 36 24 37 25 38 26 39 27 40 28 41 29 42 30 43 31 44
REMARK SMILES IDX 32 45 33 46 34 47 86 48 35 49 85 50 36 51 37 52 38 53 79 54
REMARK SMILES IDX 39 55 84 56 78 57 80 58 40 59 83 60 77 61 76 62 41 64 67 65
REMARK SMILES IDX 50 66 66 67 51 68 54 69 65 70 81 71 52 72 53 73 64 75 82 76
REMARK SMILES IDX 55 77 42 78 43 79 48 80 44 81 45 82 47 83 49 84 46 85 68 86
REMARK SMILES IDX 69 87 74 88 70 89 71 90 73 91 75 92 72 93 56 94 57 95 62 96
REMARK SMILES IDX 58 97 59 98 61 99 63 100 60 101
REMARK H PARENT 7 17 90 29 80 63 54 74
REMARK Flexibility Score: inf
ROOT
ATOM      1  C   UNL A   1      33.217  29.345  27.268  1.00  0.00     0.188 C 
ENDROOT
BRANCH   1   2
ATOM      2  C   UNL A   1      31.882  29.934  26.751  1.00  0.00     0.188 C 
BRANCH   2   3
ATOM      3  O   UNL A   1      31.887  30.284  25.374  1.00  0.00    -0.376 OA
BRANCH   3   4
ATOM      4  C   UNL A   1      30.643  30.355  24.702  1.00  0.00     0.202 C 
BRANCH   4   5
ATOM      5  C   UNL A   1      30.360  29.317  23.596  1.00  0.00     0.261 C 
BRANCH   5   6
ATOM      6  O   UNL A   1      31.521  28.853  22.879  1.00  0.00    -0.463 OA
BRANCH   6   7
ATOM      7  C   UNL A   1      31.532  27.518  22.672  1.00  0.00     0.309 C 
ATOM      8  O   UNL A   1      30.596  26.812  23.026  1.00  0.00    -0.252 OA
BRANCH   7   9
ATOM      9  C   UNL A   1      32.839  27.022  21.996  1.00  0.00     0.111 C 
ATOM     10  C   UNL A   1      33.451  25.687  22.564  1.00  0.00     0.093 C 
ATOM     11  C   UNL A   1      33.356  25.784  24.070  1.00  0.00     0.014 C 
ATOM     12  C   UNL A   1      34.107  27.024  24.564  1.00  0.00     0.001 C 
ATOM     13  C   UNL A   1      33.852  28.138  22.264  1.00  0.00     0.016 C 
ATOM     14  C   UNL A   1      34.043  28.330  23.767  1.00  0.00     0.001 C 
BRANCH  10  15
ATOM     15  C   UNL A   1      33.015  24.377  21.877  1.00  0.00     0.228 C 
ATOM     16  N   UNL A   1      32.336  23.351  22.469  1.00  0.00    -0.322 N 
ATOM     17  H   UNL A   1      32.056  22.660  21.826  1.00  0.00     0.170 HD
ATOM     18  O   UNL A   1      33.305  24.181  20.691  1.00  0.00    -0.274 OA
BRANCH  16  19
ATOM     19  C   UNL A   1      31.953  23.062  23.767  1.00  0.00     0.092 A 
ATOM     20  N   UNL A   1      31.931  22.707  25.896  1.00  0.00    -0.258 N 
ATOM     21  N   UNL A   1      30.755  23.342  25.667  1.00  0.00    -0.178 NA
ATOM     22  C   UNL A   1      32.474  22.184  24.730  1.00  0.00     0.150 A 
ATOM     23  C   UNL A   1      30.801  23.609  24.369  1.00  0.00     0.162 A 
BRANCH  20  24
ATOM     24  C   UNL A   1      32.488  22.921  27.219  1.00  0.00     0.142 C 
ATOM     25  C   UNL A   1      33.401  21.807  27.706  1.00  0.00     0.029 C 
ENDBRANCH  20  24
BRANCH  22  26
ATOM     26  C   UNL A   1      33.375  21.068  24.438  1.00  0.00     0.276 C 
ATOM     27  O   UNL A   1      32.915  19.957  24.155  1.00  0.00    -0.267 OA
ATOM     28  N   UNL A   1      34.714  21.230  24.166  1.00  0.00    -0.318 N 
ATOM     29  H   UNL A   1      35.014  20.826  23.320  1.00  0.00     0.170 HD
BRANCH  28  30
ATOM     30  C   UNL A   1      35.697  21.861  24.881  1.00  0.00     0.082 A 
ATOM     31  C   UNL A   1      35.694  23.145  25.455  1.00  0.00     0.161 A 
ATOM     32  C   UNL A   1      36.900  21.296  25.271  1.00  0.00     0.059 A 
ATOM     33  N   UNL A   1      36.876  23.453  25.989  1.00  0.00    -0.179 NA
ATOM     34  N   UNL A   1      37.621  22.352  25.778  1.00  0.00    -0.271 N 
ATOM     35  C   UNL A   1      37.506  19.952  25.088  1.00  0.00     0.068 C 
ATOM     36  C   UNL A   1      39.056  22.448  25.927  1.00  0.00     0.174 C 
ENDBRANCH  28  30
ENDBRANCH  22  26
ENDBRANCH  16  19
ENDBRANCH  10  15
ENDBRANCH   7   9
ENDBRANCH   6   7
ENDBRANCH   5   6
ENDBRANCH   4   5
ENDBRANCH   3   4
ENDBRANCH   2   3
ENDBRANCH   1   2
BRANCH   1  37
ATOM     37  O   UNL A   1      34.425  30.068  27.107  1.00  0.00    -0.377 OA
BRANCH  37  38
ATOM     38  C   UNL A   1      34.840  30.964  28.122  1.00  0.00     0.188 C 
BRANCH  38  39
ATOM     39  C   UNL A   1      35.453  32.351  27.795  1.00  0.00     0.188 C 
BRANCH  39  40
ATOM     40  O   UNL A   1      35.358  33.345  28.807  1.00  0.00    -0.376 OA
BRANCH  40  41
ATOM     41  C   UNL A   1      34.395  33.279  29.841  1.00  0.00     0.202 C 
BRANCH  41  42
ATOM     42  C   UNL A   1      34.814  32.642  31.165  1.00  0.00     0.261 C 
BRANCH  42  43
ATOM     43  O   UNL A   1      33.916  32.917  32.219  1.00  0.00    -0.460 OA
BRANCH  43  44
ATOM     44  C   UNL A   1      34.107  34.118  32.794  1.00  0.00     0.338 C 
ATOM     45  O   UNL A   1      33.381  35.089  32.745  1.00  0.00    -0.246 OA
BRANCH  44  46
ATOM     46  C   UNL A   1      35.420  34.105  33.437  1.00  0.00     0.060 A 
ATOM     47  C   UNL A   1      36.331  35.023  32.920  1.00  0.00     0.016 A 
ATOM     48  C   UNL A   1      35.797  32.933  34.104  1.00  0.00     0.016 A 
ATOM     49  C   UNL A   1      37.608  34.577  32.731  1.00  0.00     0.010 A 
ATOM     50  C   UNL A   1      37.062  32.475  33.886  1.00  0.00     0.010 A 
ATOM     51  C   UNL A   1      37.899  33.259  33.099  1.00  0.00    -0.014 A 
BRANCH  51  52
ATOM     52  C   UNL A   1      39.153  32.713  32.660  1.00  0.00     0.031 A 
ATOM     53  C   UNL A   1      40.194  32.882  33.680  1.00  0.00     0.074 A 
ATOM     54  C   UNL A   1      39.276  32.086  31.478  1.00  0.00     0.049 A 
ATOM     55  N   UNL A   1      41.172  33.721  33.661  1.00  0.00    -0.248 NA
ATOM     56  C   UNL A   1      39.981  32.219  34.975  1.00  0.00     0.031 C 
ATOM     57  C   UNL A   1      38.215  31.670  30.554  1.00  0.00     0.029 A 
ATOM     58  N   UNL A   1      40.402  31.608  30.893  1.00  0.00    -0.354 N 
ATOM     59  C   UNL A   1      41.842  33.511  34.859  1.00  0.00     0.074 A 
ATOM     60  C   UNL A   1      40.942  32.781  35.708  1.00  0.00     0.031 C 
ATOM     61  C   UNL A   1      38.733  30.814  29.643  1.00  0.00     0.029 A 
ATOM     62  C   UNL A   1      40.170  30.735  29.840  1.00  0.00     0.049 A 
ATOM     63  H   UNL A   1      41.306  31.858  31.190  1.00  0.00     0.167 HD
ATOM     64  C   UNL A   1      43.190  33.657  34.917  1.00  0.00     0.037 A 
ATOM     65  C   UNL A   1      41.106  29.964  29.237  1.00  0.00     0.037 A 
ATOM     66  C   UNL A   1      43.671  34.414  33.785  1.00  0.00     0.049 A 
ATOM     67  C   UNL A   1      42.432  30.544  29.557  1.00  0.00     0.074 A 
ATOM     68  C   UNL A   1      43.544  35.711  33.338  1.00  0.00     0.029 A 
ATOM     69  N   UNL A   1      44.103  33.664  32.721  1.00  0.00    -0.354 N 
ATOM     70  N   UNL A   1      42.852  31.687  29.093  1.00  0.00    -0.248 NA
ATOM     71  C   UNL A   1      43.148  30.054  30.729  1.00  0.00     0.031 C 
ATOM     72  C   UNL A   1      43.613  35.637  31.916  1.00  0.00     0.029 A 
ATOM     73  C   UNL A   1      43.810  34.304  31.549  1.00  0.00     0.049 A 
ATOM     74  H   UNL A   1      44.557  32.793  32.790  1.00  0.00     0.167 HD
ATOM     75  C   UNL A   1      43.569  32.253  30.136  1.00  0.00     0.074 A 
ATOM     76  C   UNL A   1      43.848  31.148  31.045  1.00  0.00     0.031 C 
ATOM     77  C   UNL A   1      43.599  33.608  30.298  1.00  0.00     0.037 A 
BRANCH  64  78
ATOM     78  C   UNL A   1      44.095  32.717  35.683  1.00  0.00     0.057 A 
ATOM     79  C   UNL A   1      45.034  33.275  36.566  1.00  0.00     0.134 A 
ATOM     80  C   UNL A   1      44.306  31.356  35.371  1.00  0.00     0.134 A 
ATOM     81  F   UNL A   1      44.948  34.559  36.943  1.00  0.00    -0.206 F 
ATOM     82  C   UNL A   1      46.150  32.563  37.022  1.00  0.00     0.040 A 
ATOM     83  C   UNL A   1      45.388  30.624  35.861  1.00  0.00     0.040 A 
ATOM     84  F   UNL A   1      43.551  30.677  34.502  1.00  0.00    -0.206 F 
ATOM     85  C   UNL A   1      46.337  31.236  36.660  1.00  0.00     0.006 A 
ENDBRANCH  64  78
BRANCH  65  86
ATOM     86  C   UNL A   1      40.950  28.625  28.631  1.00  0.00     0.057 A 
ATOM     87  C   UNL A   1      40.333  27.578  29.327  1.00  0.00     0.134 A 
ATOM     88  C   UNL A   1      41.164  28.418  27.258  1.00  0.00     0.134 A 
ATOM     89  F   UNL A   1      40.050  27.701  30.632  1.00  0.00    -0.206 F 
ATOM     90  C   UNL A   1      39.933  26.396  28.688  1.00  0.00     0.040 A 
ATOM     91  C   UNL A   1      40.774  27.242  26.609  1.00  0.00     0.040 A 
ATOM     92  F   UNL A   1      41.677  29.385  26.484  1.00  0.00    -0.206 F 
ATOM     93  C   UNL A   1      40.144  26.231  27.323  1.00  0.00     0.006 A 
ENDBRANCH  65  86
BRANCH  77  94
ATOM     94  C   UNL A   1      43.169  34.439  29.122  1.00  0.00     0.057 A 
ATOM     95  C   UNL A   1      41.878  34.959  28.956  1.00  0.00     0.134 A 
ATOM     96  C   UNL A   1      44.135  34.821  28.186  1.00  0.00     0.134 A 
ATOM     97  F   UNL A   1      40.912  34.715  29.850  1.00  0.00    -0.206 F 
ATOM     98  C   UNL A   1      41.554  35.792  27.880  1.00  0.00     0.040 A 
ATOM     99  C   UNL A   1      43.834  35.679  27.126  1.00  0.00     0.040 A 
ATOM    100  F   UNL A   1      45.403  34.400  28.315  1.00  0.00    -0.206 F 
ATOM    101  C   UNL A   1      42.537  36.159  26.966  1.00  0.00     0.006 A 
ENDBRANCH  77  94
ENDBRANCH  51  52
ENDBRANCH  44  46
ENDBRANCH  43  44
ENDBRANCH  42  43
ENDBRANCH  41  42
ENDBRANCH  40  41
ENDBRANCH  39  40
ENDBRANCH  38  39
ENDBRANCH  37  38
ENDBRANCH   1  37
TORSDOF 25
ENDMDL
