MODEL 1
REMARK VINA RESULT:     -11.4      0.000      0.000
REMARK SMILES Cc1cccc2c1[C@H]1c3c(C)cccc3[C@H](CC(=O)OCCOCCOCCOCCOC(=O)c3ccc(-c4c5nc(c(-c6c(F)cccc6F)c6ccc([nH]6)c(-c6c(F)cccc6F)c6nc(c(-c7c(F)cccc7F)c7ccc4[nH]7)C=C6)C=C5)cc3)C[C@H]1CC2
REMARK SMILES IDX 27 1 26 2 25 3 24 4 23 5 22 6 21 7 20 8 18 9 19 10 17 11
REMARK SMILES IDX 16 12 1 13 2 14 3 15 7 16 4 17 6 18 8 19 5 20 92 21 9 22
REMARK SMILES IDX 90 23 91 24 10 25 15 26 89 27 12 28 11 29 14 30 13 31 28 32
REMARK SMILES IDX 29 33 30 34 31 35 32 36 33 37 34 38 35 39 36 40 88 41 37 42
REMARK SMILES IDX 87 43 38 44 39 45 40 46 81 47 41 48 86 49 80 50 82 51 42 52
REMARK SMILES IDX 85 53 79 54 78 55 43 57 69 58 52 59 68 60 53 61 56 62 67 63
REMARK SMILES IDX 83 64 54 65 55 66 66 68 84 69 57 70 44 71 45 72 50 73 46 74
REMARK SMILES IDX 47 75 49 76 51 77 48 78 70 79 71 80 76 81 72 82 73 83 75 84
REMARK SMILES IDX 77 85 74 86 58 87 59 88 64 89 60 90 61 91 63 92 65 93 62 94
REMARK H PARENT 82 56 56 67
REMARK Flexibility Score: inf
ROOT
ATOM      1  C   UNL A   1      33.813  35.872  30.013  1.00  0.00     0.188 C 
ENDROOT
BRANCH   1   2
ATOM      2  O   UNL A   1      33.346  35.529  28.720  1.00  0.00    -0.377 OA
BRANCH   2   3
ATOM      3  C   UNL A   1      33.218  34.149  28.446  1.00  0.00     0.188 C 
BRANCH   3   4
ATOM      4  C   UNL A   1      34.366  33.149  28.665  1.00  0.00     0.188 C 
BRANCH   4   5
ATOM      5  O   UNL A   1      33.987  31.816  28.354  1.00  0.00    -0.376 OA
BRANCH   5   6
ATOM      6  C   UNL A   1      34.918  30.940  27.745  1.00  0.00     0.202 C 
BRANCH   6   7
ATOM      7  C   UNL A   1      34.524  29.485  27.412  1.00  0.00     0.261 C 
BRANCH   7   8
ATOM      8  O   UNL A   1      33.735  29.320  26.226  1.00  0.00    -0.463 OA
BRANCH   8   9
ATOM      9  C   UNL A   1      32.390  29.202  26.334  1.00  0.00     0.306 C 
ATOM     10  O   UNL A   1      31.731  29.665  27.254  1.00  0.00    -0.252 OA
BRANCH   9  11
ATOM     11  C   UNL A   1      31.775  28.587  25.080  1.00  0.00     0.131 C 
BRANCH  11  12
ATOM     12  C   UNL A   1      31.205  27.137  25.198  1.00  0.00     0.031 C 
ATOM     13  C   UNL A   1      35.935  23.766  25.718  1.00  0.00     0.044 C 
ATOM     14  C   UNL A   1      34.769  22.825  25.547  1.00  0.00    -0.047 A 
ATOM     15  C   UNL A   1      35.059  21.452  25.457  1.00  0.00     0.004 A 
ATOM     16  C   UNL A   1      33.416  23.255  25.553  1.00  0.00    -0.034 A 
ATOM     17  C   UNL A   1      34.042  20.505  25.417  1.00  0.00     0.001 A 
ATOM     18  C   UNL A   1      32.401  22.276  25.678  1.00  0.00    -0.044 A 
ATOM     19  C   UNL A   1      33.020  24.730  25.432  1.00  0.00     0.053 C 
ATOM     20  C   UNL A   1      32.723  20.912  25.570  1.00  0.00     0.004 A 
ATOM     21  C   UNL A   1      30.995  22.623  26.110  1.00  0.00     0.036 C 
ATOM     22  C   UNL A   1      32.606  25.270  24.034  1.00  0.00    -0.034 A 
ATOM     23  C   UNL A   1      31.890  24.970  26.458  1.00  0.00     0.002 C 
ATOM     24  C   UNL A   1      30.657  24.113  26.147  1.00  0.00     0.009 C 
ATOM     25  C   UNL A   1      33.133  24.819  22.793  1.00  0.00    -0.047 A 
ATOM     26  C   UNL A   1      31.678  26.354  23.976  1.00  0.00    -0.040 A 
ATOM     27  C   UNL A   1      31.591  26.463  26.530  1.00  0.00     0.013 C 
ATOM     28  C   UNL A   1      32.672  25.380  21.579  1.00  0.00     0.004 A 
ATOM     29  C   UNL A   1      34.193  23.767  22.632  1.00  0.00     0.044 C 
ATOM     30  C   UNL A   1      31.190  26.832  22.741  1.00  0.00     0.004 A 
ATOM     31  C   UNL A   1      31.693  26.357  21.548  1.00  0.00     0.001 A 
ENDBRANCH  11  12
ENDBRANCH   9  11
ENDBRANCH   8   9
ENDBRANCH   7   8
ENDBRANCH   6   7
ENDBRANCH   5   6
ENDBRANCH   4   5
ENDBRANCH   3   4
ENDBRANCH   2   3
ENDBRANCH   1   2
BRANCH   1  32
ATOM     32  C   UNL A   1      32.636  35.957  30.989  1.00  0.00     0.188 C 
BRANCH  32  33
ATOM     33  O   UNL A   1      32.757  35.102  32.113  1.00  0.00    -0.376 OA
BRANCH  33  34
ATOM     34  C   UNL A   1      34.003  34.509  32.459  1.00  0.00     0.202 C 
BRANCH  34  35
ATOM     35  C   UNL A   1      34.300  33.006  32.695  1.00  0.00     0.261 C 
BRANCH  35  36
ATOM     36  O   UNL A   1      35.485  32.413  32.161  1.00  0.00    -0.460 OA
BRANCH  36  37
ATOM     37  C   UNL A   1      36.490  32.097  32.994  1.00  0.00     0.338 C 
ATOM     38  O   UNL A   1      36.514  32.195  34.207  1.00  0.00    -0.246 OA
BRANCH  37  39
ATOM     39  C   UNL A   1      37.519  31.435  32.161  1.00  0.00     0.060 A 
ATOM     40  C   UNL A   1      38.590  30.784  32.789  1.00  0.00     0.016 A 
ATOM     41  C   UNL A   1      37.398  31.418  30.768  1.00  0.00     0.016 A 
ATOM     42  C   UNL A   1      39.551  30.127  32.025  1.00  0.00     0.010 A 
ATOM     43  C   UNL A   1      38.390  30.802  30.000  1.00  0.00     0.010 A 
ATOM     44  C   UNL A   1      39.484  30.184  30.627  1.00  0.00    -0.014 A 
BRANCH  44  45
ATOM     45  C   UNL A   1      40.699  29.856  29.849  1.00  0.00     0.031 A 
ATOM     46  C   UNL A   1      40.807  28.463  29.294  1.00  0.00     0.074 A 
ATOM     47  C   UNL A   1      41.664  30.760  29.616  1.00  0.00     0.049 A 
ATOM     48  N   UNL A   1      41.749  27.926  28.564  1.00  0.00    -0.248 NA
ATOM     49  C   UNL A   1      39.690  27.555  29.605  1.00  0.00     0.031 C 
ATOM     50  C   UNL A   1      41.656  32.148  30.071  1.00  0.00     0.029 A 
ATOM     51  N   UNL A   1      42.850  30.630  28.939  1.00  0.00    -0.354 N 
ATOM     52  C   UNL A   1      41.331  26.625  28.317  1.00  0.00     0.074 A 
ATOM     53  C   UNL A   1      40.070  26.442  29.001  1.00  0.00     0.031 C 
ATOM     54  C   UNL A   1      42.799  32.737  29.678  1.00  0.00     0.029 A 
ATOM     55  C   UNL A   1      43.623  31.762  28.963  1.00  0.00     0.049 A 
ATOM     56  H   UNL A   1      43.119  29.802  28.478  1.00  0.00     0.167 HD
ATOM     57  C   UNL A   1      41.939  25.665  27.582  1.00  0.00     0.037 A 
ATOM     58  C   UNL A   1      44.862  31.972  28.480  1.00  0.00     0.037 A 
ATOM     59  C   UNL A   1      43.218  25.831  26.947  1.00  0.00     0.049 A 
ATOM     60  C   UNL A   1      45.572  30.857  27.755  1.00  0.00     0.074 A 
ATOM     61  C   UNL A   1      43.924  24.926  26.177  1.00  0.00     0.029 A 
ATOM     62  N   UNL A   1      43.995  26.976  27.039  1.00  0.00    -0.354 N 
ATOM     63  N   UNL A   1      45.149  29.646  27.480  1.00  0.00    -0.248 NA
ATOM     64  C   UNL A   1      46.930  31.141  27.273  1.00  0.00     0.031 C 
ATOM     65  C   UNL A   1      45.158  25.503  25.851  1.00  0.00     0.029 A 
ATOM     66  C   UNL A   1      45.194  26.789  26.371  1.00  0.00     0.049 A 
ATOM     67  H   UNL A   1      43.733  27.800  27.508  1.00  0.00     0.167 HD
ATOM     68  C   UNL A   1      46.179  29.032  26.776  1.00  0.00     0.074 A 
ATOM     69  C   UNL A   1      47.239  30.011  26.653  1.00  0.00     0.031 C 
ATOM     70  C   UNL A   1      46.243  27.773  26.273  1.00  0.00     0.037 A 
BRANCH  57  71
ATOM     71  C   UNL A   1      41.236  24.343  27.488  1.00  0.00     0.057 A 
ATOM     72  C   UNL A   1      40.139  24.181  26.633  1.00  0.00     0.134 A 
ATOM     73  C   UNL A   1      41.670  23.220  28.205  1.00  0.00     0.134 A 
ATOM     74  F   UNL A   1      39.677  25.214  25.915  1.00  0.00    -0.206 F 
ATOM     75  C   UNL A   1      39.508  22.945  26.486  1.00  0.00     0.040 A 
ATOM     76  C   UNL A   1      41.065  21.973  28.045  1.00  0.00     0.040 A 
ATOM     77  F   UNL A   1      42.732  23.303  29.023  1.00  0.00    -0.206 F 
ATOM     78  C   UNL A   1      39.978  21.835  27.183  1.00  0.00     0.006 A 
ENDBRANCH  57  71
BRANCH  58  79
ATOM     79  C   UNL A   1      45.527  33.284  28.683  1.00  0.00     0.057 A 
ATOM     80  C   UNL A   1      46.358  33.513  29.787  1.00  0.00     0.134 A 
ATOM     81  C   UNL A   1      45.368  34.331  27.769  1.00  0.00     0.134 A 
ATOM     82  F   UNL A   1      46.554  32.548  30.697  1.00  0.00    -0.206 F 
ATOM     83  C   UNL A   1      46.999  34.737  29.979  1.00  0.00     0.040 A 
ATOM     84  C   UNL A   1      46.022  35.554  27.936  1.00  0.00     0.040 A 
ATOM     85  F   UNL A   1      44.606  34.164  26.678  1.00  0.00    -0.206 F 
ATOM     86  C   UNL A   1      46.837  35.761  29.048  1.00  0.00     0.006 A 
ENDBRANCH  58  79
BRANCH  70  87
ATOM     87  C   UNL A   1      47.492  27.395  25.530  1.00  0.00     0.057 A 
ATOM     88  C   UNL A   1      47.598  27.617  24.151  1.00  0.00     0.134 A 
ATOM     89  C   UNL A   1      48.579  26.786  26.172  1.00  0.00     0.134 A 
ATOM     90  F   UNL A   1      46.589  28.187  23.473  1.00  0.00    -0.206 F 
ATOM     91  C   UNL A   1      48.739  27.248  23.437  1.00  0.00     0.040 A 
ATOM     92  C   UNL A   1      49.736  26.439  25.472  1.00  0.00     0.040 A 
ATOM     93  F   UNL A   1      48.547  26.555  27.493  1.00  0.00    -0.206 F 
ATOM     94  C   UNL A   1      49.816  26.665  24.100  1.00  0.00     0.006 A 
ENDBRANCH  70  87
ENDBRANCH  44  45
ENDBRANCH  37  39
ENDBRANCH  36  37
ENDBRANCH  35  36
ENDBRANCH  34  35
ENDBRANCH  33  34
ENDBRANCH  32  33
ENDBRANCH   1  32
TORSDOF 21
ENDMDL
MODEL 2
REMARK VINA RESULT:     -10.6      3.934      8.931
REMARK SMILES Cc1cccc2c1[C@H]1c3c(C)cccc3[C@H](CC(=O)OCCOCCOCCOCCOC(=O)c3ccc(-c4c5nc(c(-c6c(F)cccc6F)c6ccc([nH]6)c(-c6c(F)cccc6F)c6nc(c(-c7c(F)cccc7F)c7ccc4[nH]7)C=C6)C=C5)cc3)C[C@H]1CC2
REMARK SMILES IDX 27 1 26 2 25 3 24 4 23 5 22 6 21 7 20 8 18 9 19 10 17 11
REMARK SMILES IDX 16 12 1 13 2 14 3 15 7 16 4 17 6 18 8 19 5 20 92 21 9 22
REMARK SMILES IDX 90 23 91 24 10 25 15 26 89 27 12 28 11 29 14 30 13 31 28 32
REMARK SMILES IDX 29 33 30 34 31 35 32 36 33 37 34 38 35 39 36 40 88 41 37 42
REMARK SMILES IDX 87 43 38 44 39 45 40 46 81 47 41 48 86 49 80 50 82 51 42 52
REMARK SMILES IDX 85 53 79 54 78 55 43 57 69 58 52 59 68 60 53 61 56 62 67 63
REMARK SMILES IDX 83 64 54 65 55 66 66 68 84 69 57 70 44 71 45 72 50 73 46 74
REMARK SMILES IDX 47 75 49 76 51 77 48 78 70 79 71 80 76 81 72 82 73 83 75 84
REMARK SMILES IDX 77 85 74 86 58 87 59 88 64 89 60 90 61 91 63 92 65 93 62 94
REMARK H PARENT 82 56 56 67
REMARK Flexibility Score: inf
ROOT
ATOM      1  C   UNL A   1      33.354  26.601  25.717  1.00  0.00     0.188 C 
ENDROOT
BRANCH   1   2
ATOM      2  O   UNL A   1      34.518  26.019  25.155  1.00  0.00    -0.377 OA
BRANCH   2   3
ATOM      3  C   UNL A   1      34.631  24.615  25.266  1.00  0.00     0.188 C 
BRANCH   3   4
ATOM      4  C   UNL A   1      35.944  23.914  25.653  1.00  0.00     0.188 C 
BRANCH   4   5
ATOM      5  O   UNL A   1      36.516  23.200  24.566  1.00  0.00    -0.376 OA
BRANCH   5   6
ATOM      6  C   UNL A   1      37.244  22.010  24.808  1.00  0.00     0.202 C 
BRANCH   6   7
ATOM      7  C   UNL A   1      38.403  21.995  25.828  1.00  0.00     0.261 C 
BRANCH   7   8
ATOM      8  O   UNL A   1      39.376  20.958  25.634  1.00  0.00    -0.463 OA
BRANCH   8   9
ATOM      9  C   UNL A   1      40.447  20.890  26.461  1.00  0.00     0.306 C 
ATOM     10  O   UNL A   1      40.584  20.053  27.342  1.00  0.00    -0.252 OA
BRANCH   9  11
ATOM     11  C   UNL A   1      41.546  21.863  26.042  1.00  0.00     0.131 C 
BRANCH  11  12
ATOM     12  C   UNL A   1      42.661  22.179  27.090  1.00  0.00     0.031 C 
ATOM     13  C   UNL A   1      44.459  27.553  25.712  1.00  0.00     0.044 C 
ATOM     14  C   UNL A   1      45.420  27.046  26.758  1.00  0.00    -0.047 A 
ATOM     15  C   UNL A   1      46.514  27.871  27.079  1.00  0.00     0.004 A 
ATOM     16  C   UNL A   1      45.226  25.834  27.471  1.00  0.00    -0.034 A 
ATOM     17  C   UNL A   1      47.383  27.540  28.111  1.00  0.00     0.001 A 
ATOM     18  C   UNL A   1      46.018  25.597  28.620  1.00  0.00    -0.044 A 
ATOM     19  C   UNL A   1      44.196  24.784  27.044  1.00  0.00     0.053 C 
ATOM     20  C   UNL A   1      47.112  26.432  28.905  1.00  0.00     0.004 A 
ATOM     21  C   UNL A   1      45.630  24.582  29.671  1.00  0.00     0.036 C 
ATOM     22  C   UNL A   1      44.685  23.568  26.208  1.00  0.00    -0.034 A 
ATOM     23  C   UNL A   1      43.494  24.303  28.333  1.00  0.00     0.002 C 
ATOM     24  C   UNL A   1      44.484  23.642  29.300  1.00  0.00     0.009 C 
ATOM     25  C   UNL A   1      45.749  23.596  25.265  1.00  0.00    -0.047 A 
ATOM     26  C   UNL A   1      43.977  22.333  26.332  1.00  0.00    -0.040 A 
ATOM     27  C   UNL A   1      42.319  23.407  27.957  1.00  0.00     0.013 C 
ATOM     28  C   UNL A   1      46.113  22.421  24.569  1.00  0.00     0.004 A 
ATOM     29  C   UNL A   1      46.554  24.812  24.904  1.00  0.00     0.044 C 
ATOM     30  C   UNL A   1      44.422  21.167  25.674  1.00  0.00     0.004 A 
ATOM     31  C   UNL A   1      45.477  21.213  24.786  1.00  0.00     0.001 A 
ENDBRANCH  11  12
ENDBRANCH   9  11
ENDBRANCH   8   9
ENDBRANCH   7   8
ENDBRANCH   6   7
ENDBRANCH   5   6
ENDBRANCH   4   5
ENDBRANCH   3   4
ENDBRANCH   2   3
ENDBRANCH   1   2
BRANCH   1  32
ATOM     32  C   UNL A   1      33.613  28.075  26.041  1.00  0.00     0.188 C 
BRANCH  32  33
ATOM     33  O   UNL A   1      32.441  28.874  26.064  1.00  0.00    -0.376 OA
BRANCH  33  34
ATOM     34  C   UNL A   1      32.199  29.799  27.117  1.00  0.00     0.202 C 
BRANCH  34  35
ATOM     35  C   UNL A   1      31.931  31.321  26.993  1.00  0.00     0.261 C 
BRANCH  35  36
ATOM     36  O   UNL A   1      33.022  32.238  26.892  1.00  0.00    -0.460 OA
BRANCH  36  37
ATOM     37  C   UNL A   1      33.086  33.272  27.748  1.00  0.00     0.338 C 
ATOM     38  O   UNL A   1      32.236  34.115  27.967  1.00  0.00    -0.246 OA
BRANCH  37  39
ATOM     39  C   UNL A   1      34.342  33.093  28.511  1.00  0.00     0.060 A 
ATOM     40  C   UNL A   1      35.549  33.534  27.952  1.00  0.00     0.016 A 
ATOM     41  C   UNL A   1      34.316  32.536  29.794  1.00  0.00     0.016 A 
ATOM     42  C   UNL A   1      36.737  33.406  28.668  1.00  0.00     0.010 A 
ATOM     43  C   UNL A   1      35.515  32.360  30.490  1.00  0.00     0.010 A 
ATOM     44  C   UNL A   1      36.731  32.766  29.914  1.00  0.00    -0.014 A 
BRANCH  44  45
ATOM     45  C   UNL A   1      38.013  32.270  30.459  1.00  0.00     0.031 A 
ATOM     46  C   UNL A   1      38.560  30.993  29.882  1.00  0.00     0.074 A 
ATOM     47  C   UNL A   1      38.688  32.932  31.413  1.00  0.00     0.049 A 
ATOM     48  N   UNL A   1      39.667  30.357  30.163  1.00  0.00    -0.248 NA
ATOM     49  C   UNL A   1      37.741  30.353  28.838  1.00  0.00     0.031 C 
ATOM     50  C   UNL A   1      38.279  34.193  32.023  1.00  0.00     0.029 A 
ATOM     51  N   UNL A   1      39.867  32.616  32.038  1.00  0.00    -0.354 N 
ATOM     52  C   UNL A   1      39.683  29.253  29.321  1.00  0.00     0.074 A 
ATOM     53  C   UNL A   1      38.463  29.285  28.545  1.00  0.00     0.031 C 
ATOM     54  C   UNL A   1      39.184  34.534  32.958  1.00  0.00     0.029 A 
ATOM     55  C   UNL A   1      40.222  33.506  33.020  1.00  0.00     0.049 A 
ATOM     56  H   UNL A   1      40.408  31.827  31.804  1.00  0.00     0.167 HD
ATOM     57  C   UNL A   1      40.632  28.295  29.200  1.00  0.00     0.037 A 
ATOM     58  C   UNL A   1      41.257  33.474  33.882  1.00  0.00     0.037 A 
ATOM     59  C   UNL A   1      41.818  28.233  30.009  1.00  0.00     0.049 A 
ATOM     60  C   UNL A   1      42.248  32.341  33.804  1.00  0.00     0.074 A 
ATOM     61  C   UNL A   1      42.845  27.309  29.968  1.00  0.00     0.029 A 
ATOM     62  N   UNL A   1      42.116  29.124  31.030  1.00  0.00    -0.354 N 
ATOM     63  N   UNL A   1      42.287  31.327  32.972  1.00  0.00    -0.248 NA
ATOM     64  C   UNL A   1      43.341  32.350  34.786  1.00  0.00     0.031 C 
ATOM     65  C   UNL A   1      43.737  27.607  31.005  1.00  0.00     0.029 A 
ATOM     66  C   UNL A   1      43.294  28.749  31.655  1.00  0.00     0.049 A 
ATOM     67  H   UNL A   1      41.572  29.906  31.273  1.00  0.00     0.167 HD
ATOM     68  C   UNL A   1      43.415  30.592  33.315  1.00  0.00     0.074 A 
ATOM     69  C   UNL A   1      44.042  31.285  34.421  1.00  0.00     0.031 C 
ATOM     70  C   UNL A   1      43.894  29.447  32.764  1.00  0.00     0.037 A 
BRANCH  57  71
ATOM     71  C   UNL A   1      40.374  27.218  28.188  1.00  0.00     0.057 A 
ATOM     72  C   UNL A   1      40.954  27.283  26.916  1.00  0.00     0.134 A 
ATOM     73  C   UNL A   1      39.591  26.094  28.486  1.00  0.00     0.134 A 
ATOM     74  F   UNL A   1      41.718  28.329  26.569  1.00  0.00    -0.206 F 
ATOM     75  C   UNL A   1      40.776  26.263  25.981  1.00  0.00     0.040 A 
ATOM     76  C   UNL A   1      39.428  25.054  27.568  1.00  0.00     0.040 A 
ATOM     77  F   UNL A   1      39.027  25.958  29.696  1.00  0.00    -0.206 F 
ATOM     78  C   UNL A   1      40.021  25.140  26.310  1.00  0.00     0.006 A 
ENDBRANCH  57  71
BRANCH  58  79
ATOM     79  C   UNL A   1      41.402  34.534  34.910  1.00  0.00     0.057 A 
ATOM     80  C   UNL A   1      40.794  34.413  36.166  1.00  0.00     0.134 A 
ATOM     81  C   UNL A   1      42.168  35.680  34.674  1.00  0.00     0.134 A 
ATOM     82  F   UNL A   1      40.049  33.337  36.457  1.00  0.00    -0.206 F 
ATOM     83  C   UNL A   1      40.936  35.398  37.146  1.00  0.00     0.040 A 
ATOM     84  C   UNL A   1      42.338  36.662  35.652  1.00  0.00     0.040 A 
ATOM     85  F   UNL A   1      42.797  35.840  33.500  1.00  0.00    -0.206 F 
ATOM     86  C   UNL A   1      41.715  36.524  36.891  1.00  0.00     0.006 A 
ENDBRANCH  58  79
BRANCH  70  87
ATOM     87  C   UNL A   1      45.163  28.888  33.341  1.00  0.00     0.057 A 
ATOM     88  C   UNL A   1      46.410  29.280  32.835  1.00  0.00     0.134 A 
ATOM     89  C   UNL A   1      45.154  27.944  34.375  1.00  0.00     0.134 A 
ATOM     90  F   UNL A   1      46.490  30.174  31.837  1.00  0.00    -0.206 F 
ATOM     91  C   UNL A   1      47.601  28.753  33.337  1.00  0.00     0.040 A 
ATOM     92  C   UNL A   1      46.340  27.431  34.904  1.00  0.00     0.040 A 
ATOM     93  F   UNL A   1      43.995  27.535  34.913  1.00  0.00    -0.206 F 
ATOM     94  C   UNL A   1      47.567  27.832  34.381  1.00  0.00     0.006 A 
ENDBRANCH  70  87
ENDBRANCH  44  45
ENDBRANCH  37  39
ENDBRANCH  36  37
ENDBRANCH  35  36
ENDBRANCH  34  35
ENDBRANCH  33  34
ENDBRANCH  32  33
ENDBRANCH   1  32
TORSDOF 21
ENDMDL
MODEL 3
REMARK VINA RESULT:     -10.1      4.273      8.137
REMARK SMILES Cc1cccc2c1[C@H]1c3c(C)cccc3[C@H](CC(=O)OCCOCCOCCOCCOC(=O)c3ccc(-c4c5nc(c(-c6c(F)cccc6F)c6ccc([nH]6)c(-c6c(F)cccc6F)c6nc(c(-c7c(F)cccc7F)c7ccc4[nH]7)C=C6)C=C5)cc3)C[C@H]1CC2
REMARK SMILES IDX 27 1 26 2 25 3 24 4 23 5 22 6 21 7 20 8 18 9 19 10 17 11
REMARK SMILES IDX 16 12 1 13 2 14 3 15 7 16 4 17 6 18 8 19 5 20 92 21 9 22
REMARK SMILES IDX 90 23 91 24 10 25 15 26 89 27 12 28 11 29 14 30 13 31 28 32
REMARK SMILES IDX 29 33 30 34 31 35 32 36 33 37 34 38 35 39 36 40 88 41 37 42
REMARK SMILES IDX 87 43 38 44 39 45 40 46 81 47 41 48 86 49 80 50 82 51 42 52
REMARK SMILES IDX 85 53 79 54 78 55 43 57 69 58 52 59 68 60 53 61 56 62 67 63
REMARK SMILES IDX 83 64 54 65 55 66 66 68 84 69 57 70 44 71 45 72 50 73 46 74
REMARK SMILES IDX 47 75 49 76 51 77 48 78 70 79 71 80 76 81 72 82 73 83 75 84
REMARK SMILES IDX 77 85 74 86 58 87 59 88 64 89 60 90 61 91 63 92 65 93 62 94
REMARK H PARENT 82 56 56 67
REMARK Flexibility Score: inf
ROOT
ATOM      1  C   UNL A   1      33.092  36.182  29.989  1.00  0.00     0.188 C 
ENDROOT
BRANCH   1   2
ATOM      2  O   UNL A   1      33.444  35.524  28.785  1.00  0.00    -0.377 OA
BRANCH   2   3
ATOM      3  C   UNL A   1      33.965  34.217  28.915  1.00  0.00     0.188 C 
BRANCH   3   4
ATOM      4  C   UNL A   1      35.307  33.791  28.296  1.00  0.00     0.188 C 
BRANCH   4   5
ATOM      5  O   UNL A   1      36.405  34.056  29.157  1.00  0.00    -0.376 OA
BRANCH   5   6
ATOM      6  C   UNL A   1      37.432  33.092  29.307  1.00  0.00     0.202 C 
BRANCH   6   7
ATOM      7  C   UNL A   1      37.296  31.695  28.665  1.00  0.00     0.261 C 
BRANCH   7   8
ATOM      8  O   UNL A   1      38.497  30.911  28.642  1.00  0.00    -0.463 OA
BRANCH   8   9
ATOM      9  C   UNL A   1      38.413  29.573  28.449  1.00  0.00     0.306 C 
ATOM     10  O   UNL A   1      37.404  28.911  28.649  1.00  0.00    -0.252 OA
BRANCH   9  11
ATOM     11  C   UNL A   1      39.666  29.021  27.773  1.00  0.00     0.131 C 
BRANCH  11  12
ATOM     12  C   UNL A   1      40.579  28.077  28.620  1.00  0.00     0.031 C 
ATOM     13  C   UNL A   1      45.107  26.933  25.128  1.00  0.00     0.044 C 
ATOM     14  C   UNL A   1      45.259  26.023  26.321  1.00  0.00    -0.047 A 
ATOM     15  C   UNL A   1      46.319  25.098  26.292  1.00  0.00     0.004 A 
ATOM     16  C   UNL A   1      44.442  26.114  27.478  1.00  0.00    -0.034 A 
ATOM     17  C   UNL A   1      46.605  24.302  27.394  1.00  0.00     0.001 A 
ATOM     18  C   UNL A   1      44.849  25.420  28.643  1.00  0.00    -0.044 A 
ATOM     19  C   UNL A   1      43.149  26.934  27.510  1.00  0.00     0.053 C 
ATOM     20  C   UNL A   1      45.903  24.493  28.577  1.00  0.00     0.004 A 
ATOM     21  C   UNL A   1      44.316  25.766  30.014  1.00  0.00     0.036 C 
ATOM     22  C   UNL A   1      41.800  26.191  27.294  1.00  0.00    -0.034 A 
ATOM     23  C   UNL A   1      43.137  27.690  28.857  1.00  0.00     0.002 C 
ATOM     24  C   UNL A   1      43.123  26.720  30.046  1.00  0.00     0.009 C 
ATOM     25  C   UNL A   1      41.616  25.051  26.465  1.00  0.00    -0.047 A 
ATOM     26  C   UNL A   1      40.628  26.725  27.912  1.00  0.00    -0.040 A 
ATOM     27  C   UNL A   1      41.977  28.679  28.864  1.00  0.00     0.013 C 
ATOM     28  C   UNL A   1      40.340  24.452  26.353  1.00  0.00     0.004 A 
ATOM     29  C   UNL A   1      42.689  24.394  25.644  1.00  0.00     0.044 C 
ATOM     30  C   UNL A   1      39.390  26.052  27.834  1.00  0.00     0.004 A 
ATOM     31  C   UNL A   1      39.243  24.928  27.047  1.00  0.00     0.001 A 
ENDBRANCH  11  12
ENDBRANCH   9  11
ENDBRANCH   8   9
ENDBRANCH   7   8
ENDBRANCH   6   7
ENDBRANCH   5   6
ENDBRANCH   4   5
ENDBRANCH   3   4
ENDBRANCH   2   3
ENDBRANCH   1   2
BRANCH   1  32
ATOM     32  C   UNL A   1      33.396  35.277  31.187  1.00  0.00     0.188 C 
BRANCH  32  33
ATOM     33  O   UNL A   1      34.163  35.904  32.202  1.00  0.00    -0.376 OA
BRANCH  33  34
ATOM     34  C   UNL A   1      35.138  35.179  32.943  1.00  0.00     0.202 C 
BRANCH  34  35
ATOM     35  C   UNL A   1      34.893  34.023  33.946  1.00  0.00     0.261 C 
BRANCH  35  36
ATOM     36  O   UNL A   1      35.713  32.853  33.911  1.00  0.00    -0.460 OA
BRANCH  36  37
ATOM     37  C   UNL A   1      35.788  32.142  32.774  1.00  0.00     0.338 C 
ATOM     38  O   UNL A   1      34.979  32.097  31.866  1.00  0.00    -0.246 OA
BRANCH  37  39
ATOM     39  C   UNL A   1      37.141  31.543  32.755  1.00  0.00     0.060 A 
ATOM     40  C   UNL A   1      38.166  32.149  33.495  1.00  0.00     0.016 A 
ATOM     41  C   UNL A   1      37.382  30.360  32.048  1.00  0.00     0.016 A 
ATOM     42  C   UNL A   1      39.438  31.583  33.518  1.00  0.00     0.010 A 
ATOM     43  C   UNL A   1      38.671  29.821  32.029  1.00  0.00     0.010 A 
ATOM     44  C   UNL A   1      39.708  30.451  32.738  1.00  0.00    -0.014 A 
BRANCH  44  45
ATOM     45  C   UNL A   1      41.119  30.116  32.444  1.00  0.00     0.031 A 
ATOM     46  C   UNL A   1      41.837  30.978  31.442  1.00  0.00     0.074 A 
ATOM     47  C   UNL A   1      41.756  29.104  33.055  1.00  0.00     0.049 A 
ATOM     48  N   UNL A   1      43.073  30.916  31.023  1.00  0.00    -0.248 NA
ATOM     49  C   UNL A   1      41.045  32.063  30.837  1.00  0.00     0.031 C 
ATOM     50  C   UNL A   1      41.178  28.224  34.066  1.00  0.00     0.029 A 
ATOM     51  N   UNL A   1      43.039  28.647  32.896  1.00  0.00    -0.354 N 
ATOM     52  C   UNL A   1      43.210  31.961  30.118  1.00  0.00     0.074 A 
ATOM     53  C   UNL A   1      41.926  32.618  30.023  1.00  0.00     0.031 C 
ATOM     54  C   UNL A   1      42.101  27.312  34.423  1.00  0.00     0.029 A 
ATOM     55  C   UNL A   1      43.323  27.537  33.651  1.00  0.00     0.049 A 
ATOM     56  H   UNL A   1      43.695  29.076  32.299  1.00  0.00     0.167 HD
ATOM     57  C   UNL A   1      44.309  32.344  29.427  1.00  0.00     0.037 A 
ATOM     58  C   UNL A   1      44.437  26.782  33.691  1.00  0.00     0.037 A 
ATOM     59  C   UNL A   1      45.571  31.657  29.482  1.00  0.00     0.049 A 
ATOM     60  C   UNL A   1      45.618  27.161  32.834  1.00  0.00     0.074 A 
ATOM     61  C   UNL A   1      46.749  31.962  28.827  1.00  0.00     0.029 A 
ATOM     62  N   UNL A   1      45.804  30.505  30.218  1.00  0.00    -0.354 N 
ATOM     63  N   UNL A   1      45.759  28.180  32.020  1.00  0.00    -0.248 NA
ATOM     64  C   UNL A   1      46.795  26.284  32.904  1.00  0.00     0.031 C 
ATOM     65  C   UNL A   1      47.680  30.957  29.120  1.00  0.00     0.029 A 
ATOM     66  C   UNL A   1      47.097  30.060  30.002  1.00  0.00     0.049 A 
ATOM     67  H   UNL A   1      45.147  30.068  30.806  1.00  0.00     0.167 HD
ATOM     68  C   UNL A   1      47.043  28.079  31.498  1.00  0.00     0.074 A 
ATOM     69  C   UNL A   1      47.645  26.908  32.101  1.00  0.00     0.031 C 
ATOM     70  C   UNL A   1      47.672  28.883  30.603  1.00  0.00     0.037 A 
BRANCH  57  71
ATOM     71  C   UNL A   1      44.154  33.528  28.520  1.00  0.00     0.057 A 
ATOM     72  C   UNL A   1      43.953  33.350  27.146  1.00  0.00     0.134 A 
ATOM     73  C   UNL A   1      44.153  34.842  29.010  1.00  0.00     0.134 A 
ATOM     74  F   UNL A   1      43.937  32.120  26.614  1.00  0.00    -0.206 F 
ATOM     75  C   UNL A   1      43.746  34.435  26.294  1.00  0.00     0.040 A 
ATOM     76  C   UNL A   1      43.920  35.933  28.171  1.00  0.00     0.040 A 
ATOM     77  F   UNL A   1      44.315  35.080  30.321  1.00  0.00    -0.206 F 
ATOM     78  C   UNL A   1      43.717  35.730  26.807  1.00  0.00     0.006 A 
ENDBRANCH  57  71
BRANCH  58  79
ATOM     79  C   UNL A   1      44.488  25.576  34.555  1.00  0.00     0.057 A 
ATOM     80  C   UNL A   1      44.210  24.303  34.040  1.00  0.00     0.134 A 
ATOM     81  C   UNL A   1      44.837  25.661  35.907  1.00  0.00     0.134 A 
ATOM     82  F   UNL A   1      43.873  24.153  32.751  1.00  0.00    -0.206 F 
ATOM     83  C   UNL A   1      44.269  23.161  34.841  1.00  0.00     0.040 A 
ATOM     84  C   UNL A   1      44.922  24.525  36.714  1.00  0.00     0.040 A 
ATOM     85  F   UNL A   1      45.140  26.849  36.451  1.00  0.00    -0.206 F 
ATOM     86  C   UNL A   1      44.632  23.270  36.181  1.00  0.00     0.006 A 
ENDBRANCH  58  79
BRANCH  70  87
ATOM     87  C   UNL A   1      49.087  28.529  30.241  1.00  0.00     0.057 A 
ATOM     88  C   UNL A   1      49.353  27.628  29.202  1.00  0.00     0.134 A 
ATOM     89  C   UNL A   1      50.183  29.058  30.935  1.00  0.00     0.134 A 
ATOM     90  F   UNL A   1      48.348  27.077  28.503  1.00  0.00    -0.206 F 
ATOM     91  C   UNL A   1      50.658  27.264  28.866  1.00  0.00     0.040 A 
ATOM     92  C   UNL A   1      51.494  28.723  30.588  1.00  0.00     0.040 A 
ATOM     93  F   UNL A   1      49.999  29.935  31.932  1.00  0.00    -0.206 F 
ATOM     94  C   UNL A   1      51.733  27.820  29.555  1.00  0.00     0.006 A 
ENDBRANCH  70  87
ENDBRANCH  44  45
ENDBRANCH  37  39
ENDBRANCH  36  37
ENDBRANCH  35  36
ENDBRANCH  34  35
ENDBRANCH  33  34
ENDBRANCH  32  33
ENDBRANCH   1  32
TORSDOF 21
ENDMDL
