MODEL 1
REMARK VINA RESULT:     -10.6      0.000      0.000
REMARK SMILES C[C@H]1CCCC[C@H]1[N@@H+]1[C@@H](C(=O)OCCOCCOCCOCCOC(=O)c2ccc(-c3c4nc(c(-c5c(F)cccc5F)c5ccc([nH]5)c(-c5c(F)cccc5F)c5nc(c(-c6c(F)cccc6F)c6ccc3[nH]6)C=C5)C=C4)cc2)CC[C@@H]2CCCC[C@@H]21
REMARK SMILES IDX 19 1 18 2 17 3 16 4 15 5 14 6 13 7 12 8 10 9 11 10 9 11 8 12
REMARK SMILES IDX 88 13 81 15 83 16 87 17 82 18 84 19 86 20 85 21 7 22 1 23
REMARK SMILES IDX 2 24 3 25 4 26 6 27 5 28 20 29 21 30 22 31 23 32 24 33 25 34
REMARK SMILES IDX 26 35 27 36 28 37 80 38 29 39 79 40 30 41 31 42 32 43 73 44
REMARK SMILES IDX 33 45 78 46 72 47 74 48 34 49 77 50 71 51 70 52 35 54 61 55
REMARK SMILES IDX 44 56 60 57 45 58 48 59 59 60 75 61 46 62 47 63 58 65 76 66
REMARK SMILES IDX 49 67 36 68 37 69 42 70 38 71 39 72 41 73 43 74 40 75 62 76
REMARK SMILES IDX 63 77 68 78 64 79 65 80 67 81 69 82 66 83 50 84 51 85 56 86
REMARK SMILES IDX 52 87 53 88 55 89 57 90 54 91
REMARK H PARENT 8 14 74 53 48 64
REMARK Flexibility Score: inf
ROOT
ATOM      1  C   UNL A   1      34.018  31.582  28.011  1.00  0.00     0.188 C 
ENDROOT
BRANCH   1   2
ATOM      2  O   UNL A   1      33.824  30.918  26.771  1.00  0.00    -0.377 OA
BRANCH   2   3
ATOM      3  C   UNL A   1      33.017  29.742  26.792  1.00  0.00     0.188 C 
BRANCH   3   4
ATOM      4  C   UNL A   1      31.820  29.913  25.842  1.00  0.00     0.188 C 
BRANCH   4   5
ATOM      5  O   UNL A   1      32.016  29.368  24.540  1.00  0.00    -0.376 OA
BRANCH   5   6
ATOM      6  C   UNL A   1      33.335  28.914  24.230  1.00  0.00     0.202 C 
BRANCH   6   7
ATOM      7  C   UNL A   1      33.473  27.571  23.475  1.00  0.00     0.261 C 
BRANCH   7   8
ATOM      8  O   UNL A   1      33.893  26.376  24.201  1.00  0.00    -0.459 OA
BRANCH   8   9
ATOM      9  C   UNL A   1      34.013  25.215  23.459  1.00  0.00     0.365 C 
ATOM     10  O   UNL A   1      33.842  25.204  22.242  1.00  0.00    -0.245 OA
BRANCH   9  11
ATOM     11  C   UNL A   1      34.163  23.921  24.332  1.00  0.00     0.295 C 
ATOM     12  N   UNL A   1      33.050  23.225  25.088  1.00  0.00    -0.318 N 
ATOM     13  C   UNL A   1      33.529  22.269  26.150  1.00  0.00     0.188 C 
ATOM     14  H   UNL A   1      32.738  24.163  25.340  1.00  0.00     0.349 HD
ATOM     15  C   UNL A   1      35.149  24.403  25.438  1.00  0.00     0.078 C 
ATOM     16  C   UNL A   1      35.051  21.989  26.129  1.00  0.00     0.048 C 
ATOM     17  C   UNL A   1      32.857  20.869  26.351  1.00  0.00     0.065 C 
ATOM     18  C   UNL A   1      35.838  23.286  26.198  1.00  0.00     0.016 C 
ATOM     19  C   UNL A   1      35.495  21.081  24.958  1.00  0.00     0.010 C 
ATOM     20  C   UNL A   1      33.538  19.689  25.653  1.00  0.00     0.006 C 
ATOM     21  C   UNL A   1      34.394  20.134  24.485  1.00  0.00     0.001 C 
BRANCH  12  22
ATOM     22  C   UNL A   1      31.663  23.009  24.660  1.00  0.00     0.187 C 
ATOM     23  C   UNL A   1      30.358  23.218  27.002  1.00  0.00     0.014 C 
ATOM     24  C   UNL A   1      30.541  23.670  25.560  1.00  0.00     0.044 C 
ATOM     25  C   UNL A   1      30.658  25.197  25.524  1.00  0.00     0.009 C 
ATOM     26  C   UNL A   1      30.340  25.684  24.131  1.00  0.00     0.001 C 
ATOM     27  C   UNL A   1      31.310  23.418  23.238  1.00  0.00     0.065 C 
ATOM     28  C   UNL A   1      31.085  24.908  23.073  1.00  0.00     0.006 C 
ENDBRANCH  12  22
ENDBRANCH   9  11
ENDBRANCH   8   9
ENDBRANCH   7   8
ENDBRANCH   6   7
ENDBRANCH   5   6
ENDBRANCH   4   5
ENDBRANCH   3   4
ENDBRANCH   2   3
ENDBRANCH   1   2
BRANCH   1  29
ATOM     29  C   UNL A   1      33.859  33.111  28.012  1.00  0.00     0.188 C 
BRANCH  29  30
ATOM     30  O   UNL A   1      34.623  33.883  28.936  1.00  0.00    -0.376 OA
BRANCH  30  31
ATOM     31  C   UNL A   1      33.999  34.299  30.142  1.00  0.00     0.202 C 
BRANCH  31  32
ATOM     32  C   UNL A   1      34.906  34.624  31.327  1.00  0.00     0.261 C 
BRANCH  32  33
ATOM     33  O   UNL A   1      36.070  33.782  31.318  1.00  0.00    -0.460 OA
BRANCH  33  34
ATOM     34  C   UNL A   1      35.962  32.637  32.012  1.00  0.00     0.338 C 
ATOM     35  O   UNL A   1      35.178  32.374  32.922  1.00  0.00    -0.246 OA
BRANCH  34  36
ATOM     36  C   UNL A   1      36.848  31.639  31.414  1.00  0.00     0.060 A 
ATOM     37  C   UNL A   1      37.613  30.827  32.262  1.00  0.00     0.016 A 
ATOM     38  C   UNL A   1      37.003  31.589  30.028  1.00  0.00     0.016 A 
ATOM     39  C   UNL A   1      38.582  29.990  31.729  1.00  0.00     0.010 A 
ATOM     40  C   UNL A   1      37.998  30.774  29.497  1.00  0.00     0.010 A 
ATOM     41  C   UNL A   1      38.818  30.017  30.353  1.00  0.00    -0.014 A 
BRANCH  41  42
ATOM     42  C   UNL A   1      40.093  29.491  29.831  1.00  0.00     0.031 A 
ATOM     43  C   UNL A   1      41.239  30.454  29.712  1.00  0.00     0.074 A 
ATOM     44  C   UNL A   1      40.212  28.206  29.467  1.00  0.00     0.049 A 
ATOM     45  N   UNL A   1      42.394  30.303  29.125  1.00  0.00    -0.248 NA
ATOM     46  C   UNL A   1      41.046  31.777  30.334  1.00  0.00     0.031 C 
ATOM     47  C   UNL A   1      39.182  27.183  29.624  1.00  0.00     0.029 A 
ATOM     48  N   UNL A   1      41.254  27.555  28.863  1.00  0.00    -0.354 N 
ATOM     49  C   UNL A   1      43.052  31.517  29.280  1.00  0.00     0.074 A 
ATOM     50  C   UNL A   1      42.167  32.398  30.005  1.00  0.00     0.031 C 
ATOM     51  C   UNL A   1      39.633  26.031  29.095  1.00  0.00     0.029 A 
ATOM     52  C   UNL A   1      40.959  26.259  28.524  1.00  0.00     0.049 A 
ATOM     53  H   UNL A   1      42.128  27.974  28.691  1.00  0.00     0.167 HD
ATOM     54  C   UNL A   1      44.285  31.861  28.844  1.00  0.00     0.037 A 
ATOM     55  C   UNL A   1      41.670  25.381  27.793  1.00  0.00     0.037 A 
ATOM     56  C   UNL A   1      45.143  30.964  28.119  1.00  0.00     0.049 A 
ATOM     57  C   UNL A   1      43.006  25.812  27.247  1.00  0.00     0.074 A 
ATOM     58  C   UNL A   1      46.413  31.194  27.623  1.00  0.00     0.029 A 
ATOM     59  N   UNL A   1      44.807  29.660  27.784  1.00  0.00    -0.354 N 
ATOM     60  N   UNL A   1      43.623  26.962  27.379  1.00  0.00    -0.248 NA
ATOM     61  C   UNL A   1      43.743  24.826  26.444  1.00  0.00     0.031 C 
ATOM     62  C   UNL A   1      46.823  30.045  26.942  1.00  0.00     0.029 A 
ATOM     63  C   UNL A   1      45.837  29.078  27.070  1.00  0.00     0.049 A 
ATOM     64  H   UNL A   1      43.960  29.216  28.020  1.00  0.00     0.167 HD
ATOM     65  C   UNL A   1      44.837  26.825  26.718  1.00  0.00     0.074 A 
ATOM     66  C   UNL A   1      44.866  25.480  26.180  1.00  0.00     0.031 C 
ATOM     67  C   UNL A   1      45.842  27.724  26.573  1.00  0.00     0.037 A 
BRANCH  54  68
ATOM     68  C   UNL A   1      44.743  33.267  29.095  1.00  0.00     0.057 A 
ATOM     69  C   UNL A   1      45.475  33.623  30.235  1.00  0.00     0.134 A 
ATOM     70  C   UNL A   1      44.449  34.284  28.176  1.00  0.00     0.134 A 
ATOM     71  F   UNL A   1      45.772  32.704  31.167  1.00  0.00    -0.206 F 
ATOM     72  C   UNL A   1      45.879  34.941  30.463  1.00  0.00     0.040 A 
ATOM     73  C   UNL A   1      44.870  35.599  28.379  1.00  0.00     0.040 A 
ATOM     74  F   UNL A   1      43.747  34.015  27.065  1.00  0.00    -0.206 F 
ATOM     75  C   UNL A   1      45.582  35.931  29.529  1.00  0.00     0.006 A 
ENDBRANCH  54  68
BRANCH  55  76
ATOM     76  C   UNL A   1      41.129  24.025  27.522  1.00  0.00     0.057 A 
ATOM     77  C   UNL A   1      40.088  23.833  26.609  1.00  0.00     0.134 A 
ATOM     78  C   UNL A   1      41.635  22.891  28.171  1.00  0.00     0.134 A 
ATOM     79  F   UNL A   1      39.549  24.881  25.969  1.00  0.00    -0.206 F 
ATOM     80  C   UNL A   1      39.557  22.565  26.361  1.00  0.00     0.040 A 
ATOM     81  C   UNL A   1      41.132  21.615  27.914  1.00  0.00     0.040 A 
ATOM     82  F   UNL A   1      42.638  23.006  29.055  1.00  0.00    -0.206 F 
ATOM     83  C   UNL A   1      40.084  21.451  27.011  1.00  0.00     0.006 A 
ENDBRANCH  55  76
BRANCH  67  84
ATOM     84  C   UNL A   1      47.084  27.262  25.870  1.00  0.00     0.057 A 
ATOM     85  C   UNL A   1      48.066  26.502  26.513  1.00  0.00     0.134 A 
ATOM     86  C   UNL A   1      47.255  27.526  24.503  1.00  0.00     0.134 A 
ATOM     87  F   UNL A   1      47.964  26.225  27.822  1.00  0.00    -0.206 F 
ATOM     88  C   UNL A   1      49.187  26.034  25.826  1.00  0.00     0.040 A 
ATOM     89  C   UNL A   1      48.356  27.039  23.800  1.00  0.00     0.040 A 
ATOM     90  F   UNL A   1      46.342  28.239  23.827  1.00  0.00    -0.206 F 
ATOM     91  C   UNL A   1      49.327  26.293  24.463  1.00  0.00     0.006 A 
ENDBRANCH  67  84
ENDBRANCH  41  42
ENDBRANCH  34  36
ENDBRANCH  33  34
ENDBRANCH  32  33
ENDBRANCH  31  32
ENDBRANCH  30  31
ENDBRANCH  29  30
ENDBRANCH   1  29
TORSDOF 21
ENDMDL
MODEL 2
REMARK VINA RESULT:     -10.3      1.541      2.823
REMARK SMILES C[C@H]1CCCC[C@H]1[N@@H+]1[C@@H](C(=O)OCCOCCOCCOCCOC(=O)c2ccc(-c3c4nc(c(-c5c(F)cccc5F)c5ccc([nH]5)c(-c5c(F)cccc5F)c5nc(c(-c6c(F)cccc6F)c6ccc3[nH]6)C=C5)C=C4)cc2)CC[C@@H]2CCCC[C@@H]21
REMARK SMILES IDX 19 1 18 2 17 3 16 4 15 5 14 6 13 7 12 8 10 9 11 10 9 11 8 12
REMARK SMILES IDX 88 13 81 15 83 16 87 17 82 18 84 19 86 20 85 21 7 22 1 23
REMARK SMILES IDX 2 24 3 25 4 26 6 27 5 28 20 29 21 30 22 31 23 32 24 33 25 34
REMARK SMILES IDX 26 35 27 36 28 37 80 38 29 39 79 40 30 41 31 42 32 43 73 44
REMARK SMILES IDX 33 45 78 46 72 47 74 48 34 49 77 50 71 51 70 52 35 54 61 55
REMARK SMILES IDX 44 56 60 57 45 58 48 59 59 60 75 61 46 62 47 63 58 65 76 66
REMARK SMILES IDX 49 67 36 68 37 69 42 70 38 71 39 72 41 73 43 74 40 75 62 76
REMARK SMILES IDX 63 77 68 78 64 79 65 80 67 81 69 82 66 83 50 84 51 85 56 86
REMARK SMILES IDX 52 87 53 88 55 89 57 90 54 91
REMARK H PARENT 8 14 74 53 48 64
REMARK Flexibility Score: inf
ROOT
ATOM      1  C   UNL A   1      33.552  35.623  30.207  1.00  0.00     0.188 C 
ENDROOT
BRANCH   1   2
ATOM      2  O   UNL A   1      33.416  34.520  29.325  1.00  0.00    -0.377 OA
BRANCH   2   3
ATOM      3  C   UNL A   1      34.219  34.538  28.146  1.00  0.00     0.188 C 
BRANCH   3   4
ATOM      4  C   UNL A   1      34.758  33.127  27.859  1.00  0.00     0.188 C 
BRANCH   4   5
ATOM      5  O   UNL A   1      33.751  32.128  27.719  1.00  0.00    -0.376 OA
BRANCH   5   6
ATOM      6  C   UNL A   1      34.204  30.793  27.485  1.00  0.00     0.202 C 
BRANCH   6   7
ATOM      7  C   UNL A   1      33.133  29.687  27.339  1.00  0.00     0.261 C 
BRANCH   7   8
ATOM      8  O   UNL A   1      33.530  28.351  26.903  1.00  0.00    -0.459 OA
BRANCH   8   9
ATOM      9  C   UNL A   1      32.535  27.559  26.360  1.00  0.00     0.365 C 
ATOM     10  O   UNL A   1      31.347  27.862  26.447  1.00  0.00    -0.245 OA
BRANCH   9  11
ATOM     11  C   UNL A   1      33.048  26.173  25.836  1.00  0.00     0.295 C 
ATOM     12  N   UNL A   1      33.157  25.757  24.384  1.00  0.00    -0.318 N 
ATOM     13  C   UNL A   1      33.286  24.270  24.176  1.00  0.00     0.188 C 
ATOM     14  H   UNL A   1      32.256  26.219  24.263  1.00  0.00     0.349 HD
ATOM     15  C   UNL A   1      31.998  25.199  26.448  1.00  0.00     0.078 C 
ATOM     16  C   UNL A   1      33.518  23.453  25.470  1.00  0.00     0.048 C 
ATOM     17  C   UNL A   1      34.289  23.676  23.130  1.00  0.00     0.065 C 
ATOM     18  C   UNL A   1      32.436  23.747  26.494  1.00  0.00     0.016 C 
ATOM     19  C   UNL A   1      34.944  23.606  26.047  1.00  0.00     0.010 C 
ATOM     20  C   UNL A   1      35.650  23.237  23.678  1.00  0.00     0.006 C 
ATOM     21  C   UNL A   1      35.990  23.928  24.982  1.00  0.00     0.001 C 
BRANCH  12  22
ATOM     22  C   UNL A   1      33.591  26.568  23.241  1.00  0.00     0.187 C 
ATOM     23  C   UNL A   1      32.156  25.467  21.250  1.00  0.00     0.014 C 
ATOM     24  C   UNL A   1      32.562  26.700  22.044  1.00  0.00     0.044 C 
ATOM     25  C   UNL A   1      31.299  27.437  22.505  1.00  0.00     0.009 C 
ATOM     26  C   UNL A   1      31.655  28.865  22.838  1.00  0.00     0.001 C 
ATOM     27  C   UNL A   1      34.028  27.995  23.535  1.00  0.00     0.065 C 
ATOM     28  C   UNL A   1      32.872  28.957  23.726  1.00  0.00     0.006 C 
ENDBRANCH  12  22
ENDBRANCH   9  11
ENDBRANCH   8   9
ENDBRANCH   7   8
ENDBRANCH   6   7
ENDBRANCH   5   6
ENDBRANCH   4   5
ENDBRANCH   3   4
ENDBRANCH   2   3
ENDBRANCH   1   2
BRANCH   1  29
ATOM     29  C   UNL A   1      32.541  35.718  31.362  1.00  0.00     0.188 C 
BRANCH  29  30
ATOM     30  O   UNL A   1      32.760  34.942  32.537  1.00  0.00    -0.376 OA
BRANCH  30  31
ATOM     31  C   UNL A   1      34.092  34.561  32.853  1.00  0.00     0.202 C 
BRANCH  31  32
ATOM     32  C   UNL A   1      34.334  33.103  33.234  1.00  0.00     0.261 C 
BRANCH  32  33
ATOM     33  O   UNL A   1      35.651  32.688  32.837  1.00  0.00    -0.460 OA
BRANCH  33  34
ATOM     34  C   UNL A   1      35.728  32.065  31.650  1.00  0.00     0.338 C 
ATOM     35  O   UNL A   1      34.807  31.746  30.900  1.00  0.00    -0.246 OA
BRANCH  34  36
ATOM     36  C   UNL A   1      37.136  31.937  31.276  1.00  0.00     0.060 A 
ATOM     37  C   UNL A   1      37.516  32.267  29.968  1.00  0.00     0.016 A 
ATOM     38  C   UNL A   1      38.047  31.388  32.178  1.00  0.00     0.016 A 
ATOM     39  C   UNL A   1      38.806  32.000  29.533  1.00  0.00     0.010 A 
ATOM     40  C   UNL A   1      39.331  31.089  31.732  1.00  0.00     0.010 A 
ATOM     41  C   UNL A   1      39.690  31.348  30.398  1.00  0.00    -0.014 A 
BRANCH  41  42
ATOM     42  C   UNL A   1      40.877  30.676  29.838  1.00  0.00     0.031 A 
ATOM     43  C   UNL A   1      42.111  31.506  29.642  1.00  0.00     0.074 A 
ATOM     44  C   UNL A   1      40.841  29.376  29.508  1.00  0.00     0.049 A 
ATOM     45  N   UNL A   1      43.217  31.216  29.011  1.00  0.00    -0.248 NA
ATOM     46  C   UNL A   1      42.089  32.857  30.232  1.00  0.00     0.031 C 
ATOM     47  C   UNL A   1      39.716  28.474  29.738  1.00  0.00     0.029 A 
ATOM     48  N   UNL A   1      41.780  28.602  28.880  1.00  0.00    -0.354 N 
ATOM     49  C   UNL A   1      44.006  32.356  29.103  1.00  0.00     0.074 A 
ATOM     50  C   UNL A   1      43.254  33.346  29.838  1.00  0.00     0.031 C 
ATOM     51  C   UNL A   1      40.018  27.268  29.226  1.00  0.00     0.029 A 
ATOM     52  C   UNL A   1      41.332  27.337  28.592  1.00  0.00     0.049 A 
ATOM     53  H   UNL A   1      42.685  28.920  28.658  1.00  0.00     0.167 HD
ATOM     54  C   UNL A   1      45.248  32.554  28.604  1.00  0.00     0.037 A 
ATOM     55  C   UNL A   1      41.913  26.370  27.858  1.00  0.00     0.037 A 
ATOM     56  C   UNL A   1      45.972  31.553  27.870  1.00  0.00     0.049 A 
ATOM     57  C   UNL A   1      43.261  26.640  27.243  1.00  0.00     0.074 A 
ATOM     58  C   UNL A   1      47.235  31.632  27.314  1.00  0.00     0.029 A 
ATOM     59  N   UNL A   1      45.484  30.284  27.589  1.00  0.00    -0.354 N 
ATOM     60  N   UNL A   1      44.002  27.720  27.315  1.00  0.00    -0.248 NA
ATOM     61  C   UNL A   1      43.851  25.561  26.440  1.00  0.00     0.031 C 
ATOM     62  C   UNL A   1      47.489  30.429  26.651  1.00  0.00     0.029 A 
ATOM     63  C   UNL A   1      46.413  29.577  26.849  1.00  0.00     0.049 A 
ATOM     64  H   UNL A   1      44.606  29.940  27.874  1.00  0.00     0.167 HD
ATOM     65  C   UNL A   1      45.163  27.437  26.608  1.00  0.00     0.074 A 
ATOM     66  C   UNL A   1      45.024  26.084  26.109  1.00  0.00     0.031 C 
ATOM     67  C   UNL A   1      46.251  28.218  26.393  1.00  0.00     0.037 A 
BRANCH  54  68
ATOM     68  C   UNL A   1      45.864  33.909  28.793  1.00  0.00     0.057 A 
ATOM     69  C   UNL A   1      46.571  34.254  29.953  1.00  0.00     0.134 A 
ATOM     70  C   UNL A   1      45.751  34.886  27.795  1.00  0.00     0.134 A 
ATOM     71  F   UNL A   1      46.698  33.374  30.958  1.00  0.00    -0.206 F 
ATOM     72  C   UNL A   1      47.123  35.525  30.122  1.00  0.00     0.040 A 
ATOM     73  C   UNL A   1      46.322  36.151  27.940  1.00  0.00     0.040 A 
ATOM     74  F   UNL A   1      45.083  34.625  26.661  1.00  0.00    -0.206 F 
ATOM     75  C   UNL A   1      47.005  36.475  29.110  1.00  0.00     0.006 A 
ENDBRANCH  54  68
BRANCH  55  76
ATOM     76  C   UNL A   1      41.218  25.073  27.651  1.00  0.00     0.057 A 
ATOM     77  C   UNL A   1      41.634  23.917  28.318  1.00  0.00     0.134 A 
ATOM     78  C   UNL A   1      40.127  24.958  26.780  1.00  0.00     0.134 A 
ATOM     79  F   UNL A   1      42.684  23.959  29.151  1.00  0.00    -0.206 F 
ATOM     80  C   UNL A   1      41.003  22.689  28.115  1.00  0.00     0.040 A 
ATOM     81  C   UNL A   1      39.470  23.742  26.587  1.00  0.00     0.040 A 
ATOM     82  F   UNL A   1      39.675  26.031  26.112  1.00  0.00    -0.206 F 
ATOM     83  C   UNL A   1      39.913  22.601  27.251  1.00  0.00     0.006 A 
ENDBRANCH  55  76
BRANCH  67  84
ATOM     84  C   UNL A   1      47.403  27.608  25.652  1.00  0.00     0.057 A 
ATOM     85  C   UNL A   1      48.454  26.962  26.310  1.00  0.00     0.134 A 
ATOM     86  C   UNL A   1      47.414  27.608  24.250  1.00  0.00     0.134 A 
ATOM     87  F   UNL A   1      48.506  26.937  27.650  1.00  0.00    -0.206 F 
ATOM     88  C   UNL A   1      49.488  26.350  25.600  1.00  0.00     0.040 A 
ATOM     89  C   UNL A   1      48.426  26.975  23.530  1.00  0.00     0.040 A 
ATOM     90  F   UNL A   1      46.427  28.200  23.561  1.00  0.00    -0.206 F 
ATOM     91  C   UNL A   1      49.469  26.347  24.206  1.00  0.00     0.006 A 
ENDBRANCH  67  84
ENDBRANCH  41  42
ENDBRANCH  34  36
ENDBRANCH  33  34
ENDBRANCH  32  33
ENDBRANCH  31  32
ENDBRANCH  30  31
ENDBRANCH  29  30
ENDBRANCH   1  29
TORSDOF 21
ENDMDL
MODEL 3
REMARK VINA RESULT:     -10.0      2.832      8.522
REMARK SMILES C[C@H]1CCCC[C@H]1[N@@H+]1[C@@H](C(=O)OCCOCCOCCOCCOC(=O)c2ccc(-c3c4nc(c(-c5c(F)cccc5F)c5ccc([nH]5)c(-c5c(F)cccc5F)c5nc(c(-c6c(F)cccc6F)c6ccc3[nH]6)C=C5)C=C4)cc2)CC[C@@H]2CCCC[C@@H]21
REMARK SMILES IDX 19 1 18 2 17 3 16 4 15 5 14 6 13 7 12 8 10 9 11 10 9 11 8 12
REMARK SMILES IDX 88 13 81 15 83 16 87 17 82 18 84 19 86 20 85 21 7 22 1 23
REMARK SMILES IDX 2 24 3 25 4 26 6 27 5 28 20 29 21 30 22 31 23 32 24 33 25 34
REMARK SMILES IDX 26 35 27 36 28 37 80 38 29 39 79 40 30 41 31 42 32 43 73 44
REMARK SMILES IDX 33 45 78 46 72 47 74 48 34 49 77 50 71 51 70 52 35 54 61 55
REMARK SMILES IDX 44 56 60 57 45 58 48 59 59 60 75 61 46 62 47 63 58 65 76 66
REMARK SMILES IDX 49 67 36 68 37 69 42 70 38 71 39 72 41 73 43 74 40 75 62 76
REMARK SMILES IDX 63 77 68 78 64 79 65 80 67 81 69 82 66 83 50 84 51 85 56 86
REMARK SMILES IDX 52 87 53 88 55 89 57 90 54 91
REMARK H PARENT 8 14 74 53 48 64
REMARK Flexibility Score: inf
ROOT
ATOM      1  C   UNL A   1      34.463  21.813  26.921  1.00  0.00     0.188 C 
ENDROOT
BRANCH   1   2
ATOM      2  O   UNL A   1      33.364  21.050  26.448  1.00  0.00    -0.377 OA
BRANCH   2   3
ATOM      3  C   UNL A   1      32.315  21.769  25.801  1.00  0.00     0.188 C 
BRANCH   3   4
ATOM      4  C   UNL A   1      31.962  23.025  26.617  1.00  0.00     0.188 C 
BRANCH   4   5
ATOM      5  O   UNL A   1      32.262  24.256  25.965  1.00  0.00    -0.376 OA
BRANCH   5   6
ATOM      6  C   UNL A   1      32.469  24.196  24.552  1.00  0.00     0.202 C 
BRANCH   6   7
ATOM      7  C   UNL A   1      31.271  24.542  23.637  1.00  0.00     0.261 C 
BRANCH   7   8
ATOM      8  O   UNL A   1      30.632  25.850  23.748  1.00  0.00    -0.459 OA
BRANCH   8   9
ATOM      9  C   UNL A   1      30.644  26.640  22.613  1.00  0.00     0.365 C 
ATOM     10  O   UNL A   1      31.380  26.392  21.660  1.00  0.00    -0.245 OA
BRANCH   9  11
ATOM     11  C   UNL A   1      29.814  27.962  22.756  1.00  0.00     0.295 C 
ATOM     12  N   UNL A   1      30.203  29.170  23.583  1.00  0.00    -0.318 N 
ATOM     13  C   UNL A   1      29.065  30.116  23.869  1.00  0.00     0.188 C 
ATOM     14  H   UNL A   1      30.504  28.497  24.287  1.00  0.00     0.349 HD
ATOM     15  C   UNL A   1      28.503  27.439  23.415  1.00  0.00     0.078 C 
ATOM     16  C   UNL A   1      27.764  29.818  23.083  1.00  0.00     0.048 C 
ATOM     17  C   UNL A   1      29.251  31.668  23.780  1.00  0.00     0.065 C 
ATOM     18  C   UNL A   1      27.321  28.382  23.302  1.00  0.00     0.016 C 
ATOM     19  C   UNL A   1      27.848  30.197  21.587  1.00  0.00     0.010 C 
ATOM     20  C   UNL A   1      28.836  32.321  22.459  1.00  0.00     0.006 C 
ATOM     21  C   UNL A   1      28.830  31.333  21.311  1.00  0.00     0.001 C 
BRANCH  12  22
ATOM     22  C   UNL A   1      31.536  29.760  23.751  1.00  0.00     0.187 C 
ATOM     23  C   UNL A   1      31.412  30.603  26.303  1.00  0.00     0.014 C 
ATOM     24  C   UNL A   1      32.111  29.783  25.227  1.00  0.00     0.044 C 
ATOM     25  C   UNL A   1      32.319  28.355  25.741  1.00  0.00     0.009 C 
ATOM     26  C   UNL A   1      33.412  27.695  24.936  1.00  0.00     0.001 C 
ATOM     27  C   UNL A   1      32.659  29.176  22.908  1.00  0.00     0.065 C 
ATOM     28  C   UNL A   1      33.212  27.872  23.451  1.00  0.00     0.006 C 
ENDBRANCH  12  22
ENDBRANCH   9  11
ENDBRANCH   8   9
ENDBRANCH   7   8
ENDBRANCH   6   7
ENDBRANCH   5   6
ENDBRANCH   4   5
ENDBRANCH   3   4
ENDBRANCH   2   3
ENDBRANCH   1   2
BRANCH   1  29
ATOM     29  C   UNL A   1      35.700  21.888  26.011  1.00  0.00     0.188 C 
BRANCH  29  30
ATOM     30  O   UNL A   1      36.269  20.678  25.518  1.00  0.00    -0.376 OA
BRANCH  30  31
ATOM     31  C   UNL A   1      37.388  20.765  24.648  1.00  0.00     0.202 C 
BRANCH  31  32
ATOM     32  C   UNL A   1      38.633  19.965  25.022  1.00  0.00     0.261 C 
BRANCH  32  33
ATOM     33  O   UNL A   1      39.054  20.280  26.359  1.00  0.00    -0.460 OA
BRANCH  33  34
ATOM     34  C   UNL A   1      40.353  20.589  26.499  1.00  0.00     0.338 C 
ATOM     35  O   UNL A   1      41.330  19.952  26.111  1.00  0.00    -0.246 OA
BRANCH  34  36
ATOM     36  C   UNL A   1      40.458  21.929  27.077  1.00  0.00     0.060 A 
ATOM     37  C   UNL A   1      39.602  22.933  26.605  1.00  0.00     0.016 A 
ATOM     38  C   UNL A   1      41.471  22.212  27.994  1.00  0.00     0.016 A 
ATOM     39  C   UNL A   1      39.787  24.247  27.010  1.00  0.00     0.010 A 
ATOM     40  C   UNL A   1      41.678  23.534  28.373  1.00  0.00     0.010 A 
ATOM     41  C   UNL A   1      40.868  24.553  27.840  1.00  0.00    -0.014 A 
BRANCH  41  42
ATOM     42  C   UNL A   1      41.337  25.949  27.923  1.00  0.00     0.031 A 
ATOM     43  C   UNL A   1      42.695  26.254  27.360  1.00  0.00     0.074 A 
ATOM     44  C   UNL A   1      40.581  26.898  28.494  1.00  0.00     0.049 A 
ATOM     45  N   UNL A   1      43.412  27.340  27.464  1.00  0.00    -0.248 NA
ATOM     46  C   UNL A   1      43.334  25.179  26.581  1.00  0.00     0.031 C 
ATOM     47  C   UNL A   1      39.220  26.711  28.992  1.00  0.00     0.029 A 
ATOM     48  N   UNL A   1      40.871  28.207  28.771  1.00  0.00    -0.354 N 
ATOM     49  C   UNL A   1      44.597  27.067  26.791  1.00  0.00     0.074 A 
ATOM     50  C   UNL A   1      44.510  25.714  26.292  1.00  0.00     0.031 C 
ATOM     51  C   UNL A   1      38.802  27.862  29.547  1.00  0.00     0.029 A 
ATOM     52  C   UNL A   1      39.885  28.841  29.484  1.00  0.00     0.049 A 
ATOM     53  H   UNL A   1      41.703  28.650  28.485  1.00  0.00     0.167 HD
ATOM     54  C   UNL A   1      45.665  27.878  26.617  1.00  0.00     0.037 A 
ATOM     55  C   UNL A   1      39.890  30.059  30.055  1.00  0.00     0.037 A 
ATOM     56  C   UNL A   1      45.728  29.220  27.130  1.00  0.00     0.049 A 
ATOM     57  C   UNL A   1      41.121  30.916  29.919  1.00  0.00     0.074 A 
ATOM     58  C   UNL A   1      46.753  30.140  27.020  1.00  0.00     0.029 A 
ATOM     59  N   UNL A   1      44.713  29.827  27.857  1.00  0.00    -0.354 N 
ATOM     60  N   UNL A   1      42.246  30.656  29.296  1.00  0.00    -0.248 NA
ATOM     61  C   UNL A   1      41.087  32.233  30.569  1.00  0.00     0.031 C 
ATOM     62  C   UNL A   1      46.379  31.286  27.727  1.00  0.00     0.029 A 
ATOM     63  C   UNL A   1      45.095  31.104  28.221  1.00  0.00     0.049 A 
ATOM     64  H   UNL A   1      43.850  29.409  28.080  1.00  0.00     0.167 HD
ATOM     65  C   UNL A   1      43.036  31.789  29.440  1.00  0.00     0.074 A 
ATOM     66  C   UNL A   1      42.261  32.738  30.214  1.00  0.00     0.031 C 
ATOM     67  C   UNL A   1      44.284  32.032  28.970  1.00  0.00     0.037 A 
BRANCH  54  68
ATOM     68  C   UNL A   1      46.854  27.317  25.893  1.00  0.00     0.057 A 
ATOM     69  C   UNL A   1      47.036  27.482  24.514  1.00  0.00     0.134 A 
ATOM     70  C   UNL A   1      47.836  26.601  26.591  1.00  0.00     0.134 A 
ATOM     71  F   UNL A   1      46.121  28.136  23.781  1.00  0.00    -0.206 F 
ATOM     72  C   UNL A   1      48.138  26.937  23.852  1.00  0.00     0.040 A 
ATOM     73  C   UNL A   1      48.956  26.076  25.945  1.00  0.00     0.040 A 
ATOM     74  F   UNL A   1      47.723  26.402  27.913  1.00  0.00    -0.206 F 
ATOM     75  C   UNL A   1      49.106  26.238  24.570  1.00  0.00     0.006 A 
ENDBRANCH  54  68
BRANCH  55  76
ATOM     76  C   UNL A   1      38.706  30.530  30.818  1.00  0.00     0.057 A 
ATOM     77  C   UNL A   1      38.581  30.274  32.187  1.00  0.00     0.134 A 
ATOM     78  C   UNL A   1      37.670  31.241  30.198  1.00  0.00     0.134 A 
ATOM     79  F   UNL A   1      39.530  29.582  32.833  1.00  0.00    -0.206 F 
ATOM     80  C   UNL A   1      37.462  30.693  32.910  1.00  0.00     0.040 A 
ATOM     81  C   UNL A   1      36.559  31.689  30.913  1.00  0.00     0.040 A 
ATOM     82  F   UNL A   1      37.731  31.524  28.887  1.00  0.00    -0.206 F 
ATOM     83  C   UNL A   1      36.450  31.408  32.273  1.00  0.00     0.006 A 
ENDBRANCH  55  76
BRANCH  67  84
ATOM     84  C   UNL A   1      44.861  33.396  29.214  1.00  0.00     0.057 A 
ATOM     85  C   UNL A   1      45.679  33.673  30.313  1.00  0.00     0.134 A 
ATOM     86  C   UNL A   1      44.646  34.424  28.285  1.00  0.00     0.134 A 
ATOM     87  F   UNL A   1      45.915  32.734  31.242  1.00  0.00    -0.206 F 
ATOM     88  C   UNL A   1      46.253  34.934  30.490  1.00  0.00     0.040 A 
ATOM     89  C   UNL A   1      45.237  35.677  28.436  1.00  0.00     0.040 A 
ATOM     90  F   UNL A   1      43.880  34.215  27.203  1.00  0.00    -0.206 F 
ATOM     91  C   UNL A   1      46.040  35.935  29.544  1.00  0.00     0.006 A 
ENDBRANCH  67  84
ENDBRANCH  41  42
ENDBRANCH  34  36
ENDBRANCH  33  34
ENDBRANCH  32  33
ENDBRANCH  31  32
ENDBRANCH  30  31
ENDBRANCH  29  30
ENDBRANCH   1  29
TORSDOF 21
ENDMDL
