MODEL 1
REMARK VINA RESULT:      -8.8      0.000      0.000
REMARK SMILES C#CC[NH2+]CC(=O)N1CC[C@](CCC)(C(=O)OCCOCCOCCOCCOC(=O)c2ccc(-c3c4nc(c(-c5c(F)cccc5F)c5ccc([nH]5)c(-c5c(F)cccc5F)c5nc(c(-c6c(F)cccc6F)c6ccc3[nH]6)C=C5)C=C4)cc2)C1
REMARK SMILES IDX 21 1 20 2 19 3 18 4 17 5 15 6 16 7 11 8 8 9 9 10 86 11 10 12
REMARK SMILES IDX 6 13 7 14 5 15 4 16 3 19 2 20 1 21 12 22 13 23 14 24 22 25
REMARK SMILES IDX 23 26 24 27 25 28 26 29 27 30 28 31 29 32 30 33 31 34 32 35
REMARK SMILES IDX 33 36 85 37 34 38 84 39 35 40 36 41 37 42 78 43 38 44 83 45
REMARK SMILES IDX 77 46 79 47 39 48 82 49 76 50 75 51 40 53 66 54 49 55 65 56
REMARK SMILES IDX 50 57 53 58 64 59 80 60 51 61 52 62 63 64 81 65 54 66 41 67
REMARK SMILES IDX 42 68 47 69 43 70 44 71 46 72 48 73 45 74 67 75 68 76 73 77
REMARK SMILES IDX 69 78 70 79 72 80 74 81 71 82 55 83 56 84 61 85 57 86 58 87
REMARK SMILES IDX 60 88 62 89 59 90
REMARK H PARENT 4 17 4 18 79 52 53 63
REMARK Flexibility Score: inf
ROOT
ATOM      1  C   UNL A   1      33.873  22.491  27.504  1.00  0.00     0.188 C 
ENDROOT
BRANCH   1   2
ATOM      2  O   UNL A   1      32.556  22.943  27.787  1.00  0.00    -0.376 OA
BRANCH   2   3
ATOM      3  C   UNL A   1      31.469  22.403  27.050  1.00  0.00     0.202 C 
BRANCH   3   4
ATOM      4  C   UNL A   1      30.825  23.211  25.910  1.00  0.00     0.261 C 
BRANCH   4   5
ATOM      5  O   UNL A   1      31.580  24.343  25.446  1.00  0.00    -0.463 OA
BRANCH   5   6
ATOM      6  C   UNL A   1      31.082  25.589  25.646  1.00  0.00     0.314 C 
ATOM      7  O   UNL A   1      30.460  25.917  26.647  1.00  0.00    -0.252 OA
BRANCH   6   8
ATOM      8  C   UNL A   1      31.475  26.559  24.520  1.00  0.00     0.087 C 
ATOM      9  N   UNL A   1      29.952  27.855  23.151  1.00  0.00    -0.337 N 
ATOM     10  C   UNL A   1      30.921  27.177  22.289  1.00  0.00     0.121 C 
ATOM     11  C   UNL A   1      30.445  27.750  24.497  1.00  0.00     0.138 C 
ATOM     12  C   UNL A   1      31.184  25.928  23.132  1.00  0.00     0.042 C 
BRANCH   9  13
ATOM     13  C   UNL A   1      28.992  28.813  22.817  1.00  0.00     0.277 C 
ATOM     14  O   UNL A   1      27.791  28.547  22.838  1.00  0.00    -0.268 OA
BRANCH  13  15
ATOM     15  C   UNL A   1      29.528  30.195  22.234  1.00  0.00     0.362 C 
BRANCH  15  16
ATOM     16  N   UNL A   1      29.607  31.344  23.212  1.00  0.00    -0.328 N 
ATOM     17  H   UNL A   1      29.504  31.006  24.168  1.00  0.00     0.347 HD
ATOM     18  H   UNL A   1      30.507  31.822  23.161  1.00  0.00     0.347 HD
BRANCH  16  19
ATOM     19  C   UNL A   1      28.518  32.218  22.866  1.00  0.00     0.352 C 
BRANCH  19  20
ATOM     20  C   UNL A   1      28.070  32.515  21.444  1.00  0.00    -0.047 C 
ATOM     21  C   UNL A   1      27.686  32.769  20.224  1.00  0.00     0.010 C 
ENDBRANCH  19  20
ENDBRANCH  16  19
ENDBRANCH  15  16
ENDBRANCH  13  15
ENDBRANCH   9  13
BRANCH   8  22
ATOM     22  C   UNL A   1      32.960  27.061  24.442  1.00  0.00     0.020 C 
BRANCH  22  23
ATOM     23  C   UNL A   1      33.923  26.928  25.618  1.00  0.00    -0.002 C 
ATOM     24  C   UNL A   1      33.866  28.074  26.619  1.00  0.00     0.004 C 
ENDBRANCH  22  23
ENDBRANCH   8  22
ENDBRANCH   6   8
ENDBRANCH   5   6
ENDBRANCH   4   5
ENDBRANCH   3   4
ENDBRANCH   2   3
ENDBRANCH   1   2
BRANCH   1  25
ATOM     25  C   UNL A   1      34.675  23.095  26.322  1.00  0.00     0.188 C 
BRANCH  25  26
ATOM     26  O   UNL A   1      34.292  22.628  25.041  1.00  0.00    -0.377 OA
BRANCH  26  27
ATOM     27  C   UNL A   1      35.384  22.263  24.214  1.00  0.00     0.188 C 
BRANCH  27  28
ATOM     28  C   UNL A   1      36.445  21.374  24.890  1.00  0.00     0.188 C 
BRANCH  28  29
ATOM     29  O   UNL A   1      37.751  21.941  24.848  1.00  0.00    -0.376 OA
BRANCH  29  30
ATOM     30  C   UNL A   1      38.729  21.508  25.777  1.00  0.00     0.202 C 
BRANCH  30  31
ATOM     31  C   UNL A   1      39.359  20.122  25.555  1.00  0.00     0.261 C 
BRANCH  31  32
ATOM     32  O   UNL A   1      40.391  19.736  26.474  1.00  0.00    -0.460 OA
BRANCH  32  33
ATOM     33  C   UNL A   1      41.669  19.854  26.059  1.00  0.00     0.338 C 
ATOM     34  O   UNL A   1      42.250  19.141  25.256  1.00  0.00    -0.246 OA
BRANCH  33  35
ATOM     35  C   UNL A   1      42.190  21.141  26.567  1.00  0.00     0.060 A 
ATOM     36  C   UNL A   1      42.245  21.341  27.953  1.00  0.00     0.016 A 
ATOM     37  C   UNL A   1      42.655  22.127  25.692  1.00  0.00     0.016 A 
ATOM     38  C   UNL A   1      42.731  22.538  28.468  1.00  0.00     0.010 A 
ATOM     39  C   UNL A   1      43.106  23.344  26.208  1.00  0.00     0.010 A 
ATOM     40  C   UNL A   1      43.107  23.567  27.597  1.00  0.00    -0.014 A 
BRANCH  40  41
ATOM     41  C   UNL A   1      43.237  24.939  28.138  1.00  0.00     0.031 A 
ATOM     42  C   UNL A   1      44.616  25.417  28.502  1.00  0.00     0.074 A 
ATOM     43  C   UNL A   1      42.181  25.764  28.239  1.00  0.00     0.049 A 
ATOM     44  N   UNL A   1      44.998  26.569  28.989  1.00  0.00    -0.248 NA
ATOM     45  C   UNL A   1      45.716  24.462  28.283  1.00  0.00     0.031 C 
ATOM     46  C   UNL A   1      40.808  25.433  27.862  1.00  0.00     0.029 A 
ATOM     47  N   UNL A   1      42.106  27.057  28.691  1.00  0.00    -0.354 N 
ATOM     48  C   UNL A   1      46.376  26.474  29.136  1.00  0.00     0.074 A 
ATOM     49  C   UNL A   1      46.762  25.144  28.720  1.00  0.00     0.031 C 
ATOM     50  C   UNL A   1      40.023  26.497  28.109  1.00  0.00     0.029 A 
ATOM     51  C   UNL A   1      40.833  27.568  28.687  1.00  0.00     0.049 A 
ATOM     52  H   UNL A   1      42.892  27.569  28.990  1.00  0.00     0.167 HD
ATOM     53  C   UNL A   1      47.246  27.416  29.569  1.00  0.00     0.037 A 
ATOM     54  C   UNL A   1      40.378  28.759  29.123  1.00  0.00     0.037 A 
ATOM     55  C   UNL A   1      46.858  28.735  29.987  1.00  0.00     0.049 A 
ATOM     56  C   UNL A   1      41.355  29.761  29.683  1.00  0.00     0.074 A 
ATOM     57  C   UNL A   1      47.661  29.767  30.438  1.00  0.00     0.029 A 
ATOM     58  N   UNL A   1      45.552  29.200  30.015  1.00  0.00    -0.354 N 
ATOM     59  N   UNL A   1      42.659  29.673  29.801  1.00  0.00    -0.248 NA
ATOM     60  C   UNL A   1      40.797  31.032  30.167  1.00  0.00     0.031 C 
ATOM     61  C   UNL A   1      46.835  30.836  30.796  1.00  0.00     0.029 A 
ATOM     62  C   UNL A   1      45.523  30.496  30.505  1.00  0.00     0.049 A 
ATOM     63  H   UNL A   1      44.762  28.686  29.730  1.00  0.00     0.167 HD
ATOM     64  C   UNL A   1      43.078  30.884  30.340  1.00  0.00     0.074 A 
ATOM     65  C   UNL A   1      41.891  31.695  30.512  1.00  0.00     0.031 C 
ATOM     66  C   UNL A   1      44.332  31.291  30.662  1.00  0.00     0.037 A 
BRANCH  53  67
ATOM     67  C   UNL A   1      48.695  27.033  29.645  1.00  0.00     0.057 A 
ATOM     68  C   UNL A   1      49.248  26.433  30.785  1.00  0.00     0.134 A 
ATOM     69  C   UNL A   1      49.546  27.251  28.553  1.00  0.00     0.134 A 
ATOM     70  F   UNL A   1      48.494  26.216  31.873  1.00  0.00    -0.206 F 
ATOM     71  C   UNL A   1      50.599  26.085  30.844  1.00  0.00     0.040 A 
ATOM     72  C   UNL A   1      50.890  26.881  28.591  1.00  0.00     0.040 A 
ATOM     73  F   UNL A   1      49.081  27.823  27.433  1.00  0.00    -0.206 F 
ATOM     74  C   UNL A   1      51.422  26.302  29.741  1.00  0.00     0.006 A 
ENDBRANCH  53  67
BRANCH  54  75
ATOM     75  C   UNL A   1      38.926  29.071  29.068  1.00  0.00     0.057 A 
ATOM     76  C   UNL A   1      38.314  29.492  27.880  1.00  0.00     0.134 A 
ATOM     77  C   UNL A   1      38.121  28.990  30.210  1.00  0.00     0.134 A 
ATOM     78  F   UNL A   1      39.036  29.614  26.756  1.00  0.00    -0.206 F 
ATOM     79  C   UNL A   1      36.963  29.843  27.836  1.00  0.00     0.040 A 
ATOM     80  C   UNL A   1      36.762  29.310  30.175  1.00  0.00     0.040 A 
ATOM     81  F   UNL A   1      38.643  28.596  31.381  1.00  0.00    -0.206 F 
ATOM     82  C   UNL A   1      36.182  29.747  28.986  1.00  0.00     0.006 A 
ENDBRANCH  54  75
BRANCH  66  83
ATOM     83  C   UNL A   1      44.491  32.690  31.189  1.00  0.00     0.057 A 
ATOM     84  C   UNL A   1      44.675  33.788  30.340  1.00  0.00     0.134 A 
ATOM     85  C   UNL A   1      44.420  32.943  32.565  1.00  0.00     0.134 A 
ATOM     86  F   UNL A   1      44.761  33.615  29.012  1.00  0.00    -0.206 F 
ATOM     87  C   UNL A   1      44.814  35.083  30.841  1.00  0.00     0.040 A 
ATOM     88  C   UNL A   1      44.524  34.237  33.077  1.00  0.00     0.040 A 
ATOM     89  F   UNL A   1      44.230  31.939  33.434  1.00  0.00    -0.206 F 
ATOM     90  C   UNL A   1      44.731  35.311  32.215  1.00  0.00     0.006 A 
ENDBRANCH  66  83
ENDBRANCH  40  41
ENDBRANCH  33  35
ENDBRANCH  32  33
ENDBRANCH  31  32
ENDBRANCH  30  31
ENDBRANCH  29  30
ENDBRANCH  28  29
ENDBRANCH  27  28
ENDBRANCH  26  27
ENDBRANCH  25  26
ENDBRANCH   1  25
TORSDOF 27
ENDMDL
MODEL 2
REMARK VINA RESULT:      -8.1      4.268      8.810
REMARK SMILES C#CC[NH2+]CC(=O)N1CC[C@](CCC)(C(=O)OCCOCCOCCOCCOC(=O)c2ccc(-c3c4nc(c(-c5c(F)cccc5F)c5ccc([nH]5)c(-c5c(F)cccc5F)c5nc(c(-c6c(F)cccc6F)c6ccc3[nH]6)C=C5)C=C4)cc2)C1
REMARK SMILES IDX 21 1 20 2 19 3 18 4 17 5 15 6 16 7 11 8 8 9 9 10 86 11 10 12
REMARK SMILES IDX 6 13 7 14 5 15 4 16 3 19 2 20 1 21 12 22 13 23 14 24 22 25
REMARK SMILES IDX 23 26 24 27 25 28 26 29 27 30 28 31 29 32 30 33 31 34 32 35
REMARK SMILES IDX 33 36 85 37 34 38 84 39 35 40 36 41 37 42 78 43 38 44 83 45
REMARK SMILES IDX 77 46 79 47 39 48 82 49 76 50 75 51 40 53 66 54 49 55 65 56
REMARK SMILES IDX 50 57 53 58 64 59 80 60 51 61 52 62 63 64 81 65 54 66 41 67
REMARK SMILES IDX 42 68 47 69 43 70 44 71 46 72 48 73 45 74 67 75 68 76 73 77
REMARK SMILES IDX 69 78 70 79 72 80 74 81 71 82 55 83 56 84 61 85 57 86 58 87
REMARK SMILES IDX 60 88 62 89 59 90
REMARK H PARENT 4 17 4 18 79 52 53 63
REMARK Flexibility Score: inf
ROOT
ATOM      1  C   UNL A   1      37.770  21.559  25.221  1.00  0.00     0.188 C 
ENDROOT
BRANCH   1   2
ATOM      2  O   UNL A   1      37.688  22.969  25.069  1.00  0.00    -0.376 OA
BRANCH   2   3
ATOM      3  C   UNL A   1      36.930  23.719  26.006  1.00  0.00     0.202 C 
BRANCH   3   4
ATOM      4  C   UNL A   1      35.619  24.403  25.576  1.00  0.00     0.261 C 
BRANCH   4   5
ATOM      5  O   UNL A   1      34.415  23.840  26.127  1.00  0.00    -0.463 OA
BRANCH   5   6
ATOM      6  C   UNL A   1      33.218  24.256  25.643  1.00  0.00     0.314 C 
ATOM      7  O   UNL A   1      32.800  25.400  25.759  1.00  0.00    -0.252 OA
BRANCH   6   8
ATOM      8  C   UNL A   1      32.497  23.153  24.852  1.00  0.00     0.087 C 
ATOM      9  N   UNL A   1      33.324  20.911  24.444  1.00  0.00    -0.337 N 
ATOM     10  C   UNL A   1      32.856  21.492  23.185  1.00  0.00     0.121 C 
ATOM     11  C   UNL A   1      32.842  21.760  25.499  1.00  0.00     0.138 C 
ATOM     12  C   UNL A   1      33.152  22.968  23.456  1.00  0.00     0.042 C 
BRANCH   9  13
ATOM     13  C   UNL A   1      33.740  19.605  24.714  1.00  0.00     0.277 C 
ATOM     14  O   UNL A   1      34.929  19.295  24.680  1.00  0.00    -0.268 OA
BRANCH  13  15
ATOM     15  C   UNL A   1      32.598  18.507  24.881  1.00  0.00     0.362 C 
BRANCH  15  16
ATOM     16  N   UNL A   1      32.603  17.383  23.873  1.00  0.00    -0.328 N 
ATOM     17  H   UNL A   1      31.666  17.235  23.499  1.00  0.00     0.347 HD
ATOM     18  H   UNL A   1      33.210  17.590  23.080  1.00  0.00     0.347 HD
BRANCH  16  19
ATOM     19  C   UNL A   1      33.047  16.221  24.595  1.00  0.00     0.352 C 
BRANCH  19  20
ATOM     20  C   UNL A   1      34.475  15.990  25.062  1.00  0.00    -0.047 C 
ATOM     21  C   UNL A   1      35.700  15.793  25.462  1.00  0.00     0.010 C 
ENDBRANCH  19  20
ENDBRANCH  16  19
ENDBRANCH  15  16
ENDBRANCH  13  15
ENDBRANCH   9  13
BRANCH   8  22
ATOM     22  C   UNL A   1      30.961  23.308  24.569  1.00  0.00     0.020 C 
BRANCH  22  23
ATOM     23  C   UNL A   1      30.433  24.151  23.412  1.00  0.00    -0.002 C 
ATOM     24  C   UNL A   1      30.317  25.639  23.710  1.00  0.00     0.004 C 
ENDBRANCH  22  23
ENDBRANCH   8  22
ENDBRANCH   6   8
ENDBRANCH   5   6
ENDBRANCH   4   5
ENDBRANCH   3   4
ENDBRANCH   2   3
ENDBRANCH   1   2
BRANCH   1  25
ATOM     25  C   UNL A   1      39.071  20.900  25.748  1.00  0.00     0.188 C 
BRANCH  25  26
ATOM     26  O   UNL A   1      40.109  21.806  26.075  1.00  0.00    -0.377 OA
BRANCH  26  27
ATOM     27  C   UNL A   1      40.983  21.336  27.087  1.00  0.00     0.188 C 
BRANCH  27  28
ATOM     28  C   UNL A   1      42.156  20.472  26.587  1.00  0.00     0.188 C 
BRANCH  28  29
ATOM     29  O   UNL A   1      42.781  21.005  25.424  1.00  0.00    -0.376 OA
BRANCH  29  30
ATOM     30  C   UNL A   1      44.151  21.365  25.471  1.00  0.00     0.202 C 
BRANCH  30  31
ATOM     31  C   UNL A   1      44.541  22.757  24.946  1.00  0.00     0.261 C 
BRANCH  31  32
ATOM     32  O   UNL A   1      44.415  23.846  25.871  1.00  0.00    -0.460 OA
BRANCH  32  33
ATOM     33  C   UNL A   1      43.289  24.586  25.811  1.00  0.00     0.338 C 
ATOM     34  O   UNL A   1      42.394  24.497  24.986  1.00  0.00    -0.246 OA
BRANCH  33  35
ATOM     35  C   UNL A   1      43.203  25.376  27.057  1.00  0.00     0.060 A 
ATOM     36  C   UNL A   1      42.478  24.849  28.135  1.00  0.00     0.016 A 
ATOM     37  C   UNL A   1      43.858  26.605  27.179  1.00  0.00     0.016 A 
ATOM     38  C   UNL A   1      42.378  25.563  29.326  1.00  0.00     0.010 A 
ATOM     39  C   UNL A   1      43.723  27.340  28.360  1.00  0.00     0.010 A 
ATOM     40  C   UNL A   1      42.948  26.837  29.421  1.00  0.00    -0.014 A 
BRANCH  40  41
ATOM     41  C   UNL A   1      42.505  27.730  30.516  1.00  0.00     0.031 A 
ATOM     42  C   UNL A   1      41.276  28.565  30.280  1.00  0.00     0.074 A 
ATOM     43  C   UNL A   1      43.125  27.751  31.708  1.00  0.00     0.049 A 
ATOM     44  N   UNL A   1      40.683  29.419  31.073  1.00  0.00    -0.248 NA
ATOM     45  C   UNL A   1      40.626  28.411  28.967  1.00  0.00     0.031 C 
ATOM     46  C   UNL A   1      44.288  26.945  32.073  1.00  0.00     0.029 A 
ATOM     47  N   UNL A   1      42.855  28.487  32.834  1.00  0.00    -0.354 N 
ATOM     48  C   UNL A   1      39.596  29.903  30.355  1.00  0.00     0.074 A 
ATOM     49  C   UNL A   1      39.629  29.277  29.053  1.00  0.00     0.031 C 
ATOM     50  C   UNL A   1      44.638  27.238  33.338  1.00  0.00     0.029 A 
ATOM     51  C   UNL A   1      43.744  28.271  33.857  1.00  0.00     0.049 A 
ATOM     52  H   UNL A   1      42.095  29.109  32.901  1.00  0.00     0.167 HD
ATOM     53  C   UNL A   1      38.648  30.784  30.750  1.00  0.00     0.037 A 
ATOM     54  C   UNL A   1      43.831  28.862  35.066  1.00  0.00     0.037 A 
ATOM     55  C   UNL A   1      38.623  31.409  32.045  1.00  0.00     0.049 A 
ATOM     56  C   UNL A   1      42.813  29.905  35.451  1.00  0.00     0.074 A 
ATOM     57  C   UNL A   1      37.704  32.312  32.547  1.00  0.00     0.029 A 
ATOM     58  N   UNL A   1      39.568  31.203  33.037  1.00  0.00    -0.354 N 
ATOM     59  N   UNL A   1      41.778  30.344  34.775  1.00  0.00    -0.248 NA
ATOM     60  C   UNL A   1      42.975  30.533  36.771  1.00  0.00     0.031 C 
ATOM     61  C   UNL A   1      38.126  32.698  33.822  1.00  0.00     0.029 A 
ATOM     62  C   UNL A   1      39.271  31.985  34.141  1.00  0.00     0.049 A 
ATOM     63  H   UNL A   1      40.337  30.591  32.969  1.00  0.00     0.167 HD
ATOM     64  C   UNL A   1      41.148  31.272  35.598  1.00  0.00     0.074 A 
ATOM     65  C   UNL A   1      41.911  31.320  36.828  1.00  0.00     0.031 C 
ATOM     66  C   UNL A   1      40.039  32.015  35.360  1.00  0.00     0.037 A 
BRANCH  53  67
ATOM     67  C   UNL A   1      37.587  31.147  29.754  1.00  0.00     0.057 A 
ATOM     68  C   UNL A   1      37.632  32.339  29.018  1.00  0.00     0.134 A 
ATOM     69  C   UNL A   1      36.512  30.281  29.513  1.00  0.00     0.134 A 
ATOM     70  F   UNL A   1      38.622  33.223  29.216  1.00  0.00    -0.206 F 
ATOM     71  C   UNL A   1      36.635  32.667  28.097  1.00  0.00     0.040 A 
ATOM     72  C   UNL A   1      35.526  30.584  28.573  1.00  0.00     0.040 A 
ATOM     73  F   UNL A   1      36.407  29.124  30.183  1.00  0.00    -0.206 F 
ATOM     74  C   UNL A   1      35.583  31.784  27.867  1.00  0.00     0.006 A 
ENDBRANCH  53  67
BRANCH  54  75
ATOM     75  C   UNL A   1      44.929  28.498  35.998  1.00  0.00     0.057 A 
ATOM     76  C   UNL A   1      44.739  27.559  37.021  1.00  0.00     0.134 A 
ATOM     77  C   UNL A   1      46.187  29.108  35.912  1.00  0.00     0.134 A 
ATOM     78  F   UNL A   1      43.550  26.959  37.172  1.00  0.00    -0.206 F 
ATOM     79  C   UNL A   1      45.750  27.258  37.935  1.00  0.00     0.040 A 
ATOM     80  C   UNL A   1      47.216  28.795  36.802  1.00  0.00     0.040 A 
ATOM     81  F   UNL A   1      46.436  30.017  34.958  1.00  0.00    -0.206 F 
ATOM     82  C   UNL A   1      46.995  27.874  37.823  1.00  0.00     0.006 A 
ENDBRANCH  54  75
BRANCH  66  83
ATOM     83  C   UNL A   1      39.555  32.909  36.468  1.00  0.00     0.057 A 
ATOM     84  C   UNL A   1      40.054  34.205  36.649  1.00  0.00     0.134 A 
ATOM     85  C   UNL A   1      38.546  32.479  37.340  1.00  0.00     0.134 A 
ATOM     86  F   UNL A   1      41.027  34.678  35.855  1.00  0.00    -0.206 F 
ATOM     87  C   UNL A   1      39.591  35.029  37.677  1.00  0.00     0.040 A 
ATOM     88  C   UNL A   1      38.051  33.304  38.350  1.00  0.00     0.040 A 
ATOM     89  F   UNL A   1      38.013  31.255  37.213  1.00  0.00    -0.206 F 
ATOM     90  C   UNL A   1      38.581  34.580  38.527  1.00  0.00     0.006 A 
ENDBRANCH  66  83
ENDBRANCH  40  41
ENDBRANCH  33  35
ENDBRANCH  32  33
ENDBRANCH  31  32
ENDBRANCH  30  31
ENDBRANCH  29  30
ENDBRANCH  28  29
ENDBRANCH  27  28
ENDBRANCH  26  27
ENDBRANCH  25  26
ENDBRANCH   1  25
TORSDOF 27
ENDMDL
MODEL 3
REMARK VINA RESULT:      -7.8      1.636      2.304
REMARK SMILES C#CC[NH2+]CC(=O)N1CC[C@](CCC)(C(=O)OCCOCCOCCOCCOC(=O)c2ccc(-c3c4nc(c(-c5c(F)cccc5F)c5ccc([nH]5)c(-c5c(F)cccc5F)c5nc(c(-c6c(F)cccc6F)c6ccc3[nH]6)C=C5)C=C4)cc2)C1
REMARK SMILES IDX 21 1 20 2 19 3 18 4 17 5 15 6 16 7 11 8 8 9 9 10 86 11 10 12
REMARK SMILES IDX 6 13 7 14 5 15 4 16 3 19 2 20 1 21 12 22 13 23 14 24 22 25
REMARK SMILES IDX 23 26 24 27 25 28 26 29 27 30 28 31 29 32 30 33 31 34 32 35
REMARK SMILES IDX 33 36 85 37 34 38 84 39 35 40 36 41 37 42 78 43 38 44 83 45
REMARK SMILES IDX 77 46 79 47 39 48 82 49 76 50 75 51 40 53 66 54 49 55 65 56
REMARK SMILES IDX 50 57 53 58 64 59 80 60 51 61 52 62 63 64 81 65 54 66 41 67
REMARK SMILES IDX 42 68 47 69 43 70 44 71 46 72 48 73 45 74 67 75 68 76 73 77
REMARK SMILES IDX 69 78 70 79 72 80 74 81 71 82 55 83 56 84 61 85 57 86 58 87
REMARK SMILES IDX 60 88 62 89 59 90
REMARK H PARENT 4 17 4 18 79 52 53 63
REMARK Flexibility Score: inf
ROOT
ATOM      1  C   UNL A   1      33.636  23.635  27.133  1.00  0.00     0.188 C 
ENDROOT
BRANCH   1   2
ATOM      2  O   UNL A   1      32.302  24.107  27.003  1.00  0.00    -0.376 OA
BRANCH   2   3
ATOM      3  C   UNL A   1      31.265  23.175  26.738  1.00  0.00     0.202 C 
BRANCH   3   4
ATOM      4  C   UNL A   1      30.565  23.159  25.367  1.00  0.00     0.261 C 
BRANCH   4   5
ATOM      5  O   UNL A   1      31.000  24.164  24.435  1.00  0.00    -0.463 OA
BRANCH   5   6
ATOM      6  C   UNL A   1      30.287  25.313  24.331  1.00  0.00     0.314 C 
ATOM      7  O   UNL A   1      29.098  25.400  24.605  1.00  0.00    -0.252 OA
BRANCH   6   8
ATOM      8  C   UNL A   1      31.167  26.507  23.926  1.00  0.00     0.087 C 
ATOM      9  N   UNL A   1      30.415  28.782  23.564  1.00  0.00    -0.337 N 
ATOM     10  C   UNL A   1      31.252  28.364  22.439  1.00  0.00     0.121 C 
ATOM     11  C   UNL A   1      30.597  27.808  24.605  1.00  0.00     0.138 C 
ATOM     12  C   UNL A   1      30.944  26.866  22.432  1.00  0.00     0.042 C 
BRANCH   9  13
ATOM     13  C   UNL A   1      29.890  30.044  23.853  1.00  0.00     0.277 C 
ATOM     14  O   UNL A   1      30.481  30.826  24.596  1.00  0.00    -0.268 OA
BRANCH  13  15
ATOM     15  C   UNL A   1      28.416  30.346  23.331  1.00  0.00     0.362 C 
BRANCH  15  16
ATOM     16  N   UNL A   1      28.241  30.407  21.832  1.00  0.00    -0.328 N 
ATOM     17  H   UNL A   1      28.994  29.904  21.364  1.00  0.00     0.347 HD
ATOM     18  H   UNL A   1      27.366  29.975  21.536  1.00  0.00     0.347 HD
BRANCH  16  19
ATOM     19  C   UNL A   1      28.285  31.806  21.496  1.00  0.00     0.352 C 
BRANCH  19  20
ATOM     20  C   UNL A   1      28.737  32.905  22.444  1.00  0.00    -0.047 C 
ATOM     21  C   UNL A   1      29.126  33.848  23.257  1.00  0.00     0.010 C 
ENDBRANCH  19  20
ENDBRANCH  16  19
ENDBRANCH  15  16
ENDBRANCH  13  15
ENDBRANCH   9  13
BRANCH   8  22
ATOM     22  C   UNL A   1      32.724  26.388  24.093  1.00  0.00     0.020 C 
BRANCH  22  23
ATOM     23  C   UNL A   1      33.663  26.324  22.893  1.00  0.00    -0.002 C 
ATOM     24  C   UNL A   1      34.126  24.923  22.521  1.00  0.00     0.004 C 
ENDBRANCH  22  23
ENDBRANCH   8  22
ENDBRANCH   6   8
ENDBRANCH   5   6
ENDBRANCH   4   5
ENDBRANCH   3   4
ENDBRANCH   2   3
ENDBRANCH   1   2
BRANCH   1  25
ATOM     25  C   UNL A   1      34.522  23.425  25.877  1.00  0.00     0.188 C 
BRANCH  25  26
ATOM     26  O   UNL A   1      34.028  22.473  24.952  1.00  0.00    -0.377 OA
BRANCH  26  27
ATOM     27  C   UNL A   1      35.043  21.762  24.263  1.00  0.00     0.188 C 
BRANCH  27  28
ATOM     28  C   UNL A   1      36.146  21.169  25.160  1.00  0.00     0.188 C 
BRANCH  28  29
ATOM     29  O   UNL A   1      37.443  21.269  24.582  1.00  0.00    -0.376 OA
BRANCH  29  30
ATOM     30  C   UNL A   1      38.586  21.189  25.415  1.00  0.00     0.202 C 
BRANCH  30  31
ATOM     31  C   UNL A   1      39.304  19.832  25.513  1.00  0.00     0.261 C 
BRANCH  31  32
ATOM     32  O   UNL A   1      40.251  19.687  26.580  1.00  0.00    -0.460 OA
BRANCH  32  33
ATOM     33  C   UNL A   1      41.558  19.639  26.250  1.00  0.00     0.338 C 
ATOM     34  O   UNL A   1      42.135  18.737  25.664  1.00  0.00    -0.246 OA
BRANCH  33  35
ATOM     35  C   UNL A   1      42.138  20.974  26.512  1.00  0.00     0.060 A 
ATOM     36  C   UNL A   1      42.410  21.337  27.838  1.00  0.00     0.016 A 
ATOM     37  C   UNL A   1      42.445  21.846  25.463  1.00  0.00     0.016 A 
ATOM     38  C   UNL A   1      42.958  22.583  28.124  1.00  0.00     0.010 A 
ATOM     39  C   UNL A   1      42.957  23.113  25.753  1.00  0.00     0.010 A 
ATOM     40  C   UNL A   1      43.177  23.499  27.088  1.00  0.00    -0.014 A 
BRANCH  40  41
ATOM     41  C   UNL A   1      43.375  24.925  27.435  1.00  0.00     0.031 A 
ATOM     42  C   UNL A   1      44.734  25.520  27.186  1.00  0.00     0.074 A 
ATOM     43  C   UNL A   1      42.367  25.689  27.889  1.00  0.00     0.049 A 
ATOM     44  N   UNL A   1      45.162  26.737  27.399  1.00  0.00    -0.248 NA
ATOM     45  C   UNL A   1      45.747  24.617  26.615  1.00  0.00     0.031 C 
ATOM     46  C   UNL A   1      40.995  25.239  28.113  1.00  0.00     0.029 A 
ATOM     47  N   UNL A   1      42.351  27.015  28.242  1.00  0.00    -0.354 N 
ATOM     48  C   UNL A   1      46.490  26.742  26.992  1.00  0.00     0.074 A 
ATOM     49  C   UNL A   1      46.809  25.403  26.552  1.00  0.00     0.031 C 
ATOM     50  C   UNL A   1      40.271  26.273  28.577  1.00  0.00     0.029 A 
ATOM     51  C   UNL A   1      41.134  27.444  28.709  1.00  0.00     0.049 A 
ATOM     52  H   UNL A   1      43.138  27.602  28.166  1.00  0.00     0.167 HD
ATOM     53  C   UNL A   1      47.365  27.775  26.976  1.00  0.00     0.037 A 
ATOM     54  C   UNL A   1      40.773  28.644  29.205  1.00  0.00     0.037 A 
ATOM     55  C   UNL A   1      47.045  29.104  27.420  1.00  0.00     0.049 A 
ATOM     56  C   UNL A   1      41.790  29.756  29.258  1.00  0.00     0.074 A 
ATOM     57  C   UNL A   1      47.857  30.223  27.441  1.00  0.00     0.029 A 
ATOM     58  N   UNL A   1      45.816  29.489  27.933  1.00  0.00    -0.354 N 
ATOM     59  N   UNL A   1      43.038  29.760  28.854  1.00  0.00    -0.248 NA
ATOM     60  C   UNL A   1      41.345  31.034  29.834  1.00  0.00     0.031 C 
ATOM     61  C   UNL A   1      47.137  31.272  28.022  1.00  0.00     0.029 A 
ATOM     62  C   UNL A   1      45.855  30.824  28.301  1.00  0.00     0.049 A 
ATOM     63  H   UNL A   1      45.031  28.901  28.022  1.00  0.00     0.167 HD
ATOM     64  C   UNL A   1      43.515  31.043  29.095  1.00  0.00     0.074 A 
ATOM     65  C   UNL A   1      42.417  31.794  29.667  1.00  0.00     0.031 C 
ATOM     66  C   UNL A   1      44.749  31.557  28.863  1.00  0.00     0.037 A 
BRANCH  53  67
ATOM     67  C   UNL A   1      48.758  27.491  26.497  1.00  0.00     0.057 A 
ATOM     68  C   UNL A   1      49.100  27.526  25.138  1.00  0.00     0.134 A 
ATOM     69  C   UNL A   1      49.777  27.197  27.412  1.00  0.00     0.134 A 
ATOM     70  F   UNL A   1      48.168  27.779  24.208  1.00  0.00    -0.206 F 
ATOM     71  C   UNL A   1      50.401  27.255  24.706  1.00  0.00     0.040 A 
ATOM     72  C   UNL A   1      51.086  26.954  26.994  1.00  0.00     0.040 A 
ATOM     73  F   UNL A   1      49.518  27.146  28.727  1.00  0.00    -0.206 F 
ATOM     74  C   UNL A   1      51.399  26.976  25.636  1.00  0.00     0.006 A 
ENDBRANCH  53  67
BRANCH  54  75
ATOM     75  C   UNL A   1      39.392  28.859  29.709  1.00  0.00     0.057 A 
ATOM     76  C   UNL A   1      38.380  29.361  28.880  1.00  0.00     0.134 A 
ATOM     77  C   UNL A   1      39.057  28.603  31.045  1.00  0.00     0.134 A 
ATOM     78  F   UNL A   1      38.643  29.651  27.597  1.00  0.00    -0.206 F 
ATOM     79  C   UNL A   1      37.097  29.621  29.364  1.00  0.00     0.040 A 
ATOM     80  C   UNL A   1      37.771  28.830  31.536  1.00  0.00     0.040 A 
ATOM     81  F   UNL A   1      39.979  28.123  31.894  1.00  0.00    -0.206 F 
ATOM     82  C   UNL A   1      36.788  29.350  30.695  1.00  0.00     0.006 A 
ENDBRANCH  54  75
BRANCH  66  83
ATOM     83  C   UNL A   1      44.965  33.009  29.183  1.00  0.00     0.057 A 
ATOM     84  C   UNL A   1      45.519  33.429  30.400  1.00  0.00     0.134 A 
ATOM     85  C   UNL A   1      44.650  33.999  28.243  1.00  0.00     0.134 A 
ATOM     86  F   UNL A   1      45.836  32.534  31.348  1.00  0.00    -0.206 F 
ATOM     87  C   UNL A   1      45.722  34.781  30.682  1.00  0.00     0.040 A 
ATOM     88  C   UNL A   1      44.878  35.352  28.500  1.00  0.00     0.040 A 
ATOM     89  F   UNL A   1      44.130  33.666  27.052  1.00  0.00    -0.206 F 
ATOM     90  C   UNL A   1      45.407  35.747  29.726  1.00  0.00     0.006 A 
ENDBRANCH  66  83
ENDBRANCH  40  41
ENDBRANCH  33  35
ENDBRANCH  32  33
ENDBRANCH  31  32
ENDBRANCH  30  31
ENDBRANCH  29  30
ENDBRANCH  28  29
ENDBRANCH  27  28
ENDBRANCH  26  27
ENDBRANCH  25  26
ENDBRANCH   1  25
TORSDOF 27
ENDMDL
