MODEL 1
REMARK VINA RESULT:      -7.8      0.000      0.000
REMARK SMILES CNC(=O)c1cc(S(=O)(=O)N2CCC(C(=O)OCCOCCOCCOCCOC(=O)c3ccc(-c4c5nc(c(-c6c(F)cccc6F)c6ccc([nH]6)c(-c6c(F)cccc6F)c6nc(c(-c7c(F)cccc7F)c7ccc4[nH]7)C=C6)C=C5)cc3)CC2)ccc1OC
REMARK SMILES IDX 22 1 21 2 20 3 19 4 18 5 17 6 15 7 16 8 14 9 11 10 12 11
REMARK SMILES IDX 87 12 13 13 86 14 8 15 9 16 10 17 7 18 5 19 6 20 90 21 89 22
REMARK SMILES IDX 88 23 3 24 1 25 2 26 4 28 91 29 92 30 23 31 24 32 25 33
REMARK SMILES IDX 26 34 27 35 28 36 29 37 30 38 31 39 32 40 33 41 85 42 34 43
REMARK SMILES IDX 84 44 35 45 36 46 37 47 78 48 38 49 83 50 77 51 79 52 39 53
REMARK SMILES IDX 82 54 76 55 75 56 40 58 66 59 49 60 65 61 50 62 53 63 64 64
REMARK SMILES IDX 80 65 51 66 52 67 63 69 81 70 54 71 41 72 42 73 47 74 43 75
REMARK SMILES IDX 44 76 46 77 48 78 45 79 67 80 68 81 73 82 69 83 70 84 72 85
REMARK SMILES IDX 74 86 71 87 55 88 56 89 61 90 57 91 58 92 60 93 62 94 59 95
REMARK H PARENT 2 27 79 57 53 68
REMARK Flexibility Score: inf
ROOT
ATOM      1  C   UNL A   1      37.155  33.985  33.184  1.00  0.00     0.188 C 
ENDROOT
BRANCH   1   2
ATOM      2  C   UNL A   1      36.975  32.460  33.241  1.00  0.00     0.188 C 
BRANCH   2   3
ATOM      3  O   UNL A   1      37.968  31.612  32.682  1.00  0.00    -0.376 OA
BRANCH   3   4
ATOM      4  C   UNL A   1      39.220  31.438  33.342  1.00  0.00     0.202 C 
BRANCH   4   5
ATOM      5  C   UNL A   1      39.273  30.826  34.748  1.00  0.00     0.261 C 
BRANCH   5   6
ATOM      6  O   UNL A   1      40.053  29.616  34.847  1.00  0.00    -0.463 OA
BRANCH   6   7
ATOM      7  C   UNL A   1      41.130  29.684  35.656  1.00  0.00     0.309 C 
ATOM      8  O   UNL A   1      41.212  30.400  36.651  1.00  0.00    -0.252 OA
BRANCH   7   9
ATOM      9  C   UNL A   1      42.286  28.793  35.262  1.00  0.00     0.102 C 
ATOM     10  N   UNL A   1      44.039  26.704  34.389  1.00  0.00    -0.198 NA
ATOM     11  C   UNL A   1      44.294  27.399  35.675  1.00  0.00     0.103 C 
ATOM     12  C   UNL A   1      42.994  27.210  33.466  1.00  0.00     0.103 C 
ATOM     13  C   UNL A   1      43.016  27.955  36.304  1.00  0.00     0.032 C 
ATOM     14  C   UNL A   1      41.808  27.826  34.185  1.00  0.00     0.032 C 
BRANCH  10  15
ATOM     15  S   UNL A   1      45.387  25.963  33.644  1.00  0.00     0.243 S 
ATOM     16  O   UNL A   1      46.566  26.639  34.144  1.00  0.00    -0.207 OA
ATOM     17  O   UNL A   1      45.116  25.857  32.226  1.00  0.00    -0.207 OA
BRANCH  15  18
ATOM     18  C   UNL A   1      45.496  24.284  34.252  1.00  0.00     0.083 A 
ATOM     19  C   UNL A   1      46.956  22.500  35.025  1.00  0.00     0.083 A 
ATOM     20  C   UNL A   1      46.784  23.789  34.499  1.00  0.00     0.039 A 
ATOM     21  C   UNL A   1      45.840  21.737  35.390  1.00  0.00     0.131 A 
ATOM     22  C   UNL A   1      44.561  22.218  35.094  1.00  0.00     0.048 A 
ATOM     23  C   UNL A   1      44.387  23.482  34.517  1.00  0.00     0.025 A 
BRANCH  19  24
ATOM     24  C   UNL A   1      48.346  22.019  35.148  1.00  0.00     0.254 C 
ATOM     25  C   UNL A   1      48.961  23.768  36.881  1.00  0.00     0.143 C 
ATOM     26  N   UNL A   1      49.213  22.644  36.007  1.00  0.00    -0.355 N 
ATOM     27  H   UNL A   1      50.128  22.280  36.032  1.00  0.00     0.163 HD
ATOM     28  O   UNL A   1      48.702  21.040  34.500  1.00  0.00    -0.269 OA
ENDBRANCH  19  24
BRANCH  21  29
ATOM     29  O   UNL A   1      45.869  20.504  35.983  1.00  0.00    -0.496 OA
ATOM     30  C   UNL A   1      45.274  19.469  35.197  1.00  0.00     0.278 C 
ENDBRANCH  21  29
ENDBRANCH  15  18
ENDBRANCH  10  15
ENDBRANCH   7   9
ENDBRANCH   6   7
ENDBRANCH   5   6
ENDBRANCH   4   5
ENDBRANCH   3   4
ENDBRANCH   2   3
ENDBRANCH   1   2
BRANCH   1  31
ATOM     31  O   UNL A   1      36.123  34.658  32.490  1.00  0.00    -0.377 OA
BRANCH  31  32
ATOM     32  C   UNL A   1      34.830  34.053  32.486  1.00  0.00     0.188 C 
BRANCH  32  33
ATOM     33  C   UNL A   1      33.720  34.717  31.653  1.00  0.00     0.188 C 
BRANCH  33  34
ATOM     34  O   UNL A   1      34.176  35.160  30.376  1.00  0.00    -0.376 OA
BRANCH  34  35
ATOM     35  C   UNL A   1      33.778  34.389  29.246  1.00  0.00     0.202 C 
BRANCH  35  36
ATOM     36  C   UNL A   1      34.864  33.470  28.662  1.00  0.00     0.261 C 
BRANCH  36  37
ATOM     37  O   UNL A   1      35.010  32.189  29.305  1.00  0.00    -0.460 OA
BRANCH  37  38
ATOM     38  C   UNL A   1      34.869  31.075  28.556  1.00  0.00     0.338 C 
ATOM     39  O   UNL A   1      33.939  30.782  27.832  1.00  0.00    -0.246 OA
BRANCH  38  40
ATOM     40  C   UNL A   1      36.145  30.336  28.613  1.00  0.00     0.060 A 
ATOM     41  C   UNL A   1      36.499  29.695  29.807  1.00  0.00     0.016 A 
ATOM     42  C   UNL A   1      36.995  30.297  27.506  1.00  0.00     0.016 A 
ATOM     43  C   UNL A   1      37.729  29.042  29.908  1.00  0.00     0.010 A 
ATOM     44  C   UNL A   1      38.233  29.661  27.615  1.00  0.00     0.010 A 
ATOM     45  C   UNL A   1      38.618  29.060  28.826  1.00  0.00    -0.014 A 
BRANCH  45  46
ATOM     46  C   UNL A   1      40.024  28.627  29.008  1.00  0.00     0.031 A 
ATOM     47  C   UNL A   1      41.006  29.616  29.572  1.00  0.00     0.074 A 
ATOM     48  C   UNL A   1      40.426  27.390  28.670  1.00  0.00     0.049 A 
ATOM     49  N   UNL A   1      42.299  29.506  29.729  1.00  0.00    -0.248 NA
ATOM     50  C   UNL A   1      40.450  30.905  30.016  1.00  0.00     0.031 C 
ATOM     51  C   UNL A   1      39.563  26.327  28.159  1.00  0.00     0.029 A 
ATOM     52  N   UNL A   1      41.679  26.828  28.693  1.00  0.00    -0.354 N 
ATOM     53  C   UNL A   1      42.712  30.709  30.288  1.00  0.00     0.074 A 
ATOM     54  C   UNL A   1      41.539  31.544  30.419  1.00  0.00     0.031 C 
ATOM     55  C   UNL A   1      40.317  25.244  27.898  1.00  0.00     0.029 A 
ATOM     56  C   UNL A   1      41.717  25.552  28.188  1.00  0.00     0.049 A 
ATOM     57  H   UNL A   1      42.472  27.296  29.039  1.00  0.00     0.167 HD
ATOM     58  C   UNL A   1      43.958  31.082  30.662  1.00  0.00     0.037 A 
ATOM     59  C   UNL A   1      42.769  24.741  27.958  1.00  0.00     0.037 A 
ATOM     60  C   UNL A   1      45.127  30.259  30.518  1.00  0.00     0.049 A 
ATOM     61  C   UNL A   1      44.160  25.220  28.285  1.00  0.00     0.074 A 
ATOM     62  C   UNL A   1      46.433  30.546  30.875  1.00  0.00     0.029 A 
ATOM     63  N   UNL A   1      45.131  28.989  29.963  1.00  0.00    -0.354 N 
ATOM     64  N   UNL A   1      44.540  26.352  28.830  1.00  0.00    -0.248 NA
ATOM     65  C   UNL A   1      45.270  24.313  27.956  1.00  0.00     0.031 C 
ATOM     66  C   UNL A   1      47.235  29.466  30.492  1.00  0.00     0.029 A 
ATOM     67  C   UNL A   1      46.422  28.490  29.940  1.00  0.00     0.049 A 
ATOM     68  H   UNL A   1      44.335  28.513  29.634  1.00  0.00     0.167 HD
ATOM     69  C   UNL A   1      45.925  26.280  28.930  1.00  0.00     0.074 A 
ATOM     70  C   UNL A   1      46.318  24.992  28.401  1.00  0.00     0.031 C 
ATOM     71  C   UNL A   1      46.794  27.201  29.417  1.00  0.00     0.037 A 
BRANCH  58  72
ATOM     72  C   UNL A   1      44.117  32.456  31.240  1.00  0.00     0.057 A 
ATOM     73  C   UNL A   1      43.991  32.698  32.614  1.00  0.00     0.134 A 
ATOM     74  C   UNL A   1      44.425  33.545  30.415  1.00  0.00     0.134 A 
ATOM     75  F   UNL A   1      43.680  31.699  33.453  1.00  0.00    -0.206 F 
ATOM     76  C   UNL A   1      44.145  33.979  33.144  1.00  0.00     0.040 A 
ATOM     77  C   UNL A   1      44.604  34.827  30.937  1.00  0.00     0.040 A 
ATOM     78  F   UNL A   1      44.559  33.381  29.091  1.00  0.00    -0.206 F 
ATOM     79  C   UNL A   1      44.459  35.047  32.306  1.00  0.00     0.006 A 
ENDBRANCH  58  72
BRANCH  59  80
ATOM     80  C   UNL A   1      42.562  23.400  27.356  1.00  0.00     0.057 A 
ATOM     81  C   UNL A   1      42.284  22.284  28.154  1.00  0.00     0.134 A 
ATOM     82  C   UNL A   1      42.678  23.194  25.977  1.00  0.00     0.134 A 
ATOM     83  F   UNL A   1      42.190  22.412  29.485  1.00  0.00    -0.206 F 
ATOM     84  C   UNL A   1      42.145  21.009  27.603  1.00  0.00     0.040 A 
ATOM     85  C   UNL A   1      42.518  21.929  25.410  1.00  0.00     0.040 A 
ATOM     86  F   UNL A   1      42.948  24.222  25.158  1.00  0.00    -0.206 F 
ATOM     87  C   UNL A   1      42.257  20.829  26.226  1.00  0.00     0.006 A 
ENDBRANCH  59  80
BRANCH  71  88
ATOM     88  C   UNL A   1      48.250  26.838  29.430  1.00  0.00     0.057 A 
ATOM     89  C   UNL A   1      48.814  26.085  30.465  1.00  0.00     0.134 A 
ATOM     90  C   UNL A   1      49.083  27.199  28.363  1.00  0.00     0.134 A 
ATOM     91  F   UNL A   1      48.073  25.719  31.522  1.00  0.00    -0.206 F 
ATOM     92  C   UNL A   1      50.160  25.713  30.448  1.00  0.00     0.040 A 
ATOM     93  C   UNL A   1      50.423  26.813  28.321  1.00  0.00     0.040 A 
ATOM     94  F   UNL A   1      48.602  27.912  27.333  1.00  0.00    -0.206 F 
ATOM     95  C   UNL A   1      50.967  26.070  29.367  1.00  0.00     0.006 A 
ENDBRANCH  71  88
ENDBRANCH  45  46
ENDBRANCH  38  40
ENDBRANCH  37  38
ENDBRANCH  36  37
ENDBRANCH  35  36
ENDBRANCH  34  35
ENDBRANCH  33  34
ENDBRANCH  32  33
ENDBRANCH  31  32
ENDBRANCH   1  31
TORSDOF 24
ENDMDL
MODEL 2
REMARK VINA RESULT:      -7.8      5.201     10.692
REMARK SMILES CNC(=O)c1cc(S(=O)(=O)N2CCC(C(=O)OCCOCCOCCOCCOC(=O)c3ccc(-c4c5nc(c(-c6c(F)cccc6F)c6ccc([nH]6)c(-c6c(F)cccc6F)c6nc(c(-c7c(F)cccc7F)c7ccc4[nH]7)C=C6)C=C5)cc3)CC2)ccc1OC
REMARK SMILES IDX 22 1 21 2 20 3 19 4 18 5 17 6 15 7 16 8 14 9 11 10 12 11
REMARK SMILES IDX 87 12 13 13 86 14 8 15 9 16 10 17 7 18 5 19 6 20 90 21 89 22
REMARK SMILES IDX 88 23 3 24 1 25 2 26 4 28 91 29 92 30 23 31 24 32 25 33
REMARK SMILES IDX 26 34 27 35 28 36 29 37 30 38 31 39 32 40 33 41 85 42 34 43
REMARK SMILES IDX 84 44 35 45 36 46 37 47 78 48 38 49 83 50 77 51 79 52 39 53
REMARK SMILES IDX 82 54 76 55 75 56 40 58 66 59 49 60 65 61 50 62 53 63 64 64
REMARK SMILES IDX 80 65 51 66 52 67 63 69 81 70 54 71 41 72 42 73 47 74 43 75
REMARK SMILES IDX 44 76 46 77 48 78 45 79 67 80 68 81 73 82 69 83 70 84 72 85
REMARK SMILES IDX 74 86 71 87 55 88 56 89 61 90 57 91 58 92 60 93 62 94 59 95
REMARK H PARENT 2 27 79 57 53 68
REMARK Flexibility Score: inf
ROOT
ATOM      1  C   UNL A   1      32.002  29.307  25.802  1.00  0.00     0.188 C 
ENDROOT
BRANCH   1   2
ATOM      2  C   UNL A   1      31.552  29.161  24.341  1.00  0.00     0.188 C 
BRANCH   2   3
ATOM      3  O   UNL A   1      32.391  29.628  23.295  1.00  0.00    -0.376 OA
BRANCH   3   4
ATOM      4  C   UNL A   1      33.735  29.166  23.192  1.00  0.00     0.202 C 
BRANCH   4   5
ATOM      5  C   UNL A   1      34.027  27.669  23.025  1.00  0.00     0.261 C 
BRANCH   5   6
ATOM      6  O   UNL A   1      33.532  27.093  21.798  1.00  0.00    -0.463 OA
BRANCH   6   7
ATOM      7  C   UNL A   1      32.364  26.426  21.899  1.00  0.00     0.309 C 
ATOM      8  O   UNL A   1      31.417  26.557  21.127  1.00  0.00    -0.252 OA
BRANCH   7   9
ATOM      9  C   UNL A   1      32.273  25.463  23.060  1.00  0.00     0.102 C 
ATOM     10  N   UNL A   1      31.518  23.800  25.264  1.00  0.00    -0.198 NA
ATOM     11  C   UNL A   1      32.707  24.681  25.373  1.00  0.00     0.103 C 
ATOM     12  C   UNL A   1      30.831  23.636  23.960  1.00  0.00     0.103 C 
ATOM     13  C   UNL A   1      32.603  25.916  24.476  1.00  0.00     0.032 C 
ATOM     14  C   UNL A   1      30.862  24.889  23.106  1.00  0.00     0.032 C 
BRANCH  10  15
ATOM     15  S   UNL A   1      31.487  22.434  26.293  1.00  0.00     0.243 S 
ATOM     16  O   UNL A   1      30.172  21.844  26.167  1.00  0.00    -0.207 OA
ATOM     17  O   UNL A   1      32.023  22.827  27.579  1.00  0.00    -0.207 OA
BRANCH  15  18
ATOM     18  C   UNL A   1      32.627  21.224  25.632  1.00  0.00     0.083 A 
ATOM     19  C   UNL A   1      34.940  20.701  25.094  1.00  0.00     0.083 A 
ATOM     20  C   UNL A   1      33.972  21.607  25.553  1.00  0.00     0.039 A 
ATOM     21  C   UNL A   1      34.578  19.381  24.799  1.00  0.00     0.131 A 
ATOM     22  C   UNL A   1      33.227  19.022  24.832  1.00  0.00     0.048 A 
ATOM     23  C   UNL A   1      32.251  19.941  25.236  1.00  0.00     0.025 A 
BRANCH  19  24
ATOM     24  C   UNL A   1      36.311  21.223  24.939  1.00  0.00     0.254 C 
ATOM     25  C   UNL A   1      35.638  22.896  23.153  1.00  0.00     0.143 C 
ATOM     26  N   UNL A   1      36.566  22.220  24.032  1.00  0.00    -0.355 N 
ATOM     27  H   UNL A   1      37.504  22.513  23.971  1.00  0.00     0.163 HD
ATOM     28  O   UNL A   1      37.207  20.778  25.650  1.00  0.00    -0.269 OA
ENDBRANCH  19  24
BRANCH  21  29
ATOM     29  O   UNL A   1      35.432  18.380  24.419  1.00  0.00    -0.496 OA
ATOM     30  C   UNL A   1      34.830  17.084  24.395  1.00  0.00     0.278 C 
ENDBRANCH  21  29
ENDBRANCH  15  18
ENDBRANCH  10  15
ENDBRANCH   7   9
ENDBRANCH   6   7
ENDBRANCH   5   6
ENDBRANCH   4   5
ENDBRANCH   3   4
ENDBRANCH   2   3
ENDBRANCH   1   2
BRANCH   1  31
ATOM     31  O   UNL A   1      32.452  30.607  26.136  1.00  0.00    -0.377 OA
BRANCH  31  32
ATOM     32  C   UNL A   1      33.145  30.764  27.373  1.00  0.00     0.188 C 
BRANCH  32  33
ATOM     33  C   UNL A   1      33.838  32.110  27.651  1.00  0.00     0.188 C 
BRANCH  33  34
ATOM     34  O   UNL A   1      33.625  32.577  28.982  1.00  0.00    -0.376 OA
BRANCH  34  35
ATOM     35  C   UNL A   1      34.770  32.656  29.827  1.00  0.00     0.202 C 
BRANCH  35  36
ATOM     36  C   UNL A   1      35.990  31.846  29.360  1.00  0.00     0.261 C 
BRANCH  36  37
ATOM     37  O   UNL A   1      35.909  30.422  29.561  1.00  0.00    -0.460 OA
BRANCH  37  38
ATOM     38  C   UNL A   1      36.671  29.866  30.526  1.00  0.00     0.338 C 
ATOM     39  O   UNL A   1      36.297  29.349  31.560  1.00  0.00    -0.246 OA
BRANCH  38  40
ATOM     40  C   UNL A   1      38.058  29.816  30.025  1.00  0.00     0.060 A 
ATOM     41  C   UNL A   1      38.273  29.618  28.655  1.00  0.00     0.016 A 
ATOM     42  C   UNL A   1      39.137  29.939  30.903  1.00  0.00     0.016 A 
ATOM     43  C   UNL A   1      39.575  29.503  28.165  1.00  0.00     0.010 A 
ATOM     44  C   UNL A   1      40.437  29.805  30.414  1.00  0.00     0.010 A 
ATOM     45  C   UNL A   1      40.659  29.554  29.049  1.00  0.00    -0.014 A 
BRANCH  45  46
ATOM     46  C   UNL A   1      42.012  29.153  28.594  1.00  0.00     0.031 A 
ATOM     47  C   UNL A   1      42.243  27.714  28.229  1.00  0.00     0.074 A 
ATOM     48  C   UNL A   1      43.018  30.042  28.518  1.00  0.00     0.049 A 
ATOM     49  N   UNL A   1      43.354  27.106  27.903  1.00  0.00    -0.248 NA
ATOM     50  C   UNL A   1      41.057  26.841  28.236  1.00  0.00     0.031 C 
ATOM     51  C   UNL A   1      42.910  31.472  28.798  1.00  0.00     0.029 A 
ATOM     52  N   UNL A   1      44.340  29.858  28.195  1.00  0.00    -0.354 N 
ATOM     53  C   UNL A   1      43.003  25.783  27.668  1.00  0.00     0.074 A 
ATOM     54  C   UNL A   1      41.582  25.669  27.913  1.00  0.00     0.031 C 
ATOM     55  C   UNL A   1      44.123  32.035  28.653  1.00  0.00     0.029 A 
ATOM     56  C   UNL A   1      45.096  30.999  28.308  1.00  0.00     0.049 A 
ATOM     57  H   UNL A   1      44.709  28.992  27.910  1.00  0.00     0.167 HD
ATOM     58  C   UNL A   1      43.794  24.756  27.278  1.00  0.00     0.037 A 
ATOM     59  C   UNL A   1      46.426  31.174  28.177  1.00  0.00     0.037 A 
ATOM     60  C   UNL A   1      45.208  24.866  27.049  1.00  0.00     0.049 A 
ATOM     61  C   UNL A   1      47.301  29.993  27.847  1.00  0.00     0.074 A 
ATOM     62  C   UNL A   1      46.094  23.883  26.645  1.00  0.00     0.029 A 
ATOM     63  N   UNL A   1      45.944  26.028  27.215  1.00  0.00    -0.354 N 
ATOM     64  N   UNL A   1      46.959  28.749  27.608  1.00  0.00    -0.248 NA
ATOM     65  C   UNL A   1      48.750  30.238  27.777  1.00  0.00     0.031 C 
ATOM     66  C   UNL A   1      47.376  24.442  26.611  1.00  0.00     0.029 A 
ATOM     67  C   UNL A   1      47.279  25.781  26.949  1.00  0.00     0.049 A 
ATOM     68  H   UNL A   1      45.572  26.899  27.481  1.00  0.00     0.167 HD
ATOM     69  C   UNL A   1      48.143  28.073  27.336  1.00  0.00     0.074 A 
ATOM     70  C   UNL A   1      49.212  29.046  27.428  1.00  0.00     0.031 C 
ATOM     71  C   UNL A   1      48.329  26.763  27.038  1.00  0.00     0.037 A 
BRANCH  58  72
ATOM     72  C   UNL A   1      43.141  23.418  27.102  1.00  0.00     0.057 A 
ATOM     73  C   UNL A   1      42.867  22.582  28.192  1.00  0.00     0.134 A 
ATOM     74  C   UNL A   1      42.763  22.972  25.830  1.00  0.00     0.134 A 
ATOM     75  F   UNL A   1      43.221  22.946  29.433  1.00  0.00    -0.206 F 
ATOM     76  C   UNL A   1      42.255  21.340  28.020  1.00  0.00     0.040 A 
ATOM     77  C   UNL A   1      42.130  21.741  25.649  1.00  0.00     0.040 A 
ATOM     78  F   UNL A   1      42.997  23.724  24.745  1.00  0.00    -0.206 F 
ATOM     79  C   UNL A   1      41.879  20.919  26.746  1.00  0.00     0.006 A 
ENDBRANCH  58  72
BRANCH  59  80
ATOM     80  C   UNL A   1      47.028  32.515  28.391  1.00  0.00     0.057 A 
ATOM     81  C   UNL A   1      47.145  33.431  27.340  1.00  0.00     0.134 A 
ATOM     82  C   UNL A   1      47.535  32.896  29.638  1.00  0.00     0.134 A 
ATOM     83  F   UNL A   1      46.703  33.113  26.114  1.00  0.00    -0.206 F 
ATOM     84  C   UNL A   1      47.761  34.671  27.517  1.00  0.00     0.040 A 
ATOM     85  C   UNL A   1      48.133  34.141  29.836  1.00  0.00     0.040 A 
ATOM     86  F   UNL A   1      47.458  32.060  30.685  1.00  0.00    -0.206 F 
ATOM     87  C   UNL A   1      48.253  35.031  28.770  1.00  0.00     0.006 A 
ENDBRANCH  59  80
BRANCH  71  88
ATOM     88  C   UNL A   1      49.732  26.310  26.759  1.00  0.00     0.057 A 
ATOM     89  C   UNL A   1      50.255  26.283  25.461  1.00  0.00     0.134 A 
ATOM     90  C   UNL A   1      50.588  25.954  27.809  1.00  0.00     0.134 A 
ATOM     91  F   UNL A   1      49.483  26.601  24.410  1.00  0.00    -0.206 F 
ATOM     92  C   UNL A   1      51.575  25.903  25.214  1.00  0.00     0.040 A 
ATOM     93  C   UNL A   1      51.916  25.596  27.579  1.00  0.00     0.040 A 
ATOM     94  F   UNL A   1      50.151  25.969  29.078  1.00  0.00    -0.206 F 
ATOM     95  C   UNL A   1      52.413  25.566  26.277  1.00  0.00     0.006 A 
ENDBRANCH  71  88
ENDBRANCH  45  46
ENDBRANCH  38  40
ENDBRANCH  37  38
ENDBRANCH  36  37
ENDBRANCH  35  36
ENDBRANCH  34  35
ENDBRANCH  33  34
ENDBRANCH  32  33
ENDBRANCH  31  32
ENDBRANCH   1  31
TORSDOF 24
ENDMDL
MODEL 3
REMARK VINA RESULT:      -7.8      4.066     11.315
REMARK SMILES CNC(=O)c1cc(S(=O)(=O)N2CCC(C(=O)OCCOCCOCCOCCOC(=O)c3ccc(-c4c5nc(c(-c6c(F)cccc6F)c6ccc([nH]6)c(-c6c(F)cccc6F)c6nc(c(-c7c(F)cccc7F)c7ccc4[nH]7)C=C6)C=C5)cc3)CC2)ccc1OC
REMARK SMILES IDX 22 1 21 2 20 3 19 4 18 5 17 6 15 7 16 8 14 9 11 10 12 11
REMARK SMILES IDX 87 12 13 13 86 14 8 15 9 16 10 17 7 18 5 19 6 20 90 21 89 22
REMARK SMILES IDX 88 23 3 24 1 25 2 26 4 28 91 29 92 30 23 31 24 32 25 33
REMARK SMILES IDX 26 34 27 35 28 36 29 37 30 38 31 39 32 40 33 41 85 42 34 43
REMARK SMILES IDX 84 44 35 45 36 46 37 47 78 48 38 49 83 50 77 51 79 52 39 53
REMARK SMILES IDX 82 54 76 55 75 56 40 58 66 59 49 60 65 61 50 62 53 63 64 64
REMARK SMILES IDX 80 65 51 66 52 67 63 69 81 70 54 71 41 72 42 73 47 74 43 75
REMARK SMILES IDX 44 76 46 77 48 78 45 79 67 80 68 81 73 82 69 83 70 84 72 85
REMARK SMILES IDX 74 86 71 87 55 88 56 89 61 90 57 91 58 92 60 93 62 94 59 95
REMARK H PARENT 2 27 79 57 53 68
REMARK Flexibility Score: inf
ROOT
ATOM      1  C   UNL A   1      52.765  27.101  23.736  1.00  0.00     0.188 C 
ENDROOT
BRANCH   1   2
ATOM      2  C   UNL A   1      51.633  28.139  23.734  1.00  0.00     0.188 C 
BRANCH   2   3
ATOM      3  O   UNL A   1      50.540  27.992  24.629  1.00  0.00    -0.376 OA
BRANCH   3   4
ATOM      4  C   UNL A   1      49.576  26.962  24.422  1.00  0.00     0.202 C 
BRANCH   4   5
ATOM      5  C   UNL A   1      48.488  27.126  23.353  1.00  0.00     0.261 C 
BRANCH   5   6
ATOM      6  O   UNL A   1      47.158  26.779  23.792  1.00  0.00    -0.463 OA
BRANCH   6   7
ATOM      7  C   UNL A   1      46.574  27.661  24.631  1.00  0.00     0.309 C 
ATOM      8  O   UNL A   1      46.636  28.882  24.512  1.00  0.00    -0.252 OA
BRANCH   7   9
ATOM      9  C   UNL A   1      45.804  27.044  25.776  1.00  0.00     0.102 C 
ATOM     10  N   UNL A   1      44.323  26.445  28.151  1.00  0.00    -0.198 NA
ATOM     11  C   UNL A   1      45.527  25.648  27.806  1.00  0.00     0.103 C 
ATOM     12  C   UNL A   1      43.776  27.423  27.180  1.00  0.00     0.103 C 
ATOM     13  C   UNL A   1      46.532  26.441  26.970  1.00  0.00     0.032 C 
ATOM     14  C   UNL A   1      44.846  28.089  26.335  1.00  0.00     0.032 C 
BRANCH  10  15
ATOM     15  S   UNL A   1      43.172  25.685  29.162  1.00  0.00     0.243 S 
ATOM     16  O   UNL A   1      42.317  26.729  29.683  1.00  0.00    -0.207 OA
ATOM     17  O   UNL A   1      43.875  24.771  30.037  1.00  0.00    -0.207 OA
BRANCH  15  18
ATOM     18  C   UNL A   1      42.121  24.668  28.130  1.00  0.00     0.083 A 
ATOM     19  C   UNL A   1      42.001  22.795  26.585  1.00  0.00     0.083 A 
ATOM     20  C   UNL A   1      42.756  23.669  27.381  1.00  0.00     0.039 A 
ATOM     21  C   UNL A   1      40.602  22.861  26.606  1.00  0.00     0.131 A 
ATOM     22  C   UNL A   1      39.981  23.892  27.315  1.00  0.00     0.048 A 
ATOM     23  C   UNL A   1      40.735  24.802  28.067  1.00  0.00     0.025 A 
BRANCH  19  24
ATOM     24  C   UNL A   1      42.758  21.847  25.746  1.00  0.00     0.254 C 
ATOM     25  C   UNL A   1      42.144  19.846  27.181  1.00  0.00     0.143 C 
ATOM     26  N   UNL A   1      42.790  20.515  26.074  1.00  0.00    -0.355 N 
ATOM     27  H   UNL A   1      43.324  19.941  25.478  1.00  0.00     0.163 HD
ATOM     28  O   UNL A   1      43.329  22.258  24.740  1.00  0.00    -0.269 OA
ENDBRANCH  19  24
BRANCH  21  29
ATOM     29  O   UNL A   1      39.749  22.022  25.941  1.00  0.00    -0.496 OA
ATOM     30  C   UNL A   1      38.369  22.363  26.090  1.00  0.00     0.278 C 
ENDBRANCH  21  29
ENDBRANCH  15  18
ENDBRANCH  10  15
ENDBRANCH   7   9
ENDBRANCH   6   7
ENDBRANCH   5   6
ENDBRANCH   4   5
ENDBRANCH   3   4
ENDBRANCH   2   3
ENDBRANCH   1   2
BRANCH   1  31
ATOM     31  O   UNL A   1      52.957  26.465  24.985  1.00  0.00    -0.377 OA
BRANCH  31  32
ATOM     32  C   UNL A   1      52.704  25.062  25.053  1.00  0.00     0.188 C 
BRANCH  32  33
ATOM     33  C   UNL A   1      53.883  24.126  25.373  1.00  0.00     0.188 C 
BRANCH  33  34
ATOM     34  O   UNL A   1      55.094  24.832  25.636  1.00  0.00    -0.376 OA
BRANCH  34  35
ATOM     35  C   UNL A   1      55.474  24.975  27.002  1.00  0.00     0.202 C 
BRANCH  35  36
ATOM     36  C   UNL A   1      55.258  26.375  27.601  1.00  0.00     0.261 C 
BRANCH  36  37
ATOM     37  O   UNL A   1      53.984  26.593  28.235  1.00  0.00    -0.460 OA
BRANCH  37  38
ATOM     38  C   UNL A   1      53.358  27.771  28.029  1.00  0.00     0.338 C 
ATOM     39  O   UNL A   1      53.726  28.693  27.330  1.00  0.00    -0.246 OA
BRANCH  38  40
ATOM     40  C   UNL A   1      52.027  27.684  28.659  1.00  0.00     0.060 A 
ATOM     41  C   UNL A   1      51.042  26.898  28.048  1.00  0.00     0.016 A 
ATOM     42  C   UNL A   1      51.746  28.392  29.830  1.00  0.00     0.016 A 
ATOM     43  C   UNL A   1      49.756  26.849  28.589  1.00  0.00     0.010 A 
ATOM     44  C   UNL A   1      50.454  28.357  30.358  1.00  0.00     0.010 A 
ATOM     45  C   UNL A   1      49.446  27.612  29.721  1.00  0.00    -0.014 A 
BRANCH  45  46
ATOM     46  C   UNL A   1      48.035  27.796  30.135  1.00  0.00     0.031 A 
ATOM     47  C   UNL A   1      47.255  28.925  29.522  1.00  0.00     0.074 A 
ATOM     48  C   UNL A   1      47.460  26.989  31.042  1.00  0.00     0.049 A 
ATOM     49  N   UNL A   1      46.047  29.346  29.794  1.00  0.00    -0.248 NA
ATOM     50  C   UNL A   1      47.933  29.684  28.457  1.00  0.00     0.031 C 
ATOM     51  C   UNL A   1      48.093  25.833  31.673  1.00  0.00     0.029 A 
ATOM     52  N   UNL A   1      46.207  27.036  31.603  1.00  0.00    -0.354 N 
ATOM     53  C   UNL A   1      45.821  30.417  28.939  1.00  0.00     0.074 A 
ATOM     54  C   UNL A   1      47.023  30.598  28.156  1.00  0.00     0.031 C 
ATOM     55  C   UNL A   1      47.231  25.290  32.551  1.00  0.00     0.029 A 
ATOM     56  C   UNL A   1      46.002  26.083  32.569  1.00  0.00     0.049 A 
ATOM     57  H   UNL A   1      45.523  27.692  31.337  1.00  0.00     0.167 HD
ATOM     58  C   UNL A   1      44.709  31.177  28.814  1.00  0.00     0.037 A 
ATOM     59  C   UNL A   1      44.952  25.896  33.394  1.00  0.00     0.037 A 
ATOM     60  C   UNL A   1      43.519  31.007  29.602  1.00  0.00     0.049 A 
ATOM     61  C   UNL A   1      43.767  26.823  33.309  1.00  0.00     0.074 A 
ATOM     62  C   UNL A   1      42.337  31.723  29.544  1.00  0.00     0.029 A 
ATOM     63  N   UNL A   1      43.366  30.057  30.600  1.00  0.00    -0.354 N 
ATOM     64  N   UNL A   1      43.553  27.821  32.485  1.00  0.00    -0.248 NA
ATOM     65  C   UNL A   1      42.680  26.603  34.275  1.00  0.00     0.031 C 
ATOM     66  C   UNL A   1      41.484  31.236  30.540  1.00  0.00     0.029 A 
ATOM     67  C   UNL A   1      42.119  30.187  31.185  1.00  0.00     0.049 A 
ATOM     68  H   UNL A   1      44.043  29.389  30.853  1.00  0.00     0.167 HD
ATOM     69  C   UNL A   1      42.303  28.329  32.817  1.00  0.00     0.074 A 
ATOM     70  C   UNL A   1      41.799  27.523  33.909  1.00  0.00     0.031 C 
ATOM     71  C   UNL A   1      41.631  29.371  32.266  1.00  0.00     0.037 A 
BRANCH  58  72
ATOM     72  C   UNL A   1      44.744  32.282  27.800  1.00  0.00     0.057 A 
ATOM     73  C   UNL A   1      44.156  32.143  26.537  1.00  0.00     0.134 A 
ATOM     74  C   UNL A   1      45.352  33.506  28.102  1.00  0.00     0.134 A 
ATOM     75  F   UNL A   1      43.573  30.987  26.183  1.00  0.00    -0.206 F 
ATOM     76  C   UNL A   1      44.188  33.177  25.601  1.00  0.00     0.040 A 
ATOM     77  C   UNL A   1      45.370  34.556  27.182  1.00  0.00     0.040 A 
ATOM     78  F   UNL A   1      45.933  33.705  29.294  1.00  0.00    -0.206 F 
ATOM     79  C   UNL A   1      44.791  34.390  25.925  1.00  0.00     0.006 A 
ENDBRANCH  58  72
BRANCH  59  80
ATOM     80  C   UNL A   1      44.978  24.805  34.401  1.00  0.00     0.057 A 
ATOM     81  C   UNL A   1      45.498  25.016  35.683  1.00  0.00     0.134 A 
ATOM     82  C   UNL A   1      44.520  23.519  34.094  1.00  0.00     0.134 A 
ATOM     83  F   UNL A   1      45.978  26.220  36.027  1.00  0.00    -0.206 F 
ATOM     84  C   UNL A   1      45.579  23.982  36.618  1.00  0.00     0.040 A 
ATOM     85  C   UNL A   1      44.574  22.481  35.026  1.00  0.00     0.040 A 
ATOM     86  F   UNL A   1      44.014  23.250  32.881  1.00  0.00    -0.206 F 
ATOM     87  C   UNL A   1      45.111  22.711  36.292  1.00  0.00     0.006 A 
ENDBRANCH  59  80
BRANCH  71  88
ATOM     88  C   UNL A   1      40.268  29.681  32.813  1.00  0.00     0.057 A 
ATOM     89  C   UNL A   1      39.120  29.029  32.348  1.00  0.00     0.134 A 
ATOM     90  C   UNL A   1      40.112  30.601  33.858  1.00  0.00     0.134 A 
ATOM     91  F   UNL A   1      39.201  28.147  31.341  1.00  0.00    -0.206 F 
ATOM     92  C   UNL A   1      37.862  29.291  32.893  1.00  0.00     0.040 A 
ATOM     93  C   UNL A   1      38.864  30.853  34.428  1.00  0.00     0.040 A 
ATOM     94  F   UNL A   1      41.175  31.252  34.356  1.00  0.00    -0.206 F 
ATOM     95  C   UNL A   1      37.733  30.200  33.943  1.00  0.00     0.006 A 
ENDBRANCH  71  88
ENDBRANCH  45  46
ENDBRANCH  38  40
ENDBRANCH  37  38
ENDBRANCH  36  37
ENDBRANCH  35  36
ENDBRANCH  34  35
ENDBRANCH  33  34
ENDBRANCH  32  33
ENDBRANCH  31  32
ENDBRANCH   1  31
TORSDOF 24
ENDMDL
