MODEL 1
REMARK VINA RESULT:      -9.2      0.000      0.000
REMARK SMILES Cc1ccc(N2C(=O)C[C@H](Sc3ccccc3C(=O)OCCOCCOCCOCCOC(=O)c3ccc(-c4c5nc(c(-c6c(F)cccc6F)c6ccc([nH]6)c(-c6c(F)cccc6F)c6nc(c(-c7c(F)cccc7F)c7ccc4[nH]7)C=C6)C=C5)cc3)C2=O)cc1
REMARK SMILES IDX 25 1 24 2 23 3 22 4 21 5 20 6 18 7 19 8 17 9 12 10 13 11
REMARK SMILES IDX 14 12 16 13 15 14 11 15 10 16 6 17 7 18 89 19 8 20 9 21
REMARK SMILES IDX 90 22 5 23 1 24 2 25 3 26 92 27 4 28 91 29 26 30 27 31 28 32
REMARK SMILES IDX 29 33 30 34 31 35 32 36 33 37 34 38 35 39 36 40 88 41 37 42
REMARK SMILES IDX 87 43 38 44 39 45 40 46 81 47 41 48 86 49 80 50 82 51 42 52
REMARK SMILES IDX 85 53 79 54 78 55 43 57 69 58 52 59 68 60 53 61 56 62 67 63
REMARK SMILES IDX 83 64 54 65 55 66 66 68 84 69 57 70 44 71 45 72 50 73 46 74
REMARK SMILES IDX 47 75 49 76 51 77 48 78 70 79 71 80 76 81 72 82 73 83 75 84
REMARK SMILES IDX 77 85 74 86 58 87 59 88 64 89 60 90 61 91 63 92 65 93 62 94
REMARK H PARENT 82 56 56 67
REMARK Flexibility Score: inf
ROOT
ATOM      1  C   UNL A   1      39.884  24.214  26.620  1.00  0.00     0.188 C 
ENDROOT
BRANCH   1   2
ATOM      2  C   UNL A   1      40.234  22.729  26.776  1.00  0.00     0.188 C 
BRANCH   2   3
ATOM      3  O   UNL A   1      39.240  21.838  26.301  1.00  0.00    -0.376 OA
BRANCH   3   4
ATOM      4  C   UNL A   1      38.100  22.359  25.628  1.00  0.00     0.202 C 
BRANCH   4   5
ATOM      5  C   UNL A   1      36.730  21.708  25.750  1.00  0.00     0.261 C 
BRANCH   5   6
ATOM      6  O   UNL A   1      35.695  22.502  25.211  1.00  0.00    -0.460 OA
BRANCH   6   7
ATOM      7  C   UNL A   1      34.522  22.442  25.853  1.00  0.00     0.339 C 
ATOM      8  O   UNL A   1      34.137  23.175  26.753  1.00  0.00    -0.246 OA
BRANCH   7   9
ATOM      9  C   UNL A   1      33.700  21.551  25.015  1.00  0.00     0.073 A 
ATOM     10  C   UNL A   1      33.395  21.889  23.682  1.00  0.00     0.023 A 
ATOM     11  C   UNL A   1      32.599  20.990  22.964  1.00  0.00     0.016 A 
ATOM     12  C   UNL A   1      32.203  19.759  23.509  1.00  0.00     0.001 A 
ATOM     13  C   UNL A   1      33.327  20.292  25.552  1.00  0.00     0.017 A 
ATOM     14  C   UNL A   1      32.596  19.392  24.790  1.00  0.00     0.001 A 
BRANCH  10  15
ATOM     15  S   UNL A   1      33.759  23.452  22.862  1.00  0.00    -0.111 SA
BRANCH  15  16
ATOM     16  C   UNL A   1      32.261  24.522  22.978  1.00  0.00     0.151 C 
ATOM     17  N   UNL A   1      32.208  26.414  24.349  1.00  0.00    -0.250 N 
ATOM     18  C   UNL A   1      31.365  25.514  24.932  1.00  0.00     0.235 C 
ATOM     19  C   UNL A   1      32.572  25.997  23.097  1.00  0.00     0.247 C 
ATOM     20  O   UNL A   1      30.643  25.716  25.877  1.00  0.00    -0.274 OA
ATOM     21  C   UNL A   1      31.323  24.263  24.117  1.00  0.00     0.126 C 
ATOM     22  O   UNL A   1      33.001  26.684  22.180  1.00  0.00    -0.273 OA
BRANCH  17  23
ATOM     23  C   UNL A   1      32.193  27.741  24.821  1.00  0.00     0.052 A 
ATOM     24  C   UNL A   1      31.706  31.590  26.701  1.00  0.00     0.044 C 
ATOM     25  C   UNL A   1      31.862  30.237  26.072  1.00  0.00    -0.051 A 
ATOM     26  C   UNL A   1      31.097  29.894  24.949  1.00  0.00     0.005 A 
ATOM     27  C   UNL A   1      32.787  29.317  26.572  1.00  0.00     0.005 A 
ATOM     28  C   UNL A   1      31.265  28.656  24.320  1.00  0.00     0.027 A 
ATOM     29  C   UNL A   1      32.944  28.072  25.955  1.00  0.00     0.027 A 
ENDBRANCH  17  23
ENDBRANCH  15  16
ENDBRANCH  10  15
ENDBRANCH   7   9
ENDBRANCH   6   7
ENDBRANCH   5   6
ENDBRANCH   4   5
ENDBRANCH   3   4
ENDBRANCH   2   3
ENDBRANCH   1   2
BRANCH   1  30
ATOM     30  O   UNL A   1      40.921  25.097  26.201  1.00  0.00    -0.377 OA
BRANCH  30  31
ATOM     31  C   UNL A   1      40.996  26.314  26.941  1.00  0.00     0.188 C 
BRANCH  31  32
ATOM     32  C   UNL A   1      41.192  27.598  26.157  1.00  0.00     0.188 C 
BRANCH  32  33
ATOM     33  O   UNL A   1      42.590  27.869  26.168  1.00  0.00    -0.376 OA
BRANCH  33  34
ATOM     34  C   UNL A   1      43.383  27.116  25.266  1.00  0.00     0.202 C 
BRANCH  34  35
ATOM     35  C   UNL A   1      44.864  27.124  25.658  1.00  0.00     0.261 C 
BRANCH  35  36
ATOM     36  O   UNL A   1      45.215  25.855  26.269  1.00  0.00    -0.460 OA
BRANCH  36  37
ATOM     37  C   UNL A   1      46.122  25.885  27.289  1.00  0.00     0.338 C 
ATOM     38  O   UNL A   1      47.318  25.673  27.164  1.00  0.00    -0.246 OA
BRANCH  37  39
ATOM     39  C   UNL A   1      45.440  26.055  28.612  1.00  0.00     0.060 A 
ATOM     40  C   UNL A   1      44.143  25.564  28.841  1.00  0.00     0.016 A 
ATOM     41  C   UNL A   1      45.981  26.946  29.525  1.00  0.00     0.016 A 
ATOM     42  C   UNL A   1      43.341  26.104  29.872  1.00  0.00     0.010 A 
ATOM     43  C   UNL A   1      45.139  27.570  30.428  1.00  0.00     0.010 A 
ATOM     44  C   UNL A   1      43.797  27.193  30.608  1.00  0.00    -0.014 A 
BRANCH  44  45
ATOM     45  C   UNL A   1      42.960  28.074  31.476  1.00  0.00     0.031 A 
ATOM     46  C   UNL A   1      42.096  29.116  30.784  1.00  0.00     0.074 A 
ATOM     47  C   UNL A   1      42.694  27.677  32.759  1.00  0.00     0.049 A 
ATOM     48  N   UNL A   1      41.193  29.846  31.348  1.00  0.00    -0.248 NA
ATOM     49  C   UNL A   1      42.122  29.363  29.338  1.00  0.00     0.031 C 
ATOM     50  C   UNL A   1      41.520  27.993  33.574  1.00  0.00     0.029 A 
ATOM     51  N   UNL A   1      43.388  26.810  33.622  1.00  0.00    -0.354 N 
ATOM     52  C   UNL A   1      40.318  30.328  30.379  1.00  0.00     0.074 A 
ATOM     53  C   UNL A   1      41.007  30.079  29.139  1.00  0.00     0.031 C 
ATOM     54  C   UNL A   1      41.551  27.381  34.771  1.00  0.00     0.029 A 
ATOM     55  C   UNL A   1      42.928  27.043  34.947  1.00  0.00     0.049 A 
ATOM     56  H   UNL A   1      44.073  26.156  33.355  1.00  0.00     0.167 HD
ATOM     57  C   UNL A   1      39.061  30.750  30.751  1.00  0.00     0.037 A 
ATOM     58  C   UNL A   1      43.720  27.737  35.817  1.00  0.00     0.037 A 
ATOM     59  C   UNL A   1      38.921  30.799  32.236  1.00  0.00     0.049 A 
ATOM     60  C   UNL A   1      43.203  29.188  36.026  1.00  0.00     0.074 A 
ATOM     61  C   UNL A   1      37.982  30.398  33.173  1.00  0.00     0.029 A 
ATOM     62  N   UNL A   1      40.018  31.205  32.999  1.00  0.00    -0.354 N 
ATOM     63  N   UNL A   1      42.133  29.680  35.435  1.00  0.00    -0.248 NA
ATOM     64  C   UNL A   1      43.777  30.194  36.907  1.00  0.00     0.031 C 
ATOM     65  C   UNL A   1      38.559  30.523  34.483  1.00  0.00     0.029 A 
ATOM     66  C   UNL A   1      39.831  31.059  34.357  1.00  0.00     0.049 A 
ATOM     67  H   UNL A   1      40.847  31.561  32.605  1.00  0.00     0.167 HD
ATOM     68  C   UNL A   1      41.874  30.973  35.765  1.00  0.00     0.074 A 
ATOM     69  C   UNL A   1      42.970  31.258  36.686  1.00  0.00     0.031 C 
ATOM     70  C   UNL A   1      40.807  31.687  35.254  1.00  0.00     0.037 A 
BRANCH  57  71
ATOM     71  C   UNL A   1      37.852  30.980  29.806  1.00  0.00     0.057 A 
ATOM     72  C   UNL A   1      36.968  29.920  29.489  1.00  0.00     0.134 A 
ATOM     73  C   UNL A   1      37.549  32.168  29.100  1.00  0.00     0.134 A 
ATOM     74  F   UNL A   1      37.061  28.730  30.096  1.00  0.00    -0.206 F 
ATOM     75  C   UNL A   1      35.928  30.016  28.540  1.00  0.00     0.040 A 
ATOM     76  C   UNL A   1      36.470  32.294  28.195  1.00  0.00     0.040 A 
ATOM     77  F   UNL A   1      38.299  33.269  29.200  1.00  0.00    -0.206 F 
ATOM     78  C   UNL A   1      35.667  31.209  27.894  1.00  0.00     0.006 A 
ENDBRANCH  57  71
BRANCH  58  79
ATOM     79  C   UNL A   1      45.084  27.089  35.770  1.00  0.00     0.057 A 
ATOM     80  C   UNL A   1      46.118  27.929  35.268  1.00  0.00     0.134 A 
ATOM     81  C   UNL A   1      45.468  26.194  36.778  1.00  0.00     0.134 A 
ATOM     82  F   UNL A   1      45.849  28.800  34.281  1.00  0.00    -0.206 F 
ATOM     83  C   UNL A   1      47.356  28.064  35.915  1.00  0.00     0.040 A 
ATOM     84  C   UNL A   1      46.728  26.295  37.404  1.00  0.00     0.040 A 
ATOM     85  F   UNL A   1      44.565  25.370  37.328  1.00  0.00    -0.206 F 
ATOM     86  C   UNL A   1      47.642  27.281  37.026  1.00  0.00     0.006 A 
ENDBRANCH  58  79
BRANCH  70  87
ATOM     87  C   UNL A   1      40.603  33.170  35.471  1.00  0.00     0.057 A 
ATOM     88  C   UNL A   1      41.304  34.147  34.771  1.00  0.00     0.134 A 
ATOM     89  C   UNL A   1      39.693  33.669  36.441  1.00  0.00     0.134 A 
ATOM     90  F   UNL A   1      42.354  33.828  34.002  1.00  0.00    -0.206 F 
ATOM     91  C   UNL A   1      40.978  35.504  34.870  1.00  0.00     0.040 A 
ATOM     92  C   UNL A   1      39.398  35.020  36.590  1.00  0.00     0.040 A 
ATOM     93  F   UNL A   1      39.032  32.884  37.301  1.00  0.00    -0.206 F 
ATOM     94  C   UNL A   1      40.003  35.942  35.761  1.00  0.00     0.006 A 
ENDBRANCH  70  87
ENDBRANCH  44  45
ENDBRANCH  37  39
ENDBRANCH  36  37
ENDBRANCH  35  36
ENDBRANCH  34  35
ENDBRANCH  33  34
ENDBRANCH  32  33
ENDBRANCH  31  32
ENDBRANCH  30  31
ENDBRANCH   1  30
TORSDOF 23
ENDMDL
MODEL 2
REMARK VINA RESULT:      -8.3      3.566      4.957
REMARK SMILES Cc1ccc(N2C(=O)C[C@H](Sc3ccccc3C(=O)OCCOCCOCCOCCOC(=O)c3ccc(-c4c5nc(c(-c6c(F)cccc6F)c6ccc([nH]6)c(-c6c(F)cccc6F)c6nc(c(-c7c(F)cccc7F)c7ccc4[nH]7)C=C6)C=C5)cc3)C2=O)cc1
REMARK SMILES IDX 25 1 24 2 23 3 22 4 21 5 20 6 18 7 19 8 17 9 12 10 13 11
REMARK SMILES IDX 14 12 16 13 15 14 11 15 10 16 6 17 7 18 89 19 8 20 9 21
REMARK SMILES IDX 90 22 5 23 1 24 2 25 3 26 92 27 4 28 91 29 26 30 27 31 28 32
REMARK SMILES IDX 29 33 30 34 31 35 32 36 33 37 34 38 35 39 36 40 88 41 37 42
REMARK SMILES IDX 87 43 38 44 39 45 40 46 81 47 41 48 86 49 80 50 82 51 42 52
REMARK SMILES IDX 85 53 79 54 78 55 43 57 69 58 52 59 68 60 53 61 56 62 67 63
REMARK SMILES IDX 83 64 54 65 55 66 66 68 84 69 57 70 44 71 45 72 50 73 46 74
REMARK SMILES IDX 47 75 49 76 51 77 48 78 70 79 71 80 76 81 72 82 73 83 75 84
REMARK SMILES IDX 77 85 74 86 58 87 59 88 64 89 60 90 61 91 63 92 65 93 62 94
REMARK H PARENT 82 56 56 67
REMARK Flexibility Score: inf
ROOT
ATOM      1  C   UNL A   1      38.917  23.040  26.725  1.00  0.00     0.188 C 
ENDROOT
BRANCH   1   2
ATOM      2  C   UNL A   1      39.569  21.680  26.451  1.00  0.00     0.188 C 
BRANCH   2   3
ATOM      3  O   UNL A   1      38.947  20.926  25.426  1.00  0.00    -0.376 OA
BRANCH   3   4
ATOM      4  C   UNL A   1      37.703  21.367  24.893  1.00  0.00     0.202 C 
BRANCH   4   5
ATOM      5  C   UNL A   1      36.375  20.836  25.412  1.00  0.00     0.261 C 
BRANCH   5   6
ATOM      6  O   UNL A   1      35.489  21.864  25.802  1.00  0.00    -0.460 OA
BRANCH   6   7
ATOM      7  C   UNL A   1      34.247  21.472  26.116  1.00  0.00     0.339 C 
ATOM      8  O   UNL A   1      33.762  21.393  27.235  1.00  0.00    -0.246 OA
BRANCH   7   9
ATOM      9  C   UNL A   1      33.526  21.501  24.831  1.00  0.00     0.073 A 
ATOM     10  C   UNL A   1      33.592  22.628  23.989  1.00  0.00     0.023 A 
ATOM     11  C   UNL A   1      32.867  22.572  22.794  1.00  0.00     0.016 A 
ATOM     12  C   UNL A   1      32.185  21.411  22.399  1.00  0.00     0.001 A 
ATOM     13  C   UNL A   1      32.865  20.317  24.415  1.00  0.00     0.017 A 
ATOM     14  C   UNL A   1      32.213  20.269  23.191  1.00  0.00     0.001 A 
BRANCH  10  15
ATOM     15  S   UNL A   1      34.353  24.214  24.378  1.00  0.00    -0.111 SA
BRANCH  15  16
ATOM     16  C   UNL A   1      33.013  25.474  24.517  1.00  0.00     0.151 C 
ATOM     17  N   UNL A   1      33.267  27.399  25.817  1.00  0.00    -0.250 N 
ATOM     18  C   UNL A   1      32.342  26.635  26.468  1.00  0.00     0.235 C 
ATOM     19  C   UNL A   1      33.516  26.899  24.568  1.00  0.00     0.247 C 
ATOM     20  O   UNL A   1      31.697  26.959  27.433  1.00  0.00    -0.274 OA
ATOM     21  C   UNL A   1      32.102  25.375  25.702  1.00  0.00     0.126 C 
ATOM     22  O   UNL A   1      33.989  27.495  23.610  1.00  0.00    -0.273 OA
BRANCH  17  23
ATOM     23  C   UNL A   1      33.445  28.730  26.241  1.00  0.00     0.052 A 
ATOM     24  C   UNL A   1      33.753  32.603  28.111  1.00  0.00     0.044 C 
ATOM     25  C   UNL A   1      33.643  31.242  27.489  1.00  0.00    -0.051 A 
ATOM     26  C   UNL A   1      32.498  30.895  26.760  1.00  0.00     0.005 A 
ATOM     27  C   UNL A   1      34.686  30.318  27.598  1.00  0.00     0.005 A 
ATOM     28  C   UNL A   1      32.400  29.649  26.131  1.00  0.00     0.027 A 
ATOM     29  C   UNL A   1      34.582  29.066  26.985  1.00  0.00     0.027 A 
ENDBRANCH  17  23
ENDBRANCH  15  16
ENDBRANCH  10  15
ENDBRANCH   7   9
ENDBRANCH   6   7
ENDBRANCH   5   6
ENDBRANCH   4   5
ENDBRANCH   3   4
ENDBRANCH   2   3
ENDBRANCH   1   2
BRANCH   1  30
ATOM     30  O   UNL A   1      39.499  24.187  26.112  1.00  0.00    -0.377 OA
BRANCH  30  31
ATOM     31  C   UNL A   1      40.367  24.936  26.961  1.00  0.00     0.188 C 
BRANCH  31  32
ATOM     32  C   UNL A   1      40.512  26.419  26.679  1.00  0.00     0.188 C 
BRANCH  32  33
ATOM     33  O   UNL A   1      41.888  26.642  26.387  1.00  0.00    -0.376 OA
BRANCH  33  34
ATOM     34  C   UNL A   1      42.447  25.849  25.355  1.00  0.00     0.202 C 
BRANCH  34  35
ATOM     35  C   UNL A   1      43.863  25.374  25.697  1.00  0.00     0.261 C 
BRANCH  35  36
ATOM     36  O   UNL A   1      43.793  24.220  26.574  1.00  0.00    -0.460 OA
BRANCH  36  37
ATOM     37  C   UNL A   1      44.784  24.084  27.504  1.00  0.00     0.338 C 
ATOM     38  O   UNL A   1      45.487  23.094  27.632  1.00  0.00    -0.246 OA
BRANCH  37  39
ATOM     39  C   UNL A   1      44.797  25.242  28.454  1.00  0.00     0.060 A 
ATOM     40  C   UNL A   1      43.702  25.520  29.291  1.00  0.00     0.016 A 
ATOM     41  C   UNL A   1      45.778  26.209  28.305  1.00  0.00     0.016 A 
ATOM     42  C   UNL A   1      43.513  26.816  29.821  1.00  0.00     0.010 A 
ATOM     43  C   UNL A   1      45.504  27.506  28.702  1.00  0.00     0.010 A 
ATOM     44  C   UNL A   1      44.359  27.853  29.440  1.00  0.00    -0.014 A 
BRANCH  44  45
ATOM     45  C   UNL A   1      44.098  29.310  29.633  1.00  0.00     0.031 A 
ATOM     46  C   UNL A   1      42.681  29.803  29.393  1.00  0.00     0.074 A 
ATOM     47  C   UNL A   1      44.986  30.048  30.369  1.00  0.00     0.049 A 
ATOM     48  N   UNL A   1      42.232  30.982  29.667  1.00  0.00    -0.248 NA
ATOM     49  C   UNL A   1      41.597  28.950  28.890  1.00  0.00     0.031 C 
ATOM     50  C   UNL A   1      44.717  31.244  31.169  1.00  0.00     0.029 A 
ATOM     51  N   UNL A   1      46.349  29.845  30.650  1.00  0.00    -0.354 N 
ATOM     52  C   UNL A   1      40.843  30.940  29.750  1.00  0.00     0.074 A 
ATOM     53  C   UNL A   1      40.502  29.674  29.156  1.00  0.00     0.031 C 
ATOM     54  C   UNL A   1      45.810  31.678  31.821  1.00  0.00     0.029 A 
ATOM     55  C   UNL A   1      46.893  31.075  31.112  1.00  0.00     0.049 A 
ATOM     56  H   UNL A   1      46.841  29.000  30.545  1.00  0.00     0.167 HD
ATOM     57  C   UNL A   1      40.176  31.928  30.439  1.00  0.00     0.037 A 
ATOM     58  C   UNL A   1      47.687  31.810  30.277  1.00  0.00     0.037 A 
ATOM     59  C   UNL A   1      41.097  33.034  30.833  1.00  0.00     0.049 A 
ATOM     60  C   UNL A   1      46.933  33.048  29.715  1.00  0.00     0.074 A 
ATOM     61  C   UNL A   1      41.344  33.782  31.973  1.00  0.00     0.029 A 
ATOM     62  N   UNL A   1      42.116  33.403  29.952  1.00  0.00    -0.354 N 
ATOM     63  N   UNL A   1      45.683  33.346  30.013  1.00  0.00    -0.248 NA
ATOM     64  C   UNL A   1      47.475  34.065  28.828  1.00  0.00     0.031 C 
ATOM     65  C   UNL A   1      42.543  34.547  31.769  1.00  0.00     0.029 A 
ATOM     66  C   UNL A   1      43.001  34.318  30.481  1.00  0.00     0.049 A 
ATOM     67  H   UNL A   1      42.196  33.043  29.039  1.00  0.00     0.167 HD
ATOM     68  C   UNL A   1      45.231  34.473  29.402  1.00  0.00     0.074 A 
ATOM     69  C   UNL A   1      46.408  34.875  28.638  1.00  0.00     0.031 C 
ATOM     70  C   UNL A   1      43.950  34.962  29.566  1.00  0.00     0.037 A 
BRANCH  57  71
ATOM     71  C   UNL A   1      38.706  31.871  30.933  1.00  0.00     0.057 A 
ATOM     72  C   UNL A   1      38.402  31.480  32.260  1.00  0.00     0.134 A 
ATOM     73  C   UNL A   1      37.546  32.085  30.152  1.00  0.00     0.134 A 
ATOM     74  F   UNL A   1      39.367  31.282  33.167  1.00  0.00    -0.206 F 
ATOM     75  C   UNL A   1      37.092  31.278  32.743  1.00  0.00     0.040 A 
ATOM     76  C   UNL A   1      36.228  31.948  30.644  1.00  0.00     0.040 A 
ATOM     77  F   UNL A   1      37.607  32.394  28.854  1.00  0.00    -0.206 F 
ATOM     78  C   UNL A   1      35.995  31.521  31.938  1.00  0.00     0.006 A 
ENDBRANCH  57  71
BRANCH  58  79
ATOM     79  C   UNL A   1      48.735  30.866  29.735  1.00  0.00     0.057 A 
ATOM     80  C   UNL A   1      48.634  30.614  28.337  1.00  0.00     0.134 A 
ATOM     81  C   UNL A   1      50.037  30.896  30.251  1.00  0.00     0.134 A 
ATOM     82  F   UNL A   1      47.424  30.540  27.758  1.00  0.00    -0.206 F 
ATOM     83  C   UNL A   1      49.744  30.674  27.482  1.00  0.00     0.040 A 
ATOM     84  C   UNL A   1      51.161  30.913  29.399  1.00  0.00     0.040 A 
ATOM     85  F   UNL A   1      50.240  31.141  31.554  1.00  0.00    -0.206 F 
ATOM     86  C   UNL A   1      51.011  30.881  28.011  1.00  0.00     0.006 A 
ENDBRANCH  58  79
BRANCH  70  87
ATOM     87  C   UNL A   1      43.375  36.108  28.764  1.00  0.00     0.057 A 
ATOM     88  C   UNL A   1      42.844  35.955  27.487  1.00  0.00     0.134 A 
ATOM     89  C   UNL A   1      43.370  37.441  29.256  1.00  0.00     0.134 A 
ATOM     90  F   UNL A   1      42.996  34.810  26.807  1.00  0.00    -0.206 F 
ATOM     91  C   UNL A   1      42.170  36.994  26.838  1.00  0.00     0.040 A 
ATOM     92  C   UNL A   1      42.752  38.497  28.596  1.00  0.00     0.040 A 
ATOM     93  F   UNL A   1      43.958  37.803  30.403  1.00  0.00    -0.206 F 
ATOM     94  C   UNL A   1      42.098  38.264  27.404  1.00  0.00     0.006 A 
ENDBRANCH  70  87
ENDBRANCH  44  45
ENDBRANCH  37  39
ENDBRANCH  36  37
ENDBRANCH  35  36
ENDBRANCH  34  35
ENDBRANCH  33  34
ENDBRANCH  32  33
ENDBRANCH  31  32
ENDBRANCH  30  31
ENDBRANCH   1  30
TORSDOF 23
ENDMDL
MODEL 3
REMARK VINA RESULT:      -8.3      5.028     10.312
REMARK SMILES Cc1ccc(N2C(=O)C[C@H](Sc3ccccc3C(=O)OCCOCCOCCOCCOC(=O)c3ccc(-c4c5nc(c(-c6c(F)cccc6F)c6ccc([nH]6)c(-c6c(F)cccc6F)c6nc(c(-c7c(F)cccc7F)c7ccc4[nH]7)C=C6)C=C5)cc3)C2=O)cc1
REMARK SMILES IDX 25 1 24 2 23 3 22 4 21 5 20 6 18 7 19 8 17 9 12 10 13 11
REMARK SMILES IDX 14 12 16 13 15 14 11 15 10 16 6 17 7 18 89 19 8 20 9 21
REMARK SMILES IDX 90 22 5 23 1 24 2 25 3 26 92 27 4 28 91 29 26 30 27 31 28 32
REMARK SMILES IDX 29 33 30 34 31 35 32 36 33 37 34 38 35 39 36 40 88 41 37 42
REMARK SMILES IDX 87 43 38 44 39 45 40 46 81 47 41 48 86 49 80 50 82 51 42 52
REMARK SMILES IDX 85 53 79 54 78 55 43 57 69 58 52 59 68 60 53 61 56 62 67 63
REMARK SMILES IDX 83 64 54 65 55 66 66 68 84 69 57 70 44 71 45 72 50 73 46 74
REMARK SMILES IDX 47 75 49 76 51 77 48 78 70 79 71 80 76 81 72 82 73 83 75 84
REMARK SMILES IDX 77 85 74 86 58 87 59 88 64 89 60 90 61 91 63 92 65 93 62 94
REMARK H PARENT 82 56 56 67
REMARK Flexibility Score: inf
ROOT
ATOM      1  C   UNL A   1      48.128  26.014  26.900  1.00  0.00     0.188 C 
ENDROOT
BRANCH   1   2
ATOM      2  C   UNL A   1      46.895  26.302  26.035  1.00  0.00     0.188 C 
BRANCH   2   3
ATOM      3  O   UNL A   1      45.911  25.284  26.058  1.00  0.00    -0.376 OA
BRANCH   3   4
ATOM      4  C   UNL A   1      46.207  24.014  25.488  1.00  0.00     0.202 C 
BRANCH   4   5
ATOM      5  C   UNL A   1      45.809  22.715  26.174  1.00  0.00     0.261 C 
BRANCH   5   6
ATOM      6  O   UNL A   1      45.662  21.640  25.271  1.00  0.00    -0.460 OA
BRANCH   6   7
ATOM      7  C   UNL A   1      44.456  21.522  24.700  1.00  0.00     0.339 C 
ATOM      8  O   UNL A   1      44.100  21.998  23.632  1.00  0.00    -0.246 OA
BRANCH   7   9
ATOM      9  C   UNL A   1      43.806  20.437  25.456  1.00  0.00     0.073 A 
ATOM     10  C   UNL A   1      42.474  20.561  25.898  1.00  0.00     0.023 A 
ATOM     11  C   UNL A   1      41.941  19.487  26.619  1.00  0.00     0.016 A 
ATOM     12  C   UNL A   1      42.661  18.298  26.809  1.00  0.00     0.001 A 
ATOM     13  C   UNL A   1      44.519  19.223  25.620  1.00  0.00     0.017 A 
ATOM     14  C   UNL A   1      43.937  18.149  26.279  1.00  0.00     0.001 A 
BRANCH  10  15
ATOM     15  S   UNL A   1      41.446  22.038  25.804  1.00  0.00    -0.111 SA
BRANCH  15  16
ATOM     16  C   UNL A   1      41.295  22.740  27.503  1.00  0.00     0.151 C 
ATOM     17  N   UNL A   1      41.157  25.044  27.871  1.00  0.00    -0.250 N 
ATOM     18  C   UNL A   1      42.378  24.667  28.351  1.00  0.00     0.235 C 
ATOM     19  C   UNL A   1      40.388  23.948  27.587  1.00  0.00     0.247 C 
ATOM     20  O   UNL A   1      43.153  25.361  28.961  1.00  0.00    -0.274 OA
ATOM     21  C   UNL A   1      42.558  23.196  28.168  1.00  0.00     0.126 C 
ATOM     22  O   UNL A   1      39.170  23.899  27.490  1.00  0.00    -0.273 OA
BRANCH  17  23
ATOM     23  C   UNL A   1      40.694  26.339  28.176  1.00  0.00     0.052 A 
ATOM     24  C   UNL A   1      38.741  30.135  28.779  1.00  0.00     0.044 C 
ATOM     25  C   UNL A   1      39.393  28.801  28.561  1.00  0.00    -0.051 A 
ATOM     26  C   UNL A   1      40.262  28.614  27.478  1.00  0.00     0.005 A 
ATOM     27  C   UNL A   1      39.171  27.742  29.445  1.00  0.00     0.005 A 
ATOM     28  C   UNL A   1      40.916  27.393  27.288  1.00  0.00     0.027 A 
ATOM     29  C   UNL A   1      39.811  26.515  29.247  1.00  0.00     0.027 A 
ENDBRANCH  17  23
ENDBRANCH  15  16
ENDBRANCH  10  15
ENDBRANCH   7   9
ENDBRANCH   6   7
ENDBRANCH   5   6
ENDBRANCH   4   5
ENDBRANCH   3   4
ENDBRANCH   2   3
ENDBRANCH   1   2
BRANCH   1  30
ATOM     30  O   UNL A   1      49.304  25.553  26.242  1.00  0.00    -0.377 OA
BRANCH  30  31
ATOM     31  C   UNL A   1      50.478  25.561  27.054  1.00  0.00     0.188 C 
BRANCH  31  32
ATOM     32  C   UNL A   1      51.348  26.804  27.014  1.00  0.00     0.188 C 
BRANCH  32  33
ATOM     33  O   UNL A   1      51.171  27.379  25.723  1.00  0.00    -0.376 OA
BRANCH  33  34
ATOM     34  C   UNL A   1      50.971  28.781  25.683  1.00  0.00     0.202 C 
BRANCH  34  35
ATOM     35  C   UNL A   1      50.116  29.273  26.855  1.00  0.00     0.261 C 
BRANCH  35  36
ATOM     36  O   UNL A   1      48.723  29.338  26.451  1.00  0.00    -0.460 OA
BRANCH  36  37
ATOM     37  C   UNL A   1      47.961  30.330  26.998  1.00  0.00     0.338 C 
ATOM     38  O   UNL A   1      47.779  31.427  26.494  1.00  0.00    -0.246 OA
BRANCH  37  39
ATOM     39  C   UNL A   1      47.501  29.960  28.375  1.00  0.00     0.060 A 
ATOM     40  C   UNL A   1      48.210  30.362  29.521  1.00  0.00     0.016 A 
ATOM     41  C   UNL A   1      46.529  28.982  28.507  1.00  0.00     0.016 A 
ATOM     42  C   UNL A   1      48.066  29.659  30.738  1.00  0.00     0.010 A 
ATOM     43  C   UNL A   1      46.509  28.211  29.656  1.00  0.00     0.010 A 
ATOM     44  C   UNL A   1      47.292  28.504  30.787  1.00  0.00    -0.014 A 
BRANCH  44  45
ATOM     45  C   UNL A   1      47.311  27.483  31.876  1.00  0.00     0.031 A 
ATOM     46  C   UNL A   1      48.252  26.302  31.708  1.00  0.00     0.074 A 
ATOM     47  C   UNL A   1      46.818  27.822  33.107  1.00  0.00     0.049 A 
ATOM     48  N   UNL A   1      48.526  25.418  32.608  1.00  0.00    -0.248 NA
ATOM     49  C   UNL A   1      49.054  26.066  30.501  1.00  0.00     0.031 C 
ATOM     50  C   UNL A   1      47.217  27.296  34.414  1.00  0.00     0.029 A 
ATOM     51  N   UNL A   1      45.884  28.800  33.493  1.00  0.00    -0.354 N 
ATOM     52  C   UNL A   1      49.724  24.786  32.285  1.00  0.00     0.074 A 
ATOM     53  C   UNL A   1      49.950  25.159  30.913  1.00  0.00     0.031 C 
ATOM     54  C   UNL A   1      46.573  27.901  35.427  1.00  0.00     0.029 A 
ATOM     55  C   UNL A   1      45.428  28.484  34.802  1.00  0.00     0.049 A 
ATOM     56  H   UNL A   1      45.595  29.569  32.951  1.00  0.00     0.167 HD
ATOM     57  C   UNL A   1      50.437  24.140  33.271  1.00  0.00     0.037 A 
ATOM     58  C   UNL A   1      44.183  27.945  34.965  1.00  0.00     0.037 A 
ATOM     59  C   UNL A   1      49.659  24.064  34.542  1.00  0.00     0.049 A 
ATOM     60  C   UNL A   1      44.256  26.424  35.275  1.00  0.00     0.074 A 
ATOM     61  C   UNL A   1      49.905  24.284  35.889  1.00  0.00     0.029 A 
ATOM     62  N   UNL A   1      48.279  23.864  34.473  1.00  0.00    -0.354 N 
ATOM     63  N   UNL A   1      45.382  25.745  35.369  1.00  0.00    -0.248 NA
ATOM     64  C   UNL A   1      43.132  25.538  35.538  1.00  0.00     0.031 C 
ATOM     65  C   UNL A   1      48.653  24.265  36.593  1.00  0.00     0.029 A 
ATOM     66  C   UNL A   1      47.642  23.970  35.691  1.00  0.00     0.049 A 
ATOM     67  H   UNL A   1      47.804  23.666  33.633  1.00  0.00     0.167 HD
ATOM     68  C   UNL A   1      45.202  24.426  35.643  1.00  0.00     0.074 A 
ATOM     69  C   UNL A   1      43.747  24.345  35.715  1.00  0.00     0.031 C 
ATOM     70  C   UNL A   1      46.245  23.530  35.775  1.00  0.00     0.037 A 
BRANCH  57  71
ATOM     71  C   UNL A   1      51.920  23.695  33.190  1.00  0.00     0.057 A 
ATOM     72  C   UNL A   1      52.965  24.651  33.188  1.00  0.00     0.134 A 
ATOM     73  C   UNL A   1      52.395  22.374  33.014  1.00  0.00     0.134 A 
ATOM     74  F   UNL A   1      52.720  25.952  33.394  1.00  0.00    -0.206 F 
ATOM     75  C   UNL A   1      54.325  24.335  32.986  1.00  0.00     0.040 A 
ATOM     76  C   UNL A   1      53.761  22.038  32.875  1.00  0.00     0.040 A 
ATOM     77  F   UNL A   1      51.571  21.326  32.918  1.00  0.00    -0.206 F 
ATOM     78  C   UNL A   1      54.732  23.022  32.838  1.00  0.00     0.006 A 
ENDBRANCH  57  71
BRANCH  58  79
ATOM     79  C   UNL A   1      43.226  28.832  34.203  1.00  0.00     0.057 A 
ATOM     80  C   UNL A   1      42.560  28.188  33.123  1.00  0.00     0.134 A 
ATOM     81  C   UNL A   1      42.476  29.799  34.886  1.00  0.00     0.134 A 
ATOM     82  F   UNL A   1      43.209  27.265  32.393  1.00  0.00    -0.206 F 
ATOM     83  C   UNL A   1      41.174  28.294  32.924  1.00  0.00     0.040 A 
ATOM     84  C   UNL A   1      41.090  29.942  34.661  1.00  0.00     0.040 A 
ATOM     85  F   UNL A   1      43.007  30.453  35.928  1.00  0.00    -0.206 F 
ATOM     86  C   UNL A   1      40.425  29.135  33.736  1.00  0.00     0.006 A 
ENDBRANCH  58  79
BRANCH  70  87
ATOM     87  C   UNL A   1      46.062  22.034  35.905  1.00  0.00     0.057 A 
ATOM     88  C   UNL A   1      45.854  21.194  34.817  1.00  0.00     0.134 A 
ATOM     89  C   UNL A   1      46.056  21.386  37.170  1.00  0.00     0.134 A 
ATOM     90  F   UNL A   1      45.600  21.690  33.598  1.00  0.00    -0.206 F 
ATOM     91  C   UNL A   1      45.854  19.801  34.948  1.00  0.00     0.040 A 
ATOM     92  C   UNL A   1      46.002  20.004  37.320  1.00  0.00     0.040 A 
ATOM     93  F   UNL A   1      46.106  22.044  38.334  1.00  0.00    -0.206 F 
ATOM     94  C   UNL A   1      45.956  19.201  36.200  1.00  0.00     0.006 A 
ENDBRANCH  70  87
ENDBRANCH  44  45
ENDBRANCH  37  39
ENDBRANCH  36  37
ENDBRANCH  35  36
ENDBRANCH  34  35
ENDBRANCH  33  34
ENDBRANCH  32  33
ENDBRANCH  31  32
ENDBRANCH  30  31
ENDBRANCH   1  30
TORSDOF 23
ENDMDL
