MODEL 1
REMARK VINA RESULT:     -11.7      0.000      0.000
REMARK SMILES O=C(OCCOCCOCCOCCOC(=O)c1ccc(-c2c3nc(c(-c4c(F)cccc4F)c4ccc([nH]4)c(-c4c(F)cccc4F)c4nc(c(-c5c(F)cccc5F)c5ccc2[nH]5)C=C4)C=C3)cc1)C1=Cc2c(Cl)cc(Cl)cc2O[C@@H]1C(F)(F)F
REMARK SMILES IDX 10 1 9 2 8 3 7 4 6 5 5 6 4 7 3 8 2 9 1 10 72 11 73 12 83 13
REMARK SMILES IDX 74 14 82 15 75 16 81 17 76 18 77 19 80 20 78 21 79 22 84 23
REMARK SMILES IDX 85 24 86 25 87 26 11 27 12 28 13 29 14 30 15 31 16 32 17 33
REMARK SMILES IDX 18 34 19 35 71 36 20 37 70 38 21 39 22 40 23 41 64 42 24 43
REMARK SMILES IDX 69 44 63 45 65 46 25 47 68 48 62 49 61 50 26 52 52 53 35 54
REMARK SMILES IDX 51 55 36 56 39 57 50 58 66 59 37 60 38 61 49 63 67 64 40 65
REMARK SMILES IDX 27 66 28 67 33 68 29 69 30 70 32 71 34 72 31 73 53 74 54 75
REMARK SMILES IDX 59 76 55 77 56 78 58 79 60 80 57 81 41 82 42 83 47 84 43 85
REMARK SMILES IDX 44 86 46 87 48 88 45 89
REMARK H PARENT 65 51 39 62
REMARK Flexibility Score: inf
ROOT
ATOM      1  C   UNL A   1      33.971  16.565  23.706  1.00  0.00     0.188 C 
ENDROOT
BRANCH   1   2
ATOM      2  O   UNL A   1      33.146  17.240  22.788  1.00  0.00    -0.377 OA
BRANCH   2   3
ATOM      3  C   UNL A   1      32.234  18.093  23.438  1.00  0.00     0.188 C 
BRANCH   3   4
ATOM      4  C   UNL A   1      32.329  19.585  23.074  1.00  0.00     0.188 C 
BRANCH   4   5
ATOM      5  O   UNL A   1      32.354  20.693  24.047  1.00  0.00    -0.376 OA
BRANCH   5   6
ATOM      6  C   UNL A   1      33.172  20.932  25.490  1.00  0.00     0.202 C 
BRANCH   6   7
ATOM      7  C   UNL A   1      34.455  22.629  25.977  1.00  0.00     0.261 C 
BRANCH   7   8
ATOM      8  O   UNL A   1      34.009  24.038  26.259  1.00  0.00    -0.460 OA
BRANCH   8   9
ATOM      9  C   UNL A   1      33.338  24.567  25.228  1.00  0.00     0.338 C 
ATOM     10  O   UNL A   1      33.753  24.801  24.120  1.00  0.00    -0.246 OA
BRANCH   9  11
ATOM     11  C   UNL A   1      32.257  25.183  25.991  1.00  0.00     0.087 C 
ATOM     12  C   UNL A   1      32.324  26.648  26.058  1.00  0.00     0.029 C 
ATOM     13  C   UNL A   1      30.919  24.202  25.029  1.00  0.00     0.316 C 
ATOM     14  C   UNL A   1      31.319  27.780  25.070  1.00  0.00     0.036 A 
ATOM     15  O   UNL A   1      29.910  25.367  23.834  1.00  0.00    -0.475 OA
ATOM     16  C   UNL A   1      31.497  29.141  25.134  1.00  0.00     0.053 A 
ATOM     17  C   UNL A   1      30.182  27.190  23.902  1.00  0.00     0.130 A 
ATOM     18  Cl  UNL A   1      32.634  29.894  26.172  1.00  0.00    -0.083 Cl
ATOM     19  C   UNL A   1      30.711  29.917  24.259  1.00  0.00     0.042 A 
ATOM     20  C   UNL A   1      29.469  28.015  23.071  1.00  0.00     0.067 A 
ATOM     21  C   UNL A   1      29.758  29.383  23.298  1.00  0.00     0.046 A 
ATOM     22  Cl  UNL A   1      28.906  30.560  22.345  1.00  0.00    -0.084 Cl
BRANCH  13  23
ATOM     23  C   UNL A   1      30.470  23.325  26.393  1.00  0.00     0.430 C 
ATOM     24  F   UNL A   1      31.310  23.302  27.443  1.00  0.00    -0.167 F 
ATOM     25  F   UNL A   1      29.345  23.931  26.886  1.00  0.00    -0.167 F 
ATOM     26  F   UNL A   1      30.081  22.048  26.157  1.00  0.00    -0.167 F 
ENDBRANCH  13  23
ENDBRANCH   9  11
ENDBRANCH   8   9
ENDBRANCH   7   8
ENDBRANCH   6   7
ENDBRANCH   5   6
ENDBRANCH   4   5
ENDBRANCH   3   4
ENDBRANCH   2   3
ENDBRANCH   1   2
BRANCH   1  27
ATOM     27  C   UNL A   1      34.854  17.440  24.606  1.00  0.00     0.188 C 
BRANCH  27  28
ATOM     28  O   UNL A   1      35.695  18.471  24.117  1.00  0.00    -0.376 OA
BRANCH  28  29
ATOM     29  C   UNL A   1      36.390  19.352  24.979  1.00  0.00     0.202 C 
BRANCH  29  30
ATOM     30  C   UNL A   1      37.910  19.540  24.897  1.00  0.00     0.261 C 
BRANCH  30  31
ATOM     31  O   UNL A   1      38.433  20.730  25.494  1.00  0.00    -0.460 OA
BRANCH  31  32
ATOM     32  C   UNL A   1      39.617  20.578  26.123  1.00  0.00     0.338 C 
ATOM     33  O   UNL A   1      40.360  19.613  26.073  1.00  0.00    -0.246 OA
BRANCH  32  34
ATOM     34  C   UNL A   1      40.002  21.855  26.761  1.00  0.00     0.060 A 
ATOM     35  C   UNL A   1      39.411  23.033  26.277  1.00  0.00     0.016 A 
ATOM     36  C   UNL A   1      40.935  21.908  27.799  1.00  0.00     0.016 A 
ATOM     37  C   UNL A   1      39.786  24.268  26.784  1.00  0.00     0.010 A 
ATOM     38  C   UNL A   1      41.353  23.153  28.273  1.00  0.00     0.010 A 
ATOM     39  C   UNL A   1      40.818  24.334  27.724  1.00  0.00    -0.014 A 
BRANCH  39  40
ATOM     40  C   UNL A   1      41.511  25.626  27.911  1.00  0.00     0.031 A 
ATOM     41  C   UNL A   1      40.778  26.716  28.645  1.00  0.00     0.074 A 
ATOM     42  C   UNL A   1      42.777  25.805  27.504  1.00  0.00     0.049 A 
ATOM     43  N   UNL A   1      41.146  27.944  28.895  1.00  0.00    -0.248 NA
ATOM     44  C   UNL A   1      39.443  26.371  29.164  1.00  0.00     0.031 C 
ATOM     45  C   UNL A   1      43.607  24.794  26.853  1.00  0.00     0.029 A 
ATOM     46  N   UNL A   1      43.581  26.912  27.578  1.00  0.00    -0.354 N 
ATOM     47  C   UNL A   1      40.085  28.522  29.582  1.00  0.00     0.074 A 
ATOM     48  C   UNL A   1      39.046  27.523  29.680  1.00  0.00     0.031 C 
ATOM     49  C   UNL A   1      44.804  25.336  26.570  1.00  0.00     0.029 A 
ATOM     50  C   UNL A   1      44.805  26.738  26.982  1.00  0.00     0.049 A 
ATOM     51  H   UNL A   1      43.308  27.749  28.018  1.00  0.00     0.167 HD
ATOM     52  C   UNL A   1      39.992  29.772  30.091  1.00  0.00     0.037 A 
ATOM     53  C   UNL A   1      45.794  27.626  26.767  1.00  0.00     0.037 A 
ATOM     54  C   UNL A   1      41.034  30.758  29.983  1.00  0.00     0.049 A 
ATOM     55  C   UNL A   1      45.629  29.041  27.259  1.00  0.00     0.074 A 
ATOM     56  C   UNL A   1      41.049  32.052  30.470  1.00  0.00     0.029 A 
ATOM     57  N   UNL A   1      42.243  30.560  29.330  1.00  0.00    -0.354 N 
ATOM     58  N   UNL A   1      44.630  29.580  27.916  1.00  0.00    -0.248 NA
ATOM     59  C   UNL A   1      46.733  29.969  26.984  1.00  0.00     0.031 C 
ATOM     60  C   UNL A   1      42.232  32.662  30.046  1.00  0.00     0.029 A 
ATOM     61  C   UNL A   1      42.995  31.722  29.371  1.00  0.00     0.049 A 
ATOM     62  H   UNL A   1      42.523  29.720  28.903  1.00  0.00     0.167 HD
ATOM     63  C   UNL A   1      45.000  30.897  28.166  1.00  0.00     0.074 A 
ATOM     64  C   UNL A   1      46.323  31.068  27.601  1.00  0.00     0.031 C 
ATOM     65  C   UNL A   1      44.314  31.875  28.808  1.00  0.00     0.037 A 
BRANCH  52  66
ATOM     66  C   UNL A   1      38.705  30.156  30.765  1.00  0.00     0.057 A 
ATOM     67  C   UNL A   1      37.647  30.759  30.071  1.00  0.00     0.134 A 
ATOM     68  C   UNL A   1      38.514  29.892  32.127  1.00  0.00     0.134 A 
ATOM     69  F   UNL A   1      37.767  31.055  28.768  1.00  0.00    -0.206 F 
ATOM     70  C   UNL A   1      36.458  31.110  30.715  1.00  0.00     0.040 A 
ATOM     71  C   UNL A   1      37.317  30.204  32.772  1.00  0.00     0.040 A 
ATOM     72  F   UNL A   1      39.483  29.313  32.852  1.00  0.00    -0.206 F 
ATOM     73  C   UNL A   1      36.288  30.823  32.068  1.00  0.00     0.006 A 
ENDBRANCH  52  66
BRANCH  53  74
ATOM     74  C   UNL A   1      47.018  27.214  26.032  1.00  0.00     0.057 A 
ATOM     75  C   UNL A   1      48.109  26.641  26.697  1.00  0.00     0.134 A 
ATOM     76  C   UNL A   1      47.138  27.408  24.650  1.00  0.00     0.134 A 
ATOM     77  F   UNL A   1      48.065  26.445  28.023  1.00  0.00    -0.206 F 
ATOM     78  C   UNL A   1      49.283  26.303  26.021  1.00  0.00     0.040 A 
ATOM     79  C   UNL A   1      48.292  27.045  23.957  1.00  0.00     0.040 A 
ATOM     80  F   UNL A   1      46.129  27.949  23.951  1.00  0.00    -0.206 F 
ATOM     81  C   UNL A   1      49.374  26.500  24.644  1.00  0.00     0.006 A 
ENDBRANCH  53  74
BRANCH  65  82
ATOM     82  C   UNL A   1      45.000  33.201  28.985  1.00  0.00     0.057 A 
ATOM     83  C   UNL A   1      45.846  33.470  30.068  1.00  0.00     0.134 A 
ATOM     84  C   UNL A   1      44.838  34.214  28.030  1.00  0.00     0.134 A 
ATOM     85  F   UNL A   1      46.042  32.548  31.024  1.00  0.00    -0.206 F 
ATOM     86  C   UNL A   1      46.473  34.709  30.216  1.00  0.00     0.040 A 
ATOM     87  C   UNL A   1      45.490  35.442  28.145  1.00  0.00     0.040 A 
ATOM     88  F   UNL A   1      44.056  34.021  26.956  1.00  0.00    -0.206 F 
ATOM     89  C   UNL A   1      46.301  35.696  29.248  1.00  0.00     0.006 A 
ENDBRANCH  65  82
ENDBRANCH  39  40
ENDBRANCH  32  34
ENDBRANCH  31  32
ENDBRANCH  30  31
ENDBRANCH  29  30
ENDBRANCH  28  29
ENDBRANCH  27  28
ENDBRANCH   1  27
TORSDOF 21
ENDMDL
MODEL 2
REMARK VINA RESULT:     -11.7      0.315      5.976
REMARK SMILES O=C(OCCOCCOCCOCCOC(=O)c1ccc(-c2c3nc(c(-c4c(F)cccc4F)c4ccc([nH]4)c(-c4c(F)cccc4F)c4nc(c(-c5c(F)cccc5F)c5ccc2[nH]5)C=C4)C=C3)cc1)C1=Cc2c(Cl)cc(Cl)cc2O[C@@H]1C(F)(F)F
REMARK SMILES IDX 10 1 9 2 8 3 7 4 6 5 5 6 4 7 3 8 2 9 1 10 72 11 73 12 83 13
REMARK SMILES IDX 74 14 82 15 75 16 81 17 76 18 77 19 80 20 78 21 79 22 84 23
REMARK SMILES IDX 85 24 86 25 87 26 11 27 12 28 13 29 14 30 15 31 16 32 17 33
REMARK SMILES IDX 18 34 19 35 71 36 20 37 70 38 21 39 22 40 23 41 64 42 24 43
REMARK SMILES IDX 69 44 63 45 65 46 25 47 68 48 62 49 61 50 26 52 52 53 35 54
REMARK SMILES IDX 51 55 36 56 39 57 50 58 66 59 37 60 38 61 49 63 67 64 40 65
REMARK SMILES IDX 27 66 28 67 33 68 29 69 30 70 32 71 34 72 31 73 53 74 54 75
REMARK SMILES IDX 59 76 55 77 56 78 58 79 60 80 57 81 41 82 42 83 47 84 43 85
REMARK SMILES IDX 44 86 46 87 48 88 45 89
REMARK H PARENT 65 51 39 62
REMARK Flexibility Score: inf
ROOT
ATOM      1  C   UNL A   1      34.082  16.722  23.609  1.00  0.00     0.188 C 
ENDROOT
BRANCH   1   2
ATOM      2  O   UNL A   1      33.277  17.428  22.698  1.00  0.00    -0.377 OA
BRANCH   2   3
ATOM      3  C   UNL A   1      32.260  18.148  23.352  1.00  0.00     0.188 C 
BRANCH   3   4
ATOM      4  C   UNL A   1      32.275  19.674  23.149  1.00  0.00     0.188 C 
BRANCH   4   5
ATOM      5  O   UNL A   1      32.340  20.671  24.233  1.00  0.00    -0.376 OA
BRANCH   5   6
ATOM      6  C   UNL A   1      33.239  20.772  25.644  1.00  0.00     0.202 C 
BRANCH   6   7
ATOM      7  C   UNL A   1      34.490  22.452  26.255  1.00  0.00     0.261 C 
BRANCH   7   8
ATOM      8  O   UNL A   1      34.058  23.887  26.400  1.00  0.00    -0.460 OA
BRANCH   8   9
ATOM      9  C   UNL A   1      33.332  24.299  25.354  1.00  0.00     0.338 C 
ATOM     10  O   UNL A   1      33.693  24.431  24.210  1.00  0.00    -0.246 OA
BRANCH   9  11
ATOM     11  C   UNL A   1      32.271  24.967  26.100  1.00  0.00     0.087 C 
ATOM     12  C   UNL A   1      32.384  26.430  26.133  1.00  0.00     0.029 C 
ATOM     13  C   UNL A   1      30.903  24.005  25.161  1.00  0.00     0.316 C 
ATOM     14  C   UNL A   1      31.414  27.569  25.117  1.00  0.00     0.036 A 
ATOM     15  O   UNL A   1      29.931  25.173  23.937  1.00  0.00    -0.475 OA
ATOM     16  C   UNL A   1      31.635  28.925  25.148  1.00  0.00     0.053 A 
ATOM     17  C   UNL A   1      30.260  26.987  23.963  1.00  0.00     0.130 A 
ATOM     18  Cl  UNL A   1      32.795  29.666  26.170  1.00  0.00    -0.083 Cl
ATOM     19  C   UNL A   1      30.874  29.704  24.255  1.00  0.00     0.042 A 
ATOM     20  C   UNL A   1      29.574  27.814  23.111  1.00  0.00     0.067 A 
ATOM     21  C   UNL A   1      29.905  29.177  23.305  1.00  0.00     0.046 A 
ATOM     22  Cl  UNL A   1      29.091  30.357  22.324  1.00  0.00    -0.084 Cl
BRANCH  13  23
ATOM     23  C   UNL A   1      30.425  23.176  26.545  1.00  0.00     0.430 C 
ATOM     24  F   UNL A   1      29.389  23.660  27.254  1.00  0.00    -0.167 F 
ATOM     25  F   UNL A   1      29.990  21.947  26.125  1.00  0.00    -0.167 F 
ATOM     26  F   UNL A   1      31.420  22.893  27.421  1.00  0.00    -0.167 F 
ENDBRANCH  13  23
ENDBRANCH   9  11
ENDBRANCH   8   9
ENDBRANCH   7   8
ENDBRANCH   6   7
ENDBRANCH   5   6
ENDBRANCH   4   5
ENDBRANCH   3   4
ENDBRANCH   2   3
ENDBRANCH   1   2
BRANCH   1  27
ATOM     27  C   UNL A   1      34.951  17.565  24.552  1.00  0.00     0.188 C 
BRANCH  27  28
ATOM     28  O   UNL A   1      35.845  18.571  24.107  1.00  0.00    -0.376 OA
BRANCH  28  29
ATOM     29  C   UNL A   1      36.542  19.414  25.004  1.00  0.00     0.202 C 
BRANCH  29  30
ATOM     30  C   UNL A   1      38.070  19.546  24.977  1.00  0.00     0.261 C 
BRANCH  30  31
ATOM     31  O   UNL A   1      38.607  20.778  25.466  1.00  0.00    -0.460 OA
BRANCH  31  32
ATOM     32  C   UNL A   1      39.749  20.659  26.175  1.00  0.00     0.338 C 
ATOM     33  O   UNL A   1      40.523  19.718  26.173  1.00  0.00    -0.246 OA
BRANCH  32  34
ATOM     34  C   UNL A   1      40.050  21.944  26.842  1.00  0.00     0.060 A 
ATOM     35  C   UNL A   1      39.278  23.062  26.487  1.00  0.00     0.016 A 
ATOM     36  C   UNL A   1      41.074  22.063  27.784  1.00  0.00     0.016 A 
ATOM     37  C   UNL A   1      39.560  24.310  27.022  1.00  0.00     0.010 A 
ATOM     38  C   UNL A   1      41.394  23.328  28.282  1.00  0.00     0.010 A 
ATOM     39  C   UNL A   1      40.670  24.459  27.857  1.00  0.00    -0.014 A 
BRANCH  39  40
ATOM     40  C   UNL A   1      41.225  25.816  28.046  1.00  0.00     0.031 A 
ATOM     41  C   UNL A   1      42.602  26.092  27.505  1.00  0.00     0.074 A 
ATOM     42  C   UNL A   1      40.504  26.792  28.619  1.00  0.00     0.049 A 
ATOM     43  N   UNL A   1      43.323  27.179  27.583  1.00  0.00    -0.248 NA
ATOM     44  C   UNL A   1      43.253  24.988  26.779  1.00  0.00     0.031 C 
ATOM     45  C   UNL A   1      39.134  26.656  29.108  1.00  0.00     0.029 A 
ATOM     46  N   UNL A   1      40.835  28.094  28.886  1.00  0.00    -0.354 N 
ATOM     47  C   UNL A   1      44.517  26.884  26.935  1.00  0.00     0.074 A 
ATOM     48  C   UNL A   1      44.437  25.508  26.500  1.00  0.00     0.031 C 
ATOM     49  C   UNL A   1      38.746  27.830  29.636  1.00  0.00     0.029 A 
ATOM     50  C   UNL A   1      39.853  28.780  29.557  1.00  0.00     0.049 A 
ATOM     51  H   UNL A   1      41.692  28.499  28.623  1.00  0.00     0.167 HD
ATOM     52  C   UNL A   1      45.579  27.691  26.718  1.00  0.00     0.037 A 
ATOM     53  C   UNL A   1      39.868  30.023  30.074  1.00  0.00     0.037 A 
ATOM     54  C   UNL A   1      45.646  29.059  27.160  1.00  0.00     0.049 A 
ATOM     55  C   UNL A   1      41.100  30.873  29.903  1.00  0.00     0.074 A 
ATOM     56  C   UNL A   1      46.671  29.971  26.985  1.00  0.00     0.029 A 
ATOM     57  N   UNL A   1      44.650  29.706  27.878  1.00  0.00    -0.354 N 
ATOM     58  N   UNL A   1      42.221  30.595  29.281  1.00  0.00    -0.248 NA
ATOM     59  C   UNL A   1      41.066  32.214  30.501  1.00  0.00     0.031 C 
ATOM     60  C   UNL A   1      46.328  31.144  27.664  1.00  0.00     0.029 A 
ATOM     61  C   UNL A   1      45.053  30.995  28.185  1.00  0.00     0.049 A 
ATOM     62  H   UNL A   1      43.786  29.308  28.130  1.00  0.00     0.167 HD
ATOM     63  C   UNL A   1      43.009  31.737  29.381  1.00  0.00     0.074 A 
ATOM     64  C   UNL A   1      42.229  32.715  30.110  1.00  0.00     0.031 C 
ATOM     65  C   UNL A   1      44.261  31.960  28.907  1.00  0.00     0.037 A 
BRANCH  52  66
ATOM     66  C   UNL A   1      46.770  27.105  26.014  1.00  0.00     0.057 A 
ATOM     67  C   UNL A   1      46.951  27.217  24.628  1.00  0.00     0.134 A 
ATOM     68  C   UNL A   1      47.764  26.439  26.741  1.00  0.00     0.134 A 
ATOM     69  F   UNL A   1      46.031  27.828  23.868  1.00  0.00    -0.206 F 
ATOM     70  C   UNL A   1      48.065  26.664  23.991  1.00  0.00     0.040 A 
ATOM     71  C   UNL A   1      48.899  25.915  26.120  1.00  0.00     0.040 A 
ATOM     72  F   UNL A   1      47.658  26.297  28.071  1.00  0.00    -0.206 F 
ATOM     73  C   UNL A   1      49.047  26.019  24.740  1.00  0.00     0.006 A 
ENDBRANCH  52  66
BRANCH  53  74
ATOM     74  C   UNL A   1      38.691  30.531  30.824  1.00  0.00     0.057 A 
ATOM     75  C   UNL A   1      38.532  30.275  32.192  1.00  0.00     0.134 A 
ATOM     76  C   UNL A   1      37.679  31.260  30.186  1.00  0.00     0.134 A 
ATOM     77  F   UNL A   1      39.456  29.567  32.858  1.00  0.00    -0.206 F 
ATOM     78  C   UNL A   1      37.401  30.702  32.890  1.00  0.00     0.040 A 
ATOM     79  C   UNL A   1      36.559  31.720  30.878  1.00  0.00     0.040 A 
ATOM     80  F   UNL A   1      37.769  31.542  28.877  1.00  0.00    -0.206 F 
ATOM     81  C   UNL A   1      36.412  31.431  32.233  1.00  0.00     0.006 A 
ENDBRANCH  53  74
BRANCH  65  82
ATOM     82  C   UNL A   1      44.845  33.329  29.114  1.00  0.00     0.057 A 
ATOM     83  C   UNL A   1      44.627  34.381  28.214  1.00  0.00     0.134 A 
ATOM     84  C   UNL A   1      45.610  33.608  30.255  1.00  0.00     0.134 A 
ATOM     85  F   UNL A   1      43.910  34.185  27.097  1.00  0.00    -0.206 F 
ATOM     86  C   UNL A   1      45.180  35.646  28.423  1.00  0.00     0.040 A 
ATOM     87  C   UNL A   1      46.134  34.878  30.494  1.00  0.00     0.040 A 
ATOM     88  F   UNL A   1      45.846  32.653  31.168  1.00  0.00    -0.206 F 
ATOM     89  C   UNL A   1      45.930  35.899  29.569  1.00  0.00     0.006 A 
ENDBRANCH  65  82
ENDBRANCH  39  40
ENDBRANCH  32  34
ENDBRANCH  31  32
ENDBRANCH  30  31
ENDBRANCH  29  30
ENDBRANCH  28  29
ENDBRANCH  27  28
ENDBRANCH   1  27
TORSDOF 21
ENDMDL
MODEL 3
REMARK VINA RESULT:     -11.6      3.360      8.744
REMARK SMILES O=C(OCCOCCOCCOCCOC(=O)c1ccc(-c2c3nc(c(-c4c(F)cccc4F)c4ccc([nH]4)c(-c4c(F)cccc4F)c4nc(c(-c5c(F)cccc5F)c5ccc2[nH]5)C=C4)C=C3)cc1)C1=Cc2c(Cl)cc(Cl)cc2O[C@@H]1C(F)(F)F
REMARK SMILES IDX 10 1 9 2 8 3 7 4 6 5 5 6 4 7 3 8 2 9 1 10 72 11 73 12 83 13
REMARK SMILES IDX 74 14 82 15 75 16 81 17 76 18 77 19 80 20 78 21 79 22 84 23
REMARK SMILES IDX 85 24 86 25 87 26 11 27 12 28 13 29 14 30 15 31 16 32 17 33
REMARK SMILES IDX 18 34 19 35 71 36 20 37 70 38 21 39 22 40 23 41 64 42 24 43
REMARK SMILES IDX 69 44 63 45 65 46 25 47 68 48 62 49 61 50 26 52 52 53 35 54
REMARK SMILES IDX 51 55 36 56 39 57 50 58 66 59 37 60 38 61 49 63 67 64 40 65
REMARK SMILES IDX 27 66 28 67 33 68 29 69 30 70 32 71 34 72 31 73 53 74 54 75
REMARK SMILES IDX 59 76 55 77 56 78 58 79 60 80 57 81 41 82 42 83 47 84 43 85
REMARK SMILES IDX 44 86 46 87 48 88 45 89
REMARK H PARENT 65 51 39 62
REMARK Flexibility Score: inf
ROOT
ATOM      1  C   UNL A   1      35.297  31.929  28.250  1.00  0.00     0.188 C 
ENDROOT
BRANCH   1   2
ATOM      2  O   UNL A   1      34.562  30.865  27.698  1.00  0.00    -0.377 OA
BRANCH   2   3
ATOM      3  C   UNL A   1      33.289  31.282  27.265  1.00  0.00     0.188 C 
BRANCH   3   4
ATOM      4  C   UNL A   1      32.438  30.218  26.549  1.00  0.00     0.188 C 
BRANCH   4   5
ATOM      5  O   UNL A   1      32.477  28.772  26.833  1.00  0.00    -0.376 OA
BRANCH   5   6
ATOM      6  C   UNL A   1      31.285  27.611  27.029  1.00  0.00     0.202 C 
BRANCH   6   7
ATOM      7  C   UNL A   1      30.241  26.554  25.431  1.00  0.00     0.261 C 
BRANCH   7   8
ATOM      8  O   UNL A   1      30.460  25.127  25.006  1.00  0.00    -0.460 OA
BRANCH   8   9
ATOM      9  C   UNL A   1      31.302  25.036  23.970  1.00  0.00     0.338 C 
ATOM     10  O   UNL A   1      31.156  24.403  22.953  1.00  0.00    -0.246 OA
BRANCH   9  11
ATOM     11  C   UNL A   1      32.515  25.459  24.663  1.00  0.00     0.087 C 
ATOM     12  C   UNL A   1      32.991  24.512  25.679  1.00  0.00     0.029 C 
ATOM     13  C   UNL A   1      33.421  25.823  23.012  1.00  0.00     0.316 C 
ATOM     14  C   UNL A   1      34.366  23.359  25.463  1.00  0.00     0.036 A 
ATOM     15  O   UNL A   1      34.817  24.505  22.666  1.00  0.00    -0.475 OA
ATOM     16  C   UNL A   1      34.700  22.448  26.436  1.00  0.00     0.053 A 
ATOM     17  C   UNL A   1      35.234  23.264  23.965  1.00  0.00     0.130 A 
ATOM     18  Cl  UNL A   1      33.895  22.346  27.945  1.00  0.00    -0.083 Cl
ATOM     19  C   UNL A   1      35.738  21.549  26.121  1.00  0.00     0.042 A 
ATOM     20  C   UNL A   1      36.221  22.341  23.731  1.00  0.00     0.067 A 
ATOM     21  C   UNL A   1      36.450  21.507  24.853  1.00  0.00     0.046 A 
ATOM     22  Cl  UNL A   1      37.699  20.306  24.727  1.00  0.00    -0.084 Cl
BRANCH  13  23
ATOM     23  C   UNL A   1      33.482  27.475  23.319  1.00  0.00     0.430 C 
ATOM     24  F   UNL A   1      34.195  27.902  24.377  1.00  0.00    -0.167 F 
ATOM     25  F   UNL A   1      34.117  28.042  22.246  1.00  0.00    -0.167 F 
ATOM     26  F   UNL A   1      32.280  28.101  23.362  1.00  0.00    -0.167 F 
ENDBRANCH  13  23
ENDBRANCH   9  11
ENDBRANCH   8   9
ENDBRANCH   7   8
ENDBRANCH   6   7
ENDBRANCH   5   6
ENDBRANCH   4   5
ENDBRANCH   3   4
ENDBRANCH   2   3
ENDBRANCH   1   2
BRANCH   1  27
ATOM     27  C   UNL A   1      34.499  32.979  29.034  1.00  0.00     0.188 C 
BRANCH  27  28
ATOM     28  O   UNL A   1      34.186  32.860  30.412  1.00  0.00    -0.376 OA
BRANCH  28  29
ATOM     29  C   UNL A   1      34.352  33.932  31.320  1.00  0.00     0.202 C 
BRANCH  29  30
ATOM     30  C   UNL A   1      34.829  33.711  32.761  1.00  0.00     0.261 C 
BRANCH  30  31
ATOM     31  O   UNL A   1      35.494  32.471  33.024  1.00  0.00    -0.460 OA
BRANCH  31  32
ATOM     32  C   UNL A   1      36.808  32.581  33.313  1.00  0.00     0.338 C 
ATOM     33  O   UNL A   1      37.307  33.140  34.274  1.00  0.00    -0.246 OA
BRANCH  32  34
ATOM     34  C   UNL A   1      37.589  31.747  32.374  1.00  0.00     0.060 A 
ATOM     35  C   UNL A   1      38.349  30.696  32.910  1.00  0.00     0.016 A 
ATOM     36  C   UNL A   1      37.594  31.993  31.000  1.00  0.00     0.016 A 
ATOM     37  C   UNL A   1      39.161  29.926  32.091  1.00  0.00     0.010 A 
ATOM     38  C   UNL A   1      38.451  31.254  30.181  1.00  0.00     0.010 A 
ATOM     39  C   UNL A   1      39.275  30.258  30.738  1.00  0.00    -0.014 A 
BRANCH  39  40
ATOM     40  C   UNL A   1      40.447  29.753  29.992  1.00  0.00     0.031 A 
ATOM     41  C   UNL A   1      41.603  30.693  29.784  1.00  0.00     0.074 A 
ATOM     42  C   UNL A   1      40.512  28.480  29.571  1.00  0.00     0.049 A 
ATOM     43  N   UNL A   1      42.718  30.508  29.127  1.00  0.00    -0.248 NA
ATOM     44  C   UNL A   1      41.482  32.026  30.400  1.00  0.00     0.031 C 
ATOM     45  C   UNL A   1      39.484  27.465  29.785  1.00  0.00     0.029 A 
ATOM     46  N   UNL A   1      41.493  27.831  28.869  1.00  0.00    -0.354 N 
ATOM     47  C   UNL A   1      43.420  31.703  29.235  1.00  0.00     0.074 A 
ATOM     48  C   UNL A   1      42.594  32.616  29.990  1.00  0.00     0.031 C 
ATOM     49  C   UNL A   1      39.883  26.318  29.207  1.00  0.00     0.029 A 
ATOM     50  C   UNL A   1      41.170  26.536  28.550  1.00  0.00     0.049 A 
ATOM     51  H   UNL A   1      42.347  28.253  28.618  1.00  0.00     0.167 HD
ATOM     52  C   UNL A   1      44.647  32.005  28.754  1.00  0.00     0.037 A 
ATOM     53  C   UNL A   1      41.830  25.645  27.787  1.00  0.00     0.037 A 
ATOM     54  C   UNL A   1      45.458  31.085  28.001  1.00  0.00     0.049 A 
ATOM     55  C   UNL A   1      43.153  26.037  27.180  1.00  0.00     0.074 A 
ATOM     56  C   UNL A   1      46.721  31.285  27.473  1.00  0.00     0.029 A 
ATOM     57  N   UNL A   1      45.078  29.796  27.658  1.00  0.00    -0.354 N 
ATOM     58  N   UNL A   1      43.817  27.162  27.293  1.00  0.00    -0.248 NA
ATOM     59  C   UNL A   1      43.820  25.031  26.343  1.00  0.00     0.031 C 
ATOM     60  C   UNL A   1      47.071  30.145  26.745  1.00  0.00     0.029 A 
ATOM     61  C   UNL A   1      46.067  29.201  26.893  1.00  0.00     0.049 A 
ATOM     62  H   UNL A   1      44.231  29.368  27.919  1.00  0.00     0.167 HD
ATOM     63  C   UNL A   1      44.995  26.986  26.575  1.00  0.00     0.074 A 
ATOM     64  C   UNL A   1      44.959  25.639  26.044  1.00  0.00     0.031 C 
ATOM     65  C   UNL A   1      46.018  27.855  26.377  1.00  0.00     0.037 A 
BRANCH  52  66
ATOM     66  C   UNL A   1      45.163  33.397  28.984  1.00  0.00     0.057 A 
ATOM     67  C   UNL A   1      44.914  34.447  28.090  1.00  0.00     0.134 A 
ATOM     68  C   UNL A   1      45.899  33.696  30.138  1.00  0.00     0.134 A 
ATOM     69  F   UNL A   1      44.227  34.229  26.958  1.00  0.00    -0.206 F 
ATOM     70  C   UNL A   1      45.402  35.735  28.321  1.00  0.00     0.040 A 
ATOM     71  C   UNL A   1      46.362  34.987  30.397  1.00  0.00     0.040 A 
ATOM     72  F   UNL A   1      46.173  32.741  31.039  1.00  0.00    -0.206 F 
ATOM     73  C   UNL A   1      46.121  36.009  29.484  1.00  0.00     0.006 A 
ENDBRANCH  52  66
BRANCH  53  74
ATOM     74  C   UNL A   1      41.242  24.305  27.530  1.00  0.00     0.057 A 
ATOM     75  C   UNL A   1      40.186  24.134  26.627  1.00  0.00     0.134 A 
ATOM     76  C   UNL A   1      41.701  23.166  28.204  1.00  0.00     0.134 A 
ATOM     77  F   UNL A   1      39.687  25.187  25.964  1.00  0.00    -0.206 F 
ATOM     78  C   UNL A   1      39.592  22.887  26.424  1.00  0.00     0.040 A 
ATOM     79  C   UNL A   1      41.139  21.909  27.986  1.00  0.00     0.040 A 
ATOM     80  F   UNL A   1      42.713  23.259  29.081  1.00  0.00    -0.206 F 
ATOM     81  C   UNL A   1      40.073  21.768  27.101  1.00  0.00     0.006 A 
ENDBRANCH  53  74
BRANCH  65  82
ATOM     82  C   UNL A   1      47.206  27.361  25.599  1.00  0.00     0.057 A 
ATOM     83  C   UNL A   1      47.346  27.580  24.223  1.00  0.00     0.134 A 
ATOM     84  C   UNL A   1      48.247  26.685  26.251  1.00  0.00     0.134 A 
ATOM     85  F   UNL A   1      46.385  28.215  23.533  1.00  0.00    -0.206 F 
ATOM     86  C   UNL A   1      48.456  27.112  23.518  1.00  0.00     0.040 A 
ATOM     87  C   UNL A   1      49.380  26.248  25.565  1.00  0.00     0.040 A 
ATOM     88  F   UNL A   1      48.189  26.455  27.573  1.00  0.00    -0.206 F 
ATOM     89  C   UNL A   1      49.480  26.450  24.191  1.00  0.00     0.006 A 
ENDBRANCH  65  82
ENDBRANCH  39  40
ENDBRANCH  32  34
ENDBRANCH  31  32
ENDBRANCH  30  31
ENDBRANCH  29  30
ENDBRANCH  28  29
ENDBRANCH  27  28
ENDBRANCH   1  27
TORSDOF 21
ENDMDL
