MODEL 1
REMARK VINA RESULT:      -9.3      0.000      0.000
REMARK SMILES CN1C(=O)C[C@H](C(=O)Nc2ccc(C(=O)OCCOCCOCCOCCOC(=O)c3ccc(-c4c5nc(c(-c6c(F)cccc6F)c6ccc([nH]6)c(-c6c(F)cccc6F)c6nc(c(-c7c(F)cccc7F)c7ccc4[nH]7)C=C6)C=C5)cc3)cc2)S/C1=[NH+]\c1cccc(C(F)(F)F)c1
REMARK SMILES IDX 21 1 20 2 19 3 18 4 17 5 16 6 14 7 15 8 13 9 10 10 11 11
REMARK SMILES IDX 86 12 12 13 85 14 9 15 7 16 8 17 6 19 1 20 2 21 3 22 88 23
REMARK SMILES IDX 4 24 5 25 87 26 89 27 90 29 91 30 99 31 92 32 94 33 93 34
REMARK SMILES IDX 95 35 96 36 97 37 98 38 22 39 23 40 24 41 25 42 26 43 27 44
REMARK SMILES IDX 28 45 29 46 30 47 31 48 32 49 84 50 33 51 83 52 34 53 35 54
REMARK SMILES IDX 36 55 77 56 37 57 82 58 76 59 78 60 38 61 81 62 75 63 74 64
REMARK SMILES IDX 39 66 65 67 48 68 64 69 49 70 52 71 63 72 79 73 50 74 51 75
REMARK SMILES IDX 62 77 80 78 53 79 40 80 41 81 46 82 42 83 43 84 45 85 47 86
REMARK SMILES IDX 44 87 66 88 67 89 72 90 68 91 69 92 71 93 73 94 70 95 54 96
REMARK SMILES IDX 55 97 60 98 56 99 57 100 59 101 61 102 58 103
REMARK H PARENT 9 18 89 28 78 65 52 76
REMARK Flexibility Score: inf
ROOT
ATOM      1  C   UNL A   1      32.153  27.029  26.901  1.00  0.00     0.188 C 
ENDROOT
BRANCH   1   2
ATOM      2  C   UNL A   1      31.532  25.713  26.387  1.00  0.00     0.188 C 
BRANCH   2   3
ATOM      3  O   UNL A   1      30.128  25.789  26.206  1.00  0.00    -0.376 OA
BRANCH   3   4
ATOM      4  C   UNL A   1      29.567  25.670  24.914  1.00  0.00     0.202 C 
BRANCH   4   5
ATOM      5  C   UNL A   1      28.603  26.736  24.371  1.00  0.00     0.261 C 
BRANCH   5   6
ATOM      6  O   UNL A   1      28.996  27.384  23.162  1.00  0.00    -0.460 OA
BRANCH   6   7
ATOM      7  C   UNL A   1      29.996  28.285  23.244  1.00  0.00     0.338 C 
ATOM      8  O   UNL A   1      29.930  29.414  23.696  1.00  0.00    -0.246 OA
BRANCH   7   9
ATOM      9  C   UNL A   1      31.256  27.599  22.874  1.00  0.00     0.060 A 
ATOM     10  C   UNL A   1      33.543  26.153  22.248  1.00  0.00     0.041 A 
ATOM     11  C   UNL A   1      32.375  25.926  21.521  1.00  0.00     0.027 A 
ATOM     12  C   UNL A   1      33.623  27.233  23.131  1.00  0.00     0.027 A 
ATOM     13  C   UNL A   1      31.221  26.633  21.857  1.00  0.00     0.018 A 
ATOM     14  C   UNL A   1      32.475  27.945  23.467  1.00  0.00     0.018 A 
BRANCH  10  15
ATOM     15  N   UNL A   1      34.549  25.179  22.195  1.00  0.00    -0.325 N 
ATOM     16  C   UNL A   1      34.649  24.088  23.038  1.00  0.00     0.238 C 
ATOM     17  O   UNL A   1      35.520  23.243  22.818  1.00  0.00    -0.273 OA
ATOM     18  H   UNL A   1      35.240  25.279  21.501  1.00  0.00     0.169 HD
BRANCH  16  19
ATOM     19  C   UNL A   1      33.629  23.907  24.169  1.00  0.00     0.160 C 
ATOM     20  C   UNL A   1      32.927  19.576  24.025  1.00  0.00     0.301 C 
ATOM     21  N   UNL A   1      33.180  21.001  24.147  1.00  0.00    -0.194 N 
ATOM     22  C   UNL A   1      32.223  21.825  23.563  1.00  0.00     0.311 C 
ATOM     23  C   UNL A   1      34.380  21.403  24.721  1.00  0.00     0.319 C 
ATOM     24  O   UNL A   1      31.260  21.370  22.936  1.00  0.00    -0.247 OA
ATOM     25  C   UNL A   1      32.317  23.321  23.718  1.00  0.00     0.153 C 
ATOM     26  S   UNL A   1      34.331  22.953  25.509  1.00  0.00    -0.024 SA
ATOM     27  N   UNL A   1      35.406  20.611  24.695  1.00  0.00    -0.235 N 
ATOM     28  H   UNL A   1      35.286  19.693  24.360  1.00  0.00     0.313 HD
BRANCH  27  29
ATOM     29  C   UNL A   1      36.677  21.013  25.124  1.00  0.00     0.126 A 
ATOM     30  C   UNL A   1      37.724  20.090  25.044  1.00  0.00     0.052 A 
ATOM     31  C   UNL A   1      36.925  22.271  25.677  1.00  0.00     0.064 A 
ATOM     32  C   UNL A   1      39.008  20.423  25.480  1.00  0.00     0.005 A 
ATOM     33  C   UNL A   1      38.219  22.638  26.081  1.00  0.00     0.060 A 
ATOM     34  C   UNL A   1      39.256  21.696  25.989  1.00  0.00     0.013 A 
BRANCH  33  35
ATOM     35  C   UNL A   1      38.501  24.023  26.604  1.00  0.00     0.416 C 
ATOM     36  F   UNL A   1      39.508  24.641  25.929  1.00  0.00    -0.166 F 
ATOM     37  F   UNL A   1      37.420  24.846  26.500  1.00  0.00    -0.166 F 
ATOM     38  F   UNL A   1      38.859  24.047  27.918  1.00  0.00    -0.166 F 
ENDBRANCH  33  35
ENDBRANCH  27  29
ENDBRANCH  16  19
ENDBRANCH  10  15
ENDBRANCH   7   9
ENDBRANCH   6   7
ENDBRANCH   5   6
ENDBRANCH   4   5
ENDBRANCH   3   4
ENDBRANCH   2   3
ENDBRANCH   1   2
BRANCH   1  39
ATOM     39  O   UNL A   1      31.424  28.218  26.639  1.00  0.00    -0.377 OA
BRANCH  39  40
ATOM     40  C   UNL A   1      31.975  29.477  27.027  1.00  0.00     0.188 C 
BRANCH  40  41
ATOM     41  C   UNL A   1      31.624  30.812  26.317  1.00  0.00     0.188 C 
BRANCH  41  42
ATOM     42  O   UNL A   1      32.117  31.978  26.954  1.00  0.00    -0.376 OA
BRANCH  42  43
ATOM     43  C   UNL A   1      33.352  31.902  27.638  1.00  0.00     0.202 C 
BRANCH  43  44
ATOM     44  C   UNL A   1      33.868  33.196  28.281  1.00  0.00     0.261 C 
BRANCH  44  45
ATOM     45  O   UNL A   1      35.139  33.107  28.940  1.00  0.00    -0.460 OA
BRANCH  45  46
ATOM     46  C   UNL A   1      35.165  32.511  30.149  1.00  0.00     0.338 C 
ATOM     47  O   UNL A   1      34.310  32.559  31.019  1.00  0.00    -0.246 OA
BRANCH  46  48
ATOM     48  C   UNL A   1      36.348  31.627  30.181  1.00  0.00     0.060 A 
ATOM     49  C   UNL A   1      36.293  30.429  30.906  1.00  0.00     0.016 A 
ATOM     50  C   UNL A   1      37.503  31.986  29.485  1.00  0.00     0.016 A 
ATOM     51  C   UNL A   1      37.416  29.602  30.969  1.00  0.00     0.010 A 
ATOM     52  C   UNL A   1      38.632  31.170  29.567  1.00  0.00     0.010 A 
ATOM     53  C   UNL A   1      38.604  29.995  30.341  1.00  0.00    -0.014 A 
BRANCH  53  54
ATOM     54  C   UNL A   1      39.880  29.321  30.675  1.00  0.00     0.031 A 
ATOM     55  C   UNL A   1      40.646  29.822  31.870  1.00  0.00     0.074 A 
ATOM     56  C   UNL A   1      40.358  28.301  29.942  1.00  0.00     0.049 A 
ATOM     57  N   UNL A   1      41.831  29.481  32.303  1.00  0.00    -0.248 NA
ATOM     58  C   UNL A   1      39.981  30.856  32.681  1.00  0.00     0.031 C 
ATOM     59  C   UNL A   1      39.687  27.695  28.794  1.00  0.00     0.029 A 
ATOM     60  N   UNL A   1      41.537  27.606  30.051  1.00  0.00    -0.354 N 
ATOM     61  C   UNL A   1      42.059  30.269  33.425  1.00  0.00     0.074 A 
ATOM     62  C   UNL A   1      40.905  31.124  33.589  1.00  0.00     0.031 C 
ATOM     63  C   UNL A   1      40.476  26.731  28.289  1.00  0.00     0.029 A 
ATOM     64  C   UNL A   1      41.723  26.680  29.054  1.00  0.00     0.049 A 
ATOM     65  H   UNL A   1      42.186  27.758  30.775  1.00  0.00     0.167 HD
ATOM     66  C   UNL A   1      43.134  30.275  34.247  1.00  0.00     0.037 A 
ATOM     67  C   UNL A   1      42.792  25.907  28.776  1.00  0.00     0.037 A 
ATOM     68  C   UNL A   1      44.282  29.424  34.077  1.00  0.00     0.049 A 
ATOM     69  C   UNL A   1      44.013  25.991  29.659  1.00  0.00     0.074 A 
ATOM     70  C   UNL A   1      45.418  29.345  34.862  1.00  0.00     0.029 A 
ATOM     71  N   UNL A   1      44.440  28.512  33.045  1.00  0.00    -0.354 N 
ATOM     72  N   UNL A   1      44.216  26.725  30.727  1.00  0.00    -0.248 NA
ATOM     73  C   UNL A   1      45.155  25.137  29.296  1.00  0.00     0.031 C 
ATOM     74  C   UNL A   1      46.290  28.427  34.270  1.00  0.00     0.029 A 
ATOM     75  C   UNL A   1      45.667  27.882  33.159  1.00  0.00     0.049 A 
ATOM     76  H   UNL A   1      43.778  28.339  32.337  1.00  0.00     0.167 HD
ATOM     77  C   UNL A   1      45.485  26.389  31.186  1.00  0.00     0.074 A 
ATOM     78  C   UNL A   1      46.005  25.384  30.284  1.00  0.00     0.031 C 
ATOM     79  C   UNL A   1      46.158  26.864  32.264  1.00  0.00     0.037 A 
BRANCH  66  80
ATOM     80  C   UNL A   1      43.132  31.254  35.383  1.00  0.00     0.057 A 
ATOM     81  C   UNL A   1      43.659  32.546  35.255  1.00  0.00     0.134 A 
ATOM     82  C   UNL A   1      42.566  30.909  36.618  1.00  0.00     0.134 A 
ATOM     83  F   UNL A   1      44.231  32.936  34.105  1.00  0.00    -0.206 F 
ATOM     84  C   UNL A   1      43.646  33.449  36.319  1.00  0.00     0.040 A 
ATOM     85  C   UNL A   1      42.519  31.813  37.679  1.00  0.00     0.040 A 
ATOM     86  F   UNL A   1      42.041  29.688  36.809  1.00  0.00    -0.206 F 
ATOM     87  C   UNL A   1      43.066  33.086  37.533  1.00  0.00     0.006 A 
ENDBRANCH  66  80
BRANCH  67  88
ATOM     88  C   UNL A   1      42.775  24.999  27.600  1.00  0.00     0.057 A 
ATOM     89  C   UNL A   1      43.133  25.455  26.326  1.00  0.00     0.134 A 
ATOM     90  C   UNL A   1      42.365  23.665  27.712  1.00  0.00     0.134 A 
ATOM     91  F   UNL A   1      43.511  26.729  26.146  1.00  0.00    -0.206 F 
ATOM     92  C   UNL A   1      43.060  24.627  25.203  1.00  0.00     0.040 A 
ATOM     93  C   UNL A   1      42.315  22.818  26.605  1.00  0.00     0.040 A 
ATOM     94  F   UNL A   1      42.008  23.164  28.905  1.00  0.00    -0.206 F 
ATOM     95  C   UNL A   1      42.654  23.301  25.343  1.00  0.00     0.006 A 
ENDBRANCH  67  88
BRANCH  79  96
ATOM     96  C   UNL A   1      47.498  26.260  32.575  1.00  0.00     0.057 A 
ATOM     97  C   UNL A   1      47.639  25.136  33.397  1.00  0.00     0.134 A 
ATOM     98  C   UNL A   1      48.659  26.779  31.984  1.00  0.00     0.134 A 
ATOM     99  F   UNL A   1      46.570  24.595  34.001  1.00  0.00    -0.206 F 
ATOM    100  C   UNL A   1      48.889  24.561  33.636  1.00  0.00     0.040 A 
ATOM    101  C   UNL A   1      49.909  26.194  32.191  1.00  0.00     0.040 A 
ATOM    102  F   UNL A   1      48.594  27.847  31.176  1.00  0.00    -0.206 F 
ATOM    103  C   UNL A   1      50.027  25.083  33.023  1.00  0.00     0.006 A 
ENDBRANCH  79  96
ENDBRANCH  53  54
ENDBRANCH  46  48
ENDBRANCH  45  46
ENDBRANCH  44  45
ENDBRANCH  43  44
ENDBRANCH  42  43
ENDBRANCH  41  42
ENDBRANCH  40  41
ENDBRANCH  39  40
ENDBRANCH   1  39
TORSDOF 24
ENDMDL
MODEL 2
REMARK VINA RESULT:      -9.3      5.090      9.276
REMARK SMILES CN1C(=O)C[C@H](C(=O)Nc2ccc(C(=O)OCCOCCOCCOCCOC(=O)c3ccc(-c4c5nc(c(-c6c(F)cccc6F)c6ccc([nH]6)c(-c6c(F)cccc6F)c6nc(c(-c7c(F)cccc7F)c7ccc4[nH]7)C=C6)C=C5)cc3)cc2)S/C1=[NH+]\c1cccc(C(F)(F)F)c1
REMARK SMILES IDX 21 1 20 2 19 3 18 4 17 5 16 6 14 7 15 8 13 9 10 10 11 11
REMARK SMILES IDX 86 12 12 13 85 14 9 15 7 16 8 17 6 19 1 20 2 21 3 22 88 23
REMARK SMILES IDX 4 24 5 25 87 26 89 27 90 29 91 30 99 31 92 32 94 33 93 34
REMARK SMILES IDX 95 35 96 36 97 37 98 38 22 39 23 40 24 41 25 42 26 43 27 44
REMARK SMILES IDX 28 45 29 46 30 47 31 48 32 49 84 50 33 51 83 52 34 53 35 54
REMARK SMILES IDX 36 55 77 56 37 57 82 58 76 59 78 60 38 61 81 62 75 63 74 64
REMARK SMILES IDX 39 66 65 67 48 68 64 69 49 70 52 71 63 72 79 73 50 74 51 75
REMARK SMILES IDX 62 77 80 78 53 79 40 80 41 81 46 82 42 83 43 84 45 85 47 86
REMARK SMILES IDX 44 87 66 88 67 89 72 90 68 91 69 92 71 93 73 94 70 95 54 96
REMARK SMILES IDX 55 97 60 98 56 99 57 100 59 101 61 102 58 103
REMARK H PARENT 9 18 89 28 78 65 52 76
REMARK Flexibility Score: inf
ROOT
ATOM      1  C   UNL A   1      44.665  26.504  28.710  1.00  0.00     0.188 C 
ENDROOT
BRANCH   1   2
ATOM      2  C   UNL A   1      44.112  25.542  29.782  1.00  0.00     0.188 C 
BRANCH   2   3
ATOM      3  O   UNL A   1      44.776  24.290  29.810  1.00  0.00    -0.376 OA
BRANCH   3   4
ATOM      4  C   UNL A   1      44.223  23.173  29.141  1.00  0.00     0.202 C 
BRANCH   4   5
ATOM      5  C   UNL A   1      42.703  22.956  29.093  1.00  0.00     0.261 C 
BRANCH   5   6
ATOM      6  O   UNL A   1      42.116  22.905  27.793  1.00  0.00    -0.460 OA
BRANCH   6   7
ATOM      7  C   UNL A   1      41.763  21.691  27.325  1.00  0.00     0.338 C 
ATOM      8  O   UNL A   1      42.341  20.636  27.515  1.00  0.00    -0.246 OA
BRANCH   7   9
ATOM      9  C   UNL A   1      40.426  21.817  26.699  1.00  0.00     0.060 A 
ATOM     10  C   UNL A   1      38.001  22.010  25.359  1.00  0.00     0.041 A 
ATOM     11  C   UNL A   1      38.591  20.757  25.519  1.00  0.00     0.027 A 
ATOM     12  C   UNL A   1      38.509  23.119  26.040  1.00  0.00     0.027 A 
ATOM     13  C   UNL A   1      39.823  20.667  26.167  1.00  0.00     0.018 A 
ATOM     14  C   UNL A   1      39.736  23.034  26.692  1.00  0.00     0.018 A 
BRANCH  10  15
ATOM     15  N   UNL A   1      37.013  22.149  24.376  1.00  0.00    -0.325 N 
ATOM     16  C   UNL A   1      35.663  22.325  24.619  1.00  0.00     0.238 C 
ATOM     17  O   UNL A   1      34.909  22.546  23.669  1.00  0.00    -0.273 OA
ATOM     18  H   UNL A   1      37.302  22.120  23.435  1.00  0.00     0.169 HD
BRANCH  16  19
ATOM     19  C   UNL A   1      35.147  22.328  26.064  1.00  0.00     0.160 C 
ATOM     20  C   UNL A   1      30.961  23.518  25.492  1.00  0.00     0.301 C 
ATOM     21  N   UNL A   1      32.321  23.060  25.717  1.00  0.00    -0.194 N 
ATOM     22  C   UNL A   1      33.211  24.038  26.147  1.00  0.00     0.311 C 
ATOM     23  C   UNL A   1      32.631  21.747  25.382  1.00  0.00     0.319 C 
ATOM     24  O   UNL A   1      32.877  25.222  26.271  1.00  0.00    -0.247 OA
ATOM     25  C   UNL A   1      34.623  23.665  26.520  1.00  0.00     0.153 C 
ATOM     26  S   UNL A   1      33.927  21.044  26.305  1.00  0.00    -0.024 SA
ATOM     27  N   UNL A   1      31.928  21.126  24.488  1.00  0.00    -0.235 N 
ATOM     28  H   UNL A   1      31.119  21.562  24.135  1.00  0.00     0.313 HD
BRANCH  27  29
ATOM     29  C   UNL A   1      32.278  19.859  24.004  1.00  0.00     0.126 A 
ATOM     30  C   UNL A   1      32.244  19.645  22.623  1.00  0.00     0.052 A 
ATOM     31  C   UNL A   1      32.602  18.793  24.846  1.00  0.00     0.064 A 
ATOM     32  C   UNL A   1      32.558  18.397  22.082  1.00  0.00     0.005 A 
ATOM     33  C   UNL A   1      32.962  17.542  24.317  1.00  0.00     0.060 A 
ATOM     34  C   UNL A   1      32.923  17.351  22.927  1.00  0.00     0.013 A 
BRANCH  33  35
ATOM     35  C   UNL A   1      33.388  16.415  25.222  1.00  0.00     0.416 C 
ATOM     36  F   UNL A   1      32.832  16.501  26.461  1.00  0.00    -0.166 F 
ATOM     37  F   UNL A   1      33.027  15.194  24.734  1.00  0.00    -0.166 F 
ATOM     38  F   UNL A   1      34.734  16.351  25.418  1.00  0.00    -0.166 F 
ENDBRANCH  33  35
ENDBRANCH  27  29
ENDBRANCH  16  19
ENDBRANCH  10  15
ENDBRANCH   7   9
ENDBRANCH   6   7
ENDBRANCH   5   6
ENDBRANCH   4   5
ENDBRANCH   3   4
ENDBRANCH   2   3
ENDBRANCH   1   2
BRANCH   1  39
ATOM     39  O   UNL A   1      44.552  26.081  27.360  1.00  0.00    -0.377 OA
BRANCH  39  40
ATOM     40  C   UNL A   1      44.561  27.057  26.318  1.00  0.00     0.188 C 
BRANCH  40  41
ATOM     41  C   UNL A   1      43.796  26.875  24.979  1.00  0.00     0.188 C 
BRANCH  41  42
ATOM     42  O   UNL A   1      42.806  27.854  24.715  1.00  0.00    -0.376 OA
BRANCH  42  43
ATOM     43  C   UNL A   1      41.735  27.992  25.628  1.00  0.00     0.202 C 
BRANCH  43  44
ATOM     44  C   UNL A   1      41.107  26.698  26.158  1.00  0.00     0.261 C 
BRANCH  44  45
ATOM     45  O   UNL A   1      39.845  26.839  26.827  1.00  0.00    -0.460 OA
BRANCH  45  46
ATOM     46  C   UNL A   1      39.794  26.485  28.127  1.00  0.00     0.338 C 
ATOM     47  O   UNL A   1      39.638  25.364  28.585  1.00  0.00    -0.246 OA
BRANCH  46  48
ATOM     48  C   UNL A   1      40.140  27.678  28.924  1.00  0.00     0.060 A 
ATOM     49  C   UNL A   1      39.460  28.882  28.693  1.00  0.00     0.016 A 
ATOM     50  C   UNL A   1      41.131  27.596  29.904  1.00  0.00     0.016 A 
ATOM     51  C   UNL A   1      39.802  30.024  29.420  1.00  0.00     0.010 A 
ATOM     52  C   UNL A   1      41.487  28.744  30.614  1.00  0.00     0.010 A 
ATOM     53  C   UNL A   1      40.851  29.970  30.346  1.00  0.00    -0.014 A 
BRANCH  53  54
ATOM     54  C   UNL A   1      41.449  31.222  30.866  1.00  0.00     0.031 A 
ATOM     55  C   UNL A   1      40.922  31.763  32.168  1.00  0.00     0.074 A 
ATOM     56  C   UNL A   1      42.424  31.871  30.206  1.00  0.00     0.049 A 
ATOM     57  N   UNL A   1      41.195  32.888  32.775  1.00  0.00    -0.248 NA
ATOM     58  C   UNL A   1      39.946  30.916  32.875  1.00  0.00     0.031 C 
ATOM     59  C   UNL A   1      43.050  31.424  28.965  1.00  0.00     0.029 A 
ATOM     60  N   UNL A   1      43.044  33.062  30.489  1.00  0.00    -0.354 N 
ATOM     61  C   UNL A   1      40.414  32.891  33.924  1.00  0.00     0.074 A 
ATOM     62  C   UNL A   1      39.637  31.672  33.917  1.00  0.00     0.031 C 
ATOM     63  C   UNL A   1      43.953  32.342  28.579  1.00  0.00     0.029 A 
ATOM     64  C   UNL A   1      43.939  33.458  29.525  1.00  0.00     0.049 A 
ATOM     65  H   UNL A   1      42.864  33.583  31.305  1.00  0.00     0.167 HD
ATOM     66  C   UNL A   1      40.354  33.826  34.901  1.00  0.00     0.037 A 
ATOM     67  C   UNL A   1      44.637  34.605  29.408  1.00  0.00     0.037 A 
ATOM     68  C   UNL A   1      41.127  35.039  34.902  1.00  0.00     0.049 A 
ATOM     69  C   UNL A   1      44.491  35.670  30.467  1.00  0.00     0.074 A 
ATOM     70  C   UNL A   1      41.149  36.045  35.850  1.00  0.00     0.029 A 
ATOM     71  N   UNL A   1      42.009  35.411  33.898  1.00  0.00    -0.354 N 
ATOM     72  N   UNL A   1      43.765  35.660  31.560  1.00  0.00    -0.248 NA
ATOM     73  C   UNL A   1      45.265  36.907  30.277  1.00  0.00     0.031 C 
ATOM     74  C   UNL A   1      41.999  37.055  35.392  1.00  0.00     0.029 A 
ATOM     75  C   UNL A   1      42.562  36.645  34.194  1.00  0.00     0.049 A 
ATOM     76  H   UNL A   1      42.212  34.878  33.096  1.00  0.00     0.167 HD
ATOM     77  C   UNL A   1      44.029  36.864  32.205  1.00  0.00     0.074 A 
ATOM     78  C   UNL A   1      44.982  37.579  31.385  1.00  0.00     0.031 C 
ATOM     79  C   UNL A   1      43.531  37.332  33.376  1.00  0.00     0.037 A 
BRANCH  66  80
ATOM     80  C   UNL A   1      39.397  33.586  36.031  1.00  0.00     0.057 A 
ATOM     81  C   UNL A   1      39.818  33.090  37.271  1.00  0.00     0.134 A 
ATOM     82  C   UNL A   1      38.035  33.884  35.884  1.00  0.00     0.134 A 
ATOM     83  F   UNL A   1      41.105  32.768  37.475  1.00  0.00    -0.206 F 
ATOM     84  C   UNL A   1      38.917  32.876  38.317  1.00  0.00     0.040 A 
ATOM     85  C   UNL A   1      37.131  33.704  36.930  1.00  0.00     0.040 A 
ATOM     86  F   UNL A   1      37.565  34.364  34.723  1.00  0.00    -0.206 F 
ATOM     87  C   UNL A   1      37.570  33.193  38.149  1.00  0.00     0.006 A 
ENDBRANCH  66  80
BRANCH  67  88
ATOM     88  C   UNL A   1      45.523  34.827  28.236  1.00  0.00     0.057 A 
ATOM     89  C   UNL A   1      45.019  35.319  27.026  1.00  0.00     0.134 A 
ATOM     90  C   UNL A   1      46.888  34.516  28.282  1.00  0.00     0.134 A 
ATOM     91  F   UNL A   1      43.715  35.613  26.909  1.00  0.00    -0.206 F 
ATOM     92  C   UNL A   1      45.830  35.471  25.900  1.00  0.00     0.040 A 
ATOM     93  C   UNL A   1      47.718  34.691  27.174  1.00  0.00     0.040 A 
ATOM     94  F   UNL A   1      47.436  34.040  29.410  1.00  0.00    -0.206 F 
ATOM     95  C   UNL A   1      47.187  35.161  25.975  1.00  0.00     0.006 A 
ENDBRANCH  67  88
BRANCH  79  96
ATOM     96  C   UNL A   1      44.055  38.646  33.884  1.00  0.00     0.057 A 
ATOM     97  C   UNL A   1      43.600  39.874  33.391  1.00  0.00     0.134 A 
ATOM     98  C   UNL A   1      44.984  38.675  34.934  1.00  0.00     0.134 A 
ATOM     99  F   UNL A   1      42.718  39.918  32.381  1.00  0.00    -0.206 F 
ATOM    100  C   UNL A   1      44.065  41.084  33.909  1.00  0.00     0.040 A 
ATOM    101  C   UNL A   1      45.432  39.878  35.481  1.00  0.00     0.040 A 
ATOM    102  F   UNL A   1      45.452  37.534  35.462  1.00  0.00    -0.206 F 
ATOM    103  C   UNL A   1      44.976  41.089  34.965  1.00  0.00     0.006 A 
ENDBRANCH  79  96
ENDBRANCH  53  54
ENDBRANCH  46  48
ENDBRANCH  45  46
ENDBRANCH  44  45
ENDBRANCH  43  44
ENDBRANCH  42  43
ENDBRANCH  41  42
ENDBRANCH  40  41
ENDBRANCH  39  40
ENDBRANCH   1  39
TORSDOF 24
ENDMDL
MODEL 3
REMARK VINA RESULT:      -9.2      5.175      8.808
REMARK SMILES CN1C(=O)C[C@H](C(=O)Nc2ccc(C(=O)OCCOCCOCCOCCOC(=O)c3ccc(-c4c5nc(c(-c6c(F)cccc6F)c6ccc([nH]6)c(-c6c(F)cccc6F)c6nc(c(-c7c(F)cccc7F)c7ccc4[nH]7)C=C6)C=C5)cc3)cc2)S/C1=[NH+]\c1cccc(C(F)(F)F)c1
REMARK SMILES IDX 21 1 20 2 19 3 18 4 17 5 16 6 14 7 15 8 13 9 10 10 11 11
REMARK SMILES IDX 86 12 12 13 85 14 9 15 7 16 8 17 6 19 1 20 2 21 3 22 88 23
REMARK SMILES IDX 4 24 5 25 87 26 89 27 90 29 91 30 99 31 92 32 94 33 93 34
REMARK SMILES IDX 95 35 96 36 97 37 98 38 22 39 23 40 24 41 25 42 26 43 27 44
REMARK SMILES IDX 28 45 29 46 30 47 31 48 32 49 84 50 33 51 83 52 34 53 35 54
REMARK SMILES IDX 36 55 77 56 37 57 82 58 76 59 78 60 38 61 81 62 75 63 74 64
REMARK SMILES IDX 39 66 65 67 48 68 64 69 49 70 52 71 63 72 79 73 50 74 51 75
REMARK SMILES IDX 62 77 80 78 53 79 40 80 41 81 46 82 42 83 43 84 45 85 47 86
REMARK SMILES IDX 44 87 66 88 67 89 72 90 68 91 69 92 71 93 73 94 70 95 54 96
REMARK SMILES IDX 55 97 60 98 56 99 57 100 59 101 61 102 58 103
REMARK H PARENT 9 18 89 28 78 65 52 76
REMARK Flexibility Score: inf
ROOT
ATOM      1  C   UNL A   1      34.318  34.108  31.877  1.00  0.00     0.188 C 
ENDROOT
BRANCH   1   2
ATOM      2  C   UNL A   1      34.347  34.476  30.379  1.00  0.00     0.188 C 
BRANCH   2   3
ATOM      3  O   UNL A   1      33.710  33.514  29.554  1.00  0.00    -0.376 OA
BRANCH   3   4
ATOM      4  C   UNL A   1      34.438  32.411  29.051  1.00  0.00     0.202 C 
BRANCH   4   5
ATOM      5  C   UNL A   1      34.155  31.852  27.648  1.00  0.00     0.261 C 
BRANCH   5   6
ATOM      6  O   UNL A   1      33.413  30.634  27.593  1.00  0.00    -0.460 OA
BRANCH   6   7
ATOM      7  C   UNL A   1      32.430  30.554  26.675  1.00  0.00     0.338 C 
ATOM      8  O   UNL A   1      31.540  31.364  26.480  1.00  0.00    -0.246 OA
BRANCH   7   9
ATOM      9  C   UNL A   1      32.726  29.402  25.791  1.00  0.00     0.060 A 
ATOM     10  C   UNL A   1      33.145  27.147  24.226  1.00  0.00     0.041 A 
ATOM     11  C   UNL A   1      31.970  27.878  24.063  1.00  0.00     0.027 A 
ATOM     12  C   UNL A   1      34.187  27.653  25.008  1.00  0.00     0.027 A 
ATOM     13  C   UNL A   1      31.750  28.994  24.871  1.00  0.00     0.018 A 
ATOM     14  C   UNL A   1      33.973  28.769  25.813  1.00  0.00     0.018 A 
BRANCH  10  15
ATOM     15  N   UNL A   1      33.177  25.836  23.733  1.00  0.00    -0.325 N 
ATOM     16  C   UNL A   1      33.091  24.691  24.503  1.00  0.00     0.238 C 
ATOM     17  O   UNL A   1      33.020  23.597  23.938  1.00  0.00    -0.273 OA
ATOM     18  H   UNL A   1      33.265  25.720  22.759  1.00  0.00     0.169 HD
BRANCH  16  19
ATOM     19  C   UNL A   1      33.001  24.808  26.030  1.00  0.00     0.160 C 
ATOM     20  C   UNL A   1      29.373  22.486  26.871  1.00  0.00     0.301 C 
ATOM     21  N   UNL A   1      30.612  23.207  26.641  1.00  0.00    -0.194 N 
ATOM     22  C   UNL A   1      30.499  24.594  26.636  1.00  0.00     0.311 C 
ATOM     23  C   UNL A   1      31.750  22.468  26.340  1.00  0.00     0.319 C 
ATOM     24  O   UNL A   1      29.409  25.163  26.760  1.00  0.00    -0.247 OA
ATOM     25  C   UNL A   1      31.730  25.453  26.517  1.00  0.00     0.153 C 
ATOM     26  S   UNL A   1      33.251  23.216  26.804  1.00  0.00    -0.024 SA
ATOM     27  N   UNL A   1      31.635  21.290  25.813  1.00  0.00    -0.235 N 
ATOM     28  H   UNL A   1      30.738  20.894  25.732  1.00  0.00     0.313 HD
BRANCH  27  29
ATOM     29  C   UNL A   1      32.739  20.559  25.356  1.00  0.00     0.126 A 
ATOM     30  C   UNL A   1      32.516  19.284  24.829  1.00  0.00     0.052 A 
ATOM     31  C   UNL A   1      34.050  21.029  25.457  1.00  0.00     0.064 A 
ATOM     32  C   UNL A   1      33.578  18.498  24.380  1.00  0.00     0.005 A 
ATOM     33  C   UNL A   1      35.127  20.270  24.971  1.00  0.00     0.060 A 
ATOM     34  C   UNL A   1      34.879  18.993  24.443  1.00  0.00     0.013 A 
BRANCH  33  35
ATOM     35  C   UNL A   1      36.533  20.811  25.009  1.00  0.00     0.416 C 
ATOM     36  F   UNL A   1      37.468  19.828  25.115  1.00  0.00    -0.166 F 
ATOM     37  F   UNL A   1      36.849  21.509  23.882  1.00  0.00    -0.166 F 
ATOM     38  F   UNL A   1      36.762  21.663  26.047  1.00  0.00    -0.166 F 
ENDBRANCH  33  35
ENDBRANCH  27  29
ENDBRANCH  16  19
ENDBRANCH  10  15
ENDBRANCH   7   9
ENDBRANCH   6   7
ENDBRANCH   5   6
ENDBRANCH   4   5
ENDBRANCH   3   4
ENDBRANCH   2   3
ENDBRANCH   1   2
BRANCH   1  39
ATOM     39  O   UNL A   1      35.575  33.973  32.521  1.00  0.00    -0.377 OA
BRANCH  39  40
ATOM     40  C   UNL A   1      35.860  32.783  33.257  1.00  0.00     0.188 C 
BRANCH  40  41
ATOM     41  C   UNL A   1      36.363  31.474  32.591  1.00  0.00     0.188 C 
BRANCH  41  42
ATOM     42  O   UNL A   1      37.500  30.888  33.201  1.00  0.00    -0.376 OA
BRANCH  42  43
ATOM     43  C   UNL A   1      37.827  29.552  32.873  1.00  0.00     0.202 C 
BRANCH  43  44
ATOM     44  C   UNL A   1      37.349  29.037  31.510  1.00  0.00     0.261 C 
BRANCH  44  45
ATOM     45  O   UNL A   1      38.331  29.018  30.465  1.00  0.00    -0.460 OA
BRANCH  45  46
ATOM     46  C   UNL A   1      38.184  29.910  29.464  1.00  0.00     0.338 C 
ATOM     47  O   UNL A   1      37.359  29.886  28.564  1.00  0.00    -0.246 OA
BRANCH  46  48
ATOM     48  C   UNL A   1      39.093  31.040  29.741  1.00  0.00     0.060 A 
ATOM     49  C   UNL A   1      40.458  30.793  29.939  1.00  0.00     0.016 A 
ATOM     50  C   UNL A   1      38.589  32.341  29.794  1.00  0.00     0.016 A 
ATOM     51  C   UNL A   1      41.320  31.851  30.234  1.00  0.00     0.010 A 
ATOM     52  C   UNL A   1      39.448  33.394  30.110  1.00  0.00     0.010 A 
ATOM     53  C   UNL A   1      40.808  33.147  30.369  1.00  0.00    -0.014 A 
BRANCH  53  54
ATOM     54  C   UNL A   1      41.625  34.206  31.008  1.00  0.00     0.031 A 
ATOM     55  C   UNL A   1      41.583  34.315  32.508  1.00  0.00     0.074 A 
ATOM     56  C   UNL A   1      42.377  35.055  30.286  1.00  0.00     0.049 A 
ATOM     57  N   UNL A   1      42.112  35.217  33.293  1.00  0.00    -0.248 NA
ATOM     58  C   UNL A   1      40.833  33.263  33.215  1.00  0.00     0.031 C 
ATOM     59  C   UNL A   1      42.538  35.020  28.834  1.00  0.00     0.029 A 
ATOM     60  N   UNL A   1      43.133  36.128  30.685  1.00  0.00    -0.354 N 
ATOM     61  C   UNL A   1      41.745  34.850  34.582  1.00  0.00     0.074 A 
ATOM     62  C   UNL A   1      40.927  33.663  34.473  1.00  0.00     0.031 C 
ATOM     63  C   UNL A   1      43.329  36.042  28.461  1.00  0.00     0.029 A 
ATOM     64  C   UNL A   1      43.695  36.824  29.642  1.00  0.00     0.049 A 
ATOM     65  H   UNL A   1      43.262  36.375  31.630  1.00  0.00     0.167 HD
ATOM     66  C   UNL A   1      42.067  35.447  35.753  1.00  0.00     0.037 A 
ATOM     67  C   UNL A   1      44.394  37.976  29.645  1.00  0.00     0.037 A 
ATOM     68  C   UNL A   1      42.879  36.630  35.856  1.00  0.00     0.049 A 
ATOM     69  C   UNL A   1      44.669  38.670  30.956  1.00  0.00     0.074 A 
ATOM     70  C   UNL A   1      43.272  37.308  36.996  1.00  0.00     0.029 A 
ATOM     71  N   UNL A   1      43.414  37.315  34.775  1.00  0.00    -0.354 N 
ATOM     72  N   UNL A   1      44.335  38.310  32.172  1.00  0.00    -0.248 NA
ATOM     73  C   UNL A   1      45.422  39.933  30.894  1.00  0.00     0.031 C 
ATOM     74  C   UNL A   1      43.996  38.436  36.601  1.00  0.00     0.029 A 
ATOM     75  C   UNL A   1      44.114  38.422  35.221  1.00  0.00     0.049 A 
ATOM     76  H   UNL A   1      43.310  37.052  33.832  1.00  0.00     0.167 HD
ATOM     77  C   UNL A   1      44.873  39.274  33.018  1.00  0.00     0.074 A 
ATOM     78  C   UNL A   1      45.557  40.234  32.179  1.00  0.00     0.031 C 
ATOM     79  C   UNL A   1      44.811  39.354  34.371  1.00  0.00     0.037 A 
BRANCH  66  80
ATOM     80  C   UNL A   1      41.511  34.849  37.012  1.00  0.00     0.057 A 
ATOM     81  C   UNL A   1      42.164  33.818  37.698  1.00  0.00     0.134 A 
ATOM     82  C   UNL A   1      40.316  35.333  37.561  1.00  0.00     0.134 A 
ATOM     83  F   UNL A   1      43.304  33.296  37.219  1.00  0.00    -0.206 F 
ATOM     84  C   UNL A   1      41.638  33.273  38.871  1.00  0.00     0.040 A 
ATOM     85  C   UNL A   1      39.796  34.818  38.748  1.00  0.00     0.040 A 
ATOM     86  F   UNL A   1      39.639  36.321  36.955  1.00  0.00    -0.206 F 
ATOM     87  C   UNL A   1      40.455  33.780  39.404  1.00  0.00     0.006 A 
ENDBRANCH  66  80
BRANCH  67  88
ATOM     88  C   UNL A   1      44.868  38.568  28.367  1.00  0.00     0.057 A 
ATOM     89  C   UNL A   1      44.076  39.469  27.645  1.00  0.00     0.134 A 
ATOM     90  C   UNL A   1      46.106  38.218  27.814  1.00  0.00     0.134 A 
ATOM     91  F   UNL A   1      42.868  39.826  28.108  1.00  0.00    -0.206 F 
ATOM     92  C   UNL A   1      44.485  39.982  26.412  1.00  0.00     0.040 A 
ATOM     93  C   UNL A   1      46.542  38.745  26.598  1.00  0.00     0.040 A 
ATOM     94  F   UNL A   1      46.914  37.359  28.454  1.00  0.00    -0.206 F 
ATOM     95  C   UNL A   1      45.725  39.622  25.888  1.00  0.00     0.006 A 
ENDBRANCH  67  88
BRANCH  79  96
ATOM     96  C   UNL A   1      45.558  40.473  35.040  1.00  0.00     0.057 A 
ATOM     97  C   UNL A   1      46.904  40.361  35.407  1.00  0.00     0.134 A 
ATOM     98  C   UNL A   1      44.930  41.708  35.260  1.00  0.00     0.134 A 
ATOM     99  F   UNL A   1      47.563  39.205  35.233  1.00  0.00    -0.206 F 
ATOM    100  C   UNL A   1      47.593  41.429  35.985  1.00  0.00     0.040 A 
ATOM    101  C   UNL A   1      45.617  42.791  35.808  1.00  0.00     0.040 A 
ATOM    102  F   UNL A   1      43.644  41.888  34.920  1.00  0.00    -0.206 F 
ATOM    103  C   UNL A   1      46.952  42.652  36.177  1.00  0.00     0.006 A 
ENDBRANCH  79  96
ENDBRANCH  53  54
ENDBRANCH  46  48
ENDBRANCH  45  46
ENDBRANCH  44  45
ENDBRANCH  43  44
ENDBRANCH  42  43
ENDBRANCH  41  42
ENDBRANCH  40  41
ENDBRANCH  39  40
ENDBRANCH   1  39
TORSDOF 24
ENDMDL
