MODEL 1
REMARK VINA RESULT:      -9.1      0.000      0.000
REMARK SMILES CCc1[nH]nc(-n2cccc2)c1C(=O)OCCOCCOCCOCCOC(=O)c1ccc(-c2c3nc(c(-c4c(F)cccc4F)c4ccc([nH]4)c(-c4c(F)cccc4F)c4nc(c(-c5c(F)cccc5F)c5ccc2[nH]5)C=C4)C=C3)cc1
REMARK SMILES IDX 22 1 21 2 20 3 19 4 18 5 17 6 16 7 15 8 13 9 14 10 12 11
REMARK SMILES IDX 3 12 4 13 5 14 6 16 2 17 1 18 7 19 8 20 11 21 9 22 10 23
REMARK SMILES IDX 23 24 24 25 25 26 26 27 27 28 28 29 29 30 30 31 31 32 83 33
REMARK SMILES IDX 32 34 82 35 33 36 34 37 35 38 76 39 36 40 81 41 75 42 77 43
REMARK SMILES IDX 37 44 80 45 74 46 73 47 38 49 64 50 47 51 63 52 48 53 51 54
REMARK SMILES IDX 62 55 78 56 49 57 50 58 61 60 79 61 52 62 39 63 40 64 45 65
REMARK SMILES IDX 41 66 42 67 44 68 46 69 43 70 65 71 66 72 71 73 67 74 68 75
REMARK SMILES IDX 70 76 72 77 69 78 53 79 54 80 59 81 55 82 56 83 58 84 60 85
REMARK SMILES IDX 57 86
REMARK H PARENT 4 15 77 48 51 59
REMARK Flexibility Score: inf
ROOT
ATOM      1  C   UNL A   1      41.127  20.995  27.216  1.00  0.00     0.188 C 
ENDROOT
BRANCH   1   2
ATOM      2  O   UNL A   1      40.256  22.086  27.494  1.00  0.00    -0.377 OA
BRANCH   2   3
ATOM      3  C   UNL A   1      39.337  22.521  26.500  1.00  0.00     0.188 C 
BRANCH   3   4
ATOM      4  C   UNL A   1      38.637  21.472  25.611  1.00  0.00     0.188 C 
BRANCH   4   5
ATOM      5  O   UNL A   1      37.534  22.019  24.904  1.00  0.00    -0.376 OA
BRANCH   5   6
ATOM      6  C   UNL A   1      36.903  23.147  25.470  1.00  0.00     0.202 C 
BRANCH   6   7
ATOM      7  C   UNL A   1      35.852  23.859  24.611  1.00  0.00     0.261 C 
BRANCH   7   8
ATOM      8  O   UNL A   1      35.058  24.849  25.279  1.00  0.00    -0.459 OA
BRANCH   8   9
ATOM      9  C   UNL A   1      33.972  25.361  24.631  1.00  0.00     0.343 C 
ATOM     10  O   UNL A   1      33.975  25.735  23.481  1.00  0.00    -0.246 OA
BRANCH   9  11
ATOM     11  C   UNL A   1      32.777  25.279  25.465  1.00  0.00     0.125 A 
ATOM     12  C   UNL A   1      32.140  26.285  26.190  1.00  0.00     0.052 A 
ATOM     13  N   UNL A   1      31.115  25.665  26.864  1.00  0.00    -0.280 N 
ATOM     14  N   UNL A   1      31.140  24.331  26.782  1.00  0.00    -0.156 NA
ATOM     15  H   UNL A   1      30.423  26.159  27.361  1.00  0.00     0.190 HD
ATOM     16  C   UNL A   1      32.115  24.096  25.898  1.00  0.00     0.173 A 
BRANCH  12  17
ATOM     17  C   UNL A   1      32.411  27.735  26.453  1.00  0.00     0.053 C 
ATOM     18  C   UNL A   1      31.722  28.322  27.669  1.00  0.00     0.011 C 
ENDBRANCH  12  17
BRANCH  16  19
ATOM     19  N   UNL A   1      32.611  22.766  25.820  1.00  0.00    -0.306 N 
ATOM     20  C   UNL A   1      32.470  21.930  24.728  1.00  0.00     0.093 A 
ATOM     21  C   UNL A   1      33.327  22.091  26.781  1.00  0.00     0.093 A 
ATOM     22  C   UNL A   1      33.033  20.710  25.025  1.00  0.00     0.020 A 
ATOM     23  C   UNL A   1      33.602  20.821  26.314  1.00  0.00     0.020 A 
ENDBRANCH  16  19
ENDBRANCH   9  11
ENDBRANCH   8   9
ENDBRANCH   7   8
ENDBRANCH   6   7
ENDBRANCH   5   6
ENDBRANCH   4   5
ENDBRANCH   3   4
ENDBRANCH   2   3
ENDBRANCH   1   2
BRANCH   1  24
ATOM     24  C   UNL A   1      42.609  21.206  26.802  1.00  0.00     0.188 C 
BRANCH  24  25
ATOM     25  O   UNL A   1      42.889  21.165  25.409  1.00  0.00    -0.376 OA
BRANCH  25  26
ATOM     26  C   UNL A   1      44.221  20.997  24.959  1.00  0.00     0.202 C 
BRANCH  26  27
ATOM     27  C   UNL A   1      44.876  22.267  24.405  1.00  0.00     0.261 C 
BRANCH  27  28
ATOM     28  O   UNL A   1      43.964  23.348  24.280  1.00  0.00    -0.460 OA
BRANCH  28  29
ATOM     29  C   UNL A   1      44.330  24.400  25.030  1.00  0.00     0.338 C 
ATOM     30  O   UNL A   1      45.384  24.582  25.618  1.00  0.00    -0.246 OA
BRANCH  29  31
ATOM     31  C   UNL A   1      43.214  25.323  25.152  1.00  0.00     0.060 A 
ATOM     32  C   UNL A   1      43.617  26.661  25.217  1.00  0.00     0.016 A 
ATOM     33  C   UNL A   1      42.179  24.780  25.916  1.00  0.00     0.016 A 
ATOM     34  C   UNL A   1      43.206  27.383  26.304  1.00  0.00     0.010 A 
ATOM     35  C   UNL A   1      41.818  25.477  27.036  1.00  0.00     0.010 A 
ATOM     36  C   UNL A   1      42.384  26.745  27.239  1.00  0.00    -0.014 A 
BRANCH  36  37
ATOM     37  C   UNL A   1      41.976  27.509  28.406  1.00  0.00     0.031 A 
ATOM     38  C   UNL A   1      42.862  27.140  29.592  1.00  0.00     0.074 A 
ATOM     39  C   UNL A   1      40.926  28.359  28.203  1.00  0.00     0.049 A 
ATOM     40  N   UNL A   1      42.674  27.329  30.857  1.00  0.00    -0.248 NA
ATOM     41  C   UNL A   1      44.138  26.398  29.343  1.00  0.00     0.031 C 
ATOM     42  C   UNL A   1      40.209  28.532  26.918  1.00  0.00     0.029 A 
ATOM     43  N   UNL A   1      40.243  29.236  29.013  1.00  0.00    -0.354 N 
ATOM     44  C   UNL A   1      43.875  26.981  31.501  1.00  0.00     0.074 A 
ATOM     45  C   UNL A   1      44.687  26.297  30.549  1.00  0.00     0.031 C 
ATOM     46  C   UNL A   1      39.165  29.377  27.060  1.00  0.00     0.029 A 
ATOM     47  C   UNL A   1      39.116  29.864  28.423  1.00  0.00     0.049 A 
ATOM     48  H   UNL A   1      40.519  29.417  29.941  1.00  0.00     0.167 HD
ATOM     49  C   UNL A   1      44.195  27.424  32.746  1.00  0.00     0.037 A 
ATOM     50  C   UNL A   1      38.194  30.687  29.013  1.00  0.00     0.037 A 
ATOM     51  C   UNL A   1      43.102  28.140  33.311  1.00  0.00     0.049 A 
ATOM     52  C   UNL A   1      38.736  30.959  30.353  1.00  0.00     0.074 A 
ATOM     53  C   UNL A   1      41.879  27.725  33.767  1.00  0.00     0.029 A 
ATOM     54  N   UNL A   1      43.063  29.494  33.083  1.00  0.00    -0.354 N 
ATOM     55  N   UNL A   1      39.767  31.715  30.594  1.00  0.00    -0.248 NA
ATOM     56  C   UNL A   1      38.168  30.250  31.505  1.00  0.00     0.031 C 
ATOM     57  C   UNL A   1      41.007  28.770  33.395  1.00  0.00     0.029 A 
ATOM     58  C   UNL A   1      41.747  29.842  32.884  1.00  0.00     0.049 A 
ATOM     59  H   UNL A   1      43.835  30.104  33.067  1.00  0.00     0.167 HD
ATOM     60  C   UNL A   1      40.159  31.295  31.842  1.00  0.00     0.074 A 
ATOM     61  C   UNL A   1      39.005  30.671  32.448  1.00  0.00     0.031 C 
ATOM     62  C   UNL A   1      41.466  31.011  32.081  1.00  0.00     0.037 A 
BRANCH  49  63
ATOM     63  C   UNL A   1      45.515  27.466  33.443  1.00  0.00     0.057 A 
ATOM     64  C   UNL A   1      46.465  28.408  33.002  1.00  0.00     0.134 A 
ATOM     65  C   UNL A   1      45.998  26.437  34.261  1.00  0.00     0.134 A 
ATOM     66  F   UNL A   1      46.098  29.455  32.244  1.00  0.00    -0.206 F 
ATOM     67  C   UNL A   1      47.829  28.268  33.255  1.00  0.00     0.040 A 
ATOM     68  C   UNL A   1      47.359  26.315  34.562  1.00  0.00     0.040 A 
ATOM     69  F   UNL A   1      45.194  25.469  34.721  1.00  0.00    -0.206 F 
ATOM     70  C   UNL A   1      48.283  27.205  34.023  1.00  0.00     0.006 A 
ENDBRANCH  49  63
BRANCH  50  71
ATOM     71  C   UNL A   1      36.839  31.280  28.695  1.00  0.00     0.057 A 
ATOM     72  C   UNL A   1      36.522  32.639  28.620  1.00  0.00     0.134 A 
ATOM     73  C   UNL A   1      35.755  30.426  28.341  1.00  0.00     0.134 A 
ATOM     74  F   UNL A   1      37.378  33.583  29.024  1.00  0.00    -0.206 F 
ATOM     75  C   UNL A   1      35.283  33.107  28.131  1.00  0.00     0.040 A 
ATOM     76  C   UNL A   1      34.538  30.873  27.817  1.00  0.00     0.040 A 
ATOM     77  F   UNL A   1      35.826  29.096  28.479  1.00  0.00    -0.206 F 
ATOM     78  C   UNL A   1      34.303  32.226  27.691  1.00  0.00     0.006 A 
ENDBRANCH  50  71
BRANCH  62  79
ATOM     79  C   UNL A   1      42.436  31.711  31.145  1.00  0.00     0.057 A 
ATOM     80  C   UNL A   1      42.570  33.104  31.177  1.00  0.00     0.134 A 
ATOM     81  C   UNL A   1      43.157  31.061  30.132  1.00  0.00     0.134 A 
ATOM     82  F   UNL A   1      41.936  33.819  32.119  1.00  0.00    -0.206 F 
ATOM     83  C   UNL A   1      43.352  33.803  30.247  1.00  0.00     0.040 A 
ATOM     84  C   UNL A   1      43.947  31.740  29.195  1.00  0.00     0.040 A 
ATOM     85  F   UNL A   1      43.122  29.737  30.012  1.00  0.00    -0.206 F 
ATOM     86  C   UNL A   1      44.040  33.122  29.246  1.00  0.00     0.006 A 
ENDBRANCH  62  79
ENDBRANCH  36  37
ENDBRANCH  29  31
ENDBRANCH  28  29
ENDBRANCH  27  28
ENDBRANCH  26  27
ENDBRANCH  25  26
ENDBRANCH  24  25
ENDBRANCH   1  24
TORSDOF 22
ENDMDL
MODEL 2
REMARK VINA RESULT:      -9.1      4.778      9.175
REMARK SMILES CCc1[nH]nc(-n2cccc2)c1C(=O)OCCOCCOCCOCCOC(=O)c1ccc(-c2c3nc(c(-c4c(F)cccc4F)c4ccc([nH]4)c(-c4c(F)cccc4F)c4nc(c(-c5c(F)cccc5F)c5ccc2[nH]5)C=C4)C=C3)cc1
REMARK SMILES IDX 22 1 21 2 20 3 19 4 18 5 17 6 16 7 15 8 13 9 14 10 12 11
REMARK SMILES IDX 3 12 4 13 5 14 6 16 2 17 1 18 7 19 8 20 11 21 9 22 10 23
REMARK SMILES IDX 23 24 24 25 25 26 26 27 27 28 28 29 29 30 30 31 31 32 83 33
REMARK SMILES IDX 32 34 82 35 33 36 34 37 35 38 76 39 36 40 81 41 75 42 77 43
REMARK SMILES IDX 37 44 80 45 74 46 73 47 38 49 64 50 47 51 63 52 48 53 51 54
REMARK SMILES IDX 62 55 78 56 49 57 50 58 61 60 79 61 52 62 39 63 40 64 45 65
REMARK SMILES IDX 41 66 42 67 44 68 46 69 43 70 65 71 66 72 71 73 67 74 68 75
REMARK SMILES IDX 70 76 72 77 69 78 53 79 54 80 59 81 55 82 56 83 58 84 60 85
REMARK SMILES IDX 57 86
REMARK H PARENT 4 15 77 48 51 59
REMARK Flexibility Score: inf
ROOT
ATOM      1  C   UNL A   1      35.051  30.458  27.969  1.00  0.00     0.188 C 
ENDROOT
BRANCH   1   2
ATOM      2  O   UNL A   1      34.952  29.387  27.036  1.00  0.00    -0.377 OA
BRANCH   2   3
ATOM      3  C   UNL A   1      33.676  28.849  26.716  1.00  0.00     0.188 C 
BRANCH   3   4
ATOM      4  C   UNL A   1      33.481  28.123  25.369  1.00  0.00     0.188 C 
BRANCH   4   5
ATOM      5  O   UNL A   1      33.357  26.718  25.530  1.00  0.00    -0.376 OA
BRANCH   5   6
ATOM      6  C   UNL A   1      33.994  25.902  24.572  1.00  0.00     0.202 C 
BRANCH   6   7
ATOM      7  C   UNL A   1      34.838  24.737  25.102  1.00  0.00     0.261 C 
BRANCH   7   8
ATOM      8  O   UNL A   1      34.814  23.535  24.320  1.00  0.00    -0.459 OA
BRANCH   8   9
ATOM      9  C   UNL A   1      33.656  23.194  23.684  1.00  0.00     0.343 C 
ATOM     10  O   UNL A   1      33.443  23.375  22.508  1.00  0.00    -0.246 OA
BRANCH   9  11
ATOM     11  C   UNL A   1      32.760  22.466  24.579  1.00  0.00     0.125 A 
ATOM     12  C   UNL A   1      32.713  21.101  24.856  1.00  0.00     0.052 A 
ATOM     13  N   UNL A   1      31.639  20.930  25.696  1.00  0.00    -0.280 N 
ATOM     14  N   UNL A   1      30.885  22.024  25.842  1.00  0.00    -0.156 NA
ATOM     15  H   UNL A   1      31.443  20.078  26.150  1.00  0.00     0.190 HD
ATOM     16  C   UNL A   1      31.586  22.968  25.207  1.00  0.00     0.173 A 
BRANCH  12  17
ATOM     17  C   UNL A   1      33.451  19.894  24.362  1.00  0.00     0.053 C 
ATOM     18  C   UNL A   1      32.962  18.562  24.896  1.00  0.00     0.011 C 
ENDBRANCH  12  17
BRANCH  16  19
ATOM     19  N   UNL A   1      30.911  24.182  24.906  1.00  0.00    -0.306 N 
ATOM     20  C   UNL A   1      30.450  25.086  25.844  1.00  0.00     0.093 A 
ATOM     21  C   UNL A   1      30.623  24.682  23.657  1.00  0.00     0.093 A 
ATOM     22  C   UNL A   1      29.811  26.118  25.192  1.00  0.00     0.020 A 
ATOM     23  C   UNL A   1      29.948  25.877  23.806  1.00  0.00     0.020 A 
ENDBRANCH  16  19
ENDBRANCH   9  11
ENDBRANCH   8   9
ENDBRANCH   7   8
ENDBRANCH   6   7
ENDBRANCH   5   6
ENDBRANCH   4   5
ENDBRANCH   3   4
ENDBRANCH   2   3
ENDBRANCH   1   2
BRANCH   1  24
ATOM     24  C   UNL A   1      34.417  31.850  27.699  1.00  0.00     0.188 C 
BRANCH  24  25
ATOM     25  O   UNL A   1      35.314  32.950  27.625  1.00  0.00    -0.376 OA
BRANCH  25  26
ATOM     26  C   UNL A   1      34.884  34.241  28.018  1.00  0.00     0.202 C 
BRANCH  26  27
ATOM     27  C   UNL A   1      33.371  34.466  27.934  1.00  0.00     0.261 C 
BRANCH  27  28
ATOM     28  O   UNL A   1      32.730  34.379  29.199  1.00  0.00    -0.460 OA
BRANCH  28  29
ATOM     29  C   UNL A   1      32.990  35.451  29.965  1.00  0.00     0.338 C 
ATOM     30  O   UNL A   1      32.979  36.629  29.650  1.00  0.00    -0.246 OA
BRANCH  29  31
ATOM     31  C   UNL A   1      33.412  35.014  31.285  1.00  0.00     0.060 A 
ATOM     32  C   UNL A   1      34.019  36.032  32.029  1.00  0.00     0.016 A 
ATOM     33  C   UNL A   1      33.849  33.688  31.273  1.00  0.00     0.016 A 
ATOM     34  C   UNL A   1      35.281  35.792  32.499  1.00  0.00     0.010 A 
ATOM     35  C   UNL A   1      35.135  33.466  31.685  1.00  0.00     0.010 A 
ATOM     36  C   UNL A   1      35.848  34.540  32.239  1.00  0.00    -0.014 A 
BRANCH  36  37
ATOM     37  C   UNL A   1      37.201  34.303  32.716  1.00  0.00     0.031 A 
ATOM     38  C   UNL A   1      37.190  34.181  34.237  1.00  0.00     0.074 A 
ATOM     39  C   UNL A   1      38.156  34.246  31.741  1.00  0.00     0.049 A 
ATOM     40  N   UNL A   1      38.164  34.275  35.081  1.00  0.00    -0.248 NA
ATOM     41  C   UNL A   1      35.887  33.970  34.940  1.00  0.00     0.031 C 
ATOM     42  C   UNL A   1      37.901  34.411  30.290  1.00  0.00     0.029 A 
ATOM     43  N   UNL A   1      39.518  34.049  31.755  1.00  0.00    -0.354 N 
ATOM     44  C   UNL A   1      37.652  33.890  36.334  1.00  0.00     0.074 A 
ATOM     45  C   UNL A   1      36.232  33.841  36.217  1.00  0.00     0.031 C 
ATOM     46  C   UNL A   1      39.058  34.390  29.594  1.00  0.00     0.029 A 
ATOM     47  C   UNL A   1      40.167  34.175  30.500  1.00  0.00     0.049 A 
ATOM     48  H   UNL A   1      40.008  33.835  32.581  1.00  0.00     0.167 HD
ATOM     49  C   UNL A   1      38.447  33.475  37.355  1.00  0.00     0.037 A 
ATOM     50  C   UNL A   1      41.510  34.142  30.229  1.00  0.00     0.037 A 
ATOM     51  C   UNL A   1      39.819  33.627  37.006  1.00  0.00     0.049 A 
ATOM     52  C   UNL A   1      42.139  33.737  31.496  1.00  0.00     0.074 A 
ATOM     53  C   UNL A   1      40.599  34.741  36.845  1.00  0.00     0.029 A 
ATOM     54  N   UNL A   1      40.428  32.558  36.395  1.00  0.00    -0.354 N 
ATOM     55  N   UNL A   1      42.074  32.541  32.004  1.00  0.00    -0.248 NA
ATOM     56  C   UNL A   1      42.792  34.759  32.322  1.00  0.00     0.031 C 
ATOM     57  C   UNL A   1      41.451  34.405  35.772  1.00  0.00     0.029 A 
ATOM     58  C   UNL A   1      41.276  33.059  35.435  1.00  0.00     0.049 A 
ATOM     59  H   UNL A   1      40.284  31.608  36.607  1.00  0.00     0.167 HD
ATOM     60  C   UNL A   1      42.368  32.764  33.328  1.00  0.00     0.074 A 
ATOM     61  C   UNL A   1      43.086  34.018  33.385  1.00  0.00     0.031 C 
ATOM     62  C   UNL A   1      41.583  32.223  34.296  1.00  0.00     0.037 A 
BRANCH  49  63
ATOM     63  C   UNL A   1      38.105  32.715  38.594  1.00  0.00     0.057 A 
ATOM     64  C   UNL A   1      37.498  31.451  38.447  1.00  0.00     0.134 A 
ATOM     65  C   UNL A   1      38.031  33.292  39.868  1.00  0.00     0.134 A 
ATOM     66  F   UNL A   1      37.546  30.795  37.277  1.00  0.00    -0.206 F 
ATOM     67  C   UNL A   1      36.758  30.855  39.468  1.00  0.00     0.040 A 
ATOM     68  C   UNL A   1      37.332  32.679  40.913  1.00  0.00     0.040 A 
ATOM     69  F   UNL A   1      38.548  34.501  40.122  1.00  0.00    -0.206 F 
ATOM     70  C   UNL A   1      36.657  31.480  40.703  1.00  0.00     0.006 A 
ENDBRANCH  49  63
BRANCH  50  71
ATOM     71  C   UNL A   1      42.440  34.461  29.080  1.00  0.00     0.057 A 
ATOM     72  C   UNL A   1      43.468  33.649  28.592  1.00  0.00     0.134 A 
ATOM     73  C   UNL A   1      42.249  35.650  28.320  1.00  0.00     0.134 A 
ATOM     74  F   UNL A   1      43.865  32.552  29.243  1.00  0.00    -0.206 F 
ATOM     75  C   UNL A   1      44.163  33.937  27.398  1.00  0.00     0.040 A 
ATOM     76  C   UNL A   1      42.899  35.928  27.114  1.00  0.00     0.040 A 
ATOM     77  F   UNL A   1      41.402  36.612  28.709  1.00  0.00    -0.206 F 
ATOM     78  C   UNL A   1      43.854  35.055  26.634  1.00  0.00     0.006 A 
ENDBRANCH  50  71
BRANCH  62  79
ATOM     79  C   UNL A   1      40.816  30.988  33.856  1.00  0.00     0.057 A 
ATOM     80  C   UNL A   1      41.499  29.809  33.534  1.00  0.00     0.134 A 
ATOM     81  C   UNL A   1      39.432  30.961  33.630  1.00  0.00     0.134 A 
ATOM     82  F   UNL A   1      42.823  29.723  33.731  1.00  0.00    -0.206 F 
ATOM     83  C   UNL A   1      40.847  28.688  33.000  1.00  0.00     0.040 A 
ATOM     84  C   UNL A   1      38.761  29.851  33.102  1.00  0.00     0.040 A 
ATOM     85  F   UNL A   1      38.674  32.017  33.915  1.00  0.00    -0.206 F 
ATOM     86  C   UNL A   1      39.473  28.707  32.776  1.00  0.00     0.006 A 
ENDBRANCH  62  79
ENDBRANCH  36  37
ENDBRANCH  29  31
ENDBRANCH  28  29
ENDBRANCH  27  28
ENDBRANCH  26  27
ENDBRANCH  25  26
ENDBRANCH  24  25
ENDBRANCH   1  24
TORSDOF 22
ENDMDL
MODEL 3
REMARK VINA RESULT:      -8.9      0.737      2.413
REMARK SMILES CCc1[nH]nc(-n2cccc2)c1C(=O)OCCOCCOCCOCCOC(=O)c1ccc(-c2c3nc(c(-c4c(F)cccc4F)c4ccc([nH]4)c(-c4c(F)cccc4F)c4nc(c(-c5c(F)cccc5F)c5ccc2[nH]5)C=C4)C=C3)cc1
REMARK SMILES IDX 22 1 21 2 20 3 19 4 18 5 17 6 16 7 15 8 13 9 14 10 12 11
REMARK SMILES IDX 3 12 4 13 5 14 6 16 2 17 1 18 7 19 8 20 11 21 9 22 10 23
REMARK SMILES IDX 23 24 24 25 25 26 26 27 27 28 28 29 29 30 30 31 31 32 83 33
REMARK SMILES IDX 32 34 82 35 33 36 34 37 35 38 76 39 36 40 81 41 75 42 77 43
REMARK SMILES IDX 37 44 80 45 74 46 73 47 38 49 64 50 47 51 63 52 48 53 51 54
REMARK SMILES IDX 62 55 78 56 49 57 50 58 61 60 79 61 52 62 39 63 40 64 45 65
REMARK SMILES IDX 41 66 42 67 44 68 46 69 43 70 65 71 66 72 71 73 67 74 68 75
REMARK SMILES IDX 70 76 72 77 69 78 53 79 54 80 59 81 55 82 56 83 58 84 60 85
REMARK SMILES IDX 57 86
REMARK H PARENT 4 15 77 48 51 59
REMARK Flexibility Score: inf
ROOT
ATOM      1  C   UNL A   1      40.972  21.200  27.547  1.00  0.00     0.188 C 
ENDROOT
BRANCH   1   2
ATOM      2  O   UNL A   1      39.952  22.173  27.348  1.00  0.00    -0.377 OA
BRANCH   2   3
ATOM      3  C   UNL A   1      39.291  22.251  26.092  1.00  0.00     0.188 C 
BRANCH   3   4
ATOM      4  C   UNL A   1      38.661  20.977  25.492  1.00  0.00     0.188 C 
BRANCH   4   5
ATOM      5  O   UNL A   1      37.579  21.272  24.622  1.00  0.00    -0.376 OA
BRANCH   5   6
ATOM      6  C   UNL A   1      37.199  22.625  24.505  1.00  0.00     0.202 C 
BRANCH   6   7
ATOM      7  C   UNL A   1      35.819  22.910  23.901  1.00  0.00     0.261 C 
BRANCH   7   8
ATOM      8  O   UNL A   1      35.030  23.902  24.572  1.00  0.00    -0.459 OA
BRANCH   8   9
ATOM      9  C   UNL A   1      33.706  24.001  24.262  1.00  0.00     0.343 C 
ATOM     10  O   UNL A   1      33.278  24.249  23.159  1.00  0.00    -0.246 OA
BRANCH   9  11
ATOM     11  C   UNL A   1      32.871  23.643  25.405  1.00  0.00     0.125 A 
ATOM     12  C   UNL A   1      32.294  22.414  25.722  1.00  0.00     0.052 A 
ATOM     13  N   UNL A   1      31.544  22.637  26.852  1.00  0.00    -0.280 N 
ATOM     14  N   UNL A   1      31.440  23.926  27.189  1.00  0.00    -0.156 NA
ATOM     15  H   UNL A   1      31.122  21.911  27.367  1.00  0.00     0.190 HD
ATOM     16  C   UNL A   1      32.280  24.533  26.346  1.00  0.00     0.173 A 
BRANCH  12  17
ATOM     17  C   UNL A   1      32.235  21.071  25.062  1.00  0.00     0.053 C 
ATOM     18  C   UNL A   1      33.046  19.977  25.727  1.00  0.00     0.011 C 
ENDBRANCH  12  17
BRANCH  16  19
ATOM     19  N   UNL A   1      32.171  25.946  26.228  1.00  0.00    -0.306 N 
ATOM     20  C   UNL A   1      31.031  26.622  25.836  1.00  0.00     0.093 A 
ATOM     21  C   UNL A   1      33.145  26.878  26.501  1.00  0.00     0.093 A 
ATOM     22  C   UNL A   1      31.306  27.971  25.794  1.00  0.00     0.020 A 
ATOM     23  C   UNL A   1      32.636  28.135  26.244  1.00  0.00     0.020 A 
ENDBRANCH  16  19
ENDBRANCH   9  11
ENDBRANCH   8   9
ENDBRANCH   7   8
ENDBRANCH   6   7
ENDBRANCH   5   6
ENDBRANCH   4   5
ENDBRANCH   3   4
ENDBRANCH   2   3
ENDBRANCH   1   2
BRANCH   1  24
ATOM     24  C   UNL A   1      42.428  21.417  27.051  1.00  0.00     0.188 C 
BRANCH  24  25
ATOM     25  O   UNL A   1      42.703  21.038  25.709  1.00  0.00    -0.376 OA
BRANCH  25  26
ATOM     26  C   UNL A   1      44.042  20.835  25.291  1.00  0.00     0.202 C 
BRANCH  26  27
ATOM     27  C   UNL A   1      44.791  22.113  24.896  1.00  0.00     0.261 C 
BRANCH  27  28
ATOM     28  O   UNL A   1      43.921  23.207  24.645  1.00  0.00    -0.460 OA
BRANCH  28  29
ATOM     29  C   UNL A   1      44.381  24.345  25.189  1.00  0.00     0.338 C 
ATOM     30  O   UNL A   1      45.475  24.562  25.682  1.00  0.00    -0.246 OA
BRANCH  29  31
ATOM     31  C   UNL A   1      43.318  25.336  25.214  1.00  0.00     0.060 A 
ATOM     32  C   UNL A   1      43.795  26.644  25.355  1.00  0.00     0.016 A 
ATOM     33  C   UNL A   1      42.175  24.848  25.849  1.00  0.00     0.016 A 
ATOM     34  C   UNL A   1      43.314  27.371  26.411  1.00  0.00     0.010 A 
ATOM     35  C   UNL A   1      41.739  25.547  26.942  1.00  0.00     0.010 A 
ATOM     36  C   UNL A   1      42.358  26.771  27.236  1.00  0.00    -0.014 A 
BRANCH  36  37
ATOM     37  C   UNL A   1      41.875  27.539  28.372  1.00  0.00     0.031 A 
ATOM     38  C   UNL A   1      42.705  27.200  29.606  1.00  0.00     0.074 A 
ATOM     39  C   UNL A   1      40.821  28.365  28.105  1.00  0.00     0.049 A 
ATOM     40  N   UNL A   1      42.448  27.398  30.857  1.00  0.00    -0.248 NA
ATOM     41  C   UNL A   1      44.006  26.481  29.432  1.00  0.00     0.031 C 
ATOM     42  C   UNL A   1      40.168  28.511  26.782  1.00  0.00     0.029 A 
ATOM     43  N   UNL A   1      40.079  29.237  28.869  1.00  0.00    -0.354 N 
ATOM     44  C   UNL A   1      43.621  27.081  31.567  1.00  0.00     0.074 A 
ATOM     45  C   UNL A   1      44.494  26.404  30.666  1.00  0.00     0.031 C 
ATOM     46  C   UNL A   1      39.102  29.336  26.860  1.00  0.00     0.029 A 
ATOM     47  C   UNL A   1      38.972  29.836  28.213  1.00  0.00     0.049 A 
ATOM     48  H   UNL A   1      40.302  29.433  29.807  1.00  0.00     0.167 HD
ATOM     49  C   UNL A   1      43.866  27.543  32.821  1.00  0.00     0.037 A 
ATOM     50  C   UNL A   1      38.005  30.646  28.746  1.00  0.00     0.037 A 
ATOM     51  C   UNL A   1      42.732  28.243  33.320  1.00  0.00     0.049 A 
ATOM     52  C   UNL A   1      38.471  30.943  30.109  1.00  0.00     0.074 A 
ATOM     53  C   UNL A   1      41.495  27.809  33.717  1.00  0.00     0.029 A 
ATOM     54  N   UNL A   1      42.678  29.594  33.076  1.00  0.00    -0.354 N 
ATOM     55  N   UNL A   1      39.473  31.722  30.394  1.00  0.00    -0.248 NA
ATOM     56  C   UNL A   1      37.857  30.234  31.238  1.00  0.00     0.031 C 
ATOM     57  C   UNL A   1      40.623  28.832  33.289  1.00  0.00     0.029 A 
ATOM     58  C   UNL A   1      41.367  29.913  32.805  1.00  0.00     0.049 A 
ATOM     59  H   UNL A   1      43.437  30.219  33.092  1.00  0.00     0.167 HD
ATOM     60  C   UNL A   1      39.808  31.323  31.666  1.00  0.00     0.074 A 
ATOM     61  C   UNL A   1      38.636  30.682  32.218  1.00  0.00     0.031 C 
ATOM     62  C   UNL A   1      41.106  31.068  31.975  1.00  0.00     0.037 A 
BRANCH  49  63
ATOM     63  C   UNL A   1      45.147  27.619  33.585  1.00  0.00     0.057 A 
ATOM     64  C   UNL A   1      45.237  26.906  34.797  1.00  0.00     0.134 A 
ATOM     65  C   UNL A   1      46.128  28.595  33.368  1.00  0.00     0.134 A 
ATOM     66  F   UNL A   1      44.368  25.923  35.084  1.00  0.00    -0.206 F 
ATOM     67  C   UNL A   1      46.167  27.226  35.785  1.00  0.00     0.040 A 
ATOM     68  C   UNL A   1      47.097  28.891  34.333  1.00  0.00     0.040 A 
ATOM     69  F   UNL A   1      46.130  29.355  32.264  1.00  0.00    -0.206 F 
ATOM     70  C   UNL A   1      47.092  28.237  35.561  1.00  0.00     0.006 A 
ENDBRANCH  49  63
BRANCH  50  71
ATOM     71  C   UNL A   1      36.657  31.208  28.351  1.00  0.00     0.057 A 
ATOM     72  C   UNL A   1      35.504  30.474  28.053  1.00  0.00     0.134 A 
ATOM     73  C   UNL A   1      36.447  32.616  28.346  1.00  0.00     0.134 A 
ATOM     74  F   UNL A   1      35.538  29.147  27.900  1.00  0.00    -0.206 F 
ATOM     75  C   UNL A   1      34.241  31.078  27.880  1.00  0.00     0.040 A 
ATOM     76  C   UNL A   1      35.196  33.227  28.217  1.00  0.00     0.040 A 
ATOM     77  F   UNL A   1      37.459  33.484  28.477  1.00  0.00    -0.206 F 
ATOM     78  C   UNL A   1      34.075  32.452  28.002  1.00  0.00     0.006 A 
ENDBRANCH  50  71
BRANCH  62  79
ATOM     79  C   UNL A   1      42.109  31.777  31.082  1.00  0.00     0.057 A 
ATOM     80  C   UNL A   1      42.221  33.172  31.113  1.00  0.00     0.134 A 
ATOM     81  C   UNL A   1      42.887  31.134  30.109  1.00  0.00     0.134 A 
ATOM     82  F   UNL A   1      41.532  33.882  32.020  1.00  0.00    -0.206 F 
ATOM     83  C   UNL A   1      43.037  33.878  30.217  1.00  0.00     0.040 A 
ATOM     84  C   UNL A   1      43.712  31.819  29.208  1.00  0.00     0.040 A 
ATOM     85  F   UNL A   1      42.878  29.809  29.995  1.00  0.00    -0.206 F 
ATOM     86  C   UNL A   1      43.782  33.203  29.255  1.00  0.00     0.006 A 
ENDBRANCH  62  79
ENDBRANCH  36  37
ENDBRANCH  29  31
ENDBRANCH  28  29
ENDBRANCH  27  28
ENDBRANCH  26  27
ENDBRANCH  25  26
ENDBRANCH  24  25
ENDBRANCH   1  24
TORSDOF 22
ENDMDL
