MODEL 1
REMARK VINA RESULT:     -10.6      0.000      0.000
REMARK SMILES Cc1cc(NC(=O)c2ccc(Br)cc2N)ccc1C(=O)OCCOCCOCCOCCOC(=O)c1ccc(-c2c3nc(c(-c4c(F)cccc4F)c4ccc([nH]4)c(-c4c(F)cccc4F)c4nc(c(-c5c(F)cccc5F)c5ccc2[nH]5)C=C4)C=C3)cc1
REMARK SMILES IDX 26 1 25 2 24 3 23 4 22 5 21 6 19 7 20 8 18 9 1 10 2 11 3 12
REMARK SMILES IDX 4 13 17 14 16 15 5 16 6 17 7 19 8 20 9 21 14 22 10 23 13 24
REMARK SMILES IDX 11 25 12 26 15 27 27 30 28 31 29 32 30 33 31 34 32 35 33 36
REMARK SMILES IDX 34 37 35 38 36 39 37 40 89 41 38 42 88 43 39 44 40 45 41 46
REMARK SMILES IDX 82 47 42 48 87 49 81 50 83 51 43 52 86 53 80 54 79 55 44 57
REMARK SMILES IDX 70 58 53 59 69 60 54 61 57 62 68 63 84 64 55 65 56 66 67 68
REMARK SMILES IDX 85 69 58 70 45 71 46 72 51 73 47 74 48 75 50 76 52 77 49 78
REMARK SMILES IDX 71 79 72 80 77 81 73 82 74 83 76 84 78 85 75 86 59 87 60 88
REMARK SMILES IDX 65 89 61 90 62 91 64 92 66 93 63 94
REMARK H PARENT 5 18 15 28 15 29 83 56 57 67
REMARK Flexibility Score: inf
ROOT
ATOM      1  C   UNL A   1      39.656  22.026  26.422  1.00  0.00     0.188 C 
ENDROOT
BRANCH   1   2
ATOM      2  C   UNL A   1      38.283  22.295  25.778  1.00  0.00     0.188 C 
BRANCH   2   3
ATOM      3  O   UNL A   1      37.422  21.231  25.408  1.00  0.00    -0.376 OA
BRANCH   3   4
ATOM      4  C   UNL A   1      36.430  21.513  24.424  1.00  0.00     0.202 C 
BRANCH   4   5
ATOM      5  C   UNL A   1      34.980  21.176  24.723  1.00  0.00     0.261 C 
BRANCH   5   6
ATOM      6  O   UNL A   1      34.178  22.248  24.243  1.00  0.00    -0.460 OA
BRANCH   6   7
ATOM      7  C   UNL A   1      33.927  23.194  25.159  1.00  0.00     0.338 C 
ATOM      8  O   UNL A   1      34.685  23.641  25.994  1.00  0.00    -0.246 OA
BRANCH   7   9
ATOM      9  C   UNL A   1      32.699  23.887  24.722  1.00  0.00     0.063 A 
ATOM     10  C   UNL A   1      31.308  23.593  26.882  1.00  0.00     0.045 C 
ATOM     11  C   UNL A   1      31.532  24.075  25.483  1.00  0.00    -0.035 A 
ATOM     12  C   UNL A   1      30.542  24.894  24.945  1.00  0.00     0.030 A 
ATOM     13  C   UNL A   1      30.755  25.538  23.733  1.00  0.00     0.041 A 
ATOM     14  C   UNL A   1      32.753  24.309  23.381  1.00  0.00     0.018 A 
ATOM     15  C   UNL A   1      31.756  25.116  22.866  1.00  0.00     0.027 A 
BRANCH  13  16
ATOM     16  N   UNL A   1      30.160  26.762  23.456  1.00  0.00    -0.322 N 
ATOM     17  C   UNL A   1      30.508  28.020  23.915  1.00  0.00     0.257 C 
ATOM     18  H   UNL A   1      29.384  26.731  22.852  1.00  0.00     0.170 HD
ATOM     19  O   UNL A   1      29.761  28.955  23.617  1.00  0.00    -0.269 OA
BRANCH  17  20
ATOM     20  C   UNL A   1      31.738  28.329  24.726  1.00  0.00     0.063 A 
ATOM     21  C   UNL A   1      31.529  28.248  26.117  1.00  0.00     0.017 A 
ATOM     22  C   UNL A   1      33.007  28.747  24.250  1.00  0.00     0.045 A 
ATOM     23  C   UNL A   1      32.534  28.575  27.029  1.00  0.00     0.016 A 
ATOM     24  C   UNL A   1      34.015  29.051  25.189  1.00  0.00     0.042 A 
ATOM     25  C   UNL A   1      33.777  28.973  26.559  1.00  0.00     0.020 A 
ATOM     26  Br  UNL A   1      35.133  29.466  27.780  1.00  0.00    -0.051 Br
BRANCH  22  27
ATOM     27  N   UNL A   1      33.302  29.054  22.920  1.00  0.00    -0.398 N 
ATOM     28  H   UNL A   1      32.576  29.273  22.293  1.00  0.00     0.156 HD
ATOM     29  H   UNL A   1      34.237  29.051  22.611  1.00  0.00     0.156 HD
ENDBRANCH  22  27
ENDBRANCH  17  20
ENDBRANCH  13  16
ENDBRANCH   7   9
ENDBRANCH   6   7
ENDBRANCH   5   6
ENDBRANCH   4   5
ENDBRANCH   3   4
ENDBRANCH   2   3
ENDBRANCH   1   2
BRANCH   1  30
ATOM     30  O   UNL A   1      40.019  20.725  26.857  1.00  0.00    -0.377 OA
BRANCH  30  31
ATOM     31  C   UNL A   1      41.204  20.564  27.627  1.00  0.00     0.188 C 
BRANCH  31  32
ATOM     32  C   UNL A   1      41.998  19.279  27.433  1.00  0.00     0.188 C 
BRANCH  32  33
ATOM     33  O   UNL A   1      42.296  19.129  26.049  1.00  0.00    -0.376 OA
BRANCH  33  34
ATOM     34  C   UNL A   1      43.385  18.269  25.730  1.00  0.00     0.202 C 
BRANCH  34  35
ATOM     35  C   UNL A   1      44.567  18.985  25.066  1.00  0.00     0.261 C 
BRANCH  35  36
ATOM     36  O   UNL A   1      44.167  20.313  24.676  1.00  0.00    -0.460 OA
BRANCH  36  37
ATOM     37  C   UNL A   1      44.875  21.323  25.248  1.00  0.00     0.338 C 
ATOM     38  O   UNL A   1      46.026  21.245  25.645  1.00  0.00    -0.246 OA
BRANCH  37  39
ATOM     39  C   UNL A   1      43.959  22.444  25.608  1.00  0.00     0.060 A 
ATOM     40  C   UNL A   1      43.640  23.422  24.651  1.00  0.00     0.016 A 
ATOM     41  C   UNL A   1      43.742  22.709  26.952  1.00  0.00     0.016 A 
ATOM     42  C   UNL A   1      43.308  24.725  25.058  1.00  0.00     0.010 A 
ATOM     43  C   UNL A   1      43.528  24.015  27.338  1.00  0.00     0.010 A 
ATOM     44  C   UNL A   1      43.368  25.052  26.408  1.00  0.00    -0.014 A 
BRANCH  44  45
ATOM     45  C   UNL A   1      43.443  26.421  26.960  1.00  0.00     0.031 A 
ATOM     46  C   UNL A   1      42.166  27.172  27.212  1.00  0.00     0.074 A 
ATOM     47  C   UNL A   1      44.594  26.820  27.568  1.00  0.00     0.049 A 
ATOM     48  N   UNL A   1      42.083  28.283  27.858  1.00  0.00    -0.248 NA
ATOM     49  C   UNL A   1      40.839  26.697  26.816  1.00  0.00     0.031 C 
ATOM     50  C   UNL A   1      44.741  27.844  28.604  1.00  0.00     0.029 A 
ATOM     51  N   UNL A   1      45.896  26.361  27.468  1.00  0.00    -0.354 N 
ATOM     52  C   UNL A   1      40.779  28.488  28.256  1.00  0.00     0.074 A 
ATOM     53  C   UNL A   1      40.030  27.513  27.505  1.00  0.00     0.031 C 
ATOM     54  C   UNL A   1      46.029  28.038  28.920  1.00  0.00     0.029 A 
ATOM     55  C   UNL A   1      46.787  27.335  27.924  1.00  0.00     0.049 A 
ATOM     56  H   UNL A   1      46.156  25.475  27.127  1.00  0.00     0.167 HD
ATOM     57  C   UNL A   1      40.538  29.384  29.262  1.00  0.00     0.037 A 
ATOM     58  C   UNL A   1      47.617  28.011  27.073  1.00  0.00     0.037 A 
ATOM     59  C   UNL A   1      41.757  30.165  29.575  1.00  0.00     0.049 A 
ATOM     60  C   UNL A   1      47.124  29.460  26.964  1.00  0.00     0.074 A 
ATOM     61  C   UNL A   1      42.488  30.431  30.719  1.00  0.00     0.029 A 
ATOM     62  N   UNL A   1      42.522  30.677  28.520  1.00  0.00    -0.354 N 
ATOM     63  N   UNL A   1      45.849  29.804  27.025  1.00  0.00    -0.248 NA
ATOM     64  C   UNL A   1      48.011  30.613  27.143  1.00  0.00     0.031 C 
ATOM     65  C   UNL A   1      43.770  30.925  30.317  1.00  0.00     0.029 A 
ATOM     66  C   UNL A   1      43.784  31.055  28.932  1.00  0.00     0.049 A 
ATOM     67  H   UNL A   1      42.199  30.757  27.594  1.00  0.00     0.167 HD
ATOM     68  C   UNL A   1      45.756  31.113  27.440  1.00  0.00     0.074 A 
ATOM     69  C   UNL A   1      47.133  31.592  27.434  1.00  0.00     0.031 C 
ATOM     70  C   UNL A   1      44.679  31.744  28.009  1.00  0.00     0.037 A 
BRANCH  57  71
ATOM     71  C   UNL A   1      39.258  29.476  30.100  1.00  0.00     0.057 A 
ATOM     72  C   UNL A   1      38.488  30.660  30.112  1.00  0.00     0.134 A 
ATOM     73  C   UNL A   1      38.778  28.488  30.987  1.00  0.00     0.134 A 
ATOM     74  F   UNL A   1      38.795  31.700  29.325  1.00  0.00    -0.206 F 
ATOM     75  C   UNL A   1      37.359  30.847  30.933  1.00  0.00     0.040 A 
ATOM     76  C   UNL A   1      37.619  28.641  31.772  1.00  0.00     0.040 A 
ATOM     77  F   UNL A   1      39.428  27.337  31.190  1.00  0.00    -0.206 F 
ATOM     78  C   UNL A   1      36.909  29.830  31.759  1.00  0.00     0.006 A 
ENDBRANCH  57  71
BRANCH  58  79
ATOM     79  C   UNL A   1      48.273  27.049  26.132  1.00  0.00     0.057 A 
ATOM     80  C   UNL A   1      47.831  27.185  24.793  1.00  0.00     0.134 A 
ATOM     81  C   UNL A   1      49.611  26.669  26.303  1.00  0.00     0.134 A 
ATOM     82  F   UNL A   1      46.550  27.498  24.542  1.00  0.00    -0.206 F 
ATOM     83  C   UNL A   1      48.727  27.243  23.717  1.00  0.00     0.040 A 
ATOM     84  C   UNL A   1      50.508  26.680  25.217  1.00  0.00     0.040 A 
ATOM     85  F   UNL A   1      50.122  26.508  27.531  1.00  0.00    -0.206 F 
ATOM     86  C   UNL A   1      50.084  27.050  23.941  1.00  0.00     0.006 A 
ENDBRANCH  58  79
BRANCH  70  87
ATOM     87  C   UNL A   1      44.329  33.175  27.652  1.00  0.00     0.057 A 
ATOM     88  C   UNL A   1      44.511  34.243  28.541  1.00  0.00     0.134 A 
ATOM     89  C   UNL A   1      44.031  33.549  26.318  1.00  0.00     0.134 A 
ATOM     90  F   UNL A   1      44.875  34.049  29.815  1.00  0.00    -0.206 F 
ATOM     91  C   UNL A   1      44.382  35.577  28.143  1.00  0.00     0.040 A 
ATOM     92  C   UNL A   1      43.955  34.877  25.900  1.00  0.00     0.040 A 
ATOM     93  F   UNL A   1      43.845  32.649  25.341  1.00  0.00    -0.206 F 
ATOM     94  C   UNL A   1      44.121  35.898  26.818  1.00  0.00     0.006 A 
ENDBRANCH  70  87
ENDBRANCH  44  45
ENDBRANCH  37  39
ENDBRANCH  36  37
ENDBRANCH  35  36
ENDBRANCH  34  35
ENDBRANCH  33  34
ENDBRANCH  32  33
ENDBRANCH  31  32
ENDBRANCH  30  31
ENDBRANCH   1  30
TORSDOF 23
ENDMDL
MODEL 2
REMARK VINA RESULT:     -10.3      5.174     11.178
REMARK SMILES Cc1cc(NC(=O)c2ccc(Br)cc2N)ccc1C(=O)OCCOCCOCCOCCOC(=O)c1ccc(-c2c3nc(c(-c4c(F)cccc4F)c4ccc([nH]4)c(-c4c(F)cccc4F)c4nc(c(-c5c(F)cccc5F)c5ccc2[nH]5)C=C4)C=C3)cc1
REMARK SMILES IDX 26 1 25 2 24 3 23 4 22 5 21 6 19 7 20 8 18 9 1 10 2 11 3 12
REMARK SMILES IDX 4 13 17 14 16 15 5 16 6 17 7 19 8 20 9 21 14 22 10 23 13 24
REMARK SMILES IDX 11 25 12 26 15 27 27 30 28 31 29 32 30 33 31 34 32 35 33 36
REMARK SMILES IDX 34 37 35 38 36 39 37 40 89 41 38 42 88 43 39 44 40 45 41 46
REMARK SMILES IDX 82 47 42 48 87 49 81 50 83 51 43 52 86 53 80 54 79 55 44 57
REMARK SMILES IDX 70 58 53 59 69 60 54 61 57 62 68 63 84 64 55 65 56 66 67 68
REMARK SMILES IDX 85 69 58 70 45 71 46 72 51 73 47 74 48 75 50 76 52 77 49 78
REMARK SMILES IDX 71 79 72 80 77 81 73 82 74 83 76 84 78 85 75 86 59 87 60 88
REMARK SMILES IDX 65 89 61 90 62 91 64 92 66 93 63 94
REMARK H PARENT 5 18 15 28 15 29 83 56 57 67
REMARK Flexibility Score: inf
ROOT
ATOM      1  C   UNL A   1      31.176  31.768  26.161  1.00  0.00     0.188 C 
ENDROOT
BRANCH   1   2
ATOM      2  C   UNL A   1      32.002  30.507  25.845  1.00  0.00     0.188 C 
BRANCH   2   3
ATOM      3  O   UNL A   1      31.707  29.261  26.453  1.00  0.00    -0.376 OA
BRANCH   3   4
ATOM      4  C   UNL A   1      31.108  28.263  25.630  1.00  0.00     0.202 C 
BRANCH   4   5
ATOM      5  C   UNL A   1      31.484  28.197  24.161  1.00  0.00     0.261 C 
BRANCH   5   6
ATOM      6  O   UNL A   1      30.470  27.464  23.486  1.00  0.00    -0.460 OA
BRANCH   6   7
ATOM      7  C   UNL A   1      30.939  26.579  22.595  1.00  0.00     0.338 C 
ATOM      8  O   UNL A   1      31.116  26.743  21.407  1.00  0.00    -0.246 OA
BRANCH   7   9
ATOM      9  C   UNL A   1      31.582  25.501  23.372  1.00  0.00     0.063 A 
ATOM     10  C   UNL A   1      34.030  25.930  22.658  1.00  0.00     0.045 C 
ATOM     11  C   UNL A   1      32.957  25.209  23.411  1.00  0.00    -0.035 A 
ATOM     12  C   UNL A   1      33.382  24.253  24.330  1.00  0.00     0.030 A 
ATOM     13  C   UNL A   1      32.470  23.675  25.204  1.00  0.00     0.041 A 
ATOM     14  C   UNL A   1      30.660  24.690  24.057  1.00  0.00     0.018 A 
ATOM     15  C   UNL A   1      31.105  23.742  24.959  1.00  0.00     0.027 A 
BRANCH  13  16
ATOM     16  N   UNL A   1      32.862  23.239  26.464  1.00  0.00    -0.322 N 
ATOM     17  C   UNL A   1      33.310  21.988  26.849  1.00  0.00     0.257 C 
ATOM     18  H   UNL A   1      32.814  23.912  27.181  1.00  0.00     0.170 HD
ATOM     19  O   UNL A   1      33.499  21.804  28.054  1.00  0.00    -0.269 OA
BRANCH  17  20
ATOM     20  C   UNL A   1      33.601  20.851  25.906  1.00  0.00     0.063 A 
ATOM     21  C   UNL A   1      32.467  20.073  25.597  1.00  0.00     0.017 A 
ATOM     22  C   UNL A   1      34.860  20.462  25.382  1.00  0.00     0.045 A 
ATOM     23  C   UNL A   1      32.559  18.931  24.799  1.00  0.00     0.016 A 
ATOM     24  C   UNL A   1      34.926  19.317  24.560  1.00  0.00     0.042 A 
ATOM     25  C   UNL A   1      33.791  18.560  24.280  1.00  0.00     0.020 A 
ATOM     26  Br  UNL A   1      33.941  16.989  23.238  1.00  0.00    -0.051 Br
BRANCH  22  27
ATOM     27  N   UNL A   1      36.087  21.017  25.750  1.00  0.00    -0.398 N 
ATOM     28  H   UNL A   1      36.615  21.523  25.091  1.00  0.00     0.156 HD
ATOM     29  H   UNL A   1      36.423  20.903  26.669  1.00  0.00     0.156 HD
ENDBRANCH  22  27
ENDBRANCH  17  20
ENDBRANCH  13  16
ENDBRANCH   7   9
ENDBRANCH   6   7
ENDBRANCH   5   6
ENDBRANCH   4   5
ENDBRANCH   3   4
ENDBRANCH   2   3
ENDBRANCH   1   2
BRANCH   1  30
ATOM     30  O   UNL A   1      31.718  32.821  26.940  1.00  0.00    -0.377 OA
BRANCH  30  31
ATOM     31  C   UNL A   1      32.980  32.631  27.570  1.00  0.00     0.188 C 
BRANCH  31  32
ATOM     32  C   UNL A   1      33.565  33.807  28.341  1.00  0.00     0.188 C 
BRANCH  32  33
ATOM     33  O   UNL A   1      32.510  34.698  28.688  1.00  0.00    -0.376 OA
BRANCH  33  34
ATOM     34  C   UNL A   1      32.901  35.966  29.203  1.00  0.00     0.202 C 
BRANCH  34  35
ATOM     35  C   UNL A   1      32.719  36.102  30.719  1.00  0.00     0.261 C 
BRANCH  35  36
ATOM     36  O   UNL A   1      34.001  36.328  31.338  1.00  0.00    -0.460 OA
BRANCH  36  37
ATOM     37  C   UNL A   1      34.241  35.594  32.457  1.00  0.00     0.338 C 
ATOM     38  O   UNL A   1      34.248  36.023  33.599  1.00  0.00    -0.246 OA
BRANCH  37  39
ATOM     39  C   UNL A   1      34.800  34.263  32.079  1.00  0.00     0.060 A 
ATOM     40  C   UNL A   1      34.634  33.164  32.939  1.00  0.00     0.016 A 
ATOM     41  C   UNL A   1      35.776  34.216  31.094  1.00  0.00     0.016 A 
ATOM     42  C   UNL A   1      35.576  32.123  32.943  1.00  0.00     0.010 A 
ATOM     43  C   UNL A   1      36.754  33.250  31.184  1.00  0.00     0.010 A 
ATOM     44  C   UNL A   1      36.708  32.227  32.141  1.00  0.00    -0.014 A 
BRANCH  44  45
ATOM     45  C   UNL A   1      37.956  31.452  32.309  1.00  0.00     0.031 A 
ATOM     46  C   UNL A   1      38.132  30.182  31.525  1.00  0.00     0.074 A 
ATOM     47  C   UNL A   1      39.042  32.070  32.850  1.00  0.00     0.049 A 
ATOM     48  N   UNL A   1      39.233  29.522  31.436  1.00  0.00    -0.248 NA
ATOM     49  C   UNL A   1      37.087  29.572  30.702  1.00  0.00     0.031 C 
ATOM     50  C   UNL A   1      40.450  31.731  32.639  1.00  0.00     0.029 A 
ATOM     51  N   UNL A   1      39.160  33.190  33.653  1.00  0.00    -0.354 N 
ATOM     52  C   UNL A   1      39.172  28.670  30.353  1.00  0.00     0.074 A 
ATOM     53  C   UNL A   1      37.780  28.678  29.983  1.00  0.00     0.031 C 
ATOM     54  C   UNL A   1      41.254  32.496  33.390  1.00  0.00     0.029 A 
ATOM     55  C   UNL A   1      40.393  33.186  34.309  1.00  0.00     0.049 A 
ATOM     56  H   UNL A   1      38.474  33.891  33.747  1.00  0.00     0.167 HD
ATOM     57  C   UNL A   1      40.343  28.170  29.850  1.00  0.00     0.037 A 
ATOM     58  C   UNL A   1      40.495  32.973  35.656  1.00  0.00     0.037 A 
ATOM     59  C   UNL A   1      41.475  28.469  30.757  1.00  0.00     0.049 A 
ATOM     60  C   UNL A   1      41.118  31.588  35.882  1.00  0.00     0.074 A 
ATOM     61  C   UNL A   1      42.712  29.075  30.620  1.00  0.00     0.029 A 
ATOM     62  N   UNL A   1      41.310  28.273  32.133  1.00  0.00    -0.354 N 
ATOM     63  N   UNL A   1      40.912  30.557  35.083  1.00  0.00    -0.248 NA
ATOM     64  C   UNL A   1      42.261  31.372  36.773  1.00  0.00     0.031 C 
ATOM     65  C   UNL A   1      43.185  29.410  31.930  1.00  0.00     0.029 A 
ATOM     66  C   UNL A   1      42.284  28.918  32.869  1.00  0.00     0.049 A 
ATOM     67  H   UNL A   1      40.584  27.740  32.531  1.00  0.00     0.167 HD
ATOM     68  C   UNL A   1      41.966  29.679  35.201  1.00  0.00     0.074 A 
ATOM     69  C   UNL A   1      42.745  30.201  36.317  1.00  0.00     0.031 C 
ATOM     70  C   UNL A   1      42.367  28.714  34.311  1.00  0.00     0.037 A 
BRANCH  57  71
ATOM     71  C   UNL A   1      40.535  27.545  28.465  1.00  0.00     0.057 A 
ATOM     72  C   UNL A   1      40.031  26.256  28.179  1.00  0.00     0.134 A 
ATOM     73  C   UNL A   1      41.284  28.099  27.403  1.00  0.00     0.134 A 
ATOM     74  F   UNL A   1      39.291  25.583  29.071  1.00  0.00    -0.206 F 
ATOM     75  C   UNL A   1      40.256  25.583  26.964  1.00  0.00     0.040 A 
ATOM     76  C   UNL A   1      41.470  27.460  26.163  1.00  0.00     0.040 A 
ATOM     77  F   UNL A   1      41.924  29.267  27.518  1.00  0.00    -0.206 F 
ATOM     78  C   UNL A   1      40.966  26.188  25.940  1.00  0.00     0.006 A 
ENDBRANCH  57  71
BRANCH  58  79
ATOM     79  C   UNL A   1      39.479  33.801  36.380  1.00  0.00     0.057 A 
ATOM     80  C   UNL A   1      38.481  33.027  37.023  1.00  0.00     0.134 A 
ATOM     81  C   UNL A   1      39.842  34.993  37.020  1.00  0.00     0.134 A 
ATOM     82  F   UNL A   1      38.042  31.896  36.449  1.00  0.00    -0.206 F 
ATOM     83  C   UNL A   1      38.098  33.263  38.350  1.00  0.00     0.040 A 
ATOM     84  C   UNL A   1      39.424  35.259  38.339  1.00  0.00     0.040 A 
ATOM     85  F   UNL A   1      40.773  35.796  36.489  1.00  0.00    -0.206 F 
ATOM     86  C   UNL A   1      38.622  34.353  39.034  1.00  0.00     0.006 A 
ENDBRANCH  58  79
BRANCH  70  87
ATOM     87  C   UNL A   1      42.854  27.360  34.788  1.00  0.00     0.057 A 
ATOM     88  C   UNL A   1      42.001  26.259  34.938  1.00  0.00     0.134 A 
ATOM     89  C   UNL A   1      44.237  27.064  34.874  1.00  0.00     0.134 A 
ATOM     90  F   UNL A   1      40.672  26.370  34.803  1.00  0.00    -0.206 F 
ATOM     91  C   UNL A   1      42.481  24.969  35.180  1.00  0.00     0.040 A 
ATOM     92  C   UNL A   1      44.727  25.772  35.059  1.00  0.00     0.040 A 
ATOM     93  F   UNL A   1      45.186  28.002  34.735  1.00  0.00    -0.206 F 
ATOM     94  C   UNL A   1      43.845  24.719  35.223  1.00  0.00     0.006 A 
ENDBRANCH  70  87
ENDBRANCH  44  45
ENDBRANCH  37  39
ENDBRANCH  36  37
ENDBRANCH  35  36
ENDBRANCH  34  35
ENDBRANCH  33  34
ENDBRANCH  32  33
ENDBRANCH  31  32
ENDBRANCH  30  31
ENDBRANCH   1  30
TORSDOF 23
ENDMDL
MODEL 3
REMARK VINA RESULT:     -10.1      0.595      1.499
REMARK SMILES Cc1cc(NC(=O)c2ccc(Br)cc2N)ccc1C(=O)OCCOCCOCCOCCOC(=O)c1ccc(-c2c3nc(c(-c4c(F)cccc4F)c4ccc([nH]4)c(-c4c(F)cccc4F)c4nc(c(-c5c(F)cccc5F)c5ccc2[nH]5)C=C4)C=C3)cc1
REMARK SMILES IDX 26 1 25 2 24 3 23 4 22 5 21 6 19 7 20 8 18 9 1 10 2 11 3 12
REMARK SMILES IDX 4 13 17 14 16 15 5 16 6 17 7 19 8 20 9 21 14 22 10 23 13 24
REMARK SMILES IDX 11 25 12 26 15 27 27 30 28 31 29 32 30 33 31 34 32 35 33 36
REMARK SMILES IDX 34 37 35 38 36 39 37 40 89 41 38 42 88 43 39 44 40 45 41 46
REMARK SMILES IDX 82 47 42 48 87 49 81 50 83 51 43 52 86 53 80 54 79 55 44 57
REMARK SMILES IDX 70 58 53 59 69 60 54 61 57 62 68 63 84 64 55 65 56 66 67 68
REMARK SMILES IDX 85 69 58 70 45 71 46 72 51 73 47 74 48 75 50 76 52 77 49 78
REMARK SMILES IDX 71 79 72 80 77 81 73 82 74 83 76 84 78 85 75 86 59 87 60 88
REMARK SMILES IDX 65 89 61 90 62 91 64 92 66 93 63 94
REMARK H PARENT 5 18 15 28 15 29 83 56 57 67
REMARK Flexibility Score: inf
ROOT
ATOM      1  C   UNL A   1      39.590  21.753  26.154  1.00  0.00     0.188 C 
ENDROOT
BRANCH   1   2
ATOM      2  C   UNL A   1      38.268  21.760  25.363  1.00  0.00     0.188 C 
BRANCH   2   3
ATOM      3  O   UNL A   1      37.088  21.183  25.894  1.00  0.00    -0.376 OA
BRANCH   3   4
ATOM      4  C   UNL A   1      35.963  21.087  25.023  1.00  0.00     0.202 C 
BRANCH   4   5
ATOM      5  C   UNL A   1      34.567  21.151  25.614  1.00  0.00     0.261 C 
BRANCH   5   6
ATOM      6  O   UNL A   1      33.774  21.974  24.768  1.00  0.00    -0.460 OA
BRANCH   6   7
ATOM      7  C   UNL A   1      33.930  23.288  24.984  1.00  0.00     0.338 C 
ATOM      8  O   UNL A   1      34.957  23.885  25.226  1.00  0.00    -0.246 OA
BRANCH   7   9
ATOM      9  C   UNL A   1      32.706  23.944  24.480  1.00  0.00     0.063 A 
ATOM     10  C   UNL A   1      31.113  23.309  26.416  1.00  0.00     0.045 C 
ATOM     11  C   UNL A   1      31.451  23.964  25.113  1.00  0.00    -0.035 A 
ATOM     12  C   UNL A   1      30.465  24.772  24.553  1.00  0.00     0.030 A 
ATOM     13  C   UNL A   1      30.760  25.565  23.451  1.00  0.00     0.041 A 
ATOM     14  C   UNL A   1      32.875  24.521  23.209  1.00  0.00     0.018 A 
ATOM     15  C   UNL A   1      31.880  25.315  22.669  1.00  0.00     0.027 A 
BRANCH  13  16
ATOM     16  N   UNL A   1      30.103  26.771  23.239  1.00  0.00    -0.322 N 
ATOM     17  C   UNL A   1      30.299  27.988  23.866  1.00  0.00     0.257 C 
ATOM     18  H   UNL A   1      29.401  26.758  22.548  1.00  0.00     0.170 HD
ATOM     19  O   UNL A   1      29.517  28.900  23.585  1.00  0.00    -0.269 OA
BRANCH  17  20
ATOM     20  C   UNL A   1      31.405  28.283  24.844  1.00  0.00     0.063 A 
ATOM     21  C   UNL A   1      32.469  29.018  24.283  1.00  0.00     0.017 A 
ATOM     22  C   UNL A   1      31.510  27.851  26.190  1.00  0.00     0.045 A 
ATOM     23  C   UNL A   1      33.618  29.320  25.017  1.00  0.00     0.016 A 
ATOM     24  C   UNL A   1      32.670  28.186  26.920  1.00  0.00     0.042 A 
ATOM     25  C   UNL A   1      33.711  28.904  26.337  1.00  0.00     0.020 A 
ATOM     26  Br  UNL A   1      35.280  29.261  27.330  1.00  0.00    -0.051 Br
BRANCH  22  27
ATOM     27  N   UNL A   1      30.632  26.965  26.817  1.00  0.00    -0.398 N 
ATOM     28  H   UNL A   1      30.532  26.981  27.796  1.00  0.00     0.156 HD
ATOM     29  H   UNL A   1      30.112  26.324  26.279  1.00  0.00     0.156 HD
ENDBRANCH  22  27
ENDBRANCH  17  20
ENDBRANCH  13  16
ENDBRANCH   7   9
ENDBRANCH   6   7
ENDBRANCH   5   6
ENDBRANCH   4   5
ENDBRANCH   3   4
ENDBRANCH   2   3
ENDBRANCH   1   2
BRANCH   1  30
ATOM     30  O   UNL A   1      40.114  20.549  26.692  1.00  0.00    -0.377 OA
BRANCH  30  31
ATOM     31  C   UNL A   1      41.354  20.591  27.388  1.00  0.00     0.188 C 
BRANCH  31  32
ATOM     32  C   UNL A   1      42.197  19.322  27.397  1.00  0.00     0.188 C 
BRANCH  32  33
ATOM     33  O   UNL A   1      42.535  18.987  26.055  1.00  0.00    -0.376 OA
BRANCH  33  34
ATOM     34  C   UNL A   1      43.716  18.211  25.879  1.00  0.00     0.202 C 
BRANCH  34  35
ATOM     35  C   UNL A   1      44.878  18.984  25.245  1.00  0.00     0.261 C 
BRANCH  35  36
ATOM     36  O   UNL A   1      44.395  20.241  24.732  1.00  0.00    -0.460 OA
BRANCH  36  37
ATOM     37  C   UNL A   1      45.127  21.331  25.085  1.00  0.00     0.338 C 
ATOM     38  O   UNL A   1      46.324  21.336  25.318  1.00  0.00    -0.246 OA
BRANCH  37  39
ATOM     39  C   UNL A   1      44.216  22.454  25.454  1.00  0.00     0.060 A 
ATOM     40  C   UNL A   1      43.878  23.425  24.497  1.00  0.00     0.016 A 
ATOM     41  C   UNL A   1      44.024  22.729  26.800  1.00  0.00     0.016 A 
ATOM     42  C   UNL A   1      43.554  24.731  24.900  1.00  0.00     0.010 A 
ATOM     43  C   UNL A   1      43.816  24.037  27.181  1.00  0.00     0.010 A 
ATOM     44  C   UNL A   1      43.639  25.068  26.247  1.00  0.00    -0.014 A 
BRANCH  44  45
ATOM     45  C   UNL A   1      43.722  26.441  26.787  1.00  0.00     0.031 A 
ATOM     46  C   UNL A   1      42.452  27.216  26.998  1.00  0.00     0.074 A 
ATOM     47  C   UNL A   1      44.864  26.826  27.421  1.00  0.00     0.049 A 
ATOM     48  N   UNL A   1      42.372  28.334  27.630  1.00  0.00    -0.248 NA
ATOM     49  C   UNL A   1      41.129  26.759  26.572  1.00  0.00     0.031 C 
ATOM     50  C   UNL A   1      45.001  27.858  28.450  1.00  0.00     0.029 A 
ATOM     51  N   UNL A   1      46.160  26.345  27.360  1.00  0.00    -0.354 N 
ATOM     52  C   UNL A   1      41.061  28.565  27.992  1.00  0.00     0.074 A 
ATOM     53  C   UNL A   1      40.316  27.596  27.232  1.00  0.00     0.031 C 
ATOM     54  C   UNL A   1      46.283  28.033  28.798  1.00  0.00     0.029 A 
ATOM     55  C   UNL A   1      47.056  27.308  27.829  1.00  0.00     0.049 A 
ATOM     56  H   UNL A   1      46.414  25.450  27.034  1.00  0.00     0.167 HD
ATOM     57  C   UNL A   1      40.809  29.475  28.983  1.00  0.00     0.037 A 
ATOM     58  C   UNL A   1      47.919  27.961  26.994  1.00  0.00     0.037 A 
ATOM     59  C   UNL A   1      42.033  30.239  29.320  1.00  0.00     0.049 A 
ATOM     60  C   UNL A   1      47.453  29.417  26.858  1.00  0.00     0.074 A 
ATOM     61  C   UNL A   1      42.739  30.504  30.481  1.00  0.00     0.029 A 
ATOM     62  N   UNL A   1      42.834  30.727  28.281  1.00  0.00    -0.354 N 
ATOM     63  N   UNL A   1      46.184  29.783  26.882  1.00  0.00    -0.248 NA
ATOM     64  C   UNL A   1      48.355  30.556  27.049  1.00  0.00     0.031 C 
ATOM     65  C   UNL A   1      44.039  30.972  30.108  1.00  0.00     0.029 A 
ATOM     66  C   UNL A   1      44.092  31.088  28.722  1.00  0.00     0.049 A 
ATOM     67  H   UNL A   1      42.537  30.803  27.345  1.00  0.00     0.167 HD
ATOM     68  C   UNL A   1      46.102  31.097  27.282  1.00  0.00     0.074 A 
ATOM     69  C   UNL A   1      47.487  31.553  27.307  1.00  0.00     0.031 C 
ATOM     70  C   UNL A   1      45.022  31.753  27.817  1.00  0.00     0.037 A 
BRANCH  57  71
ATOM     71  C   UNL A   1      39.510  29.597  29.786  1.00  0.00     0.057 A 
ATOM     72  C   UNL A   1      39.088  28.553  30.640  1.00  0.00     0.134 A 
ATOM     73  C   UNL A   1      38.580  30.656  29.696  1.00  0.00     0.134 A 
ATOM     74  F   UNL A   1      39.852  27.472  30.848  1.00  0.00    -0.206 F 
ATOM     75  C   UNL A   1      37.860  28.558  31.327  1.00  0.00     0.040 A 
ATOM     76  C   UNL A   1      37.374  30.698  30.422  1.00  0.00     0.040 A 
ATOM     77  F   UNL A   1      38.753  31.688  28.864  1.00  0.00    -0.206 F 
ATOM     78  C   UNL A   1      37.001  29.639  31.234  1.00  0.00     0.006 A 
ENDBRANCH  57  71
BRANCH  58  79
ATOM     79  C   UNL A   1      48.583  26.978  26.080  1.00  0.00     0.057 A 
ATOM     80  C   UNL A   1      48.275  27.188  24.713  1.00  0.00     0.134 A 
ATOM     81  C   UNL A   1      49.867  26.490  26.353  1.00  0.00     0.134 A 
ATOM     82  F   UNL A   1      47.048  27.608  24.362  1.00  0.00    -0.206 F 
ATOM     83  C   UNL A   1      49.265  27.207  23.722  1.00  0.00     0.040 A 
ATOM     84  C   UNL A   1      50.857  26.463  25.351  1.00  0.00     0.040 A 
ATOM     85  F   UNL A   1      50.252  26.254  27.614  1.00  0.00    -0.206 F 
ATOM     86  C   UNL A   1      50.578  26.902  24.057  1.00  0.00     0.006 A 
ENDBRANCH  58  79
BRANCH  70  87
ATOM     87  C   UNL A   1      44.706  33.186  27.436  1.00  0.00     0.057 A 
ATOM     88  C   UNL A   1      43.983  33.521  26.284  1.00  0.00     0.134 A 
ATOM     89  C   UNL A   1      44.911  34.251  28.348  1.00  0.00     0.134 A 
ATOM     90  F   UNL A   1      43.644  32.603  25.370  1.00  0.00    -0.206 F 
ATOM     91  C   UNL A   1      43.520  34.818  26.043  1.00  0.00     0.040 A 
ATOM     92  C   UNL A   1      44.405  35.534  28.142  1.00  0.00     0.040 A 
ATOM     93  F   UNL A   1      45.568  34.093  29.506  1.00  0.00    -0.206 F 
ATOM     94  C   UNL A   1      43.714  35.824  26.980  1.00  0.00     0.006 A 
ENDBRANCH  70  87
ENDBRANCH  44  45
ENDBRANCH  37  39
ENDBRANCH  36  37
ENDBRANCH  35  36
ENDBRANCH  34  35
ENDBRANCH  33  34
ENDBRANCH  32  33
ENDBRANCH  31  32
ENDBRANCH  30  31
ENDBRANCH   1  30
TORSDOF 23
ENDMDL
