MODEL 1
REMARK VINA RESULT:      -9.3      0.000      0.000
REMARK SMILES C#CCN(CC(=O)OCCOCCOCCOCCOC(=O)c1ccc(-c2c3nc(c(-c4c(F)cccc4F)c4ccc([nH]4)c(-c4c(F)cccc4F)c4nc(c(-c5c(F)cccc5F)c5ccc2[nH]5)C=C4)C=C3)cc1)C(=O)N1CC[N@@H+]2CCC[C@H]2C1
REMARK SMILES IDX 13 1 12 2 11 3 10 4 9 5 8 6 6 7 7 8 5 9 4 10 3 11 2 12 1 13
REMARK SMILES IDX 77 14 78 15 79 16 80 17 87 18 81 19 86 20 82 21 85 22 83 23
REMARK SMILES IDX 84 25 14 26 15 27 16 28 17 29 18 30 19 31 20 32 21 33 22 34
REMARK SMILES IDX 23 35 24 36 76 37 25 38 75 39 26 40 27 41 28 42 69 43 29 44
REMARK SMILES IDX 74 45 68 46 70 47 30 48 73 49 67 50 66 51 31 53 57 54 40 55
REMARK SMILES IDX 56 56 41 57 44 58 55 59 71 60 42 61 43 62 54 64 72 65 45 66
REMARK SMILES IDX 32 67 33 68 38 69 34 70 35 71 37 72 39 73 36 74 58 75 59 76
REMARK SMILES IDX 64 77 60 78 61 79 63 80 65 81 62 82 46 83 47 84 52 85 48 86
REMARK SMILES IDX 49 87 51 88 53 89 50 90
REMARK H PARENT 82 24 70 52 44 63
REMARK Flexibility Score: inf
ROOT
ATOM      1  C   UNL A   1      34.236  34.213  28.600  1.00  0.00     0.188 C 
ENDROOT
BRANCH   1   2
ATOM      2  C   UNL A   1      34.255  32.671  28.529  1.00  0.00     0.188 C 
BRANCH   2   3
ATOM      3  O   UNL A   1      35.441  32.081  28.019  1.00  0.00    -0.376 OA
BRANCH   3   4
ATOM      4  C   UNL A   1      35.341  30.714  27.636  1.00  0.00     0.202 C 
BRANCH   4   5
ATOM      5  C   UNL A   1      33.942  30.090  27.371  1.00  0.00     0.261 C 
BRANCH   5   6
ATOM      6  O   UNL A   1      33.904  28.645  27.152  1.00  0.00    -0.462 OA
BRANCH   6   7
ATOM      7  C   UNL A   1      33.626  28.224  25.886  1.00  0.00     0.325 C 
ATOM      8  O   UNL A   1      33.466  29.000  24.945  1.00  0.00    -0.250 OA
BRANCH   7   9
ATOM      9  C   UNL A   1      33.431  26.693  25.693  1.00  0.00     0.245 C 
BRANCH   9  10
ATOM     10  N   UNL A   1      32.237  25.945  26.127  1.00  0.00    -0.302 N 
BRANCH  10  11
ATOM     11  C   UNL A   1      30.895  26.647  25.944  1.00  0.00     0.211 C 
BRANCH  11  12
ATOM     12  C   UNL A   1      30.710  26.827  24.446  1.00  0.00    -0.085 C 
ATOM     13  C   UNL A   1      30.551  26.981  23.161  1.00  0.00     0.006 C 
ENDBRANCH  11  12
ENDBRANCH  10  11
BRANCH  10  14
ATOM     14  C   UNL A   1      32.176  24.572  26.441  1.00  0.00     0.321 C 
ATOM     15  O   UNL A   1      31.329  24.161  27.244  1.00  0.00    -0.248 OA
BRANCH  14  16
ATOM     16  N   UNL A   1      33.030  23.627  25.842  1.00  0.00    -0.313 N 
ATOM     17  C   UNL A   1      34.336  23.288  26.412  1.00  0.00     0.183 C 
ATOM     18  C   UNL A   1      32.312  22.432  25.299  1.00  0.00     0.186 C 
ATOM     19  C   UNL A   1      35.175  22.207  25.698  1.00  0.00     0.284 C 
ATOM     20  C   UNL A   1      33.219  21.369  24.644  1.00  0.00     0.204 C 
ATOM     21  N   UNL A   1      34.339  21.029  25.528  1.00  0.00    -0.330 N 
ATOM     22  C   UNL A   1      32.602  19.991  24.430  1.00  0.00     0.073 C 
ATOM     23  C   UNL A   1      34.982  19.858  24.959  1.00  0.00     0.262 C 
ATOM     24  H   UNL A   1      34.066  20.775  26.478  1.00  0.00     0.348 HD
ATOM     25  C   UNL A   1      33.788  19.017  24.514  1.00  0.00     0.068 C 
ENDBRANCH  14  16
ENDBRANCH  10  14
ENDBRANCH   9  10
ENDBRANCH   7   9
ENDBRANCH   6   7
ENDBRANCH   5   6
ENDBRANCH   4   5
ENDBRANCH   3   4
ENDBRANCH   2   3
ENDBRANCH   1   2
BRANCH   1  26
ATOM     26  O   UNL A   1      33.050  34.835  29.043  1.00  0.00    -0.377 OA
BRANCH  26  27
ATOM     27  C   UNL A   1      33.203  35.604  30.205  1.00  0.00     0.188 C 
BRANCH  27  28
ATOM     28  C   UNL A   1      34.148  34.978  31.242  1.00  0.00     0.188 C 
BRANCH  28  29
ATOM     29  O   UNL A   1      33.877  33.703  31.816  1.00  0.00    -0.376 OA
BRANCH  29  30
ATOM     30  C   UNL A   1      33.998  33.475  33.219  1.00  0.00     0.202 C 
BRANCH  30  31
ATOM     31  C   UNL A   1      35.391  33.288  33.833  1.00  0.00     0.261 C 
BRANCH  31  32
ATOM     32  O   UNL A   1      36.176  32.294  33.159  1.00  0.00    -0.460 OA
BRANCH  32  33
ATOM     33  C   UNL A   1      37.261  31.834  33.823  1.00  0.00     0.338 C 
ATOM     34  O   UNL A   1      37.362  31.579  35.011  1.00  0.00    -0.246 OA
BRANCH  33  35
ATOM     35  C   UNL A   1      38.270  31.452  32.818  1.00  0.00     0.060 A 
ATOM     36  C   UNL A   1      39.410  30.768  33.264  1.00  0.00     0.016 A 
ATOM     37  C   UNL A   1      38.048  31.660  31.454  1.00  0.00     0.016 A 
ATOM     38  C   UNL A   1      40.302  30.233  32.340  1.00  0.00     0.010 A 
ATOM     39  C   UNL A   1      38.978  31.183  30.533  1.00  0.00     0.010 A 
ATOM     40  C   UNL A   1      40.105  30.466  30.974  1.00  0.00    -0.014 A 
BRANCH  40  41
ATOM     41  C   UNL A   1      41.191  30.148  30.026  1.00  0.00     0.031 A 
ATOM     42  C   UNL A   1      41.215  28.766  29.447  1.00  0.00     0.074 A 
ATOM     43  C   UNL A   1      42.120  31.060  29.692  1.00  0.00     0.049 A 
ATOM     44  N   UNL A   1      42.088  28.217  28.645  1.00  0.00    -0.248 NA
ATOM     45  C   UNL A   1      40.098  27.882  29.824  1.00  0.00     0.031 C 
ATOM     46  C   UNL A   1      42.161  32.444  30.163  1.00  0.00     0.029 A 
ATOM     47  N   UNL A   1      43.224  30.946  28.885  1.00  0.00    -0.354 N 
ATOM     48  C   UNL A   1      41.618  26.931  28.413  1.00  0.00     0.074 A 
ATOM     49  C   UNL A   1      40.402  26.770  29.174  1.00  0.00     0.031 C 
ATOM     50  C   UNL A   1      43.257  33.041  29.661  1.00  0.00     0.029 A 
ATOM     51  C   UNL A   1      44.007  32.074  28.862  1.00  0.00     0.049 A 
ATOM     52  H   UNL A   1      43.436  30.131  28.373  1.00  0.00     0.167 HD
ATOM     53  C   UNL A   1      42.156  25.971  27.628  1.00  0.00     0.037 A 
ATOM     54  C   UNL A   1      45.208  32.279  28.287  1.00  0.00     0.037 A 
ATOM     55  C   UNL A   1      43.390  26.126  26.911  1.00  0.00     0.049 A 
ATOM     56  C   UNL A   1      45.845  31.152  27.511  1.00  0.00     0.074 A 
ATOM     57  C   UNL A   1      44.035  25.214  26.097  1.00  0.00     0.029 A 
ATOM     58  N   UNL A   1      44.176  27.268  26.942  1.00  0.00    -0.354 N 
ATOM     59  N   UNL A   1      45.382  29.949  27.266  1.00  0.00    -0.248 NA
ATOM     60  C   UNL A   1      47.174  31.409  26.936  1.00  0.00     0.031 C 
ATOM     61  C   UNL A   1      45.239  25.788  25.676  1.00  0.00     0.029 A 
ATOM     62  C   UNL A   1      45.318  27.075  26.187  1.00  0.00     0.049 A 
ATOM     63  H   UNL A   1      43.954  28.094  27.430  1.00  0.00     0.167 HD
ATOM     64  C   UNL A   1      46.351  29.312  26.500  1.00  0.00     0.074 A 
ATOM     65  C   UNL A   1      47.418  30.271  26.299  1.00  0.00     0.031 C 
ATOM     66  C   UNL A   1      46.365  28.049  26.009  1.00  0.00     0.037 A 
BRANCH  53  67
ATOM     67  C   UNL A   1      41.424  24.667  27.544  1.00  0.00     0.057 A 
ATOM     68  C   UNL A   1      40.306  24.502  26.713  1.00  0.00     0.134 A 
ATOM     69  C   UNL A   1      41.842  23.562  28.295  1.00  0.00     0.134 A 
ATOM     70  F   UNL A   1      39.840  25.530  25.989  1.00  0.00    -0.206 F 
ATOM     71  C   UNL A   1      39.622  23.288  26.646  1.00  0.00     0.040 A 
ATOM     72  C   UNL A   1      41.179  22.336  28.217  1.00  0.00     0.040 A 
ATOM     73  F   UNL A   1      42.899  23.656  29.115  1.00  0.00    -0.206 F 
ATOM     74  C   UNL A   1      40.064  22.199  27.394  1.00  0.00     0.006 A 
ENDBRANCH  53  67
BRANCH  54  75
ATOM     75  C   UNL A   1      45.917  33.573  28.458  1.00  0.00     0.057 A 
ATOM     76  C   UNL A   1      45.684  34.655  27.600  1.00  0.00     0.134 A 
ATOM     77  C   UNL A   1      46.881  33.747  29.460  1.00  0.00     0.134 A 
ATOM     78  F   UNL A   1      44.794  34.544  26.603  1.00  0.00    -0.206 F 
ATOM     79  C   UNL A   1      46.396  35.851  27.718  1.00  0.00     0.040 A 
ATOM     80  C   UNL A   1      47.582  34.946  29.606  1.00  0.00     0.040 A 
ATOM     81  F   UNL A   1      47.156  32.751  30.316  1.00  0.00    -0.206 F 
ATOM     82  C   UNL A   1      47.346  36.000  28.725  1.00  0.00     0.006 A 
ENDBRANCH  54  75
BRANCH  66  83
ATOM     83  C   UNL A   1      47.560  27.637  25.201  1.00  0.00     0.057 A 
ATOM     84  C   UNL A   1      48.684  27.053  25.798  1.00  0.00     0.134 A 
ATOM     85  C   UNL A   1      47.561  27.770  23.807  1.00  0.00     0.134 A 
ATOM     86  F   UNL A   1      48.749  26.908  27.130  1.00  0.00    -0.206 F 
ATOM     87  C   UNL A   1      49.775  26.631  25.037  1.00  0.00     0.040 A 
ATOM     88  C   UNL A   1      48.634  27.325  23.034  1.00  0.00     0.040 A 
ATOM     89  F   UNL A   1      46.510  28.310  23.173  1.00  0.00    -0.206 F 
ATOM     90  C   UNL A   1      49.747  26.758  23.650  1.00  0.00     0.006 A 
ENDBRANCH  66  83
ENDBRANCH  40  41
ENDBRANCH  33  35
ENDBRANCH  32  33
ENDBRANCH  31  32
ENDBRANCH  30  31
ENDBRANCH  29  30
ENDBRANCH  28  29
ENDBRANCH  27  28
ENDBRANCH  26  27
ENDBRANCH   1  26
TORSDOF 25
ENDMDL
MODEL 2
REMARK VINA RESULT:      -8.9      1.880      3.048
REMARK SMILES C#CCN(CC(=O)OCCOCCOCCOCCOC(=O)c1ccc(-c2c3nc(c(-c4c(F)cccc4F)c4ccc([nH]4)c(-c4c(F)cccc4F)c4nc(c(-c5c(F)cccc5F)c5ccc2[nH]5)C=C4)C=C3)cc1)C(=O)N1CC[N@@H+]2CCC[C@H]2C1
REMARK SMILES IDX 13 1 12 2 11 3 10 4 9 5 8 6 6 7 7 8 5 9 4 10 3 11 2 12 1 13
REMARK SMILES IDX 77 14 78 15 79 16 80 17 87 18 81 19 86 20 82 21 85 22 83 23
REMARK SMILES IDX 84 25 14 26 15 27 16 28 17 29 18 30 19 31 20 32 21 33 22 34
REMARK SMILES IDX 23 35 24 36 76 37 25 38 75 39 26 40 27 41 28 42 69 43 29 44
REMARK SMILES IDX 74 45 68 46 70 47 30 48 73 49 67 50 66 51 31 53 57 54 40 55
REMARK SMILES IDX 56 56 41 57 44 58 55 59 71 60 42 61 43 62 54 64 72 65 45 66
REMARK SMILES IDX 32 67 33 68 38 69 34 70 35 71 37 72 39 73 36 74 58 75 59 76
REMARK SMILES IDX 64 77 60 78 61 79 63 80 65 81 62 82 46 83 47 84 52 85 48 86
REMARK SMILES IDX 49 87 51 88 53 89 50 90
REMARK H PARENT 82 24 70 52 44 63
REMARK Flexibility Score: inf
ROOT
ATOM      1  C   UNL A   1      35.080  29.447  27.424  1.00  0.00     0.188 C 
ENDROOT
BRANCH   1   2
ATOM      2  C   UNL A   1      33.941  28.853  26.567  1.00  0.00     0.188 C 
BRANCH   2   3
ATOM      3  O   UNL A   1      33.869  29.301  25.222  1.00  0.00    -0.376 OA
BRANCH   3   4
ATOM      4  C   UNL A   1      32.901  28.656  24.403  1.00  0.00     0.202 C 
BRANCH   4   5
ATOM      5  C   UNL A   1      31.406  28.666  24.826  1.00  0.00     0.261 C 
BRANCH   5   6
ATOM      6  O   UNL A   1      30.657  27.431  24.603  1.00  0.00    -0.462 OA
BRANCH   6   7
ATOM      7  C   UNL A   1      30.779  26.459  25.552  1.00  0.00     0.325 C 
ATOM      8  O   UNL A   1      31.021  26.707  26.733  1.00  0.00    -0.250 OA
BRANCH   7   9
ATOM      9  C   UNL A   1      30.685  24.988  25.054  1.00  0.00     0.245 C 
BRANCH   9  10
ATOM     10  N   UNL A   1      31.724  23.966  25.277  1.00  0.00    -0.302 N 
BRANCH  10  11
ATOM     11  C   UNL A   1      31.763  23.333  26.664  1.00  0.00     0.211 C 
BRANCH  11  12
ATOM     12  C   UNL A   1      30.335  22.925  26.986  1.00  0.00    -0.085 C 
ATOM     13  C   UNL A   1      29.109  22.576  27.263  1.00  0.00     0.006 C 
ENDBRANCH  11  12
ENDBRANCH  10  11
BRANCH  10  14
ATOM     14  C   UNL A   1      32.500  23.330  24.287  1.00  0.00     0.321 C 
ATOM     15  O   UNL A   1      31.946  22.792  23.320  1.00  0.00    -0.248 OA
BRANCH  14  16
ATOM     16  N   UNL A   1      33.906  23.309  24.335  1.00  0.00    -0.313 N 
ATOM     17  C   UNL A   1      34.669  24.214  25.199  1.00  0.00     0.183 C 
ATOM     18  C   UNL A   1      34.486  21.930  24.293  1.00  0.00     0.186 C 
ATOM     19  C   UNL A   1      36.206  24.079  25.205  1.00  0.00     0.284 C 
ATOM     20  C   UNL A   1      36.027  21.870  24.354  1.00  0.00     0.204 C 
ATOM     21  N   UNL A   1      36.534  22.685  25.463  1.00  0.00    -0.330 N 
ATOM     22  C   UNL A   1      36.638  20.516  24.701  1.00  0.00     0.073 C 
ATOM     23  C   UNL A   1      37.944  22.369  25.607  1.00  0.00     0.262 C 
ATOM     24  H   UNL A   1      36.101  22.488  26.365  1.00  0.00     0.348 HD
ATOM     25  C   UNL A   1      37.957  20.855  25.411  1.00  0.00     0.068 C 
ENDBRANCH  14  16
ENDBRANCH  10  14
ENDBRANCH   9  10
ENDBRANCH   7   9
ENDBRANCH   6   7
ENDBRANCH   5   6
ENDBRANCH   4   5
ENDBRANCH   3   4
ENDBRANCH   2   3
ENDBRANCH   1   2
BRANCH   1  26
ATOM     26  O   UNL A   1      34.786  30.578  28.214  1.00  0.00    -0.377 OA
BRANCH  26  27
ATOM     27  C   UNL A   1      35.162  31.798  27.635  1.00  0.00     0.188 C 
BRANCH  27  28
ATOM     28  C   UNL A   1      34.330  32.996  28.117  1.00  0.00     0.188 C 
BRANCH  28  29
ATOM     29  O   UNL A   1      34.302  33.375  29.490  1.00  0.00    -0.376 OA
BRANCH  29  30
ATOM     30  C   UNL A   1      35.499  33.488  30.257  1.00  0.00     0.202 C 
BRANCH  30  31
ATOM     31  C   UNL A   1      35.832  32.408  31.293  1.00  0.00     0.261 C 
BRANCH  31  32
ATOM     32  O   UNL A   1      36.182  31.148  30.704  1.00  0.00    -0.460 OA
BRANCH  32  33
ATOM     33  C   UNL A   1      36.839  30.274  31.501  1.00  0.00     0.338 C 
ATOM     34  O   UNL A   1      36.426  29.716  32.504  1.00  0.00    -0.246 OA
BRANCH  33  35
ATOM     35  C   UNL A   1      38.093  29.905  30.820  1.00  0.00     0.060 A 
ATOM     36  C   UNL A   1      39.118  29.345  31.596  1.00  0.00     0.016 A 
ATOM     37  C   UNL A   1      38.218  30.003  29.432  1.00  0.00     0.016 A 
ATOM     38  C   UNL A   1      40.248  28.820  30.977  1.00  0.00     0.010 A 
ATOM     39  C   UNL A   1      39.381  29.538  28.819  1.00  0.00     0.010 A 
ATOM     40  C   UNL A   1      40.396  28.943  29.590  1.00  0.00    -0.014 A 
BRANCH  40  41
ATOM     41  C   UNL A   1      41.706  28.649  28.978  1.00  0.00     0.031 A 
ATOM     42  C   UNL A   1      41.956  27.239  28.533  1.00  0.00     0.074 A 
ATOM     43  C   UNL A   1      42.639  29.603  28.822  1.00  0.00     0.049 A 
ATOM     44  N   UNL A   1      43.035  26.707  28.026  1.00  0.00    -0.248 NA
ATOM     45  C   UNL A   1      40.829  26.301  28.681  1.00  0.00     0.031 C 
ATOM     46  C   UNL A   1      42.481  31.013  29.179  1.00  0.00     0.029 A 
ATOM     47  N   UNL A   1      43.919  29.521  28.334  1.00  0.00    -0.354 N 
ATOM     48  C   UNL A   1      42.712  25.378  27.781  1.00  0.00     0.074 A 
ATOM     49  C   UNL A   1      41.351  25.176  28.219  1.00  0.00     0.031 C 
ATOM     50  C   UNL A   1      43.635  31.657  28.927  1.00  0.00     0.029 A 
ATOM     51  C   UNL A   1      44.618  30.699  28.423  1.00  0.00     0.049 A 
ATOM     52  H   UNL A   1      44.300  28.695  27.958  1.00  0.00     0.167 HD
ATOM     53  C   UNL A   1      43.487  24.414  27.237  1.00  0.00     0.037 A 
ATOM     54  C   UNL A   1      45.915  30.956  28.159  1.00  0.00     0.037 A 
ATOM     55  C   UNL A   1      44.854  24.615  26.848  1.00  0.00     0.049 A 
ATOM     56  C   UNL A   1      46.792  29.833  27.661  1.00  0.00     0.074 A 
ATOM     57  C   UNL A   1      45.737  23.704  26.298  1.00  0.00     0.029 A 
ATOM     58  N   UNL A   1      45.542  25.811  26.990  1.00  0.00    -0.354 N 
ATOM     59  N   UNL A   1      46.474  28.587  27.401  1.00  0.00    -0.248 NA
ATOM     60  C   UNL A   1      48.208  30.151  27.425  1.00  0.00     0.031 C 
ATOM     61  C   UNL A   1      46.976  24.337  26.155  1.00  0.00     0.029 A 
ATOM     62  C   UNL A   1      46.850  25.655  26.568  1.00  0.00     0.049 A 
ATOM     63  H   UNL A   1      45.156  26.647  27.339  1.00  0.00     0.167 HD
ATOM     64  C   UNL A   1      47.642  27.977  26.958  1.00  0.00     0.074 A 
ATOM     65  C   UNL A   1      48.670  28.997  26.962  1.00  0.00     0.031 C 
ATOM     66  C   UNL A   1      47.852  26.691  26.587  1.00  0.00     0.037 A 
BRANCH  53  67
ATOM     67  C   UNL A   1      42.874  23.058  27.070  1.00  0.00     0.057 A 
ATOM     68  C   UNL A   1      42.668  22.204  28.163  1.00  0.00     0.134 A 
ATOM     69  C   UNL A   1      42.480  22.600  25.808  1.00  0.00     0.134 A 
ATOM     70  F   UNL A   1      43.049  22.573  29.395  1.00  0.00    -0.206 F 
ATOM     71  C   UNL A   1      42.107  20.937  28.002  1.00  0.00     0.040 A 
ATOM     72  C   UNL A   1      41.895  21.345  25.638  1.00  0.00     0.040 A 
ATOM     73  F   UNL A   1      42.656  23.365  24.720  1.00  0.00    -0.206 F 
ATOM     74  C   UNL A   1      41.711  20.508  26.736  1.00  0.00     0.006 A 
ENDBRANCH  53  67
BRANCH  54  75
ATOM     75  C   UNL A   1      46.483  32.307  28.404  1.00  0.00     0.057 A 
ATOM     76  C   UNL A   1      46.510  33.283  27.401  1.00  0.00     0.134 A 
ATOM     77  C   UNL A   1      47.055  32.642  29.639  1.00  0.00     0.134 A 
ATOM     78  F   UNL A   1      46.004  33.017  26.188  1.00  0.00    -0.206 F 
ATOM     79  C   UNL A   1      47.103  34.531  27.608  1.00  0.00     0.040 A 
ATOM     80  C   UNL A   1      47.628  33.895  29.868  1.00  0.00     0.040 A 
ATOM     81  F   UNL A   1      47.065  31.753  30.644  1.00  0.00    -0.206 F 
ATOM     82  C   UNL A   1      47.661  34.840  28.846  1.00  0.00     0.006 A 
ENDBRANCH  54  75
BRANCH  66  83
ATOM     83  C   UNL A   1      49.236  26.318  26.145  1.00  0.00     0.057 A 
ATOM     84  C   UNL A   1      49.710  26.639  24.866  1.00  0.00     0.134 A 
ATOM     85  C   UNL A   1      50.123  25.688  27.027  1.00  0.00     0.134 A 
ATOM     86  F   UNL A   1      48.906  27.233  23.972  1.00  0.00    -0.206 F 
ATOM     87  C   UNL A   1      51.013  26.329  24.475  1.00  0.00     0.040 A 
ATOM     88  C   UNL A   1      51.437  25.399  26.656  1.00  0.00     0.040 A 
ATOM     89  F   UNL A   1      49.734  25.365  28.269  1.00  0.00    -0.206 F 
ATOM     90  C   UNL A   1      51.883  25.716  25.375  1.00  0.00     0.006 A 
ENDBRANCH  66  83
ENDBRANCH  40  41
ENDBRANCH  33  35
ENDBRANCH  32  33
ENDBRANCH  31  32
ENDBRANCH  30  31
ENDBRANCH  29  30
ENDBRANCH  28  29
ENDBRANCH  27  28
ENDBRANCH  26  27
ENDBRANCH   1  26
TORSDOF 25
ENDMDL
MODEL 3
REMARK VINA RESULT:      -8.9      1.474      6.354
REMARK SMILES C#CCN(CC(=O)OCCOCCOCCOCCOC(=O)c1ccc(-c2c3nc(c(-c4c(F)cccc4F)c4ccc([nH]4)c(-c4c(F)cccc4F)c4nc(c(-c5c(F)cccc5F)c5ccc2[nH]5)C=C4)C=C3)cc1)C(=O)N1CC[N@@H+]2CCC[C@H]2C1
REMARK SMILES IDX 13 1 12 2 11 3 10 4 9 5 8 6 6 7 7 8 5 9 4 10 3 11 2 12 1 13
REMARK SMILES IDX 77 14 78 15 79 16 80 17 87 18 81 19 86 20 82 21 85 22 83 23
REMARK SMILES IDX 84 25 14 26 15 27 16 28 17 29 18 30 19 31 20 32 21 33 22 34
REMARK SMILES IDX 23 35 24 36 76 37 25 38 75 39 26 40 27 41 28 42 69 43 29 44
REMARK SMILES IDX 74 45 68 46 70 47 30 48 73 49 67 50 66 51 31 53 57 54 40 55
REMARK SMILES IDX 56 56 41 57 44 58 55 59 71 60 42 61 43 62 54 64 72 65 45 66
REMARK SMILES IDX 32 67 33 68 38 69 34 70 35 71 37 72 39 73 36 74 58 75 59 76
REMARK SMILES IDX 64 77 60 78 61 79 63 80 65 81 62 82 46 83 47 84 52 85 48 86
REMARK SMILES IDX 49 87 51 88 53 89 50 90
REMARK H PARENT 82 24 70 52 44 63
REMARK Flexibility Score: inf
ROOT
ATOM      1  C   UNL A   1      35.924  31.529  28.472  1.00  0.00     0.188 C 
ENDROOT
BRANCH   1   2
ATOM      2  C   UNL A   1      36.424  30.385  27.564  1.00  0.00     0.188 C 
BRANCH   2   3
ATOM      3  O   UNL A   1      35.423  29.600  26.935  1.00  0.00    -0.376 OA
BRANCH   3   4
ATOM      4  C   UNL A   1      34.296  29.270  27.737  1.00  0.00     0.202 C 
BRANCH   4   5
ATOM      5  C   UNL A   1      32.865  29.600  27.226  1.00  0.00     0.261 C 
BRANCH   5   6
ATOM      6  O   UNL A   1      32.776  30.318  25.957  1.00  0.00    -0.462 OA
BRANCH   6   7
ATOM      7  C   UNL A   1      32.601  29.563  24.835  1.00  0.00     0.325 C 
ATOM      8  O   UNL A   1      33.529  29.253  24.089  1.00  0.00    -0.250 OA
BRANCH   7   9
ATOM      9  C   UNL A   1      31.137  29.174  24.483  1.00  0.00     0.245 C 
BRANCH   9  10
ATOM     10  N   UNL A   1      30.719  28.583  23.199  1.00  0.00    -0.302 N 
BRANCH  10  11
ATOM     11  C   UNL A   1      30.101  29.538  22.183  1.00  0.00     0.211 C 
BRANCH  11  12
ATOM     12  C   UNL A   1      28.980  30.264  22.908  1.00  0.00    -0.085 C 
ATOM     13  C   UNL A   1      28.017  30.887  23.530  1.00  0.00     0.006 C 
ENDBRANCH  11  12
ENDBRANCH  10  11
BRANCH  10  14
ATOM     14  C   UNL A   1      31.062  27.305  22.713  1.00  0.00     0.321 C 
ATOM     15  O   UNL A   1      30.925  27.045  21.511  1.00  0.00    -0.248 OA
BRANCH  14  16
ATOM     16  N   UNL A   1      31.598  26.305  23.546  1.00  0.00    -0.313 N 
ATOM     17  C   UNL A   1      30.757  25.280  24.171  1.00  0.00     0.183 C 
ATOM     18  C   UNL A   1      32.904  25.759  23.062  1.00  0.00     0.186 C 
ATOM     19  C   UNL A   1      31.452  24.206  25.033  1.00  0.00     0.284 C 
ATOM     20  C   UNL A   1      33.516  24.652  23.947  1.00  0.00     0.204 C 
ATOM     21  N   UNL A   1      32.520  23.616  24.241  1.00  0.00    -0.330 N 
ATOM     22  C   UNL A   1      34.617  23.810  23.312  1.00  0.00     0.073 C 
ATOM     23  C   UNL A   1      33.235  22.506  24.846  1.00  0.00     0.262 C 
ATOM     24  H   UNL A   1      32.046  23.240  23.419  1.00  0.00     0.348 HD
ATOM     25  C   UNL A   1      34.505  22.441  24.000  1.00  0.00     0.068 C 
ENDBRANCH  14  16
ENDBRANCH  10  14
ENDBRANCH   9  10
ENDBRANCH   7   9
ENDBRANCH   6   7
ENDBRANCH   5   6
ENDBRANCH   4   5
ENDBRANCH   3   4
ENDBRANCH   2   3
ENDBRANCH   1   2
BRANCH   1  26
ATOM     26  O   UNL A   1      36.101  32.853  28.019  1.00  0.00    -0.377 OA
BRANCH  26  27
ATOM     27  C   UNL A   1      34.923  33.614  27.991  1.00  0.00     0.188 C 
BRANCH  27  28
ATOM     28  C   UNL A   1      33.941  33.278  29.123  1.00  0.00     0.188 C 
BRANCH  28  29
ATOM     29  O   UNL A   1      33.759  34.155  30.230  1.00  0.00    -0.376 OA
BRANCH  29  30
ATOM     30  C   UNL A   1      34.401  33.918  31.482  1.00  0.00     0.202 C 
BRANCH  30  31
ATOM     31  C   UNL A   1      35.098  32.575  31.727  1.00  0.00     0.261 C 
BRANCH  31  32
ATOM     32  O   UNL A   1      35.910  32.567  32.909  1.00  0.00    -0.460 OA
BRANCH  32  33
ATOM     33  C   UNL A   1      36.989  33.383  32.904  1.00  0.00     0.338 C 
ATOM     34  O   UNL A   1      37.159  34.408  33.543  1.00  0.00    -0.246 OA
BRANCH  33  35
ATOM     35  C   UNL A   1      38.062  32.700  32.159  1.00  0.00     0.060 A 
ATOM     36  C   UNL A   1      38.828  31.746  32.845  1.00  0.00     0.016 A 
ATOM     37  C   UNL A   1      38.239  32.909  30.789  1.00  0.00     0.016 A 
ATOM     38  C   UNL A   1      39.731  30.951  32.147  1.00  0.00     0.010 A 
ATOM     39  C   UNL A   1      39.193  32.158  30.104  1.00  0.00     0.010 A 
ATOM     40  C   UNL A   1      39.939  31.177  30.781  1.00  0.00    -0.014 A 
BRANCH  40  41
ATOM     41  C   UNL A   1      41.088  30.537  30.113  1.00  0.00     0.031 A 
ATOM     42  C   UNL A   1      42.289  31.392  29.841  1.00  0.00     0.074 A 
ATOM     43  C   UNL A   1      41.065  29.239  29.763  1.00  0.00     0.049 A 
ATOM     44  N   UNL A   1      43.397  31.094  29.218  1.00  0.00    -0.248 NA
ATOM     45  C   UNL A   1      42.229  32.776  30.344  1.00  0.00     0.031 C 
ATOM     46  C   UNL A   1      39.965  28.310  30.021  1.00  0.00     0.029 A 
ATOM     47  N   UNL A   1      41.995  28.484  29.094  1.00  0.00    -0.354 N 
ATOM     48  C   UNL A   1      44.170  32.247  29.267  1.00  0.00     0.074 A 
ATOM     49  C   UNL A   1      43.399  33.256  29.954  1.00  0.00     0.031 C 
ATOM     50  C   UNL A   1      40.274  27.114  29.486  1.00  0.00     0.029 A 
ATOM     51  C   UNL A   1      41.573  27.206  28.823  1.00  0.00     0.049 A 
ATOM     52  H   UNL A   1      42.880  28.827  28.832  1.00  0.00     0.167 HD
ATOM     53  C   UNL A   1      45.416  32.442  28.783  1.00  0.00     0.037 A 
ATOM     54  C   UNL A   1      42.162  26.240  28.091  1.00  0.00     0.037 A 
ATOM     55  C   UNL A   1      46.156  31.445  28.061  1.00  0.00     0.049 A 
ATOM     56  C   UNL A   1      43.504  26.520  27.461  1.00  0.00     0.074 A 
ATOM     57  C   UNL A   1      47.422  31.539  27.512  1.00  0.00     0.029 A 
ATOM     58  N   UNL A   1      45.682  30.175  27.770  1.00  0.00    -0.354 N 
ATOM     59  N   UNL A   1      44.246  27.600  27.537  1.00  0.00    -0.248 NA
ATOM     60  C   UNL A   1      44.089  25.451  26.637  1.00  0.00     0.031 C 
ATOM     61  C   UNL A   1      47.692  30.340  26.844  1.00  0.00     0.029 A 
ATOM     62  C   UNL A   1      46.616  29.483  27.021  1.00  0.00     0.049 A 
ATOM     63  H   UNL A   1      44.809  29.819  28.054  1.00  0.00     0.167 HD
ATOM     64  C   UNL A   1      45.386  27.337  26.788  1.00  0.00     0.074 A 
ATOM     65  C   UNL A   1      45.250  25.986  26.285  1.00  0.00     0.031 C 
ATOM     66  C   UNL A   1      46.450  28.138  26.532  1.00  0.00     0.037 A 
BRANCH  53  67
ATOM     67  C   UNL A   1      46.028  33.793  28.991  1.00  0.00     0.057 A 
ATOM     68  C   UNL A   1      45.874  34.824  28.054  1.00  0.00     0.134 A 
ATOM     69  C   UNL A   1      46.773  34.071  30.143  1.00  0.00     0.134 A 
ATOM     70  F   UNL A   1      45.193  34.612  26.917  1.00  0.00    -0.206 F 
ATOM     71  C   UNL A   1      46.454  36.078  28.248  1.00  0.00     0.040 A 
ATOM     72  C   UNL A   1      47.338  35.329  30.359  1.00  0.00     0.040 A 
ATOM     73  F   UNL A   1      46.965  33.126  31.075  1.00  0.00    -0.206 F 
ATOM     74  C   UNL A   1      47.182  36.335  29.408  1.00  0.00     0.006 A 
ENDBRANCH  53  67
BRANCH  54  75
ATOM     75  C   UNL A   1      41.478  24.940  27.865  1.00  0.00     0.057 A 
ATOM     76  C   UNL A   1      41.866  23.780  28.546  1.00  0.00     0.134 A 
ATOM     77  C   UNL A   1      40.445  24.816  26.926  1.00  0.00     0.134 A 
ATOM     78  F   UNL A   1      42.867  23.825  29.437  1.00  0.00    -0.206 F 
ATOM     79  C   UNL A   1      41.269  22.544  28.287  1.00  0.00     0.040 A 
ATOM     80  C   UNL A   1      39.822  23.591  26.676  1.00  0.00     0.040 A 
ATOM     81  F   UNL A   1      40.025  25.887  26.235  1.00  0.00    -0.206 F 
ATOM     82  C   UNL A   1      40.241  22.448  27.352  1.00  0.00     0.006 A 
ENDBRANCH  54  75
BRANCH  66  83
ATOM     83  C   UNL A   1      47.550  27.572  25.684  1.00  0.00     0.057 A 
ATOM     84  C   UNL A   1      48.655  26.923  26.250  1.00  0.00     0.134 A 
ATOM     85  C   UNL A   1      47.473  27.623  24.286  1.00  0.00     0.134 A 
ATOM     86  F   UNL A   1      48.791  26.851  27.582  1.00  0.00    -0.206 F 
ATOM     87  C   UNL A   1      49.653  26.360  25.454  1.00  0.00     0.040 A 
ATOM     88  C   UNL A   1      48.450  27.038  23.481  1.00  0.00     0.040 A 
ATOM     89  F   UNL A   1      46.435  28.219  23.682  1.00  0.00    -0.206 F 
ATOM     90  C   UNL A   1      49.547  26.408  24.065  1.00  0.00     0.006 A 
ENDBRANCH  66  83
ENDBRANCH  40  41
ENDBRANCH  33  35
ENDBRANCH  32  33
ENDBRANCH  31  32
ENDBRANCH  30  31
ENDBRANCH  29  30
ENDBRANCH  28  29
ENDBRANCH  27  28
ENDBRANCH  26  27
ENDBRANCH   1  26
TORSDOF 25
ENDMDL
