MODEL 1
REMARK VINA RESULT:      -9.7      0.000      0.000
REMARK SMILES CC(C)CCc1cc2c(cc1Cl)C=C(C(=O)OCCOCCOCCOCCOC(=O)c1ccc(-c3c4nc(c(-c5c(F)cccc5F)c5ccc([nH]5)c(-c5c(F)cccc5F)c5nc(c(-c6c(F)cccc6F)c6ccc3[nH]6)C=C5)C=C4)cc1)[C@H](C(F)(F)F)O2
REMARK SMILES IDX 22 1 21 2 20 3 19 4 18 5 17 6 15 7 16 8 14 9 6 10 7 11 11 12
REMARK SMILES IDX 8 13 10 14 12 15 9 16 91 17 13 18 86 19 5 20 4 21 2 22 1 23
REMARK SMILES IDX 3 24 87 25 88 26 89 27 90 28 23 29 24 30 25 31 26 32 27 33
REMARK SMILES IDX 28 34 29 35 30 36 31 37 32 38 33 39 85 40 34 41 84 42 35 43
REMARK SMILES IDX 36 44 37 45 78 46 38 47 83 48 77 49 79 50 39 51 82 52 76 53
REMARK SMILES IDX 75 54 40 56 66 57 49 58 65 59 50 60 53 61 64 62 80 63 51 64
REMARK SMILES IDX 52 65 63 67 81 68 54 69 41 70 42 71 47 72 43 73 44 74 46 75
REMARK SMILES IDX 48 76 45 77 67 78 68 79 73 80 69 81 70 82 72 83 74 84 71 85
REMARK SMILES IDX 55 86 56 87 61 88 57 89 58 90 60 91 62 92 59 93
REMARK H PARENT 79 55 53 66
REMARK Flexibility Score: inf
ROOT
ATOM      1  C   UNL A   1      35.106  18.172  25.021  1.00  0.00     0.188 C 
ENDROOT
BRANCH   1   2
ATOM      2  C   UNL A   1      34.097  17.674  23.982  1.00  0.00     0.188 C 
BRANCH   2   3
ATOM      3  O   UNL A   1      32.945  18.481  23.924  1.00  0.00    -0.376 OA
BRANCH   3   4
ATOM      4  C   UNL A   1      32.635  19.379  24.974  1.00  0.00     0.202 C 
BRANCH   4   5
ATOM      5  C   UNL A   1      32.248  20.859  24.783  1.00  0.00     0.261 C 
BRANCH   5   6
ATOM      6  O   UNL A   1      33.215  21.715  24.167  1.00  0.00    -0.460 OA
BRANCH   6   7
ATOM      7  C   UNL A   1      32.771  22.437  23.116  1.00  0.00     0.338 C 
ATOM      8  O   UNL A   1      32.552  22.020  21.990  1.00  0.00    -0.246 OA
BRANCH   7   9
ATOM      9  C   UNL A   1      32.437  23.807  23.533  1.00  0.00     0.087 C 
ATOM     10  C   UNL A   1      30.219  28.316  23.682  1.00  0.00    -0.026 A 
ATOM     11  C   UNL A   1      31.545  27.852  23.798  1.00  0.00     0.052 A 
ATOM     12  C   UNL A   1      29.191  27.362  23.593  1.00  0.00     0.045 A 
ATOM     13  C   UNL A   1      31.844  26.493  23.722  1.00  0.00     0.128 A 
ATOM     14  C   UNL A   1      29.491  25.996  23.540  1.00  0.00     0.032 A 
ATOM     15  Cl  UNL A   1      27.522  27.800  23.505  1.00  0.00    -0.084 Cl
ATOM     16  C   UNL A   1      30.818  25.563  23.575  1.00  0.00     0.019 A 
ATOM     17  O   UNL A   1      33.171  26.163  23.700  1.00  0.00    -0.475 OA
ATOM     18  C   UNL A   1      31.157  24.168  23.357  1.00  0.00     0.027 C 
ATOM     19  C   UNL A   1      33.526  24.766  23.924  1.00  0.00     0.316 C 
BRANCH  10  20
ATOM     20  C   UNL A   1      29.973  29.809  23.619  1.00  0.00     0.037 C 
BRANCH  20  21
ATOM     21  C   UNL A   1      29.615  30.326  22.210  1.00  0.00     0.008 C 
BRANCH  21  22
ATOM     22  C   UNL A   1      28.723  31.586  22.181  1.00  0.00    -0.017 C 
ATOM     23  C   UNL A   1      28.022  31.763  20.834  1.00  0.00     0.007 C 
ATOM     24  C   UNL A   1      27.685  31.515  23.304  1.00  0.00     0.007 C 
ENDBRANCH  21  22
ENDBRANCH  20  21
ENDBRANCH  10  20
BRANCH  19  25
ATOM     25  C   UNL A   1      34.077  24.632  25.353  1.00  0.00     0.430 C 
ATOM     26  F   UNL A   1      33.149  24.191  26.229  1.00  0.00    -0.167 F 
ATOM     27  F   UNL A   1      35.158  23.826  25.424  1.00  0.00    -0.167 F 
ATOM     28  F   UNL A   1      34.498  25.847  25.802  1.00  0.00    -0.167 F 
ENDBRANCH  19  25
ENDBRANCH   7   9
ENDBRANCH   6   7
ENDBRANCH   5   6
ENDBRANCH   4   5
ENDBRANCH   3   4
ENDBRANCH   2   3
ENDBRANCH   1   2
BRANCH   1  29
ATOM     29  O   UNL A   1      36.240  18.879  24.544  1.00  0.00    -0.377 OA
BRANCH  29  30
ATOM     30  C   UNL A   1      36.487  20.208  25.002  1.00  0.00     0.188 C 
BRANCH  30  31
ATOM     31  C   UNL A   1      37.923  20.742  25.173  1.00  0.00     0.188 C 
BRANCH  31  32
ATOM     32  O   UNL A   1      38.125  22.094  25.570  1.00  0.00    -0.376 OA
BRANCH  32  33
ATOM     33  C   UNL A   1      39.088  22.377  26.578  1.00  0.00     0.202 C 
BRANCH  33  34
ATOM     34  C   UNL A   1      40.526  22.025  26.221  1.00  0.00     0.261 C 
BRANCH  34  35
ATOM     35  O   UNL A   1      41.418  23.071  26.626  1.00  0.00    -0.460 OA
BRANCH  35  36
ATOM     36  C   UNL A   1      42.712  22.905  26.268  1.00  0.00     0.338 C 
ATOM     37  O   UNL A   1      43.237  21.911  25.810  1.00  0.00    -0.246 OA
BRANCH  36  38
ATOM     38  C   UNL A   1      43.391  24.211  26.371  1.00  0.00     0.060 A 
ATOM     39  C   UNL A   1      43.865  24.676  27.600  1.00  0.00     0.016 A 
ATOM     40  C   UNL A   1      43.588  24.953  25.200  1.00  0.00     0.016 A 
ATOM     41  C   UNL A   1      44.594  25.862  27.645  1.00  0.00     0.010 A 
ATOM     42  C   UNL A   1      44.318  26.138  25.246  1.00  0.00     0.010 A 
ATOM     43  C   UNL A   1      44.860  26.575  26.462  1.00  0.00    -0.014 A 
BRANCH  43  44
ATOM     44  C   UNL A   1      45.874  27.652  26.473  1.00  0.00     0.031 A 
ATOM     45  C   UNL A   1      47.337  27.360  26.391  1.00  0.00     0.074 A 
ATOM     46  C   UNL A   1      45.431  28.919  26.584  1.00  0.00     0.049 A 
ATOM     47  N   UNL A   1      48.338  28.203  26.341  1.00  0.00    -0.248 NA
ATOM     48  C   UNL A   1      47.732  25.945  26.369  1.00  0.00     0.031 C 
ATOM     49  C   UNL A   1      44.023  29.307  26.708  1.00  0.00     0.029 A 
ATOM     50  N   UNL A   1      46.108  30.108  26.606  1.00  0.00    -0.354 N 
ATOM     51  C   UNL A   1      49.484  27.424  26.258  1.00  0.00     0.074 A 
ATOM     52  C   UNL A   1      49.055  26.041  26.318  1.00  0.00     0.031 C 
ATOM     53  C   UNL A   1      43.940  30.644  26.762  1.00  0.00     0.029 A 
ATOM     54  C   UNL A   1      45.286  31.202  26.716  1.00  0.00     0.049 A 
ATOM     55  H   UNL A   1      47.089  30.172  26.549  1.00  0.00     0.167 HD
ATOM     56  C   UNL A   1      50.770  27.833  26.129  1.00  0.00     0.037 A 
ATOM     57  C   UNL A   1      45.587  32.511  26.781  1.00  0.00     0.037 A 
ATOM     58  C   UNL A   1      51.184  29.216  26.108  1.00  0.00     0.049 A 
ATOM     59  C   UNL A   1      47.027  32.928  26.709  1.00  0.00     0.074 A 
ATOM     60  C   UNL A   1      52.458  29.735  25.954  1.00  0.00     0.029 A 
ATOM     61  N   UNL A   1      50.332  30.300  26.270  1.00  0.00    -0.354 N 
ATOM     62  N   UNL A   1      48.098  32.187  26.550  1.00  0.00    -0.248 NA
ATOM     63  C   UNL A   1      47.302  34.365  26.825  1.00  0.00     0.031 C 
ATOM     64  C   UNL A   1      52.386  31.126  26.087  1.00  0.00     0.029 A 
ATOM     65  C   UNL A   1      51.058  31.483  26.259  1.00  0.00     0.049 A 
ATOM     66  H   UNL A   1      49.355  30.240  26.379  1.00  0.00     0.167 HD
ATOM     67  C   UNL A   1      49.169  33.069  26.523  1.00  0.00     0.074 A 
ATOM     68  C   UNL A   1      48.614  34.401  26.653  1.00  0.00     0.031 C 
ATOM     69  C   UNL A   1      50.493  32.802  26.404  1.00  0.00     0.037 A 
BRANCH  56  70
ATOM     70  C   UNL A   1      51.823  26.768  26.014  1.00  0.00     0.057 A 
ATOM     71  C   UNL A   1      52.486  26.286  27.149  1.00  0.00     0.134 A 
ATOM     72  C   UNL A   1      52.205  26.238  24.774  1.00  0.00     0.134 A 
ATOM     73  F   UNL A   1      52.180  26.754  28.369  1.00  0.00    -0.206 F 
ATOM     74  C   UNL A   1      53.486  25.315  27.056  1.00  0.00     0.040 A 
ATOM     75  C   UNL A   1      53.183  25.247  24.670  1.00  0.00     0.040 A 
ATOM     76  F   UNL A   1      51.608  26.651  23.645  1.00  0.00    -0.206 F 
ATOM     77  C   UNL A   1      53.831  24.786  25.815  1.00  0.00     0.006 A 
ENDBRANCH  56  70
BRANCH  57  78
ATOM     78  C   UNL A   1      44.508  33.521  26.917  1.00  0.00     0.057 A 
ATOM     79  C   UNL A   1      44.085  33.973  28.173  1.00  0.00     0.134 A 
ATOM     80  C   UNL A   1      43.897  34.082  25.791  1.00  0.00     0.134 A 
ATOM     81  F   UNL A   1      44.623  33.466  29.293  1.00  0.00    -0.206 F 
ATOM     82  C   UNL A   1      43.093  34.945  28.304  1.00  0.00     0.040 A 
ATOM     83  C   UNL A   1      42.928  35.078  25.905  1.00  0.00     0.040 A 
ATOM     84  F   UNL A   1      44.271  33.701  24.559  1.00  0.00    -0.206 F 
ATOM     85  C   UNL A   1      42.521  35.510  27.166  1.00  0.00     0.006 A 
ENDBRANCH  57  78
BRANCH  69  86
ATOM     86  C   UNL A   1      51.422  33.984  26.392  1.00  0.00     0.057 A 
ATOM     87  C   UNL A   1      51.920  34.514  27.590  1.00  0.00     0.134 A 
ATOM     88  C   UNL A   1      51.829  34.596  25.198  1.00  0.00     0.134 A 
ATOM     89  F   UNL A   1      51.566  33.983  28.769  1.00  0.00    -0.206 F 
ATOM     90  C   UNL A   1      52.793  35.603  27.599  1.00  0.00     0.040 A 
ATOM     91  C   UNL A   1      52.729  35.663  25.193  1.00  0.00     0.040 A 
ATOM     92  F   UNL A   1      51.403  34.128  24.015  1.00  0.00    -0.206 F 
ATOM     93  C   UNL A   1      53.209  36.173  26.398  1.00  0.00     0.006 A 
ENDBRANCH  69  86
ENDBRANCH  43  44
ENDBRANCH  36  38
ENDBRANCH  35  36
ENDBRANCH  34  35
ENDBRANCH  33  34
ENDBRANCH  32  33
ENDBRANCH  31  32
ENDBRANCH  30  31
ENDBRANCH  29  30
ENDBRANCH   1  29
TORSDOF 24
ENDMDL
MODEL 2
REMARK VINA RESULT:      -9.7      0.352      5.956
REMARK SMILES CC(C)CCc1cc2c(cc1Cl)C=C(C(=O)OCCOCCOCCOCCOC(=O)c1ccc(-c3c4nc(c(-c5c(F)cccc5F)c5ccc([nH]5)c(-c5c(F)cccc5F)c5nc(c(-c6c(F)cccc6F)c6ccc3[nH]6)C=C5)C=C4)cc1)[C@H](C(F)(F)F)O2
REMARK SMILES IDX 22 1 21 2 20 3 19 4 18 5 17 6 15 7 16 8 14 9 6 10 7 11 11 12
REMARK SMILES IDX 8 13 10 14 12 15 9 16 91 17 13 18 86 19 5 20 4 21 2 22 1 23
REMARK SMILES IDX 3 24 87 25 88 26 89 27 90 28 23 29 24 30 25 31 26 32 27 33
REMARK SMILES IDX 28 34 29 35 30 36 31 37 32 38 33 39 85 40 34 41 84 42 35 43
REMARK SMILES IDX 36 44 37 45 78 46 38 47 83 48 77 49 79 50 39 51 82 52 76 53
REMARK SMILES IDX 75 54 40 56 66 57 49 58 65 59 50 60 53 61 64 62 80 63 51 64
REMARK SMILES IDX 52 65 63 67 81 68 54 69 41 70 42 71 47 72 43 73 44 74 46 75
REMARK SMILES IDX 48 76 45 77 67 78 68 79 73 80 69 81 70 82 72 83 74 84 71 85
REMARK SMILES IDX 55 86 56 87 61 88 57 89 58 90 60 91 62 92 59 93
REMARK H PARENT 79 55 53 66
REMARK Flexibility Score: inf
ROOT
ATOM      1  C   UNL A   1      35.158  18.094  24.926  1.00  0.00     0.188 C 
ENDROOT
BRANCH   1   2
ATOM      2  C   UNL A   1      34.124  17.572  23.922  1.00  0.00     0.188 C 
BRANCH   2   3
ATOM      3  O   UNL A   1      32.917  18.295  23.971  1.00  0.00    -0.376 OA
BRANCH   3   4
ATOM      4  C   UNL A   1      32.617  19.130  25.074  1.00  0.00     0.202 C 
BRANCH   4   5
ATOM      5  C   UNL A   1      32.201  20.611  24.971  1.00  0.00     0.261 C 
BRANCH   5   6
ATOM      6  O   UNL A   1      33.119  21.507  24.338  1.00  0.00    -0.460 OA
BRANCH   6   7
ATOM      7  C   UNL A   1      32.633  22.191  23.280  1.00  0.00     0.338 C 
ATOM      8  O   UNL A   1      32.344  21.727  22.188  1.00  0.00    -0.246 OA
BRANCH   7   9
ATOM      9  C   UNL A   1      32.351  23.586  23.649  1.00  0.00     0.087 C 
ATOM     10  C   UNL A   1      30.246  28.150  23.698  1.00  0.00    -0.026 A 
ATOM     11  C   UNL A   1      31.565  27.660  23.769  1.00  0.00     0.052 A 
ATOM     12  C   UNL A   1      29.194  27.219  23.705  1.00  0.00     0.045 A 
ATOM     13  C   UNL A   1      31.829  26.292  23.742  1.00  0.00     0.128 A 
ATOM     14  C   UNL A   1      29.460  25.845  23.700  1.00  0.00     0.032 A 
ATOM     15  Cl  UNL A   1      27.532  27.694  23.680  1.00  0.00    -0.084 Cl
ATOM     16  C   UNL A   1      30.777  25.382  23.690  1.00  0.00     0.019 A 
ATOM     17  O   UNL A   1      33.146  25.928  23.668  1.00  0.00    -0.475 OA
ATOM     18  C   UNL A   1      31.073  23.970  23.520  1.00  0.00     0.027 C 
ATOM     19  C   UNL A   1      33.480  24.534  23.939  1.00  0.00     0.316 C 
BRANCH  10  20
ATOM     20  C   UNL A   1      30.030  29.645  23.578  1.00  0.00     0.037 C 
BRANCH  20  21
ATOM     21  C   UNL A   1      29.709  30.118  22.145  1.00  0.00     0.008 C 
BRANCH  21  22
ATOM     22  C   UNL A   1      28.794  31.358  22.054  1.00  0.00    -0.017 C 
ATOM     23  C   UNL A   1      28.018  31.405  20.738  1.00  0.00     0.007 C 
ATOM     24  C   UNL A   1      27.820  31.375  23.234  1.00  0.00     0.007 C 
ENDBRANCH  21  22
ENDBRANCH  20  21
ENDBRANCH  10  20
BRANCH  19  25
ATOM     25  C   UNL A   1      34.100  24.452  25.344  1.00  0.00     0.430 C 
ATOM     26  F   UNL A   1      33.190  24.163  26.299  1.00  0.00    -0.167 F 
ATOM     27  F   UNL A   1      35.108  23.555  25.420  1.00  0.00    -0.167 F 
ATOM     28  F   UNL A   1      34.653  25.651  25.677  1.00  0.00    -0.167 F 
ENDBRANCH  19  25
ENDBRANCH   7   9
ENDBRANCH   6   7
ENDBRANCH   5   6
ENDBRANCH   4   5
ENDBRANCH   3   4
ENDBRANCH   2   3
ENDBRANCH   1   2
BRANCH   1  29
ATOM     29  O   UNL A   1      36.197  18.919  24.424  1.00  0.00    -0.377 OA
BRANCH  29  30
ATOM     30  C   UNL A   1      36.393  20.222  24.974  1.00  0.00     0.188 C 
BRANCH  30  31
ATOM     31  C   UNL A   1      37.807  20.793  25.199  1.00  0.00     0.188 C 
BRANCH  31  32
ATOM     32  O   UNL A   1      37.985  22.200  25.314  1.00  0.00    -0.376 OA
BRANCH  32  33
ATOM     33  C   UNL A   1      38.815  22.704  26.353  1.00  0.00     0.202 C 
BRANCH  33  34
ATOM     34  C   UNL A   1      40.276  22.283  26.280  1.00  0.00     0.261 C 
BRANCH  34  35
ATOM     35  O   UNL A   1      41.135  23.369  26.651  1.00  0.00    -0.460 OA
BRANCH  35  36
ATOM     36  C   UNL A   1      42.457  23.161  26.453  1.00  0.00     0.338 C 
ATOM     37  O   UNL A   1      43.011  22.126  26.145  1.00  0.00    -0.246 OA
BRANCH  36  38
ATOM     38  C   UNL A   1      43.144  24.465  26.516  1.00  0.00     0.060 A 
ATOM     39  C   UNL A   1      43.661  24.945  27.721  1.00  0.00     0.016 A 
ATOM     40  C   UNL A   1      43.304  25.191  25.329  1.00  0.00     0.016 A 
ATOM     41  C   UNL A   1      44.396  26.128  27.726  1.00  0.00     0.010 A 
ATOM     42  C   UNL A   1      44.040  26.373  25.334  1.00  0.00     0.010 A 
ATOM     43  C   UNL A   1      44.624  26.824  26.525  1.00  0.00    -0.014 A 
BRANCH  43  44
ATOM     44  C   UNL A   1      45.642  27.897  26.487  1.00  0.00     0.031 A 
ATOM     45  C   UNL A   1      45.275  29.340  26.613  1.00  0.00     0.074 A 
ATOM     46  C   UNL A   1      46.925  27.527  26.310  1.00  0.00     0.049 A 
ATOM     47  N   UNL A   1      46.063  30.385  26.645  1.00  0.00    -0.248 NA
ATOM     48  C   UNL A   1      43.843  29.654  26.706  1.00  0.00     0.031 C 
ATOM     49  C   UNL A   1      47.384  26.145  26.140  1.00  0.00     0.029 A 
ATOM     50  N   UNL A   1      48.073  28.270  26.248  1.00  0.00    -0.354 N 
ATOM     51  C   UNL A   1      45.226  31.483  26.787  1.00  0.00     0.074 A 
ATOM     52  C   UNL A   1      43.867  30.979  26.780  1.00  0.00     0.031 C 
ATOM     53  C   UNL A   1      48.720  26.139  26.023  1.00  0.00     0.029 A 
ATOM     54  C   UNL A   1      49.204  27.512  26.072  1.00  0.00     0.049 A 
ATOM     55  H   UNL A   1      48.085  29.252  26.323  1.00  0.00     0.167 HD
ATOM     56  C   UNL A   1      45.569  32.788  26.924  1.00  0.00     0.037 A 
ATOM     57  C   UNL A   1      50.491  27.887  25.955  1.00  0.00     0.037 A 
ATOM     58  C   UNL A   1      46.927  33.278  26.891  1.00  0.00     0.049 A 
ATOM     59  C   UNL A   1      50.830  29.347  26.038  1.00  0.00     0.074 A 
ATOM     60  C   UNL A   1      47.381  34.576  27.048  1.00  0.00     0.029 A 
ATOM     61  N   UNL A   1      48.048  32.491  26.663  1.00  0.00    -0.354 N 
ATOM     62  N   UNL A   1      50.040  30.372  26.253  1.00  0.00    -0.248 NA
ATOM     63  C   UNL A   1      52.244  29.703  25.863  1.00  0.00     0.031 C 
ATOM     64  C   UNL A   1      48.767  34.584  26.851  1.00  0.00     0.029 A 
ATOM     65  C   UNL A   1      49.188  33.282  26.636  1.00  0.00     0.049 A 
ATOM     66  H   UNL A   1      48.036  31.514  26.537  1.00  0.00     0.167 HD
ATOM     67  C   UNL A   1      50.862  31.489  26.262  1.00  0.00     0.074 A 
ATOM     68  C   UNL A   1      52.215  31.012  26.061  1.00  0.00     0.031 C 
ATOM     69  C   UNL A   1      50.528  32.794  26.420  1.00  0.00     0.037 A 
BRANCH  56  70
ATOM     70  C   UNL A   1      44.455  33.777  27.109  1.00  0.00     0.057 A 
ATOM     71  C   UNL A   1      43.858  34.403  26.007  1.00  0.00     0.134 A 
ATOM     72  C   UNL A   1      43.989  34.137  28.381  1.00  0.00     0.134 A 
ATOM     73  F   UNL A   1      44.259  34.116  24.759  1.00  0.00    -0.206 F 
ATOM     74  C   UNL A   1      42.838  35.345  26.163  1.00  0.00     0.040 A 
ATOM     75  C   UNL A   1      42.951  35.055  28.549  1.00  0.00     0.040 A 
ATOM     76  F   UNL A   1      44.512  33.572  29.481  1.00  0.00    -0.206 F 
ATOM     77  C   UNL A   1      42.376  35.667  27.437  1.00  0.00     0.006 A 
ENDBRANCH  56  70
BRANCH  57  78
ATOM     78  C   UNL A   1      51.551  26.869  25.751  1.00  0.00     0.057 A 
ATOM     79  C   UNL A   1      52.011  26.540  24.470  1.00  0.00     0.134 A 
ATOM     80  C   UNL A   1      52.151  26.224  26.837  1.00  0.00     0.134 A 
ATOM     81  F   UNL A   1      51.469  27.115  23.386  1.00  0.00    -0.206 F 
ATOM     82  C   UNL A   1      53.030  25.607  24.277  1.00  0.00     0.040 A 
ATOM     83  C   UNL A   1      53.193  25.313  26.662  1.00  0.00     0.040 A 
ATOM     84  F   UNL A   1      51.764  26.508  28.090  1.00  0.00    -0.206 F 
ATOM     85  C   UNL A   1      53.633  25.000  25.377  1.00  0.00     0.006 A 
ENDBRANCH  57  78
BRANCH  69  86
ATOM     86  C   UNL A   1      51.657  33.787  26.398  1.00  0.00     0.057 A 
ATOM     87  C   UNL A   1      52.077  34.366  25.193  1.00  0.00     0.134 A 
ATOM     88  C   UNL A   1      52.325  34.176  27.567  1.00  0.00     0.134 A 
ATOM     89  F   UNL A   1      51.487  34.034  24.035  1.00  0.00    -0.206 F 
ATOM     90  C   UNL A   1      53.113  35.299  25.153  1.00  0.00     0.040 A 
ATOM     91  C   UNL A   1      53.340  35.134  27.544  1.00  0.00     0.040 A 
ATOM     92  F   UNL A   1      51.962  33.674  28.757  1.00  0.00    -0.206 F 
ATOM     93  C   UNL A   1      53.741  35.694  26.333  1.00  0.00     0.006 A 
ENDBRANCH  69  86
ENDBRANCH  43  44
ENDBRANCH  36  38
ENDBRANCH  35  36
ENDBRANCH  34  35
ENDBRANCH  33  34
ENDBRANCH  32  33
ENDBRANCH  31  32
ENDBRANCH  30  31
ENDBRANCH  29  30
ENDBRANCH   1  29
TORSDOF 24
ENDMDL
MODEL 3
REMARK VINA RESULT:      -9.7      7.126     10.484
REMARK SMILES CC(C)CCc1cc2c(cc1Cl)C=C(C(=O)OCCOCCOCCOCCOC(=O)c1ccc(-c3c4nc(c(-c5c(F)cccc5F)c5ccc([nH]5)c(-c5c(F)cccc5F)c5nc(c(-c6c(F)cccc6F)c6ccc3[nH]6)C=C5)C=C4)cc1)[C@H](C(F)(F)F)O2
REMARK SMILES IDX 22 1 21 2 20 3 19 4 18 5 17 6 15 7 16 8 14 9 6 10 7 11 11 12
REMARK SMILES IDX 8 13 10 14 12 15 9 16 91 17 13 18 86 19 5 20 4 21 2 22 1 23
REMARK SMILES IDX 3 24 87 25 88 26 89 27 90 28 23 29 24 30 25 31 26 32 27 33
REMARK SMILES IDX 28 34 29 35 30 36 31 37 32 38 33 39 85 40 34 41 84 42 35 43
REMARK SMILES IDX 36 44 37 45 78 46 38 47 83 48 77 49 79 50 39 51 82 52 76 53
REMARK SMILES IDX 75 54 40 56 66 57 49 58 65 59 50 60 53 61 64 62 80 63 51 64
REMARK SMILES IDX 52 65 63 67 81 68 54 69 41 70 42 71 47 72 43 73 44 74 46 75
REMARK SMILES IDX 48 76 45 77 67 78 68 79 73 80 69 81 70 82 72 83 74 84 71 85
REMARK SMILES IDX 55 86 56 87 61 88 57 89 58 90 60 91 62 92 59 93
REMARK H PARENT 79 55 53 66
REMARK Flexibility Score: inf
ROOT
ATOM      1  C   UNL A   1      34.286  22.422  27.200  1.00  0.00     0.188 C 
ENDROOT
BRANCH   1   2
ATOM      2  C   UNL A   1      33.875  21.100  26.541  1.00  0.00     0.188 C 
BRANCH   2   3
ATOM      3  O   UNL A   1      32.813  21.264  25.631  1.00  0.00    -0.376 OA
BRANCH   3   4
ATOM      4  C   UNL A   1      33.032  21.843  24.358  1.00  0.00     0.202 C 
BRANCH   4   5
ATOM      5  C   UNL A   1      32.364  23.137  23.852  1.00  0.00     0.261 C 
BRANCH   5   6
ATOM      6  O   UNL A   1      33.155  24.330  23.862  1.00  0.00    -0.460 OA
BRANCH   6   7
ATOM      7  C   UNL A   1      32.873  25.210  24.847  1.00  0.00     0.338 C 
ATOM      8  O   UNL A   1      33.198  25.114  26.020  1.00  0.00    -0.246 OA
BRANCH   7   9
ATOM      9  C   UNL A   1      32.223  26.410  24.299  1.00  0.00     0.087 C 
ATOM     10  C   UNL A   1      28.835  29.366  22.053  1.00  0.00    -0.026 A 
ATOM     11  C   UNL A   1      30.239  29.251  22.014  1.00  0.00     0.052 A 
ATOM     12  C   UNL A   1      28.132  28.573  22.975  1.00  0.00     0.045 A 
ATOM     13  C   UNL A   1      30.907  28.306  22.791  1.00  0.00     0.128 A 
ATOM     14  C   UNL A   1      28.806  27.640  23.770  1.00  0.00     0.032 A 
ATOM     15  Cl  UNL A   1      26.416  28.663  23.159  1.00  0.00    -0.084 Cl
ATOM     16  C   UNL A   1      30.190  27.486  23.658  1.00  0.00     0.019 A 
ATOM     17  O   UNL A   1      32.251  28.179  22.571  1.00  0.00    -0.475 OA
ATOM     18  C   UNL A   1      30.883  26.416  24.352  1.00  0.00     0.027 C 
ATOM     19  C   UNL A   1      33.031  27.433  23.553  1.00  0.00     0.316 C 
BRANCH  10  20
ATOM     20  C   UNL A   1      28.155  30.304  21.076  1.00  0.00     0.037 C 
BRANCH  20  21
ATOM     21  C   UNL A   1      28.018  31.752  21.589  1.00  0.00     0.008 C 
BRANCH  21  22
ATOM     22  C   UNL A   1      28.561  31.997  23.014  1.00  0.00    -0.017 C 
ATOM     23  C   UNL A   1      29.137  33.403  23.177  1.00  0.00     0.007 C 
ATOM     24  C   UNL A   1      27.450  31.765  24.041  1.00  0.00     0.007 C 
ENDBRANCH  21  22
ENDBRANCH  20  21
ENDBRANCH  10  20
BRANCH  19  25
ATOM     25  C   UNL A   1      33.820  28.440  24.406  1.00  0.00     0.430 C 
ATOM     26  F   UNL A   1      34.059  27.988  25.656  1.00  0.00    -0.167 F 
ATOM     27  F   UNL A   1      34.994  28.798  23.843  1.00  0.00    -0.167 F 
ATOM     28  F   UNL A   1      33.109  29.595  24.534  1.00  0.00    -0.167 F 
ENDBRANCH  19  25
ENDBRANCH   7   9
ENDBRANCH   6   7
ENDBRANCH   5   6
ENDBRANCH   4   5
ENDBRANCH   3   4
ENDBRANCH   2   3
ENDBRANCH   1   2
BRANCH   1  29
ATOM     29  O   UNL A   1      35.598  22.898  26.943  1.00  0.00    -0.377 OA
BRANCH  29  30
ATOM     30  C   UNL A   1      36.017  23.122  25.597  1.00  0.00     0.188 C 
BRANCH  30  31
ATOM     31  C   UNL A   1      36.837  22.067  24.827  1.00  0.00     0.188 C 
BRANCH  31  32
ATOM     32  O   UNL A   1      38.258  22.132  24.849  1.00  0.00    -0.376 OA
BRANCH  32  33
ATOM     33  C   UNL A   1      38.960  21.456  25.885  1.00  0.00     0.202 C 
BRANCH  33  34
ATOM     34  C   UNL A   1      39.643  22.358  26.904  1.00  0.00     0.261 C 
BRANCH  34  35
ATOM     35  O   UNL A   1      39.763  23.694  26.397  1.00  0.00    -0.460 OA
BRANCH  35  36
ATOM     36  C   UNL A   1      40.902  24.344  26.731  1.00  0.00     0.338 C 
ATOM     37  O   UNL A   1      42.032  24.110  26.354  1.00  0.00    -0.246 OA
BRANCH  36  38
ATOM     38  C   UNL A   1      40.539  25.528  27.533  1.00  0.00     0.060 A 
ATOM     39  C   UNL A   1      39.521  25.463  28.486  1.00  0.00     0.016 A 
ATOM     40  C   UNL A   1      41.270  26.708  27.346  1.00  0.00     0.016 A 
ATOM     41  C   UNL A   1      39.275  26.567  29.299  1.00  0.00     0.010 A 
ATOM     42  C   UNL A   1      41.025  27.811  28.159  1.00  0.00     0.010 A 
ATOM     43  C   UNL A   1      40.055  27.729  29.167  1.00  0.00    -0.014 A 
BRANCH  43  44
ATOM     44  C   UNL A   1      39.994  28.770  30.217  1.00  0.00     0.031 A 
ATOM     45  C   UNL A   1      39.021  29.902  30.152  1.00  0.00     0.074 A 
ATOM     46  C   UNL A   1      40.871  28.676  31.234  1.00  0.00     0.049 A 
ATOM     47  N   UNL A   1      38.820  30.860  31.022  1.00  0.00    -0.248 NA
ATOM     48  C   UNL A   1      38.168  29.977  28.958  1.00  0.00     0.031 C 
ATOM     49  C   UNL A   1      41.887  27.628  31.371  1.00  0.00     0.029 A 
ATOM     50  N   UNL A   1      41.049  29.460  32.342  1.00  0.00    -0.354 N 
ATOM     51  C   UNL A   1      37.801  31.641  30.495  1.00  0.00     0.074 A 
ATOM     52  C   UNL A   1      37.464  31.074  29.204  1.00  0.00     0.031 C 
ATOM     53  C   UNL A   1      42.562  27.819  32.514  1.00  0.00     0.029 A 
ATOM     54  C   UNL A   1      42.053  29.018  33.168  1.00  0.00     0.049 A 
ATOM     55  H   UNL A   1      40.510  30.262  32.528  1.00  0.00     0.167 HD
ATOM     56  C   UNL A   1      37.198  32.722  31.050  1.00  0.00     0.037 A 
ATOM     57  C   UNL A   1      42.516  29.530  34.322  1.00  0.00     0.037 A 
ATOM     58  C   UNL A   1      37.573  33.296  32.320  1.00  0.00     0.049 A 
ATOM     59  C   UNL A   1      41.875  30.770  34.873  1.00  0.00     0.074 A 
ATOM     60  C   UNL A   1      37.007  34.372  32.982  1.00  0.00     0.029 A 
ATOM     61  N   UNL A   1      38.625  32.854  33.110  1.00  0.00    -0.354 N 
ATOM     62  N   UNL A   1      40.858  31.455  34.407  1.00  0.00    -0.248 NA
ATOM     63  C   UNL A   1      42.446  31.308  36.114  1.00  0.00     0.031 C 
ATOM     64  C   UNL A   1      37.756  34.621  34.138  1.00  0.00     0.029 A 
ATOM     65  C   UNL A   1      38.750  33.661  34.233  1.00  0.00     0.049 A 
ATOM     66  H   UNL A   1      39.201  32.082  32.904  1.00  0.00     0.167 HD
ATOM     67  C   UNL A   1      40.654  32.490  35.309  1.00  0.00     0.074 A 
ATOM     68  C   UNL A   1      41.634  32.323  36.363  1.00  0.00     0.031 C 
ATOM     69  C   UNL A   1      39.739  33.491  35.267  1.00  0.00     0.037 A 
BRANCH  56  70
ATOM     70  C   UNL A   1      36.080  33.359  30.276  1.00  0.00     0.057 A 
ATOM     71  C   UNL A   1      34.743  33.119  30.615  1.00  0.00     0.134 A 
ATOM     72  C   UNL A   1      36.324  34.188  29.173  1.00  0.00     0.134 A 
ATOM     73  F   UNL A   1      34.433  32.327  31.654  1.00  0.00    -0.206 F 
ATOM     74  C   UNL A   1      33.691  33.683  29.889  1.00  0.00     0.040 A 
ATOM     75  C   UNL A   1      35.282  34.781  28.457  1.00  0.00     0.040 A 
ATOM     76  F   UNL A   1      37.582  34.465  28.794  1.00  0.00    -0.206 F 
ATOM     77  C   UNL A   1      33.959  34.524  28.812  1.00  0.00     0.006 A 
ENDBRANCH  56  70
BRANCH  57  78
ATOM     78  C   UNL A   1      43.639  28.871  35.035  1.00  0.00     0.057 A 
ATOM     79  C   UNL A   1      44.973  29.158  34.719  1.00  0.00     0.134 A 
ATOM     80  C   UNL A   1      43.403  27.963  36.072  1.00  0.00     0.134 A 
ATOM     81  F   UNL A   1      45.266  30.013  33.727  1.00  0.00    -0.206 F 
ATOM     82  C   UNL A   1      46.031  28.565  35.409  1.00  0.00     0.040 A 
ATOM     83  C   UNL A   1      44.450  27.387  36.792  1.00  0.00     0.040 A 
ATOM     84  F   UNL A   1      42.146  27.659  36.432  1.00  0.00    -0.206 F 
ATOM     85  C   UNL A   1      45.770  27.687  36.458  1.00  0.00     0.006 A 
ENDBRANCH  57  78
BRANCH  69  86
ATOM     86  C   UNL A   1      39.755  34.466  36.412  1.00  0.00     0.057 A 
ATOM     87  C   UNL A   1      40.478  35.663  36.321  1.00  0.00     0.134 A 
ATOM     88  C   UNL A   1      39.050  34.228  37.600  1.00  0.00     0.134 A 
ATOM     89  F   UNL A   1      41.181  35.953  35.217  1.00  0.00    -0.206 F 
ATOM     90  C   UNL A   1      40.495  36.587  37.367  1.00  0.00     0.040 A 
ATOM     91  C   UNL A   1      39.031  35.160  38.638  1.00  0.00     0.040 A 
ATOM     92  F   UNL A   1      38.322  33.110  37.746  1.00  0.00    -0.206 F 
ATOM     93  C   UNL A   1      39.760  36.342  38.525  1.00  0.00     0.006 A 
ENDBRANCH  69  86
ENDBRANCH  43  44
ENDBRANCH  36  38
ENDBRANCH  35  36
ENDBRANCH  34  35
ENDBRANCH  33  34
ENDBRANCH  32  33
ENDBRANCH  31  32
ENDBRANCH  30  31
ENDBRANCH  29  30
ENDBRANCH   1  29
TORSDOF 24
ENDMDL
