MODEL 1
REMARK VINA RESULT:     -10.1      0.000      0.000
REMARK SMILES CCc1cccc2c3c([nH]c12)[C@](CC)(CC(=O)OCCOCCOCCOCCOC(=O)c1ccc(-c2c4nc(c(-c5c(F)cccc5F)c5ccc([nH]5)c(-c5c(F)cccc5F)c5nc(c(-c6c(F)cccc6F)c6ccc2[nH]6)C=C5)C=C4)cc1)OCC3
REMARK SMILES IDX 24 1 23 2 22 3 21 4 20 5 19 6 18 7 16 8 17 9 15 10 12 11
REMARK SMILES IDX 3 12 4 13 11 14 5 15 7 16 10 17 6 18 8 19 9 20 89 22 88 23
REMARK SMILES IDX 87 24 2 25 1 26 13 27 14 28 25 29 26 30 27 31 28 32 29 33
REMARK SMILES IDX 30 34 31 35 32 36 33 37 34 38 86 39 35 40 85 41 36 42 37 43
REMARK SMILES IDX 38 44 79 45 39 46 84 47 78 48 80 49 40 50 83 51 77 52 76 53
REMARK SMILES IDX 41 55 67 56 50 57 66 58 51 59 54 60 65 61 81 62 52 63 53 64
REMARK SMILES IDX 64 66 82 67 55 68 42 69 43 70 48 71 44 72 45 73 47 74 49 75
REMARK SMILES IDX 46 76 68 77 69 78 74 79 70 80 71 81 73 82 75 83 72 84 56 85
REMARK SMILES IDX 57 86 62 87 58 88 59 89 61 90 63 91 60 92
REMARK H PARENT 10 21 80 54 54 65
REMARK Flexibility Score: inf
ROOT
ATOM      1  O   UNL A   1      41.723  19.785  27.879  1.00  0.00    -0.377 OA
ENDROOT
BRANCH   1   2
ATOM      2  C   UNL A   1      41.590  20.941  27.099  1.00  0.00     0.188 C 
BRANCH   2   3
ATOM      3  C   UNL A   1      40.157  21.466  27.012  1.00  0.00     0.188 C 
BRANCH   3   4
ATOM      4  O   UNL A   1      39.811  22.593  26.205  1.00  0.00    -0.376 OA
BRANCH   4   5
ATOM      5  C   UNL A   1      38.691  23.399  26.539  1.00  0.00     0.202 C 
BRANCH   5   6
ATOM      6  C   UNL A   1      37.597  23.504  25.443  1.00  0.00     0.261 C 
BRANCH   6   7
ATOM      7  O   UNL A   1      36.200  23.391  25.848  1.00  0.00    -0.463 OA
BRANCH   7   8
ATOM      8  C   UNL A   1      35.695  22.139  25.884  1.00  0.00     0.309 C 
ATOM      9  O   UNL A   1      36.343  21.145  25.550  1.00  0.00    -0.252 OA
BRANCH   8  10
ATOM     10  C   UNL A   1      34.204  21.984  26.161  1.00  0.00     0.164 C 
BRANCH  10  11
ATOM     11  C   UNL A   1      32.930  22.774  25.749  1.00  0.00     0.118 C 
ATOM     12  C   UNL A   1      33.713  27.827  25.470  1.00  0.00    -0.024 A 
ATOM     13  C   UNL A   1      33.714  28.715  24.371  1.00  0.00     0.006 A 
ATOM     14  C   UNL A   1      33.406  26.472  25.185  1.00  0.00     0.049 A 
ATOM     15  C   UNL A   1      33.113  28.377  23.175  1.00  0.00     0.001 A 
ATOM     16  C   UNL A   1      32.805  26.102  23.977  1.00  0.00     0.003 A 
ATOM     17  N   UNL A   1      33.517  25.310  25.937  1.00  0.00    -0.356 N 
ATOM     18  C   UNL A   1      32.531  27.119  23.036  1.00  0.00     0.010 A 
ATOM     19  C   UNL A   1      32.566  24.693  24.035  1.00  0.00    -0.014 A 
ATOM     20  C   UNL A   1      33.056  24.213  25.237  1.00  0.00     0.052 A 
ATOM     21  H   UNL A   1      33.879  25.272  26.852  1.00  0.00     0.166 HD
ATOM     22  C   UNL A   1      31.912  23.768  23.073  1.00  0.00     0.066 C 
ATOM     23  C   UNL A   1      32.216  22.308  23.445  1.00  0.00     0.166 C 
ATOM     24  O   UNL A   1      32.079  22.032  24.842  1.00  0.00    -0.368 OA
BRANCH  12  25
ATOM     25  C   UNL A   1      33.939  28.475  26.820  1.00  0.00     0.034 C 
ATOM     26  C   UNL A   1      33.317  29.846  27.007  1.00  0.00     0.009 C 
ENDBRANCH  12  25
BRANCH  11  27
ATOM     27  C   UNL A   1      32.047  22.889  27.052  1.00  0.00     0.039 C 
ATOM     28  C   UNL A   1      30.556  23.120  26.820  1.00  0.00     0.007 C 
ENDBRANCH  11  27
ENDBRANCH  10  11
ENDBRANCH   8  10
ENDBRANCH   7   8
ENDBRANCH   6   7
ENDBRANCH   5   6
ENDBRANCH   4   5
ENDBRANCH   3   4
ENDBRANCH   2   3
ENDBRANCH   1   2
BRANCH   1  29
ATOM     29  C   UNL A   1      42.691  18.819  27.586  1.00  0.00     0.188 C 
BRANCH  29  30
ATOM     30  C   UNL A   1      42.632  18.152  26.219  1.00  0.00     0.188 C 
BRANCH  30  31
ATOM     31  O   UNL A   1      43.616  18.644  25.335  1.00  0.00    -0.376 OA
BRANCH  31  32
ATOM     32  C   UNL A   1      44.997  18.426  25.593  1.00  0.00     0.202 C 
BRANCH  32  33
ATOM     33  C   UNL A   1      46.132  19.365  25.143  1.00  0.00     0.261 C 
BRANCH  33  34
ATOM     34  O   UNL A   1      45.844  20.745  25.233  1.00  0.00    -0.460 OA
BRANCH  34  35
ATOM     35  C   UNL A   1      45.067  21.388  24.338  1.00  0.00     0.338 C 
ATOM     36  O   UNL A   1      44.763  21.074  23.225  1.00  0.00    -0.246 OA
BRANCH  35  37
ATOM     37  C   UNL A   1      44.427  22.356  25.253  1.00  0.00     0.060 A 
ATOM     38  C   UNL A   1      43.416  23.194  24.765  1.00  0.00     0.016 A 
ATOM     39  C   UNL A   1      45.206  22.703  26.364  1.00  0.00     0.016 A 
ATOM     40  C   UNL A   1      43.272  24.446  25.343  1.00  0.00     0.010 A 
ATOM     41  C   UNL A   1      45.080  23.970  26.916  1.00  0.00     0.010 A 
ATOM     42  C   UNL A   1      44.138  24.852  26.388  1.00  0.00    -0.014 A 
BRANCH  42  43
ATOM     43  C   UNL A   1      43.711  26.011  27.175  1.00  0.00     0.031 A 
ATOM     44  C   UNL A   1      44.689  27.095  26.898  1.00  0.00     0.074 A 
ATOM     45  C   UNL A   1      42.592  26.201  27.907  1.00  0.00     0.049 A 
ATOM     46  N   UNL A   1      45.599  27.530  27.701  1.00  0.00    -0.248 NA
ATOM     47  C   UNL A   1      44.898  27.481  25.486  1.00  0.00     0.031 C 
ATOM     48  C   UNL A   1      41.443  25.306  28.056  1.00  0.00     0.029 A 
ATOM     49  N   UNL A   1      42.206  27.304  28.627  1.00  0.00    -0.354 N 
ATOM     50  C   UNL A   1      46.328  28.440  26.945  1.00  0.00     0.074 A 
ATOM     51  C   UNL A   1      46.040  28.162  25.569  1.00  0.00     0.031 C 
ATOM     52  C   UNL A   1      40.413  25.983  28.621  1.00  0.00     0.029 A 
ATOM     53  C   UNL A   1      40.856  27.320  28.985  1.00  0.00     0.049 A 
ATOM     54  H   UNL A   1      42.830  28.025  28.870  1.00  0.00     0.167 HD
ATOM     55  C   UNL A   1      46.762  29.586  27.527  1.00  0.00     0.037 A 
ATOM     56  C   UNL A   1      40.159  28.363  29.514  1.00  0.00     0.037 A 
ATOM     57  C   UNL A   1      46.784  29.449  28.962  1.00  0.00     0.049 A 
ATOM     58  C   UNL A   1      41.136  29.305  30.097  1.00  0.00     0.074 A 
ATOM     59  C   UNL A   1      47.545  28.777  29.893  1.00  0.00     0.029 A 
ATOM     60  N   UNL A   1      45.586  29.747  29.552  1.00  0.00    -0.354 N 
ATOM     61  N   UNL A   1      41.809  29.051  31.182  1.00  0.00    -0.248 NA
ATOM     62  C   UNL A   1      41.637  30.415  29.293  1.00  0.00     0.031 C 
ATOM     63  C   UNL A   1      46.700  28.563  31.023  1.00  0.00     0.029 A 
ATOM     64  C   UNL A   1      45.461  29.148  30.774  1.00  0.00     0.049 A 
ATOM     65  H   UNL A   1      44.898  30.322  29.147  1.00  0.00     0.167 HD
ATOM     66  C   UNL A   1      43.037  29.634  30.956  1.00  0.00     0.074 A 
ATOM     67  C   UNL A   1      42.816  30.606  29.892  1.00  0.00     0.031 C 
ATOM     68  C   UNL A   1      44.171  29.032  31.410  1.00  0.00     0.037 A 
BRANCH  55  69
ATOM     69  C   UNL A   1      46.569  30.940  26.872  1.00  0.00     0.057 A 
ATOM     70  C   UNL A   1      45.315  31.534  26.593  1.00  0.00     0.134 A 
ATOM     71  C   UNL A   1      47.662  31.818  26.820  1.00  0.00     0.134 A 
ATOM     72  F   UNL A   1      44.156  30.877  26.692  1.00  0.00    -0.206 F 
ATOM     73  C   UNL A   1      45.158  32.888  26.301  1.00  0.00     0.040 A 
ATOM     74  C   UNL A   1      47.509  33.190  26.577  1.00  0.00     0.040 A 
ATOM     75  F   UNL A   1      48.903  31.385  27.089  1.00  0.00    -0.206 F 
ATOM     76  C   UNL A   1      46.254  33.730  26.323  1.00  0.00     0.006 A 
ENDBRANCH  55  69
BRANCH  56  77
ATOM     77  C   UNL A   1      38.722  28.730  29.450  1.00  0.00     0.057 A 
ATOM     78  C   UNL A   1      38.182  29.326  28.301  1.00  0.00     0.134 A 
ATOM     79  C   UNL A   1      37.922  28.798  30.607  1.00  0.00     0.134 A 
ATOM     80  F   UNL A   1      38.886  29.376  27.161  1.00  0.00    -0.206 F 
ATOM     81  C   UNL A   1      36.941  29.978  28.306  1.00  0.00     0.040 A 
ATOM     82  C   UNL A   1      36.680  29.448  30.627  1.00  0.00     0.040 A 
ATOM     83  F   UNL A   1      38.360  28.293  31.771  1.00  0.00    -0.206 F 
ATOM     84  C   UNL A   1      36.192  30.056  29.475  1.00  0.00     0.006 A 
ENDBRANCH  56  77
BRANCH  68  85
ATOM     85  C   UNL A   1      44.017  28.090  32.560  1.00  0.00     0.057 A 
ATOM     86  C   UNL A   1      44.089  28.622  33.851  1.00  0.00     0.134 A 
ATOM     87  C   UNL A   1      43.834  26.704  32.445  1.00  0.00     0.134 A 
ATOM     88  F   UNL A   1      44.296  29.936  34.028  1.00  0.00    -0.206 F 
ATOM     89  C   UNL A   1      43.973  27.820  34.985  1.00  0.00     0.040 A 
ATOM     90  C   UNL A   1      43.681  25.893  33.574  1.00  0.00     0.040 A 
ATOM     91  F   UNL A   1      43.823  26.101  31.247  1.00  0.00    -0.206 F 
ATOM     92  C   UNL A   1      43.754  26.451  34.848  1.00  0.00     0.006 A 
ENDBRANCH  68  85
ENDBRANCH  42  43
ENDBRANCH  35  37
ENDBRANCH  34  35
ENDBRANCH  33  34
ENDBRANCH  32  33
ENDBRANCH  31  32
ENDBRANCH  30  31
ENDBRANCH  29  30
ENDBRANCH   1  29
TORSDOF 23
ENDMDL
MODEL 2
REMARK VINA RESULT:      -9.4      1.934      2.801
REMARK SMILES CCc1cccc2c3c([nH]c12)[C@](CC)(CC(=O)OCCOCCOCCOCCOC(=O)c1ccc(-c2c4nc(c(-c5c(F)cccc5F)c5ccc([nH]5)c(-c5c(F)cccc5F)c5nc(c(-c6c(F)cccc6F)c6ccc2[nH]6)C=C5)C=C4)cc1)OCC3
REMARK SMILES IDX 24 1 23 2 22 3 21 4 20 5 19 6 18 7 16 8 17 9 15 10 12 11
REMARK SMILES IDX 3 12 4 13 11 14 5 15 7 16 10 17 6 18 8 19 9 20 89 22 88 23
REMARK SMILES IDX 87 24 2 25 1 26 13 27 14 28 25 29 26 30 27 31 28 32 29 33
REMARK SMILES IDX 30 34 31 35 32 36 33 37 34 38 86 39 35 40 85 41 36 42 37 43
REMARK SMILES IDX 38 44 79 45 39 46 84 47 78 48 80 49 40 50 83 51 77 52 76 53
REMARK SMILES IDX 41 55 67 56 50 57 66 58 51 59 54 60 65 61 81 62 52 63 53 64
REMARK SMILES IDX 64 66 82 67 55 68 42 69 43 70 48 71 44 72 45 73 47 74 49 75
REMARK SMILES IDX 46 76 68 77 69 78 74 79 70 80 71 81 73 82 75 83 72 84 56 85
REMARK SMILES IDX 57 86 62 87 58 88 59 89 61 90 63 91 60 92
REMARK H PARENT 10 21 80 54 54 65
REMARK Flexibility Score: inf
ROOT
ATOM      1  O   UNL A   1      42.484  19.687  26.821  1.00  0.00    -0.377 OA
ENDROOT
BRANCH   1   2
ATOM      2  C   UNL A   1      41.142  19.862  27.181  1.00  0.00     0.188 C 
BRANCH   2   3
ATOM      3  C   UNL A   1      40.192  19.971  25.987  1.00  0.00     0.188 C 
BRANCH   3   4
ATOM      4  O   UNL A   1      39.022  20.790  26.023  1.00  0.00    -0.376 OA
BRANCH   4   5
ATOM      5  C   UNL A   1      39.136  22.204  26.057  1.00  0.00     0.202 C 
BRANCH   5   6
ATOM      6  C   UNL A   1      37.857  22.985  25.651  1.00  0.00     0.261 C 
BRANCH   6   7
ATOM      7  O   UNL A   1      36.820  22.275  24.911  1.00  0.00    -0.463 OA
BRANCH   7   8
ATOM      8  C   UNL A   1      36.266  22.948  23.880  1.00  0.00     0.309 C 
ATOM      9  O   UNL A   1      36.660  22.835  22.718  1.00  0.00    -0.252 OA
BRANCH   8  10
ATOM     10  C   UNL A   1      35.244  24.032  24.208  1.00  0.00     0.164 C 
BRANCH  10  11
ATOM     11  C   UNL A   1      33.782  24.029  24.736  1.00  0.00     0.118 C 
ATOM     12  C   UNL A   1      31.620  28.671  24.661  1.00  0.00    -0.024 A 
ATOM     13  C   UNL A   1      30.556  29.195  23.895  1.00  0.00     0.006 A 
ATOM     14  C   UNL A   1      31.932  27.302  24.453  1.00  0.00     0.049 A 
ATOM     15  C   UNL A   1      29.651  28.365  23.262  1.00  0.00     0.001 A 
ATOM     16  C   UNL A   1      31.037  26.443  23.807  1.00  0.00     0.003 A 
ATOM     17  N   UNL A   1      33.011  26.520  24.843  1.00  0.00    -0.356 N 
ATOM     18  C   UNL A   1      29.816  26.985  23.346  1.00  0.00     0.010 A 
ATOM     19  C   UNL A   1      31.615  25.136  23.825  1.00  0.00    -0.014 A 
ATOM     20  C   UNL A   1      32.858  25.211  24.429  1.00  0.00     0.052 A 
ATOM     21  H   UNL A   1      33.786  26.854  25.349  1.00  0.00     0.166 HD
ATOM     22  C   UNL A   1      31.101  23.829  23.338  1.00  0.00     0.066 C 
ATOM     23  C   UNL A   1      32.239  22.797  23.275  1.00  0.00     0.166 C 
ATOM     24  O   UNL A   1      33.079  22.800  24.432  1.00  0.00    -0.368 OA
BRANCH  12  25
ATOM     25  C   UNL A   1      32.213  29.625  25.676  1.00  0.00     0.034 C 
ATOM     26  C   UNL A   1      31.791  29.403  27.116  1.00  0.00     0.009 C 
ENDBRANCH  12  25
BRANCH  11  27
ATOM     27  C   UNL A   1      33.886  24.001  26.310  1.00  0.00     0.039 C 
ATOM     28  C   UNL A   1      33.662  22.639  26.962  1.00  0.00     0.007 C 
ENDBRANCH  11  27
ENDBRANCH  10  11
ENDBRANCH   8  10
ENDBRANCH   7   8
ENDBRANCH   6   7
ENDBRANCH   5   6
ENDBRANCH   4   5
ENDBRANCH   3   4
ENDBRANCH   2   3
ENDBRANCH   1   2
BRANCH   1  29
ATOM     29  C   UNL A   1      42.853  18.796  25.808  1.00  0.00     0.188 C 
BRANCH  29  30
ATOM     30  C   UNL A   1      44.263  18.913  25.244  1.00  0.00     0.188 C 
BRANCH  30  31
ATOM     31  O   UNL A   1      44.384  19.964  24.310  1.00  0.00    -0.376 OA
BRANCH  31  32
ATOM     32  C   UNL A   1      44.953  21.210  24.690  1.00  0.00     0.202 C 
BRANCH  32  33
ATOM     33  C   UNL A   1      44.980  22.468  23.802  1.00  0.00     0.261 C 
BRANCH  33  34
ATOM     34  O   UNL A   1      44.270  23.579  24.307  1.00  0.00    -0.460 OA
BRANCH  34  35
ATOM     35  C   UNL A   1      43.101  23.459  24.967  1.00  0.00     0.338 C 
ATOM     36  O   UNL A   1      42.412  22.495  25.133  1.00  0.00    -0.246 OA
BRANCH  35  37
ATOM     37  C   UNL A   1      43.131  24.736  25.711  1.00  0.00     0.060 A 
ATOM     38  C   UNL A   1      43.653  24.760  27.010  1.00  0.00     0.016 A 
ATOM     39  C   UNL A   1      42.198  25.683  25.269  1.00  0.00     0.016 A 
ATOM     40  C   UNL A   1      43.139  25.688  27.902  1.00  0.00     0.010 A 
ATOM     41  C   UNL A   1      41.663  26.587  26.175  1.00  0.00     0.010 A 
ATOM     42  C   UNL A   1      42.108  26.571  27.497  1.00  0.00    -0.014 A 
BRANCH  42  43
ATOM     43  C   UNL A   1      41.869  27.733  28.356  1.00  0.00     0.031 A 
ATOM     44  C   UNL A   1      43.024  28.647  28.161  1.00  0.00     0.074 A 
ATOM     45  C   UNL A   1      40.784  28.064  29.088  1.00  0.00     0.049 A 
ATOM     46  N   UNL A   1      43.978  28.867  29.000  1.00  0.00    -0.248 NA
ATOM     47  C   UNL A   1      43.325  29.082  26.780  1.00  0.00     0.031 C 
ATOM     48  C   UNL A   1      39.496  27.373  29.165  1.00  0.00     0.029 A 
ATOM     49  N   UNL A   1      40.577  29.169  29.876  1.00  0.00    -0.354 N 
ATOM     50  C   UNL A   1      44.868  29.684  28.315  1.00  0.00     0.074 A 
ATOM     51  C   UNL A   1      44.565  29.550  26.920  1.00  0.00     0.031 C 
ATOM     52  C   UNL A   1      38.585  28.179  29.765  1.00  0.00     0.029 A 
ATOM     53  C   UNL A   1      39.243  29.393  30.222  1.00  0.00     0.049 A 
ATOM     54  H   UNL A   1      41.310  29.754  30.174  1.00  0.00     0.167 HD
ATOM     55  C   UNL A   1      45.479  30.699  28.976  1.00  0.00     0.037 A 
ATOM     56  C   UNL A   1      38.724  30.504  30.813  1.00  0.00     0.037 A 
ATOM     57  C   UNL A   1      45.447  30.467  30.399  1.00  0.00     0.049 A 
ATOM     58  C   UNL A   1      39.836  31.224  31.468  1.00  0.00     0.074 A 
ATOM     59  C   UNL A   1      46.062  29.616  31.290  1.00  0.00     0.029 A 
ATOM     60  N   UNL A   1      44.305  30.929  30.997  1.00  0.00    -0.354 N 
ATOM     61  N   UNL A   1      40.433  30.789  32.540  1.00  0.00    -0.248 NA
ATOM     62  C   UNL A   1      40.535  32.282  30.746  1.00  0.00     0.031 C 
ATOM     63  C   UNL A   1      45.170  29.478  32.395  1.00  0.00     0.029 A 
ATOM     64  C   UNL A   1      44.055  30.282  32.174  1.00  0.00     0.049 A 
ATOM     65  H   UNL A   1      43.734  31.638  30.624  1.00  0.00     0.167 HD
ATOM     66  C   UNL A   1      41.747  31.165  32.365  1.00  0.00     0.074 A 
ATOM     67  C   UNL A   1      41.718  32.228  31.367  1.00  0.00     0.031 C 
ATOM     68  C   UNL A   1      42.751  30.349  32.788  1.00  0.00     0.037 A 
BRANCH  55  69
ATOM     69  C   UNL A   1      45.534  32.106  28.412  1.00  0.00     0.057 A 
ATOM     70  C   UNL A   1      46.695  32.726  27.893  1.00  0.00     0.134 A 
ATOM     71  C   UNL A   1      44.327  32.735  28.073  1.00  0.00     0.134 A 
ATOM     72  F   UNL A   1      47.922  32.214  28.029  1.00  0.00    -0.206 F 
ATOM     73  C   UNL A   1      46.660  33.869  27.094  1.00  0.00     0.040 A 
ATOM     74  C   UNL A   1      44.278  33.854  27.229  1.00  0.00     0.040 A 
ATOM     75  F   UNL A   1      43.153  32.232  28.481  1.00  0.00    -0.206 F 
ATOM     76  C   UNL A   1      45.446  34.420  26.733  1.00  0.00     0.006 A 
ENDBRANCH  55  69
BRANCH  56  77
ATOM     77  C   UNL A   1      37.373  31.117  30.761  1.00  0.00     0.057 A 
ATOM     78  C   UNL A   1      37.020  31.993  29.725  1.00  0.00     0.134 A 
ATOM     79  C   UNL A   1      36.512  31.109  31.876  1.00  0.00     0.134 A 
ATOM     80  F   UNL A   1      37.804  32.128  28.646  1.00  0.00    -0.206 F 
ATOM     81  C   UNL A   1      35.902  32.836  29.803  1.00  0.00     0.040 A 
ATOM     82  C   UNL A   1      35.391  31.947  31.967  1.00  0.00     0.040 A 
ATOM     83  F   UNL A   1      36.777  30.335  32.938  1.00  0.00    -0.206 F 
ATOM     84  C   UNL A   1      35.092  32.828  30.933  1.00  0.00     0.006 A 
ENDBRANCH  56  77
BRANCH  68  85
ATOM     85  C   UNL A   1      42.414  29.375  33.871  1.00  0.00     0.057 A 
ATOM     86  C   UNL A   1      42.064  28.075  33.491  1.00  0.00     0.134 A 
ATOM     87  C   UNL A   1      42.391  29.672  35.241  1.00  0.00     0.134 A 
ATOM     88  F   UNL A   1      42.034  27.738  32.192  1.00  0.00    -0.206 F 
ATOM     89  C   UNL A   1      41.717  27.103  34.427  1.00  0.00     0.040 A 
ATOM     90  C   UNL A   1      42.079  28.697  36.193  1.00  0.00     0.040 A 
ATOM     91  F   UNL A   1      42.644  30.911  35.689  1.00  0.00    -0.206 F 
ATOM     92  C   UNL A   1      41.738  27.409  35.786  1.00  0.00     0.006 A 
ENDBRANCH  68  85
ENDBRANCH  42  43
ENDBRANCH  35  37
ENDBRANCH  34  35
ENDBRANCH  33  34
ENDBRANCH  32  33
ENDBRANCH  31  32
ENDBRANCH  30  31
ENDBRANCH  29  30
ENDBRANCH   1  29
TORSDOF 23
ENDMDL
MODEL 3
REMARK VINA RESULT:      -9.1      2.894      4.361
REMARK SMILES CCc1cccc2c3c([nH]c12)[C@](CC)(CC(=O)OCCOCCOCCOCCOC(=O)c1ccc(-c2c4nc(c(-c5c(F)cccc5F)c5ccc([nH]5)c(-c5c(F)cccc5F)c5nc(c(-c6c(F)cccc6F)c6ccc2[nH]6)C=C5)C=C4)cc1)OCC3
REMARK SMILES IDX 24 1 23 2 22 3 21 4 20 5 19 6 18 7 16 8 17 9 15 10 12 11
REMARK SMILES IDX 3 12 4 13 11 14 5 15 7 16 10 17 6 18 8 19 9 20 89 22 88 23
REMARK SMILES IDX 87 24 2 25 1 26 13 27 14 28 25 29 26 30 27 31 28 32 29 33
REMARK SMILES IDX 30 34 31 35 32 36 33 37 34 38 86 39 35 40 85 41 36 42 37 43
REMARK SMILES IDX 38 44 79 45 39 46 84 47 78 48 80 49 40 50 83 51 77 52 76 53
REMARK SMILES IDX 41 55 67 56 50 57 66 58 51 59 54 60 65 61 81 62 52 63 53 64
REMARK SMILES IDX 64 66 82 67 55 68 42 69 43 70 48 71 44 72 45 73 47 74 49 75
REMARK SMILES IDX 46 76 68 77 69 78 74 79 70 80 71 81 73 82 75 83 72 84 56 85
REMARK SMILES IDX 57 86 62 87 58 88 59 89 61 90 63 91 60 92
REMARK H PARENT 10 21 80 54 54 65
REMARK Flexibility Score: inf
ROOT
ATOM      1  O   UNL A   1      39.457  20.387  25.575  1.00  0.00    -0.377 OA
ENDROOT
BRANCH   1   2
ATOM      2  C   UNL A   1      38.645  21.506  25.801  1.00  0.00     0.188 C 
BRANCH   2   3
ATOM      3  C   UNL A   1      37.280  21.425  25.117  1.00  0.00     0.188 C 
BRANCH   3   4
ATOM      4  O   UNL A   1      36.084  21.873  25.758  1.00  0.00    -0.376 OA
BRANCH   4   5
ATOM      5  C   UNL A   1      34.846  21.228  25.500  1.00  0.00     0.202 C 
BRANCH   5   6
ATOM      6  C   UNL A   1      34.351  21.302  24.030  1.00  0.00     0.261 C 
BRANCH   6   7
ATOM      7  O   UNL A   1      33.295  22.253  23.704  1.00  0.00    -0.463 OA
BRANCH   7   8
ATOM      8  C   UNL A   1      33.684  23.361  23.037  1.00  0.00     0.309 C 
ATOM      9  O   UNL A   1      34.351  23.321  22.002  1.00  0.00    -0.252 OA
BRANCH   8  10
ATOM     10  C   UNL A   1      33.449  24.711  23.708  1.00  0.00     0.164 C 
BRANCH  10  11
ATOM     11  C   UNL A   1      32.602  25.195  24.918  1.00  0.00     0.118 C 
ATOM     12  C   UNL A   1      34.461  29.444  27.089  1.00  0.00    -0.024 A 
ATOM     13  C   UNL A   1      33.952  30.759  27.157  1.00  0.00     0.006 A 
ATOM     14  C   UNL A   1      33.644  28.485  26.436  1.00  0.00     0.049 A 
ATOM     15  C   UNL A   1      32.615  31.024  26.935  1.00  0.00     0.001 A 
ATOM     16  C   UNL A   1      32.289  28.732  26.191  1.00  0.00     0.003 A 
ATOM     17  N   UNL A   1      33.891  27.192  25.994  1.00  0.00    -0.356 N 
ATOM     18  C   UNL A   1      31.760  29.978  26.595  1.00  0.00     0.010 A 
ATOM     19  C   UNL A   1      31.744  27.553  25.593  1.00  0.00    -0.014 A 
ATOM     20  C   UNL A   1      32.762  26.628  25.436  1.00  0.00     0.052 A 
ATOM     21  H   UNL A   1      34.760  26.736  26.068  1.00  0.00     0.166 HD
ATOM     22  C   UNL A   1      30.360  27.217  25.170  1.00  0.00     0.066 C 
ATOM     23  C   UNL A   1      30.363  25.970  24.271  1.00  0.00     0.166 C 
ATOM     24  O   UNL A   1      31.191  24.912  24.762  1.00  0.00    -0.368 OA
BRANCH  12  25
ATOM     25  C   UNL A   1      35.769  29.223  27.818  1.00  0.00     0.034 C 
ATOM     26  C   UNL A   1      36.923  30.111  27.389  1.00  0.00     0.009 C 
ENDBRANCH  12  25
BRANCH  11  27
ATOM     27  C   UNL A   1      33.017  24.281  26.135  1.00  0.00     0.039 C 
ATOM     28  C   UNL A   1      31.866  23.767  26.996  1.00  0.00     0.007 C 
ENDBRANCH  11  27
ENDBRANCH  10  11
ENDBRANCH   8  10
ENDBRANCH   7   8
ENDBRANCH   6   7
ENDBRANCH   5   6
ENDBRANCH   4   5
ENDBRANCH   3   4
ENDBRANCH   2   3
ENDBRANCH   1   2
BRANCH   1  29
ATOM     29  C   UNL A   1      40.450  20.016  26.488  1.00  0.00     0.188 C 
BRANCH  29  30
ATOM     30  C   UNL A   1      41.868  19.848  25.958  1.00  0.00     0.188 C 
BRANCH  30  31
ATOM     31  O   UNL A   1      42.395  21.049  25.437  1.00  0.00    -0.376 OA
BRANCH  31  32
ATOM     32  C   UNL A   1      43.518  21.671  26.045  1.00  0.00     0.202 C 
BRANCH  32  33
ATOM     33  C   UNL A   1      43.633  23.180  26.338  1.00  0.00     0.261 C 
BRANCH  33  34
ATOM     34  O   UNL A   1      43.117  23.593  27.586  1.00  0.00    -0.460 OA
BRANCH  34  35
ATOM     35  C   UNL A   1      41.798  23.747  27.816  1.00  0.00     0.338 C 
ATOM     36  O   UNL A   1      40.977  22.936  28.132  1.00  0.00    -0.246 OA
BRANCH  35  37
ATOM     37  C   UNL A   1      41.761  25.219  27.933  1.00  0.00     0.060 A 
ATOM     38  C   UNL A   1      42.611  25.857  28.846  1.00  0.00     0.016 A 
ATOM     39  C   UNL A   1      40.561  25.802  27.506  1.00  0.00     0.016 A 
ATOM     40  C   UNL A   1      42.182  27.045  29.415  1.00  0.00     0.010 A 
ATOM     41  C   UNL A   1      40.122  26.975  28.104  1.00  0.00     0.010 A 
ATOM     42  C   UNL A   1      40.914  27.580  29.080  1.00  0.00    -0.014 A 
BRANCH  42  43
ATOM     43  C   UNL A   1      40.684  28.982  29.433  1.00  0.00     0.031 A 
ATOM     44  C   UNL A   1      41.784  29.762  28.810  1.00  0.00     0.074 A 
ATOM     45  C   UNL A   1      39.635  29.560  30.057  1.00  0.00     0.049 A 
ATOM     46  N   UNL A   1      42.780  30.306  29.423  1.00  0.00    -0.248 NA
ATOM     47  C   UNL A   1      41.978  29.625  27.351  1.00  0.00     0.031 C 
ATOM     48  C   UNL A   1      38.384  28.938  30.495  1.00  0.00     0.029 A 
ATOM     49  N   UNL A   1      39.434  30.882  30.366  1.00  0.00    -0.354 N 
ATOM     50  C   UNL A   1      43.590  30.800  28.407  1.00  0.00     0.074 A 
ATOM     51  C   UNL A   1      43.204  30.126  27.202  1.00  0.00     0.031 C 
ATOM     52  C   UNL A   1      37.482  29.903  30.800  1.00  0.00     0.029 A 
ATOM     53  C   UNL A   1      38.116  31.208  30.696  1.00  0.00     0.049 A 
ATOM     54  H   UNL A   1      40.159  31.547  30.355  1.00  0.00     0.167 HD
ATOM     55  C   UNL A   1      44.200  32.001  28.572  1.00  0.00     0.037 A 
ATOM     56  C   UNL A   1      37.591  32.454  30.844  1.00  0.00     0.037 A 
ATOM     57  C   UNL A   1      44.268  32.345  29.970  1.00  0.00     0.049 A 
ATOM     58  C   UNL A   1      38.711  33.388  31.080  1.00  0.00     0.074 A 
ATOM     59  C   UNL A   1      44.975  31.919  31.074  1.00  0.00     0.029 A 
ATOM     60  N   UNL A   1      43.150  32.989  30.425  1.00  0.00    -0.354 N 
ATOM     61  N   UNL A   1      39.394  33.415  32.189  1.00  0.00    -0.248 NA
ATOM     62  C   UNL A   1      39.318  34.086  29.952  1.00  0.00     0.031 C 
ATOM     63  C   UNL A   1      44.162  32.215  32.209  1.00  0.00     0.029 A 
ATOM     64  C   UNL A   1      43.003  32.853  31.777  1.00  0.00     0.049 A 
ATOM     65  H   UNL A   1      42.527  33.488  29.850  1.00  0.00     0.167 HD
ATOM     66  C   UNL A   1      40.677  33.710  31.782  1.00  0.00     0.074 A 
ATOM     67  C   UNL A   1      40.539  34.296  30.453  1.00  0.00     0.031 C 
ATOM     68  C   UNL A   1      41.740  33.138  32.413  1.00  0.00     0.037 A 
BRANCH  55  69
ATOM     69  C   UNL A   1      44.159  33.074  27.501  1.00  0.00     0.057 A 
ATOM     70  C   UNL A   1      43.471  34.305  27.613  1.00  0.00     0.134 A 
ATOM     71  C   UNL A   1      45.105  33.019  26.466  1.00  0.00     0.134 A 
ATOM     72  F   UNL A   1      42.608  34.575  28.597  1.00  0.00    -0.206 F 
ATOM     73  C   UNL A   1      43.710  35.394  26.776  1.00  0.00     0.040 A 
ATOM     74  C   UNL A   1      45.388  34.124  25.652  1.00  0.00     0.040 A 
ATOM     75  F   UNL A   1      45.843  31.917  26.269  1.00  0.00    -0.206 F 
ATOM     76  C   UNL A   1      44.695  35.318  25.810  1.00  0.00     0.006 A 
ENDBRANCH  55  69
BRANCH  56  77
ATOM     77  C   UNL A   1      36.214  32.980  30.660  1.00  0.00     0.057 A 
ATOM     78  C   UNL A   1      35.767  33.395  29.397  1.00  0.00     0.134 A 
ATOM     79  C   UNL A   1      35.420  33.378  31.752  1.00  0.00     0.134 A 
ATOM     80  F   UNL A   1      36.481  33.127  28.295  1.00  0.00    -0.206 F 
ATOM     81  C   UNL A   1      34.621  34.187  29.230  1.00  0.00     0.040 A 
ATOM     82  C   UNL A   1      34.273  34.171  31.600  1.00  0.00     0.040 A 
ATOM     83  F   UNL A   1      35.778  33.066  33.007  1.00  0.00    -0.206 F 
ATOM     84  C   UNL A   1      33.879  34.592  30.334  1.00  0.00     0.006 A 
ENDBRANCH  56  77
BRANCH  68  85
ATOM     85  C   UNL A   1      41.513  32.663  33.812  1.00  0.00     0.057 A 
ATOM     86  C   UNL A   1      41.815  33.543  34.855  1.00  0.00     0.134 A 
ATOM     87  C   UNL A   1      41.048  31.387  34.161  1.00  0.00     0.134 A 
ATOM     88  F   UNL A   1      42.295  34.768  34.587  1.00  0.00    -0.206 F 
ATOM     89  C   UNL A   1      41.652  33.183  36.192  1.00  0.00     0.040 A 
ATOM     90  C   UNL A   1      40.848  31.025  35.497  1.00  0.00     0.040 A 
ATOM     91  F   UNL A   1      40.802  30.456  33.228  1.00  0.00    -0.206 F 
ATOM     92  C   UNL A   1      41.154  31.924  36.517  1.00  0.00     0.006 A 
ENDBRANCH  68  85
ENDBRANCH  42  43
ENDBRANCH  35  37
ENDBRANCH  34  35
ENDBRANCH  33  34
ENDBRANCH  32  33
ENDBRANCH  31  32
ENDBRANCH  30  31
ENDBRANCH  29  30
ENDBRANCH   1  29
TORSDOF 23
ENDMDL
