MODEL 1
REMARK VINA RESULT:     -10.4      0.000      0.000
REMARK SMILES O=C(OCCOCCOCCOCCOC(=O)C1(C[C@@H]2COc3ccccc32)CC[NH2+]CC1)c1ccc(-c2c3nc(c(-c4c(F)cccc4F)c4ccc([nH]4)c(-c4c(F)cccc4F)c4nc(c(-c5c(F)cccc5F)c5ccc2[nH]5)C=C4)C=C3)cc1
REMARK SMILES IDX 9 1 8 2 7 3 6 4 5 5 4 6 3 7 2 8 1 9 34 10 35 11 87 12 36 13
REMARK SMILES IDX 86 14 37 15 38 16 39 17 80 18 40 19 85 20 79 21 81 22 41 23
REMARK SMILES IDX 84 24 78 25 77 26 42 28 68 29 51 30 67 31 52 32 55 33 66 34
REMARK SMILES IDX 82 35 53 36 54 37 65 39 83 40 56 41 43 42 44 43 49 44 45 45
REMARK SMILES IDX 46 46 48 47 50 48 47 49 69 50 70 51 75 52 71 53 72 54 74 55
REMARK SMILES IDX 76 56 73 57 57 58 58 59 63 60 59 61 60 62 62 63 64 64 61 65
REMARK SMILES IDX 10 66 11 67 12 68 13 69 14 70 15 71 16 72 17 73 18 74 29 75
REMARK SMILES IDX 33 76 30 77 32 78 31 79 19 82 20 83 21 84 28 85 22 86 23 87
REMARK SMILES IDX 27 88 24 89 26 90 25 91
REMARK H PARENT 81 27 55 38 31 80 31 81
REMARK Flexibility Score: inf
ROOT
ATOM      1  O   UNL A   1      41.960  20.511  27.146  1.00  0.00    -0.377 OA
ENDROOT
BRANCH   1   2
ATOM      2  C   UNL A   1      41.974  19.774  25.927  1.00  0.00     0.188 C 
BRANCH   2   3
ATOM      3  C   UNL A   1      43.375  19.368  25.470  1.00  0.00     0.188 C 
BRANCH   3   4
ATOM      4  O   UNL A   1      44.030  20.280  24.573  1.00  0.00    -0.376 OA
BRANCH   4   5
ATOM      5  C   UNL A   1      45.318  20.754  24.999  1.00  0.00     0.202 C 
BRANCH   5   6
ATOM      6  C   UNL A   1      45.371  22.041  25.848  1.00  0.00     0.261 C 
BRANCH   6   7
ATOM      7  O   UNL A   1      44.142  22.785  25.897  1.00  0.00    -0.460 OA
BRANCH   7   8
ATOM      8  C   UNL A   1      43.901  24.067  25.523  1.00  0.00     0.338 C 
ATOM      9  O   UNL A   1      44.342  24.457  24.443  1.00  0.00    -0.246 OA
BRANCH   8  10
ATOM     10  C   UNL A   1      43.141  25.040  26.363  1.00  0.00     0.060 A 
ATOM     11  C   UNL A   1      43.487  26.376  26.534  1.00  0.00     0.016 A 
ATOM     12  C   UNL A   1      41.978  24.581  27.005  1.00  0.00     0.016 A 
ATOM     13  C   UNL A   1      42.820  27.197  27.415  1.00  0.00     0.010 A 
ATOM     14  C   UNL A   1      41.258  25.415  27.868  1.00  0.00     0.010 A 
ATOM     15  C   UNL A   1      41.723  26.711  28.112  1.00  0.00    -0.014 A 
BRANCH  15  16
ATOM     16  C   UNL A   1      41.278  27.532  29.247  1.00  0.00     0.031 A 
ATOM     17  C   UNL A   1      42.146  27.537  30.470  1.00  0.00     0.074 A 
ATOM     18  C   UNL A   1      40.294  28.430  29.068  1.00  0.00     0.049 A 
ATOM     19  N   UNL A   1      41.979  28.162  31.601  1.00  0.00    -0.248 NA
ATOM     20  C   UNL A   1      43.390  26.747  30.398  1.00  0.00     0.031 C 
ATOM     21  C   UNL A   1      39.541  28.620  27.823  1.00  0.00     0.029 A 
ATOM     22  N   UNL A   1      39.804  29.393  29.902  1.00  0.00    -0.354 N 
ATOM     23  C   UNL A   1      43.071  27.813  32.383  1.00  0.00     0.074 A 
ATOM     24  C   UNL A   1      43.900  26.924  31.606  1.00  0.00     0.031 C 
ATOM     25  C   UNL A   1      38.706  29.660  27.969  1.00  0.00     0.029 A 
ATOM     26  C   UNL A   1      38.802  30.145  29.340  1.00  0.00     0.049 A 
ATOM     27  H   UNL A   1      40.136  29.535  30.818  1.00  0.00     0.167 HD
ATOM     28  C   UNL A   1      43.344  28.204  33.647  1.00  0.00     0.037 A 
ATOM     29  C   UNL A   1      38.021  31.086  29.902  1.00  0.00     0.037 A 
ATOM     30  C   UNL A   1      42.495  29.098  34.382  1.00  0.00     0.049 A 
ATOM     31  C   UNL A   1      38.266  31.406  31.352  1.00  0.00     0.074 A 
ATOM     32  C   UNL A   1      42.567  29.479  35.705  1.00  0.00     0.029 A 
ATOM     33  N   UNL A   1      41.409  29.763  33.824  1.00  0.00    -0.354 N 
ATOM     34  N   UNL A   1      39.212  30.960  32.147  1.00  0.00    -0.248 NA
ATOM     35  C   UNL A   1      37.327  32.333  31.990  1.00  0.00     0.031 C 
ATOM     36  C   UNL A   1      41.501  30.353  35.958  1.00  0.00     0.029 A 
ATOM     37  C   UNL A   1      40.795  30.549  34.779  1.00  0.00     0.049 A 
ATOM     38  H   UNL A   1      41.120  29.686  32.885  1.00  0.00     0.167 HD
ATOM     39  C   UNL A   1      38.985  31.554  33.379  1.00  0.00     0.074 A 
ATOM     40  C   UNL A   1      37.832  32.419  33.213  1.00  0.00     0.031 C 
ATOM     41  C   UNL A   1      39.650  31.394  34.551  1.00  0.00     0.037 A 
BRANCH  28  42
ATOM     42  C   UNL A   1      44.544  27.593  34.303  1.00  0.00     0.057 A 
ATOM     43  C   UNL A   1      45.807  28.200  34.269  1.00  0.00     0.134 A 
ATOM     44  C   UNL A   1      44.446  26.342  34.926  1.00  0.00     0.134 A 
ATOM     45  F   UNL A   1      45.979  29.377  33.651  1.00  0.00    -0.206 F 
ATOM     46  C   UNL A   1      46.931  27.574  34.814  1.00  0.00     0.040 A 
ATOM     47  C   UNL A   1      45.558  25.717  35.491  1.00  0.00     0.040 A 
ATOM     48  F   UNL A   1      43.270  25.698  34.976  1.00  0.00    -0.206 F 
ATOM     49  C   UNL A   1      46.807  26.330  35.429  1.00  0.00     0.006 A 
ENDBRANCH  28  42
BRANCH  29  50
ATOM     50  C   UNL A   1      36.897  31.695  29.145  1.00  0.00     0.057 A 
ATOM     51  C   UNL A   1      36.946  33.014  28.681  1.00  0.00     0.134 A 
ATOM     52  C   UNL A   1      35.716  30.977  28.900  1.00  0.00     0.134 A 
ATOM     53  F   UNL A   1      38.035  33.766  28.899  1.00  0.00    -0.206 F 
ATOM     54  C   UNL A   1      35.860  33.603  28.028  1.00  0.00     0.040 A 
ATOM     55  C   UNL A   1      34.636  31.542  28.220  1.00  0.00     0.040 A 
ATOM     56  F   UNL A   1      35.595  29.707  29.317  1.00  0.00    -0.206 F 
ATOM     57  C   UNL A   1      34.702  32.864  27.793  1.00  0.00     0.006 A 
ENDBRANCH  29  50
BRANCH  41  58
ATOM     58  C   UNL A   1      39.148  32.191  35.713  1.00  0.00     0.057 A 
ATOM     59  C   UNL A   1      39.558  33.513  35.928  1.00  0.00     0.134 A 
ATOM     60  C   UNL A   1      38.224  31.637  36.607  1.00  0.00     0.134 A 
ATOM     61  F   UNL A   1      40.454  34.088  35.112  1.00  0.00    -0.206 F 
ATOM     62  C   UNL A   1      39.083  34.249  37.011  1.00  0.00     0.040 A 
ATOM     63  C   UNL A   1      37.721  32.375  37.676  1.00  0.00     0.040 A 
ATOM     64  F   UNL A   1      37.788  30.378  36.444  1.00  0.00    -0.206 F 
ATOM     65  C   UNL A   1      38.157  33.682  37.884  1.00  0.00     0.006 A 
ENDBRANCH  41  58
ENDBRANCH  15  16
ENDBRANCH   8  10
ENDBRANCH   7   8
ENDBRANCH   6   7
ENDBRANCH   5   6
ENDBRANCH   4   5
ENDBRANCH   3   4
ENDBRANCH   2   3
ENDBRANCH   1   2
BRANCH   1  66
ATOM     66  C   UNL A   1      40.736  21.175  27.386  1.00  0.00     0.188 C 
BRANCH  66  67
ATOM     67  C   UNL A   1      39.945  21.540  26.138  1.00  0.00     0.188 C 
BRANCH  67  68
ATOM     68  O   UNL A   1      38.525  21.583  26.139  1.00  0.00    -0.376 OA
BRANCH  68  69
ATOM     69  C   UNL A   1      38.000  22.915  25.959  1.00  0.00     0.202 C 
BRANCH  69  70
ATOM     70  C   UNL A   1      37.015  23.086  24.781  1.00  0.00     0.261 C 
BRANCH  70  71
ATOM     71  O   UNL A   1      35.752  23.682  25.173  1.00  0.00    -0.463 OA
BRANCH  71  72
ATOM     72  C   UNL A   1      34.623  23.271  24.560  1.00  0.00     0.312 C 
ATOM     73  O   UNL A   1      34.610  22.905  23.380  1.00  0.00    -0.252 OA
BRANCH  72  74
ATOM     74  C   UNL A   1      33.379  23.303  25.478  1.00  0.00     0.079 C 
ATOM     75  C   UNL A   1      33.915  23.032  26.897  1.00  0.00     0.080 C 
ATOM     76  C   UNL A   1      32.325  22.184  25.183  1.00  0.00     0.080 C 
ATOM     77  C   UNL A   1      34.381  21.581  27.065  1.00  0.00     0.261 C 
ATOM     78  C   UNL A   1      32.777  20.757  25.463  1.00  0.00     0.261 C 
ATOM     79  N   UNL A   1      33.290  20.642  26.820  1.00  0.00    -0.346 N 
ATOM     80  H   UNL A   1      32.534  20.836  27.477  1.00  0.00     0.346 HD
ATOM     81  H   UNL A   1      33.648  19.696  26.946  1.00  0.00     0.346 HD
BRANCH  74  82
ATOM     82  C   UNL A   1      32.543  24.644  25.355  1.00  0.00     0.031 C 
BRANCH  82  83
ATOM     83  C   UNL A   1      33.098  26.030  24.988  1.00  0.00     0.062 C 
ATOM     84  C   UNL A   1      33.650  26.934  26.102  1.00  0.00     0.238 C 
ATOM     85  C   UNL A   1      32.144  26.945  24.336  1.00  0.00     0.001 A 
ATOM     86  O   UNL A   1      33.036  28.243  26.028  1.00  0.00    -0.493 OA
ATOM     87  C   UNL A   1      32.138  28.157  24.999  1.00  0.00     0.122 A 
ATOM     88  C   UNL A   1      31.327  26.716  23.242  1.00  0.00     0.008 A 
ATOM     89  C   UNL A   1      31.271  29.166  24.639  1.00  0.00     0.047 A 
ATOM     90  C   UNL A   1      30.424  27.711  22.879  1.00  0.00     0.001 A 
ATOM     91  C   UNL A   1      30.390  28.927  23.580  1.00  0.00     0.004 A 
ENDBRANCH  82  83
ENDBRANCH  74  82
ENDBRANCH  72  74
ENDBRANCH  71  72
ENDBRANCH  70  71
ENDBRANCH  69  70
ENDBRANCH  68  69
ENDBRANCH  67  68
ENDBRANCH  66  67
ENDBRANCH   1  66
TORSDOF 22
ENDMDL
MODEL 2
REMARK VINA RESULT:     -10.2      2.074      4.129
REMARK SMILES O=C(OCCOCCOCCOCCOC(=O)C1(C[C@@H]2COc3ccccc32)CC[NH2+]CC1)c1ccc(-c2c3nc(c(-c4c(F)cccc4F)c4ccc([nH]4)c(-c4c(F)cccc4F)c4nc(c(-c5c(F)cccc5F)c5ccc2[nH]5)C=C4)C=C3)cc1
REMARK SMILES IDX 9 1 8 2 7 3 6 4 5 5 4 6 3 7 2 8 1 9 34 10 35 11 87 12 36 13
REMARK SMILES IDX 86 14 37 15 38 16 39 17 80 18 40 19 85 20 79 21 81 22 41 23
REMARK SMILES IDX 84 24 78 25 77 26 42 28 68 29 51 30 67 31 52 32 55 33 66 34
REMARK SMILES IDX 82 35 53 36 54 37 65 39 83 40 56 41 43 42 44 43 49 44 45 45
REMARK SMILES IDX 46 46 48 47 50 48 47 49 69 50 70 51 75 52 71 53 72 54 74 55
REMARK SMILES IDX 76 56 73 57 57 58 58 59 63 60 59 61 60 62 62 63 64 64 61 65
REMARK SMILES IDX 10 66 11 67 12 68 13 69 14 70 15 71 16 72 17 73 18 74 29 75
REMARK SMILES IDX 33 76 30 77 32 78 31 79 19 82 20 83 21 84 28 85 22 86 23 87
REMARK SMILES IDX 27 88 24 89 26 90 25 91
REMARK H PARENT 81 27 55 38 31 80 31 81
REMARK Flexibility Score: inf
ROOT
ATOM      1  O   UNL A   1      43.192  18.783  26.235  1.00  0.00    -0.377 OA
ENDROOT
BRANCH   1   2
ATOM      2  C   UNL A   1      43.947  19.109  25.073  1.00  0.00     0.188 C 
BRANCH   2   3
ATOM      3  C   UNL A   1      44.634  20.473  25.148  1.00  0.00     0.188 C 
BRANCH   3   4
ATOM      4  O   UNL A   1      44.247  21.425  24.145  1.00  0.00    -0.376 OA
BRANCH   4   5
ATOM      5  C   UNL A   1      44.532  22.801  24.449  1.00  0.00     0.202 C 
BRANCH   5   6
ATOM      6  C   UNL A   1      44.296  23.287  25.894  1.00  0.00     0.261 C 
BRANCH   6   7
ATOM      7  O   UNL A   1      43.003  23.868  26.133  1.00  0.00    -0.460 OA
BRANCH   7   8
ATOM      8  C   UNL A   1      42.538  25.094  25.786  1.00  0.00     0.338 C 
ATOM      9  O   UNL A   1      42.673  25.467  24.622  1.00  0.00    -0.246 OA
BRANCH   8  10
ATOM     10  C   UNL A   1      41.882  26.030  26.749  1.00  0.00     0.060 A 
ATOM     11  C   UNL A   1      42.110  27.400  26.799  1.00  0.00     0.016 A 
ATOM     12  C   UNL A   1      40.949  25.490  27.651  1.00  0.00     0.016 A 
ATOM     13  C   UNL A   1      41.570  28.195  27.786  1.00  0.00     0.010 A 
ATOM     14  C   UNL A   1      40.353  26.292  28.631  1.00  0.00     0.010 A 
ATOM     15  C   UNL A   1      40.716  27.638  28.727  1.00  0.00    -0.014 A 
BRANCH  15  16
ATOM     16  C   UNL A   1      40.449  28.469  29.910  1.00  0.00     0.031 A 
ATOM     17  C   UNL A   1      41.427  28.381  31.043  1.00  0.00     0.074 A 
ATOM     18  C   UNL A   1      39.527  29.444  29.837  1.00  0.00     0.049 A 
ATOM     19  N   UNL A   1      41.418  28.995  32.192  1.00  0.00    -0.248 NA
ATOM     20  C   UNL A   1      42.591  27.498  30.841  1.00  0.00     0.031 C 
ATOM     21  C   UNL A   1      38.676  29.718  28.674  1.00  0.00     0.029 A 
ATOM     22  N   UNL A   1      39.197  30.427  30.728  1.00  0.00    -0.354 N 
ATOM     23  C   UNL A   1      42.549  28.546  32.861  1.00  0.00     0.074 A 
ATOM     24  C   UNL A   1      43.226  27.610  31.997  1.00  0.00     0.031 C 
ATOM     25  C   UNL A   1      37.945  30.817  28.913  1.00  0.00     0.029 A 
ATOM     26  C   UNL A   1      38.209  31.266  30.274  1.00  0.00     0.049 A 
ATOM     27  H   UNL A   1      39.625  30.524  31.609  1.00  0.00     0.167 HD
ATOM     28  C   UNL A   1      42.972  28.889  34.098  1.00  0.00     0.037 A 
ATOM     29  C   UNL A   1      37.563  32.253  30.921  1.00  0.00     0.037 A 
ATOM     30  C   UNL A   1      42.270  29.832  34.922  1.00  0.00     0.049 A 
ATOM     31  C   UNL A   1      37.970  32.524  32.344  1.00  0.00     0.074 A 
ATOM     32  C   UNL A   1      42.498  30.179  36.237  1.00  0.00     0.029 A 
ATOM     33  N   UNL A   1      41.193  30.591  34.480  1.00  0.00    -0.354 N 
ATOM     34  N   UNL A   1      38.949  31.990  33.038  1.00  0.00    -0.248 NA
ATOM     35  C   UNL A   1      37.173  33.508  33.081  1.00  0.00     0.031 C 
ATOM     36  C   UNL A   1      41.535  31.128  36.602  1.00  0.00     0.029 A 
ATOM     37  C   UNL A   1      40.737  31.403  35.500  1.00  0.00     0.049 A 
ATOM     38  H   UNL A   1      40.811  30.555  33.573  1.00  0.00     0.167 HD
ATOM     39  C   UNL A   1      38.888  32.574  34.294  1.00  0.00     0.074 A 
ATOM     40  C   UNL A   1      37.798  33.530  34.251  1.00  0.00     0.031 C 
ATOM     41  C   UNL A   1      39.647  32.339  35.394  1.00  0.00     0.037 A 
BRANCH  28  42
ATOM     42  C   UNL A   1      44.176  28.172  34.627  1.00  0.00     0.057 A 
ATOM     43  C   UNL A   1      44.101  26.882  35.170  1.00  0.00     0.134 A 
ATOM     44  C   UNL A   1      45.422  28.811  34.650  1.00  0.00     0.134 A 
ATOM     45  F   UNL A   1      42.929  26.232  35.218  1.00  0.00    -0.206 F 
ATOM     46  C   UNL A   1      45.219  26.263  35.735  1.00  0.00     0.040 A 
ATOM     47  C   UNL A   1      46.550  28.194  35.194  1.00  0.00     0.040 A 
ATOM     48  F   UNL A   1      45.559  30.054  34.164  1.00  0.00    -0.206 F 
ATOM     49  C   UNL A   1      46.448  26.919  35.745  1.00  0.00     0.006 A 
ENDBRANCH  28  42
BRANCH  29  50
ATOM     50  C   UNL A   1      36.424  32.964  30.283  1.00  0.00     0.057 A 
ATOM     51  C   UNL A   1      35.095  32.680  30.617  1.00  0.00     0.134 A 
ATOM     52  C   UNL A   1      36.639  33.926  29.285  1.00  0.00     0.134 A 
ATOM     53  F   UNL A   1      34.815  31.757  31.548  1.00  0.00    -0.206 F 
ATOM     54  C   UNL A   1      34.026  33.304  29.968  1.00  0.00     0.040 A 
ATOM     55  C   UNL A   1      35.582  34.581  28.651  1.00  0.00     0.040 A 
ATOM     56  F   UNL A   1      37.887  34.249  28.910  1.00  0.00    -0.206 F 
ATOM     57  C   UNL A   1      34.270  34.261  28.983  1.00  0.00     0.006 A 
ENDBRANCH  29  50
BRANCH  41  58
ATOM     58  C   UNL A   1      39.323  33.150  36.609  1.00  0.00     0.057 A 
ATOM     59  C   UNL A   1      38.417  32.695  37.575  1.00  0.00     0.134 A 
ATOM     60  C   UNL A   1      39.948  34.384  36.825  1.00  0.00     0.134 A 
ATOM     61  F   UNL A   1      37.778  31.526  37.410  1.00  0.00    -0.206 F 
ATOM     62  C   UNL A   1      38.123  33.455  38.704  1.00  0.00     0.040 A 
ATOM     63  C   UNL A   1      39.683  35.138  37.966  1.00  0.00     0.040 A 
ATOM     64  F   UNL A   1      40.832  34.865  35.938  1.00  0.00    -0.206 F 
ATOM     65  C   UNL A   1      38.762  34.677  38.905  1.00  0.00     0.006 A 
ENDBRANCH  41  58
ENDBRANCH  15  16
ENDBRANCH   8  10
ENDBRANCH   7   8
ENDBRANCH   6   7
ENDBRANCH   5   6
ENDBRANCH   4   5
ENDBRANCH   3   4
ENDBRANCH   2   3
ENDBRANCH   1   2
BRANCH   1  66
ATOM     66  C   UNL A   1      41.797  18.908  26.050  1.00  0.00     0.188 C 
BRANCH  66  67
ATOM     67  C   UNL A   1      41.159  20.102  26.746  1.00  0.00     0.188 C 
BRANCH  67  68
ATOM     68  O   UNL A   1      41.043  21.365  26.106  1.00  0.00    -0.376 OA
BRANCH  68  69
ATOM     69  C   UNL A   1      39.787  22.022  26.376  1.00  0.00     0.202 C 
BRANCH  69  70
ATOM     70  C   UNL A   1      38.566  21.459  25.616  1.00  0.00     0.261 C 
BRANCH  70  71
ATOM     71  O   UNL A   1      37.461  22.395  25.532  1.00  0.00    -0.463 OA
BRANCH  71  72
ATOM     72  C   UNL A   1      36.647  22.343  24.457  1.00  0.00     0.312 C 
ATOM     73  O   UNL A   1      37.073  22.440  23.302  1.00  0.00    -0.252 OA
BRANCH  72  74
ATOM     74  C   UNL A   1      35.158  22.146  24.825  1.00  0.00     0.079 C 
ATOM     75  C   UNL A   1      34.367  22.665  23.610  1.00  0.00     0.080 C 
ATOM     76  C   UNL A   1      34.676  22.985  26.056  1.00  0.00     0.080 C 
ATOM     77  C   UNL A   1      34.450  24.190  23.482  1.00  0.00     0.261 C 
ATOM     78  C   UNL A   1      34.664  24.495  25.865  1.00  0.00     0.261 C 
ATOM     79  N   UNL A   1      33.916  24.851  24.670  1.00  0.00    -0.346 N 
ATOM     80  H   UNL A   1      32.942  24.572  24.793  1.00  0.00     0.346 HD
ATOM     81  H   UNL A   1      33.991  25.859  24.535  1.00  0.00     0.346 HD
BRANCH  74  82
ATOM     82  C   UNL A   1      34.804  20.654  25.230  1.00  0.00     0.031 C 
BRANCH  82  83
ATOM     83  C   UNL A   1      33.816  19.726  24.503  1.00  0.00     0.062 C 
ATOM     84  C   UNL A   1      32.316  19.841  24.814  1.00  0.00     0.238 C 
ATOM     85  C   UNL A   1      34.032  18.283  24.708  1.00  0.00     0.001 A 
ATOM     86  O   UNL A   1      31.777  18.539  25.144  1.00  0.00    -0.493 OA
ATOM     87  C   UNL A   1      32.849  17.689  25.102  1.00  0.00     0.122 A 
ATOM     88  C   UNL A   1      35.197  17.548  24.569  1.00  0.00     0.008 A 
ATOM     89  C   UNL A   1      32.795  16.353  25.437  1.00  0.00     0.047 A 
ATOM     90  C   UNL A   1      35.172  16.204  24.929  1.00  0.00     0.001 A 
ATOM     91  C   UNL A   1      33.978  15.612  25.369  1.00  0.00     0.004 A 
ENDBRANCH  82  83
ENDBRANCH  74  82
ENDBRANCH  72  74
ENDBRANCH  71  72
ENDBRANCH  70  71
ENDBRANCH  69  70
ENDBRANCH  68  69
ENDBRANCH  67  68
ENDBRANCH  66  67
ENDBRANCH   1  66
TORSDOF 22
ENDMDL
MODEL 3
REMARK VINA RESULT:     -10.1      3.782      6.038
REMARK SMILES O=C(OCCOCCOCCOCCOC(=O)C1(C[C@@H]2COc3ccccc32)CC[NH2+]CC1)c1ccc(-c2c3nc(c(-c4c(F)cccc4F)c4ccc([nH]4)c(-c4c(F)cccc4F)c4nc(c(-c5c(F)cccc5F)c5ccc2[nH]5)C=C4)C=C3)cc1
REMARK SMILES IDX 9 1 8 2 7 3 6 4 5 5 4 6 3 7 2 8 1 9 34 10 35 11 87 12 36 13
REMARK SMILES IDX 86 14 37 15 38 16 39 17 80 18 40 19 85 20 79 21 81 22 41 23
REMARK SMILES IDX 84 24 78 25 77 26 42 28 68 29 51 30 67 31 52 32 55 33 66 34
REMARK SMILES IDX 82 35 53 36 54 37 65 39 83 40 56 41 43 42 44 43 49 44 45 45
REMARK SMILES IDX 46 46 48 47 50 48 47 49 69 50 70 51 75 52 71 53 72 54 74 55
REMARK SMILES IDX 76 56 73 57 57 58 58 59 63 60 59 61 60 62 62 63 64 64 61 65
REMARK SMILES IDX 10 66 11 67 12 68 13 69 14 70 15 71 16 72 17 73 18 74 29 75
REMARK SMILES IDX 33 76 30 77 32 78 31 79 19 82 20 83 21 84 28 85 22 86 23 87
REMARK SMILES IDX 27 88 24 89 26 90 25 91
REMARK H PARENT 81 27 55 38 31 80 31 81
REMARK Flexibility Score: inf
ROOT
ATOM      1  O   UNL A   1      33.313  20.064  25.594  1.00  0.00    -0.377 OA
ENDROOT
BRANCH   1   2
ATOM      2  C   UNL A   1      34.205  19.309  24.780  1.00  0.00     0.188 C 
BRANCH   2   3
ATOM      3  C   UNL A   1      35.676  19.678  24.972  1.00  0.00     0.188 C 
BRANCH   3   4
ATOM      4  O   UNL A   1      36.001  21.067  24.798  1.00  0.00    -0.376 OA
BRANCH   4   5
ATOM      5  C   UNL A   1      37.391  21.358  24.576  1.00  0.00     0.202 C 
BRANCH   5   6
ATOM      6  C   UNL A   1      38.369  21.159  25.752  1.00  0.00     0.261 C 
BRANCH   6   7
ATOM      7  O   UNL A   1      39.330  20.106  25.568  1.00  0.00    -0.460 OA
BRANCH   7   8
ATOM      8  C   UNL A   1      40.612  20.030  26.006  1.00  0.00     0.338 C 
ATOM      9  O   UNL A   1      41.202  18.954  25.914  1.00  0.00    -0.246 OA
BRANCH   8  10
ATOM     10  C   UNL A   1      41.345  21.181  26.613  1.00  0.00     0.060 A 
ATOM     11  C   UNL A   1      41.466  21.410  27.979  1.00  0.00     0.016 A 
ATOM     12  C   UNL A   1      41.979  22.084  25.742  1.00  0.00     0.016 A 
ATOM     13  C   UNL A   1      42.049  22.552  28.480  1.00  0.00     0.010 A 
ATOM     14  C   UNL A   1      42.619  23.226  26.236  1.00  0.00     0.010 A 
ATOM     15  C   UNL A   1      42.599  23.483  27.610  1.00  0.00    -0.014 A 
BRANCH  15  16
ATOM     16  C   UNL A   1      42.903  24.796  28.196  1.00  0.00     0.031 A 
ATOM     17  C   UNL A   1      44.346  25.199  28.260  1.00  0.00     0.074 A 
ATOM     18  C   UNL A   1      41.908  25.675  28.398  1.00  0.00     0.049 A 
ATOM     19  N   UNL A   1      44.880  26.288  28.733  1.00  0.00    -0.248 NA
ATOM     20  C   UNL A   1      45.321  24.251  27.686  1.00  0.00     0.031 C 
ATOM     21  C   UNL A   1      40.485  25.412  28.155  1.00  0.00     0.029 A 
ATOM     22  N   UNL A   1      41.940  26.984  28.787  1.00  0.00    -0.354 N 
ATOM     23  C   UNL A   1      46.249  26.141  28.549  1.00  0.00     0.074 A 
ATOM     24  C   UNL A   1      46.470  24.862  27.920  1.00  0.00     0.031 C 
ATOM     25  C   UNL A   1      39.786  26.537  28.372  1.00  0.00     0.029 A 
ATOM     26  C   UNL A   1      40.698  27.567  28.854  1.00  0.00     0.049 A 
ATOM     27  H   UNL A   1      42.773  27.464  28.999  1.00  0.00     0.167 HD
ATOM     28  C   UNL A   1      47.228  27.008  28.887  1.00  0.00     0.037 A 
ATOM     29  C   UNL A   1      40.348  28.784  29.306  1.00  0.00     0.037 A 
ATOM     30  C   UNL A   1      46.961  28.276  29.505  1.00  0.00     0.049 A 
ATOM     31  C   UNL A   1      41.454  29.678  29.799  1.00  0.00     0.074 A 
ATOM     32  C   UNL A   1      47.847  29.197  30.023  1.00  0.00     0.029 A 
ATOM     33  N   UNL A   1      45.684  28.799  29.672  1.00  0.00    -0.354 N 
ATOM     34  N   UNL A   1      42.752  29.479  29.768  1.00  0.00    -0.248 NA
ATOM     35  C   UNL A   1      41.051  30.947  30.412  1.00  0.00     0.031 C 
ATOM     36  C   UNL A   1      47.102  30.267  30.534  1.00  0.00     0.029 A 
ATOM     37  C   UNL A   1      45.756  30.030  30.293  1.00  0.00     0.049 A 
ATOM     38  H   UNL A   1      44.851  28.357  29.387  1.00  0.00     0.167 HD
ATOM     39  C   UNL A   1      43.323  30.598  30.354  1.00  0.00     0.074 A 
ATOM     40  C   UNL A   1      42.228  31.487  30.697  1.00  0.00     0.031 C 
ATOM     41  C   UNL A   1      44.628  30.871  30.605  1.00  0.00     0.037 A 
BRANCH  28  42
ATOM     42  C   UNL A   1      48.640  26.555  28.672  1.00  0.00     0.057 A 
ATOM     43  C   UNL A   1      49.339  25.804  29.626  1.00  0.00     0.134 A 
ATOM     44  C   UNL A   1      49.332  26.932  27.514  1.00  0.00     0.134 A 
ATOM     45  F   UNL A   1      48.749  25.446  30.776  1.00  0.00    -0.206 F 
ATOM     46  C   UNL A   1      50.682  25.462  29.443  1.00  0.00     0.040 A 
ATOM     47  C   UNL A   1      50.666  26.579  27.311  1.00  0.00     0.040 A 
ATOM     48  F   UNL A   1      48.726  27.668  26.569  1.00  0.00    -0.206 F 
ATOM     49  C   UNL A   1      51.348  25.848  28.282  1.00  0.00     0.006 A 
ENDBRANCH  28  42
BRANCH  29  50
ATOM     50  C   UNL A   1      38.919  29.175  29.414  1.00  0.00     0.057 A 
ATOM     51  C   UNL A   1      38.191  29.005  30.597  1.00  0.00     0.134 A 
ATOM     52  C   UNL A   1      38.226  29.697  28.311  1.00  0.00     0.134 A 
ATOM     53  F   UNL A   1      38.783  28.491  31.685  1.00  0.00    -0.206 F 
ATOM     54  C   UNL A   1      36.830  29.313  30.672  1.00  0.00     0.040 A 
ATOM     55  C   UNL A   1      36.876  30.040  28.381  1.00  0.00     0.040 A 
ATOM     56  F   UNL A   1      38.857  29.887  27.141  1.00  0.00    -0.206 F 
ATOM     57  C   UNL A   1      36.170  29.836  29.562  1.00  0.00     0.006 A 
ENDBRANCH  29  50
BRANCH  41  58
ATOM     58  C   UNL A   1      44.917  32.187  31.257  1.00  0.00     0.057 A 
ATOM     59  C   UNL A   1      44.851  32.347  32.647  1.00  0.00     0.134 A 
ATOM     60  C   UNL A   1      45.293  33.293  30.486  1.00  0.00     0.134 A 
ATOM     61  F   UNL A   1      44.481  31.323  33.432  1.00  0.00    -0.206 F 
ATOM     62  C   UNL A   1      45.125  33.574  33.246  1.00  0.00     0.040 A 
ATOM     63  C   UNL A   1      45.597  34.517  31.078  1.00  0.00     0.040 A 
ATOM     64  F   UNL A   1      45.382  33.194  29.151  1.00  0.00    -0.206 F 
ATOM     65  C   UNL A   1      45.505  34.661  32.461  1.00  0.00     0.006 A 
ENDBRANCH  41  58
ENDBRANCH  15  16
ENDBRANCH   8  10
ENDBRANCH   7   8
ENDBRANCH   6   7
ENDBRANCH   5   6
ENDBRANCH   4   5
ENDBRANCH   3   4
ENDBRANCH   2   3
ENDBRANCH   1   2
BRANCH   1  66
ATOM     66  C   UNL A   1      32.235  20.624  24.874  1.00  0.00     0.188 C 
BRANCH  66  67
ATOM     67  C   UNL A   1      32.178  20.248  23.400  1.00  0.00     0.188 C 
BRANCH  67  68
ATOM     68  O   UNL A   1      31.910  21.212  22.392  1.00  0.00    -0.376 OA
BRANCH  68  69
ATOM     69  C   UNL A   1      32.324  22.544  22.760  1.00  0.00     0.202 C 
BRANCH  69  70
ATOM     70  C   UNL A   1      33.267  23.247  21.759  1.00  0.00     0.261 C 
BRANCH  70  71
ATOM     71  O   UNL A   1      33.942  24.402  22.320  1.00  0.00    -0.463 OA
BRANCH  71  72
ATOM     72  C   UNL A   1      33.459  25.632  22.047  1.00  0.00     0.312 C 
ATOM     73  O   UNL A   1      33.229  26.008  20.894  1.00  0.00    -0.252 OA
BRANCH  72  74
ATOM     74  C   UNL A   1      33.226  26.493  23.310  1.00  0.00     0.079 C 
ATOM     75  C   UNL A   1      31.701  26.704  23.382  1.00  0.00     0.080 C 
ATOM     76  C   UNL A   1      33.866  27.921  23.250  1.00  0.00     0.080 C 
ATOM     77  C   UNL A   1      31.200  27.640  22.277  1.00  0.00     0.261 C 
ATOM     78  C   UNL A   1      33.275  28.869  22.216  1.00  0.00     0.261 C 
ATOM     79  N   UNL A   1      31.831  28.955  22.369  1.00  0.00    -0.346 N 
ATOM     80  H   UNL A   1      31.618  29.359  23.282  1.00  0.00     0.346 HD
ATOM     81  H   UNL A   1      31.464  29.538  21.618  1.00  0.00     0.346 HD
BRANCH  74  82
ATOM     82  C   UNL A   1      33.847  25.862  24.624  1.00  0.00     0.031 C 
BRANCH  82  83
ATOM     83  C   UNL A   1      33.337  26.069  26.060  1.00  0.00     0.062 C 
ATOM     84  C   UNL A   1      31.952  25.529  26.447  1.00  0.00     0.238 C 
ATOM     85  C   UNL A   1      33.220  27.472  26.497  1.00  0.00     0.001 A 
ATOM     86  O   UNL A   1      31.165  26.578  27.061  1.00  0.00    -0.493 OA
ATOM     87  C   UNL A   1      31.959  27.692  27.015  1.00  0.00     0.122 A 
ATOM     88  C   UNL A   1      34.159  28.487  26.426  1.00  0.00     0.008 A 
ATOM     89  C   UNL A   1      31.561  28.946  27.423  1.00  0.00     0.047 A 
ATOM     90  C   UNL A   1      33.768  29.769  26.807  1.00  0.00     0.001 A 
ATOM     91  C   UNL A   1      32.473  29.998  27.295  1.00  0.00     0.004 A 
ENDBRANCH  82  83
ENDBRANCH  74  82
ENDBRANCH  72  74
ENDBRANCH  71  72
ENDBRANCH  70  71
ENDBRANCH  69  70
ENDBRANCH  68  69
ENDBRANCH  67  68
ENDBRANCH  66  67
ENDBRANCH   1  66
TORSDOF 22
ENDMDL
