MODEL 1
REMARK VINA RESULT:      -9.4      0.000      0.000
REMARK SMILES O=C(CNC(=O)OCc1ccccc1)NCC(=O)OCCOCCOCCOCCOC(=O)c1ccc(-c2c3nc(c(-c4c(F)cccc4F)c4ccc([nH]4)c(-c4c(F)cccc4F)c4nc(c(-c5c(F)cccc5F)c5ccc2[nH]5)C=C4)C=C3)cc1
REMARK SMILES IDX 23 1 22 2 21 3 20 4 19 5 17 6 18 7 16 8 15 9 1 10 2 11 3 13
REMARK SMILES IDX 4 14 5 15 6 17 7 18 8 19 9 20 10 21 14 22 11 23 13 24 12 25
REMARK SMILES IDX 24 26 25 27 26 28 27 29 28 30 29 31 30 32 31 33 32 34 33 35
REMARK SMILES IDX 34 36 35 37 87 38 36 39 86 40 37 41 38 42 39 43 80 44 40 45
REMARK SMILES IDX 85 46 79 47 81 48 41 49 84 50 78 51 77 52 42 54 68 55 51 56
REMARK SMILES IDX 67 57 52 58 55 59 66 60 82 61 53 62 54 63 65 65 83 66 56 67
REMARK SMILES IDX 43 68 44 69 49 70 45 71 46 72 48 73 50 74 47 75 69 76 70 77
REMARK SMILES IDX 75 78 71 79 72 80 74 81 76 82 73 83 57 84 58 85 63 86 59 87
REMARK SMILES IDX 60 88 62 89 64 90 61 91
REMARK H PARENT 15 12 4 16 81 53 55 64
REMARK Flexibility Score: inf
ROOT
ATOM      1  C   UNL A   1      41.410  20.467  27.013  1.00  0.00     0.188 C 
ENDROOT
BRANCH   1   2
ATOM      2  O   UNL A   1      40.423  21.353  26.513  1.00  0.00    -0.376 OA
BRANCH   2   3
ATOM      3  C   UNL A   1      39.186  20.860  26.016  1.00  0.00     0.202 C 
BRANCH   3   4
ATOM      4  C   UNL A   1      38.108  21.762  25.386  1.00  0.00     0.261 C 
BRANCH   4   5
ATOM      5  O   UNL A   1      36.937  21.098  24.882  1.00  0.00    -0.462 OA
BRANCH   5   6
ATOM      6  C   UNL A   1      35.755  21.460  25.437  1.00  0.00     0.325 C 
ATOM      7  O   UNL A   1      34.825  20.685  25.648  1.00  0.00    -0.250 OA
BRANCH   6   8
ATOM      8  C   UNL A   1      35.702  22.915  25.924  1.00  0.00     0.238 C 
BRANCH   8   9
ATOM      9  N   UNL A   1      34.892  23.942  25.286  1.00  0.00    -0.344 N 
ATOM     10  O   UNL A   1      35.700  23.695  23.163  1.00  0.00    -0.273 OA
ATOM     11  C   UNL A   1      34.891  24.198  23.935  1.00  0.00     0.240 C 
ATOM     12  H   UNL A   1      34.306  24.488  25.858  1.00  0.00     0.164 HD
BRANCH  11  13
ATOM     13  C   UNL A   1      33.853  25.256  23.496  1.00  0.00     0.219 C 
BRANCH  13  14
ATOM     14  N   UNL A   1      32.575  24.629  23.173  1.00  0.00    -0.312 N 
ATOM     15  C   UNL A   1      31.559  24.307  24.023  1.00  0.00     0.407 C 
ATOM     16  H   UNL A   1      32.429  24.413  22.224  1.00  0.00     0.167 HD
ATOM     17  O   UNL A   1      30.634  23.613  23.633  1.00  0.00    -0.225 OA
BRANCH  15  18
ATOM     18  O   UNL A   1      31.702  24.812  25.271  1.00  0.00    -0.445 OA
BRANCH  18  19
ATOM     19  C   UNL A   1      30.638  25.672  25.714  1.00  0.00     0.270 C 
BRANCH  19  20
ATOM     20  C   UNL A   1      31.056  27.120  25.836  1.00  0.00    -0.011 A 
ATOM     21  C   UNL A   1      31.068  27.963  24.713  1.00  0.00     0.007 A 
ATOM     22  C   UNL A   1      31.486  27.639  27.066  1.00  0.00     0.007 A 
ATOM     23  C   UNL A   1      31.498  29.288  24.822  1.00  0.00     0.000 A 
ATOM     24  C   UNL A   1      31.907  28.967  27.175  1.00  0.00     0.000 A 
ATOM     25  C   UNL A   1      31.914  29.791  26.054  1.00  0.00     0.000 A 
ENDBRANCH  19  20
ENDBRANCH  18  19
ENDBRANCH  15  18
ENDBRANCH  13  14
ENDBRANCH  11  13
ENDBRANCH   8   9
ENDBRANCH   6   8
ENDBRANCH   5   6
ENDBRANCH   4   5
ENDBRANCH   3   4
ENDBRANCH   2   3
ENDBRANCH   1   2
BRANCH   1  26
ATOM     26  C   UNL A   1      41.791  19.208  26.219  1.00  0.00     0.188 C 
BRANCH  26  27
ATOM     27  O   UNL A   1      42.608  19.431  25.090  1.00  0.00    -0.377 OA
BRANCH  27  28
ATOM     28  C   UNL A   1      43.904  18.847  25.071  1.00  0.00     0.188 C 
BRANCH  28  29
ATOM     29  C   UNL A   1      45.159  19.744  25.003  1.00  0.00     0.188 C 
BRANCH  29  30
ATOM     30  O   UNL A   1      45.296  20.482  23.799  1.00  0.00    -0.376 OA
BRANCH  30  31
ATOM     31  C   UNL A   1      45.278  21.901  23.862  1.00  0.00     0.202 C 
BRANCH  31  32
ATOM     32  C   UNL A   1      43.924  22.579  24.120  1.00  0.00     0.261 C 
BRANCH  32  33
ATOM     33  O   UNL A   1      43.915  23.663  25.062  1.00  0.00    -0.460 OA
BRANCH  33  34
ATOM     34  C   UNL A   1      43.838  23.358  26.376  1.00  0.00     0.338 C 
ATOM     35  O   UNL A   1      44.327  22.403  26.941  1.00  0.00    -0.246 OA
BRANCH  34  36
ATOM     36  C   UNL A   1      43.194  24.502  27.060  1.00  0.00     0.060 A 
ATOM     37  C   UNL A   1      43.744  25.784  26.918  1.00  0.00     0.016 A 
ATOM     38  C   UNL A   1      42.055  24.302  27.842  1.00  0.00     0.016 A 
ATOM     39  C   UNL A   1      43.179  26.867  27.596  1.00  0.00     0.010 A 
ATOM     40  C   UNL A   1      41.506  25.381  28.537  1.00  0.00     0.010 A 
ATOM     41  C   UNL A   1      42.089  26.659  28.449  1.00  0.00    -0.014 A 
BRANCH  41  42
ATOM     42  C   UNL A   1      41.693  27.689  29.440  1.00  0.00     0.031 A 
ATOM     43  C   UNL A   1      42.422  27.706  30.756  1.00  0.00     0.074 A 
ATOM     44  C   UNL A   1      40.693  28.557  29.209  1.00  0.00     0.049 A 
ATOM     45  N   UNL A   1      42.151  28.362  31.853  1.00  0.00    -0.248 NA
ATOM     46  C   UNL A   1      43.616  26.848  30.845  1.00  0.00     0.031 C 
ATOM     47  C   UNL A   1      39.953  28.685  27.957  1.00  0.00     0.029 A 
ATOM     48  N   UNL A   1      40.112  29.479  30.044  1.00  0.00    -0.354 N 
ATOM     49  C   UNL A   1      43.122  27.977  32.768  1.00  0.00     0.074 A 
ATOM     50  C   UNL A   1      43.976  27.016  32.107  1.00  0.00     0.031 C 
ATOM     51  C   UNL A   1      38.991  29.612  28.116  1.00  0.00     0.029 A 
ATOM     52  C   UNL A   1      39.019  30.104  29.493  1.00  0.00     0.049 A 
ATOM     53  H   UNL A   1      40.446  29.674  30.950  1.00  0.00     0.167 HD
ATOM     54  C   UNL A   1      43.285  28.389  34.047  1.00  0.00     0.037 A 
ATOM     55  C   UNL A   1      38.123  30.941  30.054  1.00  0.00     0.037 A 
ATOM     56  C   UNL A   1      42.430  29.343  34.698  1.00  0.00     0.049 A 
ATOM     57  C   UNL A   1      38.269  31.318  31.508  1.00  0.00     0.074 A 
ATOM     58  C   UNL A   1      42.513  29.834  35.989  1.00  0.00     0.029 A 
ATOM     59  N   UNL A   1      41.329  29.945  34.108  1.00  0.00    -0.354 N 
ATOM     60  N   UNL A   1      39.189  30.954  32.370  1.00  0.00    -0.248 NA
ATOM     61  C   UNL A   1      37.250  32.219  32.070  1.00  0.00     0.031 C 
ATOM     62  C   UNL A   1      41.427  30.687  36.199  1.00  0.00     0.029 A 
ATOM     63  C   UNL A   1      40.710  30.785  35.017  1.00  0.00     0.049 A 
ATOM     64  H   UNL A   1      41.033  29.796  33.181  1.00  0.00     0.167 HD
ATOM     65  C   UNL A   1      38.887  31.616  33.556  1.00  0.00     0.074 A 
ATOM     66  C   UNL A   1      37.697  32.399  33.306  1.00  0.00     0.031 C 
ATOM     67  C   UNL A   1      39.544  31.585  34.741  1.00  0.00     0.037 A 
BRANCH  54  68
ATOM     68  C   UNL A   1      44.406  27.775  34.835  1.00  0.00     0.057 A 
ATOM     69  C   UNL A   1      44.249  26.579  35.547  1.00  0.00     0.134 A 
ATOM     70  C   UNL A   1      45.670  28.381  34.861  1.00  0.00     0.134 A 
ATOM     71  F   UNL A   1      43.061  25.957  35.578  1.00  0.00    -0.206 F 
ATOM     72  C   UNL A   1      45.301  26.021  36.276  1.00  0.00     0.040 A 
ATOM     73  C   UNL A   1      46.737  27.816  35.561  1.00  0.00     0.040 A 
ATOM     74  F   UNL A   1      45.890  29.527  34.200  1.00  0.00    -0.206 F 
ATOM     75  C   UNL A   1      46.551  26.635  36.277  1.00  0.00     0.006 A 
ENDBRANCH  54  68
BRANCH  55  76
ATOM     76  C   UNL A   1      36.986  31.465  29.252  1.00  0.00     0.057 A 
ATOM     77  C   UNL A   1      37.011  32.760  28.718  1.00  0.00     0.134 A 
ATOM     78  C   UNL A   1      35.836  30.700  29.026  1.00  0.00     0.134 A 
ATOM     79  F   UNL A   1      38.073  33.553  28.923  1.00  0.00    -0.206 F 
ATOM     80  C   UNL A   1      35.928  33.280  28.007  1.00  0.00     0.040 A 
ATOM     81  C   UNL A   1      34.757  31.197  28.291  1.00  0.00     0.040 A 
ATOM     82  F   UNL A   1      35.745  29.452  29.512  1.00  0.00    -0.206 F 
ATOM     83  C   UNL A   1      34.799  32.495  27.787  1.00  0.00     0.006 A 
ENDBRANCH  55  76
BRANCH  67  84
ATOM     84  C   UNL A   1      39.053  32.478  35.845  1.00  0.00     0.057 A 
ATOM     85  C   UNL A   1      38.198  32.019  36.854  1.00  0.00     0.134 A 
ATOM     86  C   UNL A   1      39.526  33.794  35.945  1.00  0.00     0.134 A 
ATOM     87  F   UNL A   1      37.703  30.774  36.814  1.00  0.00    -0.206 F 
ATOM     88  C   UNL A   1      37.826  32.841  37.920  1.00  0.00     0.040 A 
ATOM     89  C   UNL A   1      39.183  34.615  37.020  1.00  0.00     0.040 A 
ATOM     90  F   UNL A   1      40.357  34.291  35.017  1.00  0.00    -0.206 F 
ATOM     91  C   UNL A   1      38.328  34.139  38.012  1.00  0.00     0.006 A 
ENDBRANCH  67  84
ENDBRANCH  41  42
ENDBRANCH  34  36
ENDBRANCH  33  34
ENDBRANCH  32  33
ENDBRANCH  31  32
ENDBRANCH  30  31
ENDBRANCH  29  30
ENDBRANCH  28  29
ENDBRANCH  27  28
ENDBRANCH  26  27
ENDBRANCH   1  26
TORSDOF 26
ENDMDL
MODEL 2
REMARK VINA RESULT:      -9.4      4.777     10.193
REMARK SMILES O=C(CNC(=O)OCc1ccccc1)NCC(=O)OCCOCCOCCOCCOC(=O)c1ccc(-c2c3nc(c(-c4c(F)cccc4F)c4ccc([nH]4)c(-c4c(F)cccc4F)c4nc(c(-c5c(F)cccc5F)c5ccc2[nH]5)C=C4)C=C3)cc1
REMARK SMILES IDX 23 1 22 2 21 3 20 4 19 5 17 6 18 7 16 8 15 9 1 10 2 11 3 13
REMARK SMILES IDX 4 14 5 15 6 17 7 18 8 19 9 20 10 21 14 22 11 23 13 24 12 25
REMARK SMILES IDX 24 26 25 27 26 28 27 29 28 30 29 31 30 32 31 33 32 34 33 35
REMARK SMILES IDX 34 36 35 37 87 38 36 39 86 40 37 41 38 42 39 43 80 44 40 45
REMARK SMILES IDX 85 46 79 47 81 48 41 49 84 50 78 51 77 52 42 54 68 55 51 56
REMARK SMILES IDX 67 57 52 58 55 59 66 60 82 61 53 62 54 63 65 65 83 66 56 67
REMARK SMILES IDX 43 68 44 69 49 70 45 71 46 72 48 73 50 74 47 75 69 76 70 77
REMARK SMILES IDX 75 78 71 79 72 80 74 81 76 82 73 83 57 84 58 85 63 86 59 87
REMARK SMILES IDX 60 88 62 89 64 90 61 91
REMARK H PARENT 15 12 4 16 81 53 55 64
REMARK Flexibility Score: inf
ROOT
ATOM      1  C   UNL A   1      32.442  29.697  27.126  1.00  0.00     0.188 C 
ENDROOT
BRANCH   1   2
ATOM      2  O   UNL A   1      31.941  29.416  25.831  1.00  0.00    -0.376 OA
BRANCH   2   3
ATOM      3  C   UNL A   1      32.815  29.340  24.712  1.00  0.00     0.202 C 
BRANCH   3   4
ATOM      4  C   UNL A   1      32.338  29.000  23.287  1.00  0.00     0.261 C 
BRANCH   4   5
ATOM      5  O   UNL A   1      33.339  28.506  22.382  1.00  0.00    -0.462 OA
BRANCH   5   6
ATOM      6  C   UNL A   1      33.493  27.160  22.331  1.00  0.00     0.325 C 
ATOM      7  O   UNL A   1      33.760  26.534  21.307  1.00  0.00    -0.250 OA
BRANCH   6   8
ATOM      8  C   UNL A   1      33.447  26.464  23.698  1.00  0.00     0.238 C 
BRANCH   8   9
ATOM      9  N   UNL A   1      32.572  25.339  23.992  1.00  0.00    -0.344 N 
ATOM     10  O   UNL A   1      30.652  26.527  24.346  1.00  0.00    -0.273 OA
ATOM     11  C   UNL A   1      31.218  25.448  24.212  1.00  0.00     0.240 C 
ATOM     12  H   UNL A   1      32.973  24.442  24.036  1.00  0.00     0.164 HD
BRANCH  11  13
ATOM     13  C   UNL A   1      30.498  24.092  24.383  1.00  0.00     0.219 C 
BRANCH  13  14
ATOM     14  N   UNL A   1      30.438  23.707  25.790  1.00  0.00    -0.312 N 
ATOM     15  C   UNL A   1      31.420  23.146  26.550  1.00  0.00     0.407 C 
ATOM     16  H   UNL A   1      29.581  23.874  26.245  1.00  0.00     0.167 HD
ATOM     17  O   UNL A   1      31.159  22.704  27.656  1.00  0.00    -0.225 OA
BRANCH  15  18
ATOM     18  O   UNL A   1      32.638  23.132  25.956  1.00  0.00    -0.445 OA
BRANCH  18  19
ATOM     19  C   UNL A   1      33.223  21.831  25.779  1.00  0.00     0.270 C 
BRANCH  19  20
ATOM     20  C   UNL A   1      34.572  21.874  25.097  1.00  0.00    -0.011 A 
ATOM     21  C   UNL A   1      35.589  20.977  25.457  1.00  0.00     0.007 A 
ATOM     22  C   UNL A   1      34.849  22.845  24.123  1.00  0.00     0.007 A 
ATOM     23  C   UNL A   1      36.849  21.050  24.855  1.00  0.00     0.000 A 
ATOM     24  C   UNL A   1      36.106  22.911  23.516  1.00  0.00     0.000 A 
ATOM     25  C   UNL A   1      37.106  22.015  23.882  1.00  0.00     0.000 A 
ENDBRANCH  19  20
ENDBRANCH  18  19
ENDBRANCH  15  18
ENDBRANCH  13  14
ENDBRANCH  11  13
ENDBRANCH   8   9
ENDBRANCH   6   8
ENDBRANCH   5   6
ENDBRANCH   4   5
ENDBRANCH   3   4
ENDBRANCH   2   3
ENDBRANCH   1   2
BRANCH   1  26
ATOM     26  C   UNL A   1      33.943  29.947  27.336  1.00  0.00     0.188 C 
BRANCH  26  27
ATOM     27  O   UNL A   1      34.309  31.296  27.534  1.00  0.00    -0.377 OA
BRANCH  27  28
ATOM     28  C   UNL A   1      33.276  32.247  27.759  1.00  0.00     0.188 C 
BRANCH  28  29
ATOM     29  C   UNL A   1      33.626  33.737  27.967  1.00  0.00     0.188 C 
BRANCH  29  30
ATOM     30  O   UNL A   1      32.815  34.409  28.918  1.00  0.00    -0.376 OA
BRANCH  30  31
ATOM     31  C   UNL A   1      33.423  35.354  29.787  1.00  0.00     0.202 C 
BRANCH  31  32
ATOM     32  C   UNL A   1      34.067  34.817  31.074  1.00  0.00     0.261 C 
BRANCH  32  33
ATOM     33  O   UNL A   1      35.131  33.865  30.915  1.00  0.00    -0.460 OA
BRANCH  33  34
ATOM     34  C   UNL A   1      35.077  32.729  31.646  1.00  0.00     0.338 C 
ATOM     35  O   UNL A   1      34.209  32.394  32.423  1.00  0.00    -0.246 OA
BRANCH  34  36
ATOM     36  C   UNL A   1      36.187  31.859  31.197  1.00  0.00     0.060 A 
ATOM     37  C   UNL A   1      36.929  31.147  32.150  1.00  0.00     0.016 A 
ATOM     38  C   UNL A   1      36.493  31.756  29.839  1.00  0.00     0.016 A 
ATOM     39  C   UNL A   1      38.012  30.360  31.750  1.00  0.00     0.010 A 
ATOM     40  C   UNL A   1      37.589  30.988  29.443  1.00  0.00     0.010 A 
ATOM     41  C   UNL A   1      38.377  30.320  30.399  1.00  0.00    -0.014 A 
BRANCH  41  42
ATOM     42  C   UNL A   1      39.702  29.798  29.987  1.00  0.00     0.031 A 
ATOM     43  C   UNL A   1      40.847  30.773  29.929  1.00  0.00     0.074 A 
ATOM     44  C   UNL A   1      39.887  28.515  29.632  1.00  0.00     0.049 A 
ATOM     45  N   UNL A   1      42.044  30.626  29.425  1.00  0.00    -0.248 NA
ATOM     46  C   UNL A   1      40.595  32.102  30.510  1.00  0.00     0.031 C 
ATOM     47  C   UNL A   1      38.880  27.461  29.704  1.00  0.00     0.029 A 
ATOM     48  N   UNL A   1      40.994  27.892  29.110  1.00  0.00    -0.354 N 
ATOM     49  C   UNL A   1      42.676  31.850  29.603  1.00  0.00     0.074 A 
ATOM     50  C   UNL A   1      41.727  32.733  30.243  1.00  0.00     0.031 C 
ATOM     51  C   UNL A   1      39.405  26.325  29.211  1.00  0.00     0.029 A 
ATOM     52  C   UNL A   1      40.767  26.586  28.746  1.00  0.00     0.049 A 
ATOM     53  H   UNL A   1      41.866  28.338  29.004  1.00  0.00     0.167 HD
ATOM     54  C   UNL A   1      43.937  32.205  29.263  1.00  0.00     0.037 A 
ATOM     55  C   UNL A   1      41.555  25.722  28.076  1.00  0.00     0.037 A 
ATOM     56  C   UNL A   1      44.874  31.321  28.625  1.00  0.00     0.049 A 
ATOM     57  C   UNL A   1      42.926  26.165  27.624  1.00  0.00     0.074 A 
ATOM     58  C   UNL A   1      46.179  31.579  28.245  1.00  0.00     0.029 A 
ATOM     59  N   UNL A   1      44.602  30.010  28.266  1.00  0.00    -0.354 N 
ATOM     60  N   UNL A   1      43.521  27.322  27.796  1.00  0.00    -0.248 NA
ATOM     61  C   UNL A   1      43.733  25.185  26.880  1.00  0.00     0.031 C 
ATOM     62  C   UNL A   1      46.676  30.444  27.601  1.00  0.00     0.029 A 
ATOM     63  C   UNL A   1      45.707  29.454  27.646  1.00  0.00     0.049 A 
ATOM     64  H   UNL A   1      43.750  29.545  28.427  1.00  0.00     0.167 HD
ATOM     65  C   UNL A   1      44.784  27.191  27.226  1.00  0.00     0.074 A 
ATOM     66  C   UNL A   1      44.867  25.847  26.698  1.00  0.00     0.031 C 
ATOM     67  C   UNL A   1      45.786  28.102  27.157  1.00  0.00     0.037 A 
BRANCH  54  68
ATOM     68  C   UNL A   1      44.357  33.620  29.537  1.00  0.00     0.057 A 
ATOM     69  C   UNL A   1      44.167  34.647  28.604  1.00  0.00     0.134 A 
ATOM     70  C   UNL A   1      44.940  33.962  30.764  1.00  0.00     0.134 A 
ATOM     71  F   UNL A   1      43.630  34.385  27.403  1.00  0.00    -0.206 F 
ATOM     72  C   UNL A   1      44.563  35.959  28.873  1.00  0.00     0.040 A 
ATOM     73  C   UNL A   1      45.312  35.275  31.056  1.00  0.00     0.040 A 
ATOM     74  F   UNL A   1      45.150  33.027  31.703  1.00  0.00    -0.206 F 
ATOM     75  C   UNL A   1      45.130  36.277  30.106  1.00  0.00     0.006 A 
ENDBRANCH  54  68
BRANCH  55  76
ATOM     76  C   UNL A   1      41.066  24.353  27.763  1.00  0.00     0.057 A 
ATOM     77  C   UNL A   1      41.557  23.234  28.447  1.00  0.00     0.134 A 
ATOM     78  C   UNL A   1      40.123  24.126  26.753  1.00  0.00     0.134 A 
ATOM     79  F   UNL A   1      42.482  23.382  29.406  1.00  0.00    -0.206 F 
ATOM     80  C   UNL A   1      41.142  21.940  28.126  1.00  0.00     0.040 A 
ATOM     81  C   UNL A   1      39.677  22.840  26.442  1.00  0.00     0.040 A 
ATOM     82  F   UNL A   1      39.615  25.154  26.057  1.00  0.00    -0.206 F 
ATOM     83  C   UNL A   1      40.194  21.741  27.125  1.00  0.00     0.006 A 
ENDBRANCH  55  76
BRANCH  67  84
ATOM     84  C   UNL A   1      47.095  27.666  26.563  1.00  0.00     0.057 A 
ATOM     85  C   UNL A   1      48.062  26.978  27.305  1.00  0.00     0.134 A 
ATOM     86  C   UNL A   1      47.344  27.858  25.196  1.00  0.00     0.134 A 
ATOM     87  F   UNL A   1      47.891  26.767  28.619  1.00  0.00    -0.206 F 
ATOM     88  C   UNL A   1      49.233  26.502  26.711  1.00  0.00     0.040 A 
ATOM     89  C   UNL A   1      48.497  27.363  24.586  1.00  0.00     0.040 A 
ATOM     90  F   UNL A   1      46.453  28.499  24.426  1.00  0.00    -0.206 F 
ATOM     91  C   UNL A   1      49.447  26.684  25.345  1.00  0.00     0.006 A 
ENDBRANCH  67  84
ENDBRANCH  41  42
ENDBRANCH  34  36
ENDBRANCH  33  34
ENDBRANCH  32  33
ENDBRANCH  31  32
ENDBRANCH  30  31
ENDBRANCH  29  30
ENDBRANCH  28  29
ENDBRANCH  27  28
ENDBRANCH  26  27
ENDBRANCH   1  26
TORSDOF 26
ENDMDL
MODEL 3
REMARK VINA RESULT:      -9.3      4.007      8.516
REMARK SMILES O=C(CNC(=O)OCc1ccccc1)NCC(=O)OCCOCCOCCOCCOC(=O)c1ccc(-c2c3nc(c(-c4c(F)cccc4F)c4ccc([nH]4)c(-c4c(F)cccc4F)c4nc(c(-c5c(F)cccc5F)c5ccc2[nH]5)C=C4)C=C3)cc1
REMARK SMILES IDX 23 1 22 2 21 3 20 4 19 5 17 6 18 7 16 8 15 9 1 10 2 11 3 13
REMARK SMILES IDX 4 14 5 15 6 17 7 18 8 19 9 20 10 21 14 22 11 23 13 24 12 25
REMARK SMILES IDX 24 26 25 27 26 28 27 29 28 30 29 31 30 32 31 33 32 34 33 35
REMARK SMILES IDX 34 36 35 37 87 38 36 39 86 40 37 41 38 42 39 43 80 44 40 45
REMARK SMILES IDX 85 46 79 47 81 48 41 49 84 50 78 51 77 52 42 54 68 55 51 56
REMARK SMILES IDX 67 57 52 58 55 59 66 60 82 61 53 62 54 63 65 65 83 66 56 67
REMARK SMILES IDX 43 68 44 69 49 70 45 71 46 72 48 73 50 74 47 75 69 76 70 77
REMARK SMILES IDX 75 78 71 79 72 80 74 81 76 82 73 83 57 84 58 85 63 86 59 87
REMARK SMILES IDX 60 88 62 89 64 90 61 91
REMARK H PARENT 15 12 4 16 81 53 55 64
REMARK Flexibility Score: inf
ROOT
ATOM      1  C   UNL A   1      33.885  26.844  24.089  1.00  0.00     0.188 C 
ENDROOT
BRANCH   1   2
ATOM      2  O   UNL A   1      33.088  27.051  25.242  1.00  0.00    -0.376 OA
BRANCH   2   3
ATOM      3  C   UNL A   1      33.592  27.777  26.356  1.00  0.00     0.202 C 
BRANCH   3   4
ATOM      4  C   UNL A   1      33.364  29.288  26.553  1.00  0.00     0.261 C 
BRANCH   4   5
ATOM      5  O   UNL A   1      32.009  29.700  26.800  1.00  0.00    -0.462 OA
BRANCH   5   6
ATOM      6  C   UNL A   1      31.438  30.486  25.855  1.00  0.00     0.325 C 
ATOM      7  O   UNL A   1      31.275  31.698  25.971  1.00  0.00    -0.250 OA
BRANCH   6   8
ATOM      8  C   UNL A   1      31.122  29.765  24.537  1.00  0.00     0.238 C 
BRANCH   8   9
ATOM      9  N   UNL A   1      30.502  28.449  24.475  1.00  0.00    -0.344 N 
ATOM     10  O   UNL A   1      29.944  28.479  22.259  1.00  0.00    -0.273 OA
ATOM     11  C   UNL A   1      30.034  27.869  23.319  1.00  0.00     0.240 C 
ATOM     12  H   UNL A   1      30.412  27.942  25.313  1.00  0.00     0.164 HD
BRANCH  11  13
ATOM     13  C   UNL A   1      29.531  26.420  23.502  1.00  0.00     0.219 C 
BRANCH  13  14
ATOM     14  N   UNL A   1      29.278  26.130  24.911  1.00  0.00    -0.312 N 
ATOM     15  C   UNL A   1      29.844  25.161  25.683  1.00  0.00     0.407 C 
ATOM     16  H   UNL A   1      28.616  26.706  25.357  1.00  0.00     0.167 HD
ATOM     17  O   UNL A   1      29.390  24.919  26.790  1.00  0.00    -0.225 OA
BRANCH  15  18
ATOM     18  O   UNL A   1      30.896  24.536  25.103  1.00  0.00    -0.445 OA
BRANCH  18  19
ATOM     19  C   UNL A   1      30.890  23.101  25.196  1.00  0.00     0.270 C 
BRANCH  19  20
ATOM     20  C   UNL A   1      32.122  22.544  25.872  1.00  0.00    -0.011 A 
ATOM     21  C   UNL A   1      32.875  23.331  26.756  1.00  0.00     0.007 A 
ATOM     22  C   UNL A   1      32.564  21.242  25.592  1.00  0.00     0.007 A 
ATOM     23  C   UNL A   1      34.039  22.826  27.344  1.00  0.00     0.000 A 
ATOM     24  C   UNL A   1      33.722  20.736  26.187  1.00  0.00     0.000 A 
ATOM     25  C   UNL A   1      34.461  21.528  27.062  1.00  0.00     0.000 A 
ENDBRANCH  19  20
ENDBRANCH  18  19
ENDBRANCH  15  18
ENDBRANCH  13  14
ENDBRANCH  11  13
ENDBRANCH   8   9
ENDBRANCH   6   8
ENDBRANCH   5   6
ENDBRANCH   4   5
ENDBRANCH   3   4
ENDBRANCH   2   3
ENDBRANCH   1   2
BRANCH   1  26
ATOM     26  C   UNL A   1      33.260  26.254  22.815  1.00  0.00     0.188 C 
BRANCH  26  27
ATOM     27  O   UNL A   1      33.946  25.152  22.261  1.00  0.00    -0.377 OA
BRANCH  27  28
ATOM     28  C   UNL A   1      33.522  23.844  22.621  1.00  0.00     0.188 C 
BRANCH  28  29
ATOM     29  C   UNL A   1      34.556  22.790  23.075  1.00  0.00     0.188 C 
BRANCH  29  30
ATOM     30  O   UNL A   1      35.623  23.303  23.856  1.00  0.00    -0.376 OA
BRANCH  30  31
ATOM     31  C   UNL A   1      36.902  22.694  23.749  1.00  0.00     0.202 C 
BRANCH  31  32
ATOM     32  C   UNL A   1      37.178  21.472  24.638  1.00  0.00     0.261 C 
BRANCH  32  33
ATOM     33  O   UNL A   1      37.731  21.731  25.938  1.00  0.00    -0.460 OA
BRANCH  33  34
ATOM     34  C   UNL A   1      39.052  21.511  26.118  1.00  0.00     0.338 C 
ATOM     35  O   UNL A   1      39.699  20.558  25.739  1.00  0.00    -0.246 OA
BRANCH  34  36
ATOM     36  C   UNL A   1      39.629  22.738  26.713  1.00  0.00     0.060 A 
ATOM     37  C   UNL A   1      39.190  23.990  26.262  1.00  0.00     0.016 A 
ATOM     38  C   UNL A   1      40.604  22.644  27.707  1.00  0.00     0.016 A 
ATOM     39  C   UNL A   1      39.758  25.159  26.776  1.00  0.00     0.010 A 
ATOM     40  C   UNL A   1      41.187  23.812  28.203  1.00  0.00     0.010 A 
ATOM     41  C   UNL A   1      40.796  25.071  27.711  1.00  0.00    -0.014 A 
BRANCH  41  42
ATOM     42  C   UNL A   1      41.651  26.245  28.007  1.00  0.00     0.031 A 
ATOM     43  C   UNL A   1      41.033  27.379  28.781  1.00  0.00     0.074 A 
ATOM     44  C   UNL A   1      42.920  26.335  27.574  1.00  0.00     0.049 A 
ATOM     45  N   UNL A   1      41.488  28.583  29.004  1.00  0.00    -0.248 NA
ATOM     46  C   UNL A   1      39.710  27.114  29.370  1.00  0.00     0.031 C 
ATOM     47  C   UNL A   1      43.653  25.285  26.872  1.00  0.00     0.029 A 
ATOM     48  N   UNL A   1      43.806  27.382  27.641  1.00  0.00    -0.354 N 
ATOM     49  C   UNL A   1      40.497  29.227  29.734  1.00  0.00     0.074 A 
ATOM     50  C   UNL A   1      39.410  28.289  29.899  1.00  0.00     0.031 C 
ATOM     51  C   UNL A   1      44.871  25.753  26.544  1.00  0.00     0.029 A 
ATOM     52  C   UNL A   1      44.982  27.147  26.969  1.00  0.00     0.049 A 
ATOM     53  H   UNL A   1      43.617  28.219  28.123  1.00  0.00     0.167 HD
ATOM     54  C   UNL A   1      40.495  30.489  30.223  1.00  0.00     0.037 A 
ATOM     55  C   UNL A   1      46.006  27.980  26.693  1.00  0.00     0.037 A 
ATOM     56  C   UNL A   1      41.580  31.416  30.052  1.00  0.00     0.049 A 
ATOM     57  C   UNL A   1      45.946  29.412  27.169  1.00  0.00     0.074 A 
ATOM     58  C   UNL A   1      41.682  32.717  30.514  1.00  0.00     0.029 A 
ATOM     59  N   UNL A   1      42.749  31.143  29.358  1.00  0.00    -0.354 N 
ATOM     60  N   UNL A   1      45.009  30.017  27.860  1.00  0.00    -0.248 NA
ATOM     61  C   UNL A   1      47.082  30.279  26.822  1.00  0.00     0.031 C 
ATOM     62  C   UNL A   1      42.886  33.250  30.047  1.00  0.00     0.029 A 
ATOM     63  C   UNL A   1      43.567  32.259  29.357  1.00  0.00     0.049 A 
ATOM     64  H   UNL A   1      42.963  30.284  28.928  1.00  0.00     0.167 HD
ATOM     65  C   UNL A   1      45.464  31.315  28.070  1.00  0.00     0.074 A 
ATOM     66  C   UNL A   1      46.757  31.413  27.428  1.00  0.00     0.031 C 
ATOM     67  C   UNL A   1      44.868  32.329  28.743  1.00  0.00     0.037 A 
BRANCH  54  68
ATOM     68  C   UNL A   1      39.266  30.950  30.950  1.00  0.00     0.057 A 
ATOM     69  C   UNL A   1      39.124  30.812  32.336  1.00  0.00     0.134 A 
ATOM     70  C   UNL A   1      38.217  31.564  30.252  1.00  0.00     0.134 A 
ATOM     71  F   UNL A   1      40.083  30.217  33.062  1.00  0.00    -0.206 F 
ATOM     72  C   UNL A   1      37.975  31.245  32.999  1.00  0.00     0.040 A 
ATOM     73  C   UNL A   1      37.077  32.030  30.908  1.00  0.00     0.040 A 
ATOM     74  F   UNL A   1      38.288  31.730  28.923  1.00  0.00    -0.206 F 
ATOM     75  C   UNL A   1      36.950  31.864  32.285  1.00  0.00     0.006 A 
ENDBRANCH  54  68
BRANCH  55  76
ATOM     76  C   UNL A   1      47.171  27.499  25.905  1.00  0.00     0.057 A 
ATOM     77  C   UNL A   1      47.175  27.561  24.506  1.00  0.00     0.134 A 
ATOM     78  C   UNL A   1      48.293  26.937  26.527  1.00  0.00     0.134 A 
ATOM     79  F   UNL A   1      46.119  28.062  23.850  1.00  0.00    -0.206 F 
ATOM     80  C   UNL A   1      48.242  27.064  23.755  1.00  0.00     0.040 A 
ATOM     81  C   UNL A   1      49.380  26.464  25.789  1.00  0.00     0.040 A 
ATOM     82  F   UNL A   1      48.352  26.844  27.864  1.00  0.00    -0.206 F 
ATOM     83  C   UNL A   1      49.351  26.520  24.397  1.00  0.00     0.006 A 
ENDBRANCH  55  76
BRANCH  67  84
ATOM     84  C   UNL A   1      45.628  33.615  28.900  1.00  0.00     0.057 A 
ATOM     85  C   UNL A   1      46.514  33.836  29.961  1.00  0.00     0.134 A 
ATOM     86  C   UNL A   1      45.539  34.608  27.914  1.00  0.00     0.134 A 
ATOM     87  F   UNL A   1      46.641  32.931  30.943  1.00  0.00    -0.206 F 
ATOM     88  C   UNL A   1      47.279  35.003  30.039  1.00  0.00     0.040 A 
ATOM     89  C   UNL A   1      46.319  35.763  27.966  1.00  0.00     0.040 A 
ATOM     90  F   UNL A   1      44.718  34.452  26.864  1.00  0.00    -0.206 F 
ATOM     91  C   UNL A   1      47.192  35.964  29.033  1.00  0.00     0.006 A 
ENDBRANCH  67  84
ENDBRANCH  41  42
ENDBRANCH  34  36
ENDBRANCH  33  34
ENDBRANCH  32  33
ENDBRANCH  31  32
ENDBRANCH  30  31
ENDBRANCH  29  30
ENDBRANCH  28  29
ENDBRANCH  27  28
ENDBRANCH  26  27
ENDBRANCH   1  26
TORSDOF 26
ENDMDL
