MODEL 1
REMARK VINA RESULT:      -9.7      0.000      0.000
REMARK SMILES CCC[C@H](NC(=O)c1cc2ccccc2[nH]1)C(=O)OCCOCCOCCOCCOC(=O)c1ccc(-c2c3nc(c(-c4c(F)cccc4F)c4ccc([nH]4)c(-c4c(F)cccc4F)c4nc(c(-c5c(F)cccc5F)c5ccc2[nH]5)C=C4)C=C3)cc1
REMARK SMILES IDX 25 1 24 2 23 3 22 4 21 5 20 6 19 7 17 8 18 9 4 10 3 11 2 12
REMARK SMILES IDX 1 13 5 14 6 15 7 17 8 18 9 19 16 20 10 21 15 22 11 24 14 25
REMARK SMILES IDX 12 26 13 27 26 28 27 29 28 30 29 31 30 32 31 33 32 34 33 35
REMARK SMILES IDX 34 36 35 37 87 38 36 39 86 40 37 41 38 42 39 43 80 44 40 45
REMARK SMILES IDX 85 46 79 47 81 48 41 49 84 50 78 51 77 52 42 54 68 55 51 56
REMARK SMILES IDX 67 57 52 58 55 59 66 60 82 61 53 62 54 63 65 65 83 66 56 67
REMARK SMILES IDX 43 68 44 69 49 70 45 71 46 72 48 73 50 74 47 75 69 76 70 77
REMARK SMILES IDX 75 78 71 79 72 80 74 81 76 82 73 83 57 84 58 85 63 86 59 87
REMARK SMILES IDX 60 88 62 89 64 90 61 91
REMARK H PARENT 5 16 16 23 81 53 55 64
REMARK Flexibility Score: inf
ROOT
ATOM      1  O   UNL A   1      30.982  26.405  25.871  1.00  0.00    -0.377 OA
ENDROOT
BRANCH   1   2
ATOM      2  C   UNL A   1      30.081  26.690  24.819  1.00  0.00     0.188 C 
BRANCH   2   3
ATOM      3  C   UNL A   1      30.668  27.521  23.661  1.00  0.00     0.188 C 
BRANCH   3   4
ATOM      4  O   UNL A   1      30.649  27.042  22.324  1.00  0.00    -0.376 OA
BRANCH   4   5
ATOM      5  C   UNL A   1      31.778  26.381  21.776  1.00  0.00     0.202 C 
BRANCH   5   6
ATOM      6  C   UNL A   1      32.427  25.204  22.514  1.00  0.00     0.261 C 
BRANCH   6   7
ATOM      7  O   UNL A   1      33.860  25.246  22.657  1.00  0.00    -0.462 OA
BRANCH   7   8
ATOM      8  C   UNL A   1      34.474  24.090  23.022  1.00  0.00     0.328 C 
ATOM      9  O   UNL A   1      34.410  23.041  22.390  1.00  0.00    -0.250 OA
BRANCH   8  10
ATOM     10  C   UNL A   1      35.123  24.180  24.414  1.00  0.00     0.192 C 
BRANCH  10  11
ATOM     11  C   UNL A   1      36.206  23.091  24.524  1.00  0.00     0.037 C 
BRANCH  11  12
ATOM     12  C   UNL A   1      37.313  23.355  25.560  1.00  0.00    -0.001 C 
ATOM     13  C   UNL A   1      38.248  22.170  25.777  1.00  0.00     0.004 C 
ENDBRANCH  11  12
ENDBRANCH  10  11
BRANCH  10  14
ATOM     14  N   UNL A   1      34.234  24.113  25.582  1.00  0.00    -0.337 N 
ATOM     15  C   UNL A   1      33.313  23.160  25.954  1.00  0.00     0.268 C 
ATOM     16  H   UNL A   1      34.309  24.875  26.201  1.00  0.00     0.164 HD
ATOM     17  O   UNL A   1      32.536  23.443  26.863  1.00  0.00    -0.268 OA
BRANCH  15  18
ATOM     18  C   UNL A   1      33.298  21.868  25.303  1.00  0.00     0.105 A 
ATOM     19  C   UNL A   1      34.108  20.773  25.567  1.00  0.00     0.042 A 
ATOM     20  N   UNL A   1      32.551  21.524  24.199  1.00  0.00    -0.351 N 
ATOM     21  C   UNL A   1      33.745  19.714  24.690  1.00  0.00     0.000 A 
ATOM     22  C   UNL A   1      32.769  20.216  23.835  1.00  0.00     0.046 A 
ATOM     23  H   UNL A   1      31.941  22.136  23.728  1.00  0.00     0.167 HD
ATOM     24  C   UNL A   1      34.154  18.375  24.539  1.00  0.00     0.010 A 
ATOM     25  C   UNL A   1      32.180  19.451  22.822  1.00  0.00     0.026 A 
ATOM     26  C   UNL A   1      33.554  17.583  23.550  1.00  0.00     0.001 A 
ATOM     27  C   UNL A   1      32.585  18.117  22.704  1.00  0.00     0.002 A 
ENDBRANCH  15  18
ENDBRANCH  10  14
ENDBRANCH   8  10
ENDBRANCH   7   8
ENDBRANCH   6   7
ENDBRANCH   5   6
ENDBRANCH   4   5
ENDBRANCH   3   4
ENDBRANCH   2   3
ENDBRANCH   1   2
BRANCH   1  28
ATOM     28  C   UNL A   1      32.215  27.111  25.835  1.00  0.00     0.188 C 
BRANCH  28  29
ATOM     29  C   UNL A   1      32.453  28.157  26.942  1.00  0.00     0.188 C 
BRANCH  29  30
ATOM     30  O   UNL A   1      31.506  29.218  26.936  1.00  0.00    -0.376 OA
BRANCH  30  31
ATOM     31  C   UNL A   1      31.771  30.382  26.168  1.00  0.00     0.202 C 
BRANCH  31  32
ATOM     32  C   UNL A   1      31.790  31.743  26.885  1.00  0.00     0.261 C 
BRANCH  32  33
ATOM     33  O   UNL A   1      33.075  32.299  27.192  1.00  0.00    -0.460 OA
BRANCH  33  34
ATOM     34  C   UNL A   1      33.140  33.432  27.918  1.00  0.00     0.338 C 
ATOM     35  O   UNL A   1      32.290  34.299  28.020  1.00  0.00    -0.246 OA
BRANCH  34  36
ATOM     36  C   UNL A   1      34.363  33.350  28.744  1.00  0.00     0.060 A 
ATOM     37  C   UNL A   1      35.550  33.940  28.284  1.00  0.00     0.016 A 
ATOM     38  C   UNL A   1      34.327  32.699  29.977  1.00  0.00     0.016 A 
ATOM     39  C   UNL A   1      36.720  33.839  29.039  1.00  0.00     0.010 A 
ATOM     40  C   UNL A   1      35.501  32.573  30.717  1.00  0.00     0.010 A 
ATOM     41  C   UNL A   1      36.710  33.104  30.230  1.00  0.00    -0.014 A 
BRANCH  41  42
ATOM     42  C   UNL A   1      37.976  32.633  30.837  1.00  0.00     0.031 A 
ATOM     43  C   UNL A   1      38.631  31.434  30.212  1.00  0.00     0.074 A 
ATOM     44  C   UNL A   1      38.501  33.205  31.933  1.00  0.00     0.049 A 
ATOM     45  N   UNL A   1      39.615  30.696  30.653  1.00  0.00    -0.248 NA
ATOM     46  C   UNL A   1      38.086  30.999  28.914  1.00  0.00     0.031 C 
ATOM     47  C   UNL A   1      37.993  34.406  32.592  1.00  0.00     0.029 A 
ATOM     48  N   UNL A   1      39.571  32.821  32.703  1.00  0.00    -0.354 N 
ATOM     49  C   UNL A   1      39.786  29.696  29.702  1.00  0.00     0.074 A 
ATOM     50  C   UNL A   1      38.796  29.910  28.672  1.00  0.00     0.031 C 
ATOM     51  C   UNL A   1      38.734  34.643  33.690  1.00  0.00     0.029 A 
ATOM     52  C   UNL A   1      39.731  33.583  33.835  1.00  0.00     0.049 A 
ATOM     53  H   UNL A   1      40.165  32.072  32.467  1.00  0.00     0.167 HD
ATOM     54  C   UNL A   1      40.687  28.688  29.693  1.00  0.00     0.037 A 
ATOM     55  C   UNL A   1      40.561  33.411  34.884  1.00  0.00     0.037 A 
ATOM     56  C   UNL A   1      41.664  28.481  30.725  1.00  0.00     0.049 A 
ATOM     57  C   UNL A   1      41.500  32.229  34.898  1.00  0.00     0.074 A 
ATOM     58  C   UNL A   1      42.629  27.495  30.813  1.00  0.00     0.029 A 
ATOM     59  N   UNL A   1      41.791  29.273  31.857  1.00  0.00    -0.354 N 
ATOM     60  N   UNL A   1      41.662  31.289  33.997  1.00  0.00    -0.248 NA
ATOM     61  C   UNL A   1      42.366  32.079  36.077  1.00  0.00     0.031 C 
ATOM     62  C   UNL A   1      43.304  27.656  32.025  1.00  0.00     0.029 A 
ATOM     63  C   UNL A   1      42.805  28.784  32.659  1.00  0.00     0.049 A 
ATOM     64  H   UNL A   1      41.240  30.064  32.058  1.00  0.00     0.167 HD
ATOM     65  C   UNL A   1      42.677  30.469  34.477  1.00  0.00     0.074 A 
ATOM     66  C   UNL A   1      43.089  31.016  35.752  1.00  0.00     0.031 C 
ATOM     67  C   UNL A   1      43.225  29.366  33.908  1.00  0.00     0.037 A 
BRANCH  54  68
ATOM     68  C   UNL A   1      40.628  27.715  28.553  1.00  0.00     0.057 A 
ATOM     69  C   UNL A   1      41.401  27.877  27.395  1.00  0.00     0.134 A 
ATOM     70  C   UNL A   1      39.798  26.589  28.623  1.00  0.00     0.134 A 
ATOM     71  F   UNL A   1      42.202  28.944  27.255  1.00  0.00    -0.206 F 
ATOM     72  C   UNL A   1      41.333  26.966  26.339  1.00  0.00     0.040 A 
ATOM     73  C   UNL A   1      39.745  25.655  27.588  1.00  0.00     0.040 A 
ATOM     74  F   UNL A   1      39.032  26.372  29.703  1.00  0.00    -0.206 F 
ATOM     75  C   UNL A   1      40.509  25.846  26.438  1.00  0.00     0.006 A 
ENDBRANCH  54  68
BRANCH  55  76
ATOM     76  C   UNL A   1      40.529  34.360  36.026  1.00  0.00     0.057 A 
ATOM     77  C   UNL A   1      39.656  34.167  37.104  1.00  0.00     0.134 A 
ATOM     78  C   UNL A   1      41.344  35.499  36.058  1.00  0.00     0.134 A 
ATOM     79  F   UNL A   1      38.831  33.109  37.122  1.00  0.00    -0.206 F 
ATOM     80  C   UNL A   1      39.580  35.078  38.159  1.00  0.00     0.040 A 
ATOM     81  C   UNL A   1      41.298  36.404  37.120  1.00  0.00     0.040 A 
ATOM     82  F   UNL A   1      42.203  35.746  35.058  1.00  0.00    -0.206 F 
ATOM     83  C   UNL A   1      40.407  36.198  38.171  1.00  0.00     0.006 A 
ENDBRANCH  55  76
BRANCH  67  84
ATOM     84  C   UNL A   1      44.384  28.715  34.605  1.00  0.00     0.057 A 
ATOM     85  C   UNL A   1      45.693  29.195  34.487  1.00  0.00     0.134 A 
ATOM     86  C   UNL A   1      44.160  27.654  35.493  1.00  0.00     0.134 A 
ATOM     87  F   UNL A   1      45.975  30.203  33.648  1.00  0.00    -0.206 F 
ATOM     88  C   UNL A   1      46.740  28.640  35.225  1.00  0.00     0.040 A 
ATOM     89  C   UNL A   1      45.193  27.108  36.256  1.00  0.00     0.040 A 
ATOM     90  F   UNL A   1      42.926  27.155  35.661  1.00  0.00    -0.206 F 
ATOM     91  C   UNL A   1      46.489  27.602  36.121  1.00  0.00     0.006 A 
ENDBRANCH  67  84
ENDBRANCH  41  42
ENDBRANCH  34  36
ENDBRANCH  33  34
ENDBRANCH  32  33
ENDBRANCH  31  32
ENDBRANCH  30  31
ENDBRANCH  29  30
ENDBRANCH  28  29
ENDBRANCH   1  28
TORSDOF 24
ENDMDL
MODEL 2
REMARK VINA RESULT:      -9.4      3.997      9.275
REMARK SMILES CCC[C@H](NC(=O)c1cc2ccccc2[nH]1)C(=O)OCCOCCOCCOCCOC(=O)c1ccc(-c2c3nc(c(-c4c(F)cccc4F)c4ccc([nH]4)c(-c4c(F)cccc4F)c4nc(c(-c5c(F)cccc5F)c5ccc2[nH]5)C=C4)C=C3)cc1
REMARK SMILES IDX 25 1 24 2 23 3 22 4 21 5 20 6 19 7 17 8 18 9 4 10 3 11 2 12
REMARK SMILES IDX 1 13 5 14 6 15 7 17 8 18 9 19 16 20 10 21 15 22 11 24 14 25
REMARK SMILES IDX 12 26 13 27 26 28 27 29 28 30 29 31 30 32 31 33 32 34 33 35
REMARK SMILES IDX 34 36 35 37 87 38 36 39 86 40 37 41 38 42 39 43 80 44 40 45
REMARK SMILES IDX 85 46 79 47 81 48 41 49 84 50 78 51 77 52 42 54 68 55 51 56
REMARK SMILES IDX 67 57 52 58 55 59 66 60 82 61 53 62 54 63 65 65 83 66 56 67
REMARK SMILES IDX 43 68 44 69 49 70 45 71 46 72 48 73 50 74 47 75 69 76 70 77
REMARK SMILES IDX 75 78 71 79 72 80 74 81 76 82 73 83 57 84 58 85 63 86 59 87
REMARK SMILES IDX 60 88 62 89 64 90 61 91
REMARK H PARENT 5 16 16 23 81 53 55 64
REMARK Flexibility Score: inf
ROOT
ATOM      1  O   UNL A   1      31.881  21.307  23.967  1.00  0.00    -0.377 OA
ENDROOT
BRANCH   1   2
ATOM      2  C   UNL A   1      32.072  22.139  22.839  1.00  0.00     0.188 C 
BRANCH   2   3
ATOM      3  C   UNL A   1      31.855  23.644  23.091  1.00  0.00     0.188 C 
BRANCH   3   4
ATOM      4  O   UNL A   1      30.554  24.181  23.279  1.00  0.00    -0.376 OA
BRANCH   4   5
ATOM      5  C   UNL A   1      30.361  25.580  23.406  1.00  0.00     0.202 C 
BRANCH   5   6
ATOM      6  C   UNL A   1      30.968  26.547  22.382  1.00  0.00     0.261 C 
BRANCH   6   7
ATOM      7  O   UNL A   1      31.386  27.832  22.881  1.00  0.00    -0.462 OA
BRANCH   7   8
ATOM      8  C   UNL A   1      30.621  28.901  22.536  1.00  0.00     0.328 C 
ATOM      9  O   UNL A   1      30.567  29.381  21.409  1.00  0.00    -0.250 OA
BRANCH   8  10
ATOM     10  C   UNL A   1      29.955  29.567  23.752  1.00  0.00     0.192 C 
BRANCH  10  11
ATOM     11  C   UNL A   1      28.760  30.405  23.262  1.00  0.00     0.037 C 
BRANCH  11  12
ATOM     12  C   UNL A   1      27.629  29.615  22.578  1.00  0.00    -0.001 C 
ATOM     13  C   UNL A   1      27.120  28.434  23.397  1.00  0.00     0.004 C 
ENDBRANCH  11  12
ENDBRANCH  10  11
BRANCH  10  14
ATOM     14  N   UNL A   1      30.806  30.386  24.627  1.00  0.00    -0.337 N 
ATOM     15  C   UNL A   1      31.666  30.021  25.638  1.00  0.00     0.268 C 
ATOM     16  H   UNL A   1      30.752  31.356  24.463  1.00  0.00     0.164 HD
ATOM     17  O   UNL A   1      32.097  30.912  26.368  1.00  0.00    -0.268 OA
BRANCH  15  18
ATOM     18  C   UNL A   1      32.058  28.638  25.798  1.00  0.00     0.105 A 
ATOM     19  C   UNL A   1      31.371  27.632  26.462  1.00  0.00     0.042 A 
ATOM     20  N   UNL A   1      33.263  28.086  25.426  1.00  0.00    -0.351 N 
ATOM     21  C   UNL A   1      32.121  26.427  26.369  1.00  0.00     0.000 A 
ATOM     22  C   UNL A   1      33.310  26.744  25.718  1.00  0.00     0.046 A 
ATOM     23  H   UNL A   1      33.998  28.589  25.006  1.00  0.00     0.167 HD
ATOM     24  C   UNL A   1      31.906  25.097  26.776  1.00  0.00     0.010 A 
ATOM     25  C   UNL A   1      34.308  25.798  25.459  1.00  0.00     0.026 A 
ATOM     26  C   UNL A   1      32.880  24.129  26.497  1.00  0.00     0.001 A 
ATOM     27  C   UNL A   1      34.064  24.478  25.851  1.00  0.00     0.002 A 
ENDBRANCH  15  18
ENDBRANCH  10  14
ENDBRANCH   8  10
ENDBRANCH   7   8
ENDBRANCH   6   7
ENDBRANCH   5   6
ENDBRANCH   4   5
ENDBRANCH   3   4
ENDBRANCH   2   3
ENDBRANCH   1   2
BRANCH   1  28
ATOM     28  C   UNL A   1      33.008  21.157  24.819  1.00  0.00     0.188 C 
BRANCH  28  29
ATOM     29  C   UNL A   1      33.923  19.943  24.561  1.00  0.00     0.188 C 
BRANCH  29  30
ATOM     30  O   UNL A   1      35.261  20.134  25.002  1.00  0.00    -0.376 OA
BRANCH  30  31
ATOM     31  C   UNL A   1      35.555  21.204  25.888  1.00  0.00     0.202 C 
BRANCH  31  32
ATOM     32  C   UNL A   1      36.904  21.926  25.740  1.00  0.00     0.261 C 
BRANCH  32  33
ATOM     33  O   UNL A   1      37.961  21.206  25.093  1.00  0.00    -0.460 OA
BRANCH  33  34
ATOM     34  C   UNL A   1      39.057  20.875  25.803  1.00  0.00     0.338 C 
ATOM     35  O   UNL A   1      39.651  19.811  25.800  1.00  0.00    -0.246 OA
BRANCH  34  36
ATOM     36  C   UNL A   1      39.544  22.110  26.451  1.00  0.00     0.060 A 
ATOM     37  C   UNL A   1      39.077  23.356  26.007  1.00  0.00     0.016 A 
ATOM     38  C   UNL A   1      40.454  22.030  27.506  1.00  0.00     0.016 A 
ATOM     39  C   UNL A   1      39.555  24.532  26.589  1.00  0.00     0.010 A 
ATOM     40  C   UNL A   1      40.954  23.204  28.067  1.00  0.00     0.010 A 
ATOM     41  C   UNL A   1      40.540  24.458  27.581  1.00  0.00    -0.014 A 
BRANCH  41  42
ATOM     42  C   UNL A   1      41.354  25.646  27.927  1.00  0.00     0.031 A 
ATOM     43  C   UNL A   1      40.668  26.751  28.681  1.00  0.00     0.074 A 
ATOM     44  C   UNL A   1      42.635  25.773  27.543  1.00  0.00     0.049 A 
ATOM     45  N   UNL A   1      41.073  27.968  28.928  1.00  0.00    -0.248 NA
ATOM     46  C   UNL A   1      39.332  26.439  29.216  1.00  0.00     0.031 C 
ATOM     47  C   UNL A   1      43.424  24.749  26.863  1.00  0.00     0.029 A 
ATOM     48  N   UNL A   1      43.486  26.845  27.647  1.00  0.00    -0.354 N 
ATOM     49  C   UNL A   1      40.031  28.574  29.620  1.00  0.00     0.074 A 
ATOM     50  C   UNL A   1      38.971  27.599  29.739  1.00  0.00     0.031 C 
ATOM     51  C   UNL A   1      44.638  25.256  26.581  1.00  0.00     0.029 A 
ATOM     52  C   UNL A   1      44.690  26.651  27.016  1.00  0.00     0.049 A 
ATOM     53  H   UNL A   1      43.255  27.673  28.129  1.00  0.00     0.167 HD
ATOM     54  C   UNL A   1      39.964  29.832  30.109  1.00  0.00     0.037 A 
ATOM     55  C   UNL A   1      45.694  27.520  26.780  1.00  0.00     0.037 A 
ATOM     56  C   UNL A   1      41.021  30.796  29.980  1.00  0.00     0.049 A 
ATOM     57  C   UNL A   1      45.565  28.946  27.257  1.00  0.00     0.074 A 
ATOM     58  C   UNL A   1      41.061  32.098  30.444  1.00  0.00     0.029 A 
ATOM     59  N   UNL A   1      42.223  30.561  29.330  1.00  0.00    -0.354 N 
ATOM     60  N   UNL A   1      44.581  29.513  27.914  1.00  0.00    -0.248 NA
ATOM     61  C   UNL A   1      46.681  29.855  26.953  1.00  0.00     0.031 C 
ATOM     62  C   UNL A   1      42.265  32.669  30.026  1.00  0.00     0.029 A 
ATOM     63  C   UNL A   1      43.004  31.701  29.362  1.00  0.00     0.049 A 
ATOM     64  H   UNL A   1      42.481  29.709  28.908  1.00  0.00     0.167 HD
ATOM     65  C   UNL A   1      44.980  30.826  28.143  1.00  0.00     0.074 A 
ATOM     66  C   UNL A   1      46.292  30.974  27.548  1.00  0.00     0.031 C 
ATOM     67  C   UNL A   1      44.323  31.817  28.796  1.00  0.00     0.037 A 
BRANCH  54  68
ATOM     68  C   UNL A   1      38.692  30.246  30.790  1.00  0.00     0.057 A 
ATOM     69  C   UNL A   1      38.467  30.009  32.152  1.00  0.00     0.134 A 
ATOM     70  C   UNL A   1      37.687  30.908  30.074  1.00  0.00     0.134 A 
ATOM     71  F   UNL A   1      39.381  29.362  32.891  1.00  0.00    -0.206 F 
ATOM     72  C   UNL A   1      37.277  30.395  32.773  1.00  0.00     0.040 A 
ATOM     73  C   UNL A   1      36.507  31.326  30.690  1.00  0.00     0.040 A 
ATOM     74  F   UNL A   1      37.838  31.167  28.767  1.00  0.00    -0.206 F 
ATOM     75  C   UNL A   1      36.297  31.063  32.042  1.00  0.00     0.006 A 
ENDBRANCH  54  68
BRANCH  55  76
ATOM     76  C   UNL A   1      46.902  27.082  26.034  1.00  0.00     0.057 A 
ATOM     77  C   UNL A   1      47.971  26.458  26.689  1.00  0.00     0.134 A 
ATOM     78  C   UNL A   1      47.033  27.301  24.656  1.00  0.00     0.134 A 
ATOM     79  F   UNL A   1      47.917  26.242  28.011  1.00  0.00    -0.206 F 
ATOM     80  C   UNL A   1      49.132  26.087  26.009  1.00  0.00     0.040 A 
ATOM     81  C   UNL A   1      48.178  26.909  23.959  1.00  0.00     0.040 A 
ATOM     82  F   UNL A   1      46.048  27.893  23.967  1.00  0.00    -0.206 F 
ATOM     83  C   UNL A   1      49.235  26.307  24.637  1.00  0.00     0.006 A 
ENDBRANCH  55  76
BRANCH  67  84
ATOM     84  C   UNL A   1      45.030  33.128  28.982  1.00  0.00     0.057 A 
ATOM     85  C   UNL A   1      44.834  34.213  28.120  1.00  0.00     0.134 A 
ATOM     86  C   UNL A   1      45.838  33.334  30.109  1.00  0.00     0.134 A 
ATOM     87  F   UNL A   1      44.079  34.079  27.019  1.00  0.00    -0.206 F 
ATOM     88  C   UNL A   1      45.419  35.455  28.369  1.00  0.00     0.040 A 
ATOM     89  C   UNL A   1      46.407  34.578  30.383  1.00  0.00     0.040 A 
ATOM     90  F   UNL A   1      46.056  32.338  30.981  1.00  0.00    -0.206 F 
ATOM     91  C   UNL A   1      46.198  35.643  29.511  1.00  0.00     0.006 A 
ENDBRANCH  67  84
ENDBRANCH  41  42
ENDBRANCH  34  36
ENDBRANCH  33  34
ENDBRANCH  32  33
ENDBRANCH  31  32
ENDBRANCH  30  31
ENDBRANCH  29  30
ENDBRANCH  28  29
ENDBRANCH   1  28
TORSDOF 24
ENDMDL
MODEL 3
REMARK VINA RESULT:      -9.4      2.799      7.915
REMARK SMILES CCC[C@H](NC(=O)c1cc2ccccc2[nH]1)C(=O)OCCOCCOCCOCCOC(=O)c1ccc(-c2c3nc(c(-c4c(F)cccc4F)c4ccc([nH]4)c(-c4c(F)cccc4F)c4nc(c(-c5c(F)cccc5F)c5ccc2[nH]5)C=C4)C=C3)cc1
REMARK SMILES IDX 25 1 24 2 23 3 22 4 21 5 20 6 19 7 17 8 18 9 4 10 3 11 2 12
REMARK SMILES IDX 1 13 5 14 6 15 7 17 8 18 9 19 16 20 10 21 15 22 11 24 14 25
REMARK SMILES IDX 12 26 13 27 26 28 27 29 28 30 29 31 30 32 31 33 32 34 33 35
REMARK SMILES IDX 34 36 35 37 87 38 36 39 86 40 37 41 38 42 39 43 80 44 40 45
REMARK SMILES IDX 85 46 79 47 81 48 41 49 84 50 78 51 77 52 42 54 68 55 51 56
REMARK SMILES IDX 67 57 52 58 55 59 66 60 82 61 53 62 54 63 65 65 83 66 56 67
REMARK SMILES IDX 43 68 44 69 49 70 45 71 46 72 48 73 50 74 47 75 69 76 70 77
REMARK SMILES IDX 75 78 71 79 72 80 74 81 76 82 73 83 57 84 58 85 63 86 59 87
REMARK SMILES IDX 60 88 62 89 64 90 61 91
REMARK H PARENT 5 16 16 23 81 53 55 64
REMARK Flexibility Score: inf
ROOT
ATOM      1  O   UNL A   1      39.528  22.257  25.991  1.00  0.00    -0.377 OA
ENDROOT
BRANCH   1   2
ATOM      2  C   UNL A   1      38.121  22.387  25.916  1.00  0.00     0.188 C 
BRANCH   2   3
ATOM      3  C   UNL A   1      37.428  21.442  24.916  1.00  0.00     0.188 C 
BRANCH   3   4
ATOM      4  O   UNL A   1      36.661  21.946  23.832  1.00  0.00    -0.376 OA
BRANCH   4   5
ATOM      5  C   UNL A   1      35.453  22.650  24.068  1.00  0.00     0.202 C 
BRANCH   5   6
ATOM      6  C   UNL A   1      34.973  23.726  23.086  1.00  0.00     0.261 C 
BRANCH   6   7
ATOM      7  O   UNL A   1      34.290  24.858  23.657  1.00  0.00    -0.462 OA
BRANCH   7   8
ATOM      8  C   UNL A   1      33.583  25.643  22.801  1.00  0.00     0.328 C 
ATOM      9  O   UNL A   1      33.588  25.520  21.581  1.00  0.00    -0.250 OA
BRANCH   8  10
ATOM     10  C   UNL A   1      32.902  26.826  23.511  1.00  0.00     0.192 C 
BRANCH  10  11
ATOM     11  C   UNL A   1      33.489  26.953  24.929  1.00  0.00     0.037 C 
BRANCH  11  12
ATOM     12  C   UNL A   1      33.745  28.391  25.417  1.00  0.00    -0.001 C 
ATOM     13  C   UNL A   1      34.276  28.471  26.844  1.00  0.00     0.004 C 
ENDBRANCH  11  12
ENDBRANCH  10  11
BRANCH  10  14
ATOM     14  N   UNL A   1      31.435  26.819  23.583  1.00  0.00    -0.337 N 
ATOM     15  C   UNL A   1      30.541  25.772  23.578  1.00  0.00     0.268 C 
ATOM     16  H   UNL A   1      31.021  27.711  23.645  1.00  0.00     0.164 HD
ATOM     17  O   UNL A   1      29.351  26.038  23.425  1.00  0.00    -0.268 OA
BRANCH  15  18
ATOM     18  C   UNL A   1      31.006  24.416  23.776  1.00  0.00     0.105 A 
ATOM     19  C   UNL A   1      31.318  23.791  24.974  1.00  0.00     0.042 A 
ATOM     20  N   UNL A   1      31.353  23.524  22.787  1.00  0.00    -0.351 N 
ATOM     21  C   UNL A   1      31.732  22.458  24.701  1.00  0.00     0.000 A 
ATOM     22  C   UNL A   1      31.752  22.320  23.316  1.00  0.00     0.046 A 
ATOM     23  H   UNL A   1      31.321  23.723  21.823  1.00  0.00     0.167 HD
ATOM     24  C   UNL A   1      32.094  21.354  25.497  1.00  0.00     0.010 A 
ATOM     25  C   UNL A   1      32.126  21.132  22.677  1.00  0.00     0.026 A 
ATOM     26  C   UNL A   1      32.442  20.147  24.876  1.00  0.00     0.001 A 
ATOM     27  C   UNL A   1      32.460  20.042  23.487  1.00  0.00     0.002 A 
ENDBRANCH  15  18
ENDBRANCH  10  14
ENDBRANCH   8  10
ENDBRANCH   7   8
ENDBRANCH   6   7
ENDBRANCH   5   6
ENDBRANCH   4   5
ENDBRANCH   3   4
ENDBRANCH   2   3
ENDBRANCH   1   2
BRANCH   1  28
ATOM     28  C   UNL A   1      40.005  21.152  26.746  1.00  0.00     0.188 C 
BRANCH  28  29
ATOM     29  C   UNL A   1      41.121  20.301  26.109  1.00  0.00     0.188 C 
BRANCH  29  30
ATOM     30  O   UNL A   1      42.352  20.352  26.820  1.00  0.00    -0.376 OA
BRANCH  30  31
ATOM     31  C   UNL A   1      42.451  21.165  27.980  1.00  0.00     0.202 C 
BRANCH  31  32
ATOM     32  C   UNL A   1      43.400  22.374  27.947  1.00  0.00     0.261 C 
BRANCH  32  33
ATOM     33  O   UNL A   1      43.969  22.722  26.677  1.00  0.00    -0.460 OA
BRANCH  33  34
ATOM     34  C   UNL A   1      43.226  23.422  25.798  1.00  0.00     0.338 C 
ATOM     35  O   UNL A   1      42.894  23.087  24.674  1.00  0.00    -0.246 OA
BRANCH  34  36
ATOM     36  C   UNL A   1      42.703  24.604  26.515  1.00  0.00     0.060 A 
ATOM     37  C   UNL A   1      43.446  25.794  26.519  1.00  0.00     0.016 A 
ATOM     38  C   UNL A   1      41.474  24.533  27.170  1.00  0.00     0.016 A 
ATOM     39  C   UNL A   1      42.979  26.908  27.221  1.00  0.00     0.010 A 
ATOM     40  C   UNL A   1      41.022  25.635  27.896  1.00  0.00     0.010 A 
ATOM     41  C   UNL A   1      41.794  26.810  27.959  1.00  0.00    -0.014 A 
BRANCH  41  42
ATOM     42  C   UNL A   1      41.482  27.795  29.019  1.00  0.00     0.031 A 
ATOM     43  C   UNL A   1      42.256  27.689  30.304  1.00  0.00     0.074 A 
ATOM     44  C   UNL A   1      40.514  28.716  28.879  1.00  0.00     0.049 A 
ATOM     45  N   UNL A   1      42.050  28.276  31.453  1.00  0.00    -0.248 NA
ATOM     46  C   UNL A   1      43.414  26.779  30.290  1.00  0.00     0.031 C 
ATOM     47  C   UNL A   1      39.739  28.956  27.664  1.00  0.00     0.029 A 
ATOM     48  N   UNL A   1      39.998  29.602  29.792  1.00  0.00    -0.354 N 
ATOM     49  C   UNL A   1      43.033  27.784  32.303  1.00  0.00     0.074 A 
ATOM     50  C   UNL A   1      43.823  26.840  31.546  1.00  0.00     0.031 C 
ATOM     51  C   UNL A   1      38.822  29.908  27.918  1.00  0.00     0.029 A 
ATOM     52  C   UNL A   1      38.914  30.302  29.323  1.00  0.00     0.049 A 
ATOM     53  H   UNL A   1      40.370  29.724  30.696  1.00  0.00     0.167 HD
ATOM     54  C   UNL A   1      43.254  28.092  33.601  1.00  0.00     0.037 A 
ATOM     55  C   UNL A   1      38.070  31.129  29.973  1.00  0.00     0.037 A 
ATOM     56  C   UNL A   1      42.459  29.027  34.347  1.00  0.00     0.049 A 
ATOM     57  C   UNL A   1      38.280  31.392  31.444  1.00  0.00     0.074 A 
ATOM     58  C   UNL A   1      42.599  29.418  35.666  1.00  0.00     0.029 A 
ATOM     59  N   UNL A   1      41.367  29.712  33.835  1.00  0.00    -0.354 N 
ATOM     60  N   UNL A   1      39.212  30.930  32.243  1.00  0.00    -0.248 NA
ATOM     61  C   UNL A   1      37.317  32.286  32.106  1.00  0.00     0.031 C 
ATOM     62  C   UNL A   1      41.557  30.297  35.969  1.00  0.00     0.029 A 
ATOM     63  C   UNL A   1      40.810  30.507  34.820  1.00  0.00     0.049 A 
ATOM     64  H   UNL A   1      41.037  29.642  32.910  1.00  0.00     0.167 HD
ATOM     65  C   UNL A   1      38.976  31.512  33.484  1.00  0.00     0.074 A 
ATOM     66  C   UNL A   1      37.809  32.355  33.335  1.00  0.00     0.031 C 
ATOM     67  C   UNL A   1      39.669  31.369  34.641  1.00  0.00     0.037 A 
BRANCH  54  68
ATOM     68  C   UNL A   1      44.373  27.379  34.302  1.00  0.00     0.057 A 
ATOM     69  C   UNL A   1      45.660  27.924  34.395  1.00  0.00     0.134 A 
ATOM     70  C   UNL A   1      44.152  26.136  34.910  1.00  0.00     0.134 A 
ATOM     71  F   UNL A   1      45.943  29.102  33.818  1.00  0.00    -0.206 F 
ATOM     72  C   UNL A   1      46.693  27.248  35.046  1.00  0.00     0.040 A 
ATOM     73  C   UNL A   1      45.169  25.466  35.591  1.00  0.00     0.040 A 
ATOM     74  F   UNL A   1      42.943  25.557  34.859  1.00  0.00    -0.206 F 
ATOM     75  C   UNL A   1      46.446  26.019  35.654  1.00  0.00     0.006 A 
ENDBRANCH  54  68
BRANCH  55  76
ATOM     76  C   UNL A   1      36.930  31.752  29.251  1.00  0.00     0.057 A 
ATOM     77  C   UNL A   1      37.009  33.064  28.769  1.00  0.00     0.134 A 
ATOM     78  C   UNL A   1      35.725  31.066  29.051  1.00  0.00     0.134 A 
ATOM     79  F   UNL A   1      38.126  33.783  28.950  1.00  0.00    -0.206 F 
ATOM     80  C   UNL A   1      35.928  33.678  28.134  1.00  0.00     0.040 A 
ATOM     81  C   UNL A   1      34.646  31.659  28.393  1.00  0.00     0.040 A 
ATOM     82  F   UNL A   1      35.582  29.807  29.488  1.00  0.00    -0.206 F 
ATOM     83  C   UNL A   1      34.743  32.973  27.939  1.00  0.00     0.006 A 
ENDBRANCH  55  76
BRANCH  67  84
ATOM     84  C   UNL A   1      39.249  32.194  35.822  1.00  0.00     0.057 A 
ATOM     85  C   UNL A   1      39.680  33.513  36.005  1.00  0.00     0.134 A 
ATOM     86  C   UNL A   1      38.312  31.687  36.733  1.00  0.00     0.134 A 
ATOM     87  F   UNL A   1      40.583  34.054  35.173  1.00  0.00    -0.206 F 
ATOM     88  C   UNL A   1      39.197  34.297  37.053  1.00  0.00     0.040 A 
ATOM     89  C   UNL A   1      37.801  32.469  37.768  1.00  0.00     0.040 A 
ATOM     90  F   UNL A   1      37.849  30.434  36.607  1.00  0.00    -0.206 F 
ATOM     91  C   UNL A   1      38.245  33.780  37.931  1.00  0.00     0.006 A 
ENDBRANCH  67  84
ENDBRANCH  41  42
ENDBRANCH  34  36
ENDBRANCH  33  34
ENDBRANCH  32  33
ENDBRANCH  31  32
ENDBRANCH  30  31
ENDBRANCH  29  30
ENDBRANCH  28  29
ENDBRANCH   1  28
TORSDOF 24
ENDMDL
