MODEL 1
REMARK VINA RESULT:     -11.1      0.000      0.000
REMARK SMILES O=C(OCCOCCOCCOCCOC(=O)[C@H]1CCCC[C@H]1C(=O)Nc1ccc(Cl)cc1F)c1ccc(-c2c3nc(c(-c4c(F)cccc4F)c4ccc([nH]4)c(-c4c(F)cccc4F)c4nc(c(-c5c(F)cccc5F)c5ccc2[nH]5)C=C4)C=C3)cc1
REMARK SMILES IDX 9 1 8 2 7 3 6 4 5 5 4 6 3 7 2 8 1 9 35 10 36 11 88 12 37 13
REMARK SMILES IDX 87 14 38 15 39 16 40 17 81 18 41 19 86 20 80 21 82 22 42 23
REMARK SMILES IDX 85 24 79 25 78 26 43 28 69 29 52 30 68 31 53 32 56 33 67 34
REMARK SMILES IDX 83 35 54 36 55 37 66 39 84 40 57 41 44 42 45 43 50 44 46 45
REMARK SMILES IDX 47 46 49 47 51 48 48 49 70 50 71 51 76 52 72 53 73 54 75 55
REMARK SMILES IDX 77 56 74 57 58 58 59 59 64 60 60 61 61 62 63 63 65 64 62 65
REMARK SMILES IDX 10 66 11 67 12 68 13 69 14 70 15 71 16 72 17 73 18 74 19 75
REMARK SMILES IDX 23 76 20 77 22 78 21 79 24 80 25 81 26 82 27 84 28 85 33 86
REMARK SMILES IDX 29 87 32 88 34 89 30 90 31 91
REMARK H PARENT 82 27 56 38 26 83
REMARK Flexibility Score: inf
ROOT
ATOM      1  O   UNL A   1      32.166  30.834  27.010  1.00  0.00    -0.377 OA
ENDROOT
BRANCH   1   2
ATOM      2  C   UNL A   1      33.533  30.755  27.399  1.00  0.00     0.188 C 
BRANCH   2   3
ATOM      3  C   UNL A   1      34.177  32.077  27.815  1.00  0.00     0.188 C 
BRANCH   3   4
ATOM      4  O   UNL A   1      33.213  33.130  27.916  1.00  0.00    -0.376 OA
BRANCH   4   5
ATOM      5  C   UNL A   1      33.441  34.063  28.973  1.00  0.00     0.202 C 
BRANCH   5   6
ATOM      6  C   UNL A   1      34.706  33.772  29.781  1.00  0.00     0.261 C 
BRANCH   6   7
ATOM      7  O   UNL A   1      34.485  32.802  30.814  1.00  0.00    -0.460 OA
BRANCH   7   8
ATOM      8  C   UNL A   1      35.400  32.238  31.641  1.00  0.00     0.338 C 
ATOM      9  O   UNL A   1      35.210  32.328  32.854  1.00  0.00    -0.246 OA
BRANCH   8  10
ATOM     10  C   UNL A   1      36.607  31.471  31.188  1.00  0.00     0.060 A 
ATOM     11  C   UNL A   1      37.481  30.737  31.996  1.00  0.00     0.016 A 
ATOM     12  C   UNL A   1      36.839  31.455  29.800  1.00  0.00     0.016 A 
ATOM     13  C   UNL A   1      38.578  30.066  31.467  1.00  0.00     0.010 A 
ATOM     14  C   UNL A   1      37.928  30.773  29.255  1.00  0.00     0.010 A 
ATOM     15  C   UNL A   1      38.818  30.102  30.097  1.00  0.00    -0.014 A 
BRANCH  15  16
ATOM     16  C   UNL A   1      40.100  29.585  29.594  1.00  0.00     0.031 A 
ATOM     17  C   UNL A   1      41.261  30.533  29.556  1.00  0.00     0.074 A 
ATOM     18  C   UNL A   1      40.229  28.287  29.269  1.00  0.00     0.049 A 
ATOM     19  N   UNL A   1      42.450  30.368  29.046  1.00  0.00    -0.248 NA
ATOM     20  C   UNL A   1      41.053  31.849  30.189  1.00  0.00     0.031 C 
ATOM     21  C   UNL A   1      39.175  27.276  29.392  1.00  0.00     0.029 A 
ATOM     22  N   UNL A   1      41.301  27.596  28.773  1.00  0.00    -0.354 N 
ATOM     23  C   UNL A   1      43.113  31.570  29.257  1.00  0.00     0.074 A 
ATOM     24  C   UNL A   1      42.207  32.452  29.953  1.00  0.00     0.031 C 
ATOM     25  C   UNL A   1      39.653  26.095  28.964  1.00  0.00     0.029 A 
ATOM     26  C   UNL A   1      41.017  26.283  28.481  1.00  0.00     0.049 A 
ATOM     27  H   UNL A   1      42.189  28.000  28.638  1.00  0.00     0.167 HD
ATOM     28  C   UNL A   1      44.368  31.901  28.879  1.00  0.00     0.037 A 
ATOM     29  C   UNL A   1      41.766  25.368  27.838  1.00  0.00     0.037 A 
ATOM     30  C   UNL A   1      45.242  30.992  28.193  1.00  0.00     0.049 A 
ATOM     31  C   UNL A   1      43.125  25.794  27.347  1.00  0.00     0.074 A 
ATOM     32  C   UNL A   1      46.526  31.208  27.729  1.00  0.00     0.029 A 
ATOM     33  N   UNL A   1      44.908  29.684  27.872  1.00  0.00    -0.354 N 
ATOM     34  N   UNL A   1      43.741  26.942  27.508  1.00  0.00    -0.248 NA
ATOM     35  C   UNL A   1      43.884  24.811  26.562  1.00  0.00     0.031 C 
ATOM     36  C   UNL A   1      46.949  30.042  27.083  1.00  0.00     0.029 A 
ATOM     37  C   UNL A   1      45.949  29.085  27.190  1.00  0.00     0.049 A 
ATOM     38  H   UNL A   1      44.055  29.246  28.097  1.00  0.00     0.167 HD
ATOM     39  C   UNL A   1      44.959  26.820  26.854  1.00  0.00     0.074 A 
ATOM     40  C   UNL A   1      45.008  25.472  26.321  1.00  0.00     0.031 C 
ATOM     41  C   UNL A   1      45.948  27.733  26.690  1.00  0.00     0.037 A 
BRANCH  28  42
ATOM     42  C   UNL A   1      44.819  33.307  29.132  1.00  0.00     0.057 A 
ATOM     43  C   UNL A   1      44.602  34.343  28.215  1.00  0.00     0.134 A 
ATOM     44  C   UNL A   1      45.490  33.627  30.320  1.00  0.00     0.134 A 
ATOM     45  F   UNL A   1      43.994  34.098  27.044  1.00  0.00    -0.206 F 
ATOM     46  C   UNL A   1      45.046  35.643  28.466  1.00  0.00     0.040 A 
ATOM     47  C   UNL A   1      45.920  34.926  30.592  1.00  0.00     0.040 A 
ATOM     48  F   UNL A   1      45.740  32.678  31.236  1.00  0.00    -0.206 F 
ATOM     49  C   UNL A   1      45.701  35.939  29.660  1.00  0.00     0.006 A 
ENDBRANCH  28  42
BRANCH  29  50
ATOM     50  C   UNL A   1      41.229  24.013  27.542  1.00  0.00     0.057 A 
ATOM     51  C   UNL A   1      40.220  23.815  26.592  1.00  0.00     0.134 A 
ATOM     52  C   UNL A   1      41.680  22.883  28.239  1.00  0.00     0.134 A 
ATOM     53  F   UNL A   1      39.729  24.856  25.903  1.00  0.00    -0.206 F 
ATOM     54  C   UNL A   1      39.660  22.554  26.368  1.00  0.00     0.040 A 
ATOM     55  C   UNL A   1      41.153  21.612  28.001  1.00  0.00     0.040 A 
ATOM     56  F   UNL A   1      42.643  22.997  29.164  1.00  0.00    -0.206 F 
ATOM     57  C   UNL A   1      40.130  21.447  27.072  1.00  0.00     0.006 A 
ENDBRANCH  29  50
BRANCH  41  58
ATOM     58  C   UNL A   1      47.160  27.289  25.930  1.00  0.00     0.057 A 
ATOM     59  C   UNL A   1      48.227  26.643  26.566  1.00  0.00     0.134 A 
ATOM     60  C   UNL A   1      47.229  27.456  24.542  1.00  0.00     0.134 A 
ATOM     61  F   UNL A   1      48.222  26.466  27.896  1.00  0.00    -0.206 F 
ATOM     62  C   UNL A   1      49.332  26.193  25.845  1.00  0.00     0.040 A 
ATOM     63  C   UNL A   1      48.316  26.986  23.808  1.00  0.00     0.040 A 
ATOM     64  F   UNL A   1      46.230  28.057  23.878  1.00  0.00    -0.206 F 
ATOM     65  C   UNL A   1      49.374  26.356  24.461  1.00  0.00     0.006 A 
ENDBRANCH  41  58
ENDBRANCH  15  16
ENDBRANCH   8  10
ENDBRANCH   7   8
ENDBRANCH   6   7
ENDBRANCH   5   6
ENDBRANCH   4   5
ENDBRANCH   3   4
ENDBRANCH   2   3
ENDBRANCH   1   2
BRANCH   1  66
ATOM     66  C   UNL A   1      31.809  30.191  25.792  1.00  0.00     0.188 C 
BRANCH  66  67
ATOM     67  C   UNL A   1      32.947  29.704  24.867  1.00  0.00     0.188 C 
BRANCH  67  68
ATOM     68  O   UNL A   1      32.753  28.435  24.255  1.00  0.00    -0.376 OA
BRANCH  68  69
ATOM     69  C   UNL A   1      33.730  27.442  24.556  1.00  0.00     0.202 C 
BRANCH  69  70
ATOM     70  C   UNL A   1      33.695  26.903  25.990  1.00  0.00     0.261 C 
BRANCH  70  71
ATOM     71  O   UNL A   1      32.608  25.966  26.135  1.00  0.00    -0.463 OA
BRANCH  71  72
ATOM     72  C   UNL A   1      31.379  26.404  26.497  1.00  0.00     0.309 C 
ATOM     73  O   UNL A   1      31.207  27.301  27.314  1.00  0.00    -0.252 OA
BRANCH  72  74
ATOM     74  C   UNL A   1      30.290  25.533  25.829  1.00  0.00     0.111 C 
ATOM     75  C   UNL A   1      29.872  26.251  24.535  1.00  0.00     0.016 C 
ATOM     76  C   UNL A   1      30.431  23.996  25.562  1.00  0.00     0.093 C 
ATOM     77  C   UNL A   1      30.770  25.870  23.363  1.00  0.00     0.001 C 
ATOM     78  C   UNL A   1      31.028  23.508  24.234  1.00  0.00     0.014 C 
ATOM     79  C   UNL A   1      30.656  24.386  23.050  1.00  0.00     0.001 C 
BRANCH  76  80
ATOM     80  C   UNL A   1      30.686  22.983  26.681  1.00  0.00     0.228 C 
ATOM     81  O   UNL A   1      29.878  22.952  27.627  1.00  0.00    -0.274 OA
ATOM     82  N   UNL A   1      31.675  22.057  26.774  1.00  0.00    -0.323 N 
ATOM     83  H   UNL A   1      31.433  21.333  27.396  1.00  0.00     0.170 HD
BRANCH  82  84
ATOM     84  C   UNL A   1      32.955  21.851  26.221  1.00  0.00     0.077 A 
ATOM     85  C   UNL A   1      33.101  20.744  25.370  1.00  0.00     0.031 A 
ATOM     86  C   UNL A   1      34.106  22.566  26.524  1.00  0.00     0.148 A 
ATOM     87  C   UNL A   1      34.367  20.337  24.923  1.00  0.00     0.023 A 
ATOM     88  C   UNL A   1      35.377  22.148  26.134  1.00  0.00     0.062 A 
ATOM     89  F   UNL A   1      34.041  23.696  27.213  1.00  0.00    -0.205 F 
ATOM     90  C   UNL A   1      35.505  21.020  25.343  1.00  0.00     0.044 A 
ATOM     91  Cl  UNL A   1      37.065  20.467  24.888  1.00  0.00    -0.084 Cl
ENDBRANCH  82  84
ENDBRANCH  76  80
ENDBRANCH  72  74
ENDBRANCH  71  72
ENDBRANCH  70  71
ENDBRANCH  69  70
ENDBRANCH  68  69
ENDBRANCH  67  68
ENDBRANCH  66  67
ENDBRANCH   1  66
TORSDOF 22
ENDMDL
MODEL 2
REMARK VINA RESULT:     -10.9      4.831      9.797
REMARK SMILES O=C(OCCOCCOCCOCCOC(=O)[C@H]1CCCC[C@H]1C(=O)Nc1ccc(Cl)cc1F)c1ccc(-c2c3nc(c(-c4c(F)cccc4F)c4ccc([nH]4)c(-c4c(F)cccc4F)c4nc(c(-c5c(F)cccc5F)c5ccc2[nH]5)C=C4)C=C3)cc1
REMARK SMILES IDX 9 1 8 2 7 3 6 4 5 5 4 6 3 7 2 8 1 9 35 10 36 11 88 12 37 13
REMARK SMILES IDX 87 14 38 15 39 16 40 17 81 18 41 19 86 20 80 21 82 22 42 23
REMARK SMILES IDX 85 24 79 25 78 26 43 28 69 29 52 30 68 31 53 32 56 33 67 34
REMARK SMILES IDX 83 35 54 36 55 37 66 39 84 40 57 41 44 42 45 43 50 44 46 45
REMARK SMILES IDX 47 46 49 47 51 48 48 49 70 50 71 51 76 52 72 53 73 54 75 55
REMARK SMILES IDX 77 56 74 57 58 58 59 59 64 60 60 61 61 62 63 63 65 64 62 65
REMARK SMILES IDX 10 66 11 67 12 68 13 69 14 70 15 71 16 72 17 73 18 74 19 75
REMARK SMILES IDX 23 76 20 77 22 78 21 79 24 80 25 81 26 82 27 84 28 85 33 86
REMARK SMILES IDX 29 87 32 88 34 89 30 90 31 91
REMARK H PARENT 82 27 56 38 26 83
REMARK Flexibility Score: inf
ROOT
ATOM      1  O   UNL A   1      40.935  20.310  27.690  1.00  0.00    -0.377 OA
ENDROOT
BRANCH   1   2
ATOM      2  C   UNL A   1      42.197  19.704  27.428  1.00  0.00     0.188 C 
BRANCH   2   3
ATOM      3  C   UNL A   1      42.237  18.757  26.229  1.00  0.00     0.188 C 
BRANCH   3   4
ATOM      4  O   UNL A   1      42.921  19.337  25.114  1.00  0.00    -0.376 OA
BRANCH   4   5
ATOM      5  C   UNL A   1      44.061  20.130  25.447  1.00  0.00     0.202 C 
BRANCH   5   6
ATOM      6  C   UNL A   1      44.071  21.499  24.767  1.00  0.00     0.261 C 
BRANCH   6   7
ATOM      7  O   UNL A   1      43.735  22.562  25.669  1.00  0.00    -0.460 OA
BRANCH   7   8
ATOM      8  C   UNL A   1      43.965  23.889  25.519  1.00  0.00     0.338 C 
ATOM      9  O   UNL A   1      44.656  24.249  24.565  1.00  0.00    -0.246 OA
BRANCH   8  10
ATOM     10  C   UNL A   1      43.404  24.962  26.406  1.00  0.00     0.060 A 
ATOM     11  C   UNL A   1      43.692  26.329  26.345  1.00  0.00     0.016 A 
ATOM     12  C   UNL A   1      42.454  24.541  27.354  1.00  0.00     0.016 A 
ATOM     13  C   UNL A   1      43.115  27.239  27.226  1.00  0.00     0.010 A 
ATOM     14  C   UNL A   1      41.857  25.445  28.233  1.00  0.00     0.010 A 
ATOM     15  C   UNL A   1      42.214  26.795  28.188  1.00  0.00    -0.014 A 
BRANCH  15  16
ATOM     16  C   UNL A   1      41.799  27.728  29.247  1.00  0.00     0.031 A 
ATOM     17  C   UNL A   1      42.614  27.754  30.504  1.00  0.00     0.074 A 
ATOM     18  C   UNL A   1      40.780  28.581  29.040  1.00  0.00     0.049 A 
ATOM     19  N   UNL A   1      42.392  28.384  31.624  1.00  0.00    -0.248 NA
ATOM     20  C   UNL A   1      43.859  26.963  30.494  1.00  0.00     0.031 C 
ATOM     21  C   UNL A   1      40.013  28.697  27.797  1.00  0.00     0.029 A 
ATOM     22  N   UNL A   1      40.217  29.512  29.871  1.00  0.00    -0.354 N 
ATOM     23  C   UNL A   1      43.442  28.031  32.463  1.00  0.00     0.074 A 
ATOM     24  C   UNL A   1      44.311  27.147  31.724  1.00  0.00     0.031 C 
ATOM     25  C   UNL A   1      39.066  29.637  27.956  1.00  0.00     0.029 A 
ATOM     26  C   UNL A   1      39.122  30.138  29.325  1.00  0.00     0.049 A 
ATOM     27  H   UNL A   1      40.562  29.713  30.771  1.00  0.00     0.167 HD
ATOM     28  C   UNL A   1      43.640  28.408  33.745  1.00  0.00     0.037 A 
ATOM     29  C   UNL A   1      38.237  30.972  29.903  1.00  0.00     0.037 A 
ATOM     30  C   UNL A   1      42.755  29.297  34.444  1.00  0.00     0.049 A 
ATOM     31  C   UNL A   1      38.432  31.302  31.360  1.00  0.00     0.074 A 
ATOM     32  C   UNL A   1      42.824  29.737  35.752  1.00  0.00     0.029 A 
ATOM     33  N   UNL A   1      41.630  29.879  33.877  1.00  0.00    -0.354 N 
ATOM     34  N   UNL A   1      39.401  30.938  32.168  1.00  0.00    -0.248 NA
ATOM     35  C   UNL A   1      37.401  32.133  31.995  1.00  0.00     0.031 C 
ATOM     36  C   UNL A   1      41.710  30.549  35.989  1.00  0.00     0.029 A 
ATOM     37  C   UNL A   1      40.976  30.654  34.815  1.00  0.00     0.049 A 
ATOM     38  H   UNL A   1      41.340  29.758  32.944  1.00  0.00     0.167 HD
ATOM     39  C   UNL A   1      39.103  31.500  33.402  1.00  0.00     0.074 A 
ATOM     40  C   UNL A   1      37.878  32.256  33.226  1.00  0.00     0.031 C 
ATOM     41  C   UNL A   1      39.764  31.396  34.582  1.00  0.00     0.037 A 
BRANCH  28  42
ATOM     42  C   UNL A   1      44.801  27.802  34.474  1.00  0.00     0.057 A 
ATOM     43  C   UNL A   1      46.063  28.406  34.510  1.00  0.00     0.134 A 
ATOM     44  C   UNL A   1      44.648  26.584  35.150  1.00  0.00     0.134 A 
ATOM     45  F   UNL A   1      46.286  29.557  33.857  1.00  0.00    -0.206 F 
ATOM     46  C   UNL A   1      47.135  27.815  35.183  1.00  0.00     0.040 A 
ATOM     47  C   UNL A   1      45.705  25.993  35.843  1.00  0.00     0.040 A 
ATOM     48  F   UNL A   1      43.466  25.948  35.145  1.00  0.00    -0.206 F 
ATOM     49  C   UNL A   1      46.955  26.608  35.858  1.00  0.00     0.006 A 
ENDBRANCH  28  42
BRANCH  29  50
ATOM     50  C   UNL A   1      37.056  31.475  29.150  1.00  0.00     0.057 A 
ATOM     51  C   UNL A   1      37.014  32.775  28.635  1.00  0.00     0.134 A 
ATOM     52  C   UNL A   1      35.917  30.678  28.967  1.00  0.00     0.134 A 
ATOM     53  F   UNL A   1      38.063  33.596  28.791  1.00  0.00    -0.206 F 
ATOM     54  C   UNL A   1      35.877  33.275  27.995  1.00  0.00     0.040 A 
ATOM     55  C   UNL A   1      34.785  31.153  28.301  1.00  0.00     0.040 A 
ATOM     56  F   UNL A   1      35.886  29.422  29.435  1.00  0.00    -0.206 F 
ATOM     57  C   UNL A   1      34.759  32.461  27.824  1.00  0.00     0.006 A 
ENDBRANCH  29  50
BRANCH  41  58
ATOM     58  C   UNL A   1      39.185  32.136  35.748  1.00  0.00     0.057 A 
ATOM     59  C   UNL A   1      39.476  33.486  35.977  1.00  0.00     0.134 A 
ATOM     60  C   UNL A   1      38.282  31.506  36.613  1.00  0.00     0.134 A 
ATOM     61  F   UNL A   1      40.344  34.139  35.189  1.00  0.00    -0.206 F 
ATOM     62  C   UNL A   1      38.900  34.180  37.040  1.00  0.00     0.040 A 
ATOM     63  C   UNL A   1      37.678  32.197  37.661  1.00  0.00     0.040 A 
ATOM     64  F   UNL A   1      37.955  30.216  36.435  1.00  0.00    -0.206 F 
ATOM     65  C   UNL A   1      37.991  33.538  37.879  1.00  0.00     0.006 A 
ENDBRANCH  41  58
ENDBRANCH  15  16
ENDBRANCH   8  10
ENDBRANCH   7   8
ENDBRANCH   6   7
ENDBRANCH   5   6
ENDBRANCH   4   5
ENDBRANCH   3   4
ENDBRANCH   2   3
ENDBRANCH   1   2
BRANCH   1  66
ATOM     66  C   UNL A   1      40.559  21.393  26.847  1.00  0.00     0.188 C 
BRANCH  66  67
ATOM     67  C   UNL A   1      39.568  21.107  25.696  1.00  0.00     0.188 C 
BRANCH  67  68
ATOM     68  O   UNL A   1      38.284  21.707  25.817  1.00  0.00    -0.376 OA
BRANCH  68  69
ATOM     69  C   UNL A   1      38.273  23.119  26.009  1.00  0.00     0.202 C 
BRANCH  69  70
ATOM     70  C   UNL A   1      36.884  23.748  26.165  1.00  0.00     0.261 C 
BRANCH  70  71
ATOM     71  O   UNL A   1      35.875  22.718  26.146  1.00  0.00    -0.463 OA
BRANCH  71  72
ATOM     72  C   UNL A   1      34.630  22.981  26.608  1.00  0.00     0.309 C 
ATOM     73  O   UNL A   1      34.333  22.917  27.795  1.00  0.00    -0.252 OA
BRANCH  72  74
ATOM     74  C   UNL A   1      33.670  23.237  25.422  1.00  0.00     0.111 C 
ATOM     75  C   UNL A   1      34.166  22.373  24.250  1.00  0.00     0.016 C 
ATOM     76  C   UNL A   1      32.109  23.161  25.517  1.00  0.00     0.093 C 
ATOM     77  C   UNL A   1      33.582  20.966  24.302  1.00  0.00     0.001 C 
ATOM     78  C   UNL A   1      31.397  21.827  25.246  1.00  0.00     0.014 C 
ATOM     79  C   UNL A   1      32.068  20.998  24.161  1.00  0.00     0.001 C 
BRANCH  76  80
ATOM     80  C   UNL A   1      31.296  24.028  26.481  1.00  0.00     0.228 C 
ATOM     81  O   UNL A   1      30.894  23.500  27.534  1.00  0.00    -0.274 OA
ATOM     82  N   UNL A   1      30.971  25.342  26.368  1.00  0.00    -0.323 N 
ATOM     83  H   UNL A   1      30.744  25.732  27.243  1.00  0.00     0.170 HD
BRANCH  82  84
ATOM     84  C   UNL A   1      30.874  26.298  25.338  1.00  0.00     0.077 A 
ATOM     85  C   UNL A   1      31.342  27.589  25.633  1.00  0.00     0.031 A 
ATOM     86  C   UNL A   1      30.260  26.120  24.106  1.00  0.00     0.148 A 
ATOM     87  C   UNL A   1      31.117  28.658  24.754  1.00  0.00     0.023 A 
ATOM     88  C   UNL A   1      29.979  27.178  23.244  1.00  0.00     0.062 A 
ATOM     89  F   UNL A   1      29.904  24.912  23.693  1.00  0.00    -0.205 F 
ATOM     90  C   UNL A   1      30.398  28.454  23.579  1.00  0.00     0.044 A 
ATOM     91  Cl  UNL A   1      30.025  29.776  22.549  1.00  0.00    -0.084 Cl
ENDBRANCH  82  84
ENDBRANCH  76  80
ENDBRANCH  72  74
ENDBRANCH  71  72
ENDBRANCH  70  71
ENDBRANCH  69  70
ENDBRANCH  68  69
ENDBRANCH  67  68
ENDBRANCH  66  67
ENDBRANCH   1  66
TORSDOF 22
ENDMDL
MODEL 3
REMARK VINA RESULT:     -10.9      4.707      9.545
REMARK SMILES O=C(OCCOCCOCCOCCOC(=O)[C@H]1CCCC[C@H]1C(=O)Nc1ccc(Cl)cc1F)c1ccc(-c2c3nc(c(-c4c(F)cccc4F)c4ccc([nH]4)c(-c4c(F)cccc4F)c4nc(c(-c5c(F)cccc5F)c5ccc2[nH]5)C=C4)C=C3)cc1
REMARK SMILES IDX 9 1 8 2 7 3 6 4 5 5 4 6 3 7 2 8 1 9 35 10 36 11 88 12 37 13
REMARK SMILES IDX 87 14 38 15 39 16 40 17 81 18 41 19 86 20 80 21 82 22 42 23
REMARK SMILES IDX 85 24 79 25 78 26 43 28 69 29 52 30 68 31 53 32 56 33 67 34
REMARK SMILES IDX 83 35 54 36 55 37 66 39 84 40 57 41 44 42 45 43 50 44 46 45
REMARK SMILES IDX 47 46 49 47 51 48 48 49 70 50 71 51 76 52 72 53 73 54 75 55
REMARK SMILES IDX 77 56 74 57 58 58 59 59 64 60 60 61 61 62 63 63 65 64 62 65
REMARK SMILES IDX 10 66 11 67 12 68 13 69 14 70 15 71 16 72 17 73 18 74 19 75
REMARK SMILES IDX 23 76 20 77 22 78 21 79 24 80 25 81 26 82 27 84 28 85 33 86
REMARK SMILES IDX 29 87 32 88 34 89 30 90 31 91
REMARK H PARENT 82 27 56 38 26 83
REMARK Flexibility Score: inf
ROOT
ATOM      1  O   UNL A   1      40.786  20.189  27.751  1.00  0.00    -0.377 OA
ENDROOT
BRANCH   1   2
ATOM      2  C   UNL A   1      42.075  19.746  27.337  1.00  0.00     0.188 C 
BRANCH   2   3
ATOM      3  C   UNL A   1      42.095  18.823  26.120  1.00  0.00     0.188 C 
BRANCH   3   4
ATOM      4  O   UNL A   1      42.843  19.384  25.037  1.00  0.00    -0.376 OA
BRANCH   4   5
ATOM      5  C   UNL A   1      43.972  20.170  25.422  1.00  0.00     0.202 C 
BRANCH   5   6
ATOM      6  C   UNL A   1      44.001  21.554  24.774  1.00  0.00     0.261 C 
BRANCH   6   7
ATOM      7  O   UNL A   1      43.738  22.605  25.714  1.00  0.00    -0.460 OA
BRANCH   7   8
ATOM      8  C   UNL A   1      43.961  23.934  25.567  1.00  0.00     0.338 C 
ATOM      9  O   UNL A   1      44.656  24.298  24.618  1.00  0.00    -0.246 OA
BRANCH   8  10
ATOM     10  C   UNL A   1      43.387  25.003  26.448  1.00  0.00     0.060 A 
ATOM     11  C   UNL A   1      43.659  26.373  26.384  1.00  0.00     0.016 A 
ATOM     12  C   UNL A   1      42.439  24.574  27.396  1.00  0.00     0.016 A 
ATOM     13  C   UNL A   1      43.071  27.279  27.261  1.00  0.00     0.010 A 
ATOM     14  C   UNL A   1      41.830  25.474  28.272  1.00  0.00     0.010 A 
ATOM     15  C   UNL A   1      42.173  26.828  28.223  1.00  0.00    -0.014 A 
BRANCH  15  16
ATOM     16  C   UNL A   1      41.745  27.760  29.278  1.00  0.00     0.031 A 
ATOM     17  C   UNL A   1      42.549  27.787  30.544  1.00  0.00     0.074 A 
ATOM     18  C   UNL A   1      40.727  28.610  29.062  1.00  0.00     0.049 A 
ATOM     19  N   UNL A   1      42.314  28.416  31.661  1.00  0.00    -0.248 NA
ATOM     20  C   UNL A   1      43.795  26.999  30.545  1.00  0.00     0.031 C 
ATOM     21  C   UNL A   1      39.972  28.726  27.812  1.00  0.00     0.029 A 
ATOM     22  N   UNL A   1      40.154  29.539  29.888  1.00  0.00    -0.354 N 
ATOM     23  C   UNL A   1      43.356  28.065  32.510  1.00  0.00     0.074 A 
ATOM     24  C   UNL A   1      44.234  27.182  31.779  1.00  0.00     0.031 C 
ATOM     25  C   UNL A   1      39.021  29.664  27.962  1.00  0.00     0.029 A 
ATOM     26  C   UNL A   1      39.062  30.163  29.332  1.00  0.00     0.049 A 
ATOM     27  H   UNL A   1      40.490  29.741  30.791  1.00  0.00     0.167 HD
ATOM     28  C   UNL A   1      43.542  28.441  33.795  1.00  0.00     0.037 A 
ATOM     29  C   UNL A   1      38.170  30.996  29.901  1.00  0.00     0.037 A 
ATOM     30  C   UNL A   1      42.648  29.328  34.485  1.00  0.00     0.049 A 
ATOM     31  C   UNL A   1      38.350  31.326  31.360  1.00  0.00     0.074 A 
ATOM     32  C   UNL A   1      42.703  29.768  35.794  1.00  0.00     0.029 A 
ATOM     33  N   UNL A   1      41.527  29.908  33.907  1.00  0.00    -0.354 N 
ATOM     34  N   UNL A   1      39.312  30.963  32.178  1.00  0.00    -0.248 NA
ATOM     35  C   UNL A   1      37.312  32.154  31.985  1.00  0.00     0.031 C 
ATOM     36  C   UNL A   1      41.585  30.577  36.021  1.00  0.00     0.029 A 
ATOM     37  C   UNL A   1      40.863  30.681  34.840  1.00  0.00     0.049 A 
ATOM     38  H   UNL A   1      41.246  29.787  32.971  1.00  0.00     0.167 HD
ATOM     39  C   UNL A   1      39.001  31.524  33.409  1.00  0.00     0.074 A 
ATOM     40  C   UNL A   1      37.776  32.277  33.221  1.00  0.00     0.031 C 
ATOM     41  C   UNL A   1      39.651  31.421  34.595  1.00  0.00     0.037 A 
BRANCH  28  42
ATOM     42  C   UNL A   1      44.697  27.838  34.534  1.00  0.00     0.057 A 
ATOM     43  C   UNL A   1      44.646  26.553  35.088  1.00  0.00     0.134 A 
ATOM     44  C   UNL A   1      45.883  28.565  34.697  1.00  0.00     0.134 A 
ATOM     45  F   UNL A   1      43.527  25.817  34.996  1.00  0.00    -0.206 F 
ATOM     46  C   UNL A   1      45.729  26.017  35.787  1.00  0.00     0.040 A 
ATOM     47  C   UNL A   1      46.981  28.033  35.375  1.00  0.00     0.040 A 
ATOM     48  F   UNL A   1      45.994  29.806  34.200  1.00  0.00    -0.206 F 
ATOM     49  C   UNL A   1      46.904  26.755  35.926  1.00  0.00     0.006 A 
ENDBRANCH  28  42
BRANCH  29  50
ATOM     50  C   UNL A   1      36.996  31.496  29.137  1.00  0.00     0.057 A 
ATOM     51  C   UNL A   1      36.947  32.804  28.642  1.00  0.00     0.134 A 
ATOM     52  C   UNL A   1      35.869  30.689  28.924  1.00  0.00     0.134 A 
ATOM     53  F   UNL A   1      37.983  33.635  28.827  1.00  0.00    -0.206 F 
ATOM     54  C   UNL A   1      35.813  33.300  27.991  1.00  0.00     0.040 A 
ATOM     55  C   UNL A   1      34.743  31.162  28.247  1.00  0.00     0.040 A 
ATOM     56  F   UNL A   1      35.845  29.426  29.372  1.00  0.00    -0.206 F 
ATOM     57  C   UNL A   1      34.708  32.476  27.789  1.00  0.00     0.006 A 
ENDBRANCH  29  50
BRANCH  41  58
ATOM     58  C   UNL A   1      39.059  32.158  35.756  1.00  0.00     0.057 A 
ATOM     59  C   UNL A   1      38.220  31.520  36.678  1.00  0.00     0.134 A 
ATOM     60  C   UNL A   1      39.381  33.502  35.985  1.00  0.00     0.134 A 
ATOM     61  F   UNL A   1      37.867  30.238  36.504  1.00  0.00    -0.206 F 
ATOM     62  C   UNL A   1      37.708  32.202  37.781  1.00  0.00     0.040 A 
ATOM     63  C   UNL A   1      38.897  34.185  37.098  1.00  0.00     0.040 A 
ATOM     64  F   UNL A   1      40.190  34.161  35.141  1.00  0.00    -0.206 F 
ATOM     65  C   UNL A   1      38.054  33.535  37.999  1.00  0.00     0.006 A 
ENDBRANCH  41  58
ENDBRANCH  15  16
ENDBRANCH   8  10
ENDBRANCH   7   8
ENDBRANCH   6   7
ENDBRANCH   5   6
ENDBRANCH   4   5
ENDBRANCH   3   4
ENDBRANCH   2   3
ENDBRANCH   1   2
BRANCH   1  66
ATOM     66  C   UNL A   1      40.479  21.559  27.527  1.00  0.00     0.188 C 
BRANCH  66  67
ATOM     67  C   UNL A   1      39.977  21.972  26.125  1.00  0.00     0.188 C 
BRANCH  67  68
ATOM     68  O   UNL A   1      38.579  22.205  26.007  1.00  0.00    -0.376 OA
BRANCH  68  69
ATOM     69  C   UNL A   1      38.159  23.558  26.161  1.00  0.00     0.202 C 
BRANCH  69  70
ATOM     70  C   UNL A   1      36.723  23.853  25.713  1.00  0.00     0.261 C 
BRANCH  70  71
ATOM     71  O   UNL A   1      36.527  23.394  24.360  1.00  0.00    -0.463 OA
BRANCH  71  72
ATOM     72  C   UNL A   1      35.288  23.405  23.814  1.00  0.00     0.309 C 
ATOM     73  O   UNL A   1      35.030  22.876  22.739  1.00  0.00    -0.252 OA
BRANCH  72  74
ATOM     74  C   UNL A   1      34.338  24.266  24.679  1.00  0.00     0.111 C 
ATOM     75  C   UNL A   1      33.785  25.375  23.769  1.00  0.00     0.016 C 
ATOM     76  C   UNL A   1      33.189  23.687  25.572  1.00  0.00     0.093 C 
ATOM     77  C   UNL A   1      32.540  24.917  23.017  1.00  0.00     0.001 C 
ATOM     78  C   UNL A   1      31.785  23.506  24.977  1.00  0.00     0.014 C 
ATOM     79  C   UNL A   1      31.410  24.592  23.981  1.00  0.00     0.001 C 
BRANCH  76  80
ATOM     80  C   UNL A   1      33.443  22.676  26.693  1.00  0.00     0.228 C 
ATOM     81  O   UNL A   1      33.620  23.121  27.842  1.00  0.00    -0.274 OA
ATOM     82  N   UNL A   1      33.464  21.320  26.620  1.00  0.00    -0.323 N 
ATOM     83  H   UNL A   1      33.317  20.910  27.503  1.00  0.00     0.170 HD
BRANCH  82  84
ATOM     84  C   UNL A   1      33.639  20.341  25.623  1.00  0.00     0.077 A 
ATOM     85  C   UNL A   1      32.481  19.685  25.176  1.00  0.00     0.031 A 
ATOM     86  C   UNL A   1      34.851  19.883  25.122  1.00  0.00     0.148 A 
ATOM     87  C   UNL A   1      32.562  18.567  24.333  1.00  0.00     0.023 A 
ATOM     88  C   UNL A   1      34.956  18.744  24.328  1.00  0.00     0.062 A 
ATOM     89  F   UNL A   1      35.980  20.524  25.389  1.00  0.00    -0.205 F 
ATOM     90  C   UNL A   1      33.806  18.077  23.946  1.00  0.00     0.044 A 
ATOM     91  Cl  UNL A   1      33.919  16.647  23.002  1.00  0.00    -0.084 Cl
ENDBRANCH  82  84
ENDBRANCH  76  80
ENDBRANCH  72  74
ENDBRANCH  71  72
ENDBRANCH  70  71
ENDBRANCH  69  70
ENDBRANCH  68  69
ENDBRANCH  67  68
ENDBRANCH  66  67
ENDBRANCH   1  66
TORSDOF 22
ENDMDL
