MODEL 1
REMARK VINA RESULT:     -10.0      0.000      0.000
REMARK SMILES CC(C)C[NH2+][C@@H](CC(=O)Nc1cccc(Cl)c1)C(=O)OCCOCCOCCOCCOC(=O)c1ccc(-c2c3nc(c(-c4c(F)cccc4F)c4ccc([nH]4)c(-c4c(F)cccc4F)c4nc(c(-c5c(F)cccc5F)c5ccc2[nH]5)C=C4)C=C3)cc1
REMARK SMILES IDX 25 1 24 2 23 3 22 4 21 5 20 6 18 7 19 8 6 9 5 10 4 13 2 14
REMARK SMILES IDX 1 15 3 16 7 17 8 18 9 19 10 20 11 22 12 23 17 24 13 25 15 26
REMARK SMILES IDX 14 27 16 28 26 29 27 30 28 31 29 32 30 33 31 34 32 35 33 36
REMARK SMILES IDX 34 37 35 38 36 39 88 40 37 41 87 42 38 43 39 44 40 45 81 46
REMARK SMILES IDX 41 47 86 48 80 49 82 50 42 51 85 52 79 53 78 54 43 56 69 57
REMARK SMILES IDX 52 58 68 59 53 60 56 61 67 62 83 63 54 64 55 65 66 67 84 68
REMARK SMILES IDX 57 69 44 70 45 71 50 72 46 73 47 74 49 75 51 76 48 77 70 78
REMARK SMILES IDX 71 79 76 80 72 81 73 82 75 83 77 84 74 85 58 86 59 87 64 88
REMARK SMILES IDX 60 89 61 90 63 91 65 92 62 93
REMARK H PARENT 5 11 5 12 10 21 82 55 56 66
REMARK Flexibility Score: inf
ROOT
ATOM      1  C   UNL A   1      33.966  34.148  27.718  1.00  0.00     0.188 C 
ENDROOT
BRANCH   1   2
ATOM      2  C   UNL A   1      34.077  32.682  28.151  1.00  0.00     0.188 C 
BRANCH   2   3
ATOM      3  O   UNL A   1      34.626  31.706  27.277  1.00  0.00    -0.376 OA
BRANCH   3   4
ATOM      4  C   UNL A   1      34.627  30.334  27.635  1.00  0.00     0.202 C 
BRANCH   4   5
ATOM      5  C   UNL A   1      33.553  29.353  27.128  1.00  0.00     0.261 C 
BRANCH   5   6
ATOM      6  O   UNL A   1      33.920  28.444  26.078  1.00  0.00    -0.459 OA
BRANCH   6   7
ATOM      7  C   UNL A   1      32.899  27.943  25.322  1.00  0.00     0.365 C 
ATOM      8  O   UNL A   1      31.939  28.592  24.925  1.00  0.00    -0.245 OA
BRANCH   7   9
ATOM      9  C   UNL A   1      33.055  26.418  25.097  1.00  0.00     0.302 C 
BRANCH   9  10
ATOM     10  N   UNL A   1      31.737  25.769  24.975  1.00  0.00    -0.334 N 
ATOM     11  H   UNL A   1      31.049  26.490  24.757  1.00  0.00     0.347 HD
ATOM     12  H   UNL A   1      31.833  25.065  24.242  1.00  0.00     0.347 HD
BRANCH  10  13
ATOM     13  C   UNL A   1      31.283  25.053  26.174  1.00  0.00     0.264 C 
BRANCH  13  14
ATOM     14  C   UNL A   1      31.666  23.347  26.613  1.00  0.00     0.038 C 
ATOM     15  C   UNL A   1      33.413  22.470  27.616  1.00  0.00     0.013 C 
ATOM     16  C   UNL A   1      29.958  23.065  26.965  1.00  0.00     0.013 C 
ENDBRANCH  13  14
ENDBRANCH  10  13
ENDBRANCH   9  10
BRANCH   9  17
ATOM     17  C   UNL A   1      33.980  26.199  23.902  1.00  0.00     0.177 C 
BRANCH  17  18
ATOM     18  C   UNL A   1      33.356  25.562  22.669  1.00  0.00     0.231 C 
ATOM     19  O   UNL A   1      32.886  26.288  21.787  1.00  0.00    -0.274 OA
ATOM     20  N   UNL A   1      33.358  24.213  22.440  1.00  0.00    -0.326 N 
ATOM     21  H   UNL A   1      33.202  23.954  21.504  1.00  0.00     0.169 HD
BRANCH  20  22
ATOM     22  C   UNL A   1      33.546  23.139  23.322  1.00  0.00     0.042 A 
ATOM     23  C   UNL A   1      32.257  21.867  23.441  1.00  0.00     0.026 A 
ATOM     24  C   UNL A   1      35.191  22.804  23.975  1.00  0.00     0.046 A 
ATOM     25  C   UNL A   1      32.601  20.265  24.195  1.00  0.00     0.004 A 
ATOM     26  C   UNL A   1      35.547  21.182  24.675  1.00  0.00     0.043 A 
ATOM     27  C   UNL A   1      34.239  19.942  24.857  1.00  0.00     0.020 A 
ATOM     28  Cl  UNL A   1      37.180  20.734  25.009  1.00  0.00    -0.084 Cl
ENDBRANCH  20  22
ENDBRANCH  17  18
ENDBRANCH   9  17
ENDBRANCH   7   9
ENDBRANCH   6   7
ENDBRANCH   5   6
ENDBRANCH   4   5
ENDBRANCH   3   4
ENDBRANCH   2   3
ENDBRANCH   1   2
BRANCH   1  29
ATOM     29  O   UNL A   1      34.234  35.101  28.732  1.00  0.00    -0.377 OA
BRANCH  29  30
ATOM     30  C   UNL A   1      33.118  35.850  29.197  1.00  0.00     0.188 C 
BRANCH  30  31
ATOM     31  C   UNL A   1      33.025  36.112  30.714  1.00  0.00     0.188 C 
BRANCH  31  32
ATOM     32  O   UNL A   1      33.764  35.193  31.503  1.00  0.00    -0.376 OA
BRANCH  32  33
ATOM     33  C   UNL A   1      34.572  35.660  32.572  1.00  0.00     0.202 C 
BRANCH  33  34
ATOM     34  C   UNL A   1      35.362  34.663  33.442  1.00  0.00     0.261 C 
BRANCH  34  35
ATOM     35  O   UNL A   1      36.237  33.745  32.772  1.00  0.00    -0.460 OA
BRANCH  35  36
ATOM     36  C   UNL A   1      35.721  32.571  32.353  1.00  0.00     0.338 C 
ATOM     37  O   UNL A   1      34.551  32.240  32.369  1.00  0.00    -0.246 OA
BRANCH  36  38
ATOM     38  C   UNL A   1      36.805  31.811  31.689  1.00  0.00     0.060 A 
ATOM     39  C   UNL A   1      37.731  31.121  32.482  1.00  0.00     0.016 A 
ATOM     40  C   UNL A   1      36.912  31.781  30.297  1.00  0.00     0.016 A 
ATOM     41  C   UNL A   1      38.787  30.428  31.887  1.00  0.00     0.010 A 
ATOM     42  C   UNL A   1      37.985  31.107  29.703  1.00  0.00     0.010 A 
ATOM     43  C   UNL A   1      38.945  30.451  30.496  1.00  0.00    -0.014 A 
BRANCH  43  44
ATOM     44  C   UNL A   1      40.193  29.930  29.885  1.00  0.00     0.031 A 
ATOM     45  C   UNL A   1      41.363  30.863  29.720  1.00  0.00     0.074 A 
ATOM     46  C   UNL A   1      40.298  28.646  29.498  1.00  0.00     0.049 A 
ATOM     47  N   UNL A   1      42.525  30.650  29.158  1.00  0.00    -0.248 NA
ATOM     48  C   UNL A   1      41.195  32.220  30.261  1.00  0.00     0.031 C 
ATOM     49  C   UNL A   1      39.259  27.631  29.649  1.00  0.00     0.029 A 
ATOM     50  N   UNL A   1      41.333  27.983  28.887  1.00  0.00    -0.354 N 
ATOM     51  C   UNL A   1      43.222  31.846  29.269  1.00  0.00     0.074 A 
ATOM     52  C   UNL A   1      42.342  32.789  29.925  1.00  0.00     0.031 C 
ATOM     53  C   UNL A   1      39.703  26.474  29.128  1.00  0.00     0.029 A 
ATOM     54  C   UNL A   1      41.040  26.678  28.573  1.00  0.00     0.049 A 
ATOM     55  H   UNL A   1      42.202  28.401  28.692  1.00  0.00     0.167 HD
ATOM     56  C   UNL A   1      44.484  32.131  28.869  1.00  0.00     0.037 A 
ATOM     57  C   UNL A   1      41.756  25.764  27.889  1.00  0.00     0.037 A 
ATOM     58  C   UNL A   1      45.355  31.191  28.211  1.00  0.00     0.049 A 
ATOM     59  C   UNL A   1      43.122  26.134  27.369  1.00  0.00     0.074 A 
ATOM     60  C   UNL A   1      46.658  31.378  27.784  1.00  0.00     0.029 A 
ATOM     61  N   UNL A   1      45.006  29.892  27.872  1.00  0.00    -0.354 N 
ATOM     62  N   UNL A   1      43.785  27.257  27.503  1.00  0.00    -0.248 NA
ATOM     63  C   UNL A   1      43.839  25.106  26.600  1.00  0.00     0.031 C 
ATOM     64  C   UNL A   1      47.073  30.216  27.125  1.00  0.00     0.029 A 
ATOM     65  C   UNL A   1      46.055  29.279  27.206  1.00  0.00     0.049 A 
ATOM     66  H   UNL A   1      44.142  29.469  28.076  1.00  0.00     0.167 HD
ATOM     67  C   UNL A   1      45.004  27.061  26.862  1.00  0.00     0.074 A 
ATOM     68  C   UNL A   1      44.996  25.705  26.357  1.00  0.00     0.031 C 
ATOM     69  C   UNL A   1      46.037  27.927  26.706  1.00  0.00     0.037 A 
BRANCH  56  70
ATOM     70  C   UNL A   1      44.987  33.528  29.096  1.00  0.00     0.057 A 
ATOM     71  C   UNL A   1      44.790  34.554  28.163  1.00  0.00     0.134 A 
ATOM     72  C   UNL A   1      45.650  33.860  30.287  1.00  0.00     0.134 A 
ATOM     73  F   UNL A   1      44.176  34.303  26.997  1.00  0.00    -0.206 F 
ATOM     74  C   UNL A   1      45.256  35.850  28.392  1.00  0.00     0.040 A 
ATOM     75  C   UNL A   1      46.092  35.158  30.540  1.00  0.00     0.040 A 
ATOM     76  F   UNL A   1      45.868  32.929  31.227  1.00  0.00    -0.206 F 
ATOM     77  C   UNL A   1      45.902  36.157  29.587  1.00  0.00     0.006 A 
ENDBRANCH  56  70
BRANCH  57  78
ATOM     78  C   UNL A   1      41.191  24.415  27.628  1.00  0.00     0.057 A 
ATOM     79  C   UNL A   1      40.173  24.221  26.685  1.00  0.00     0.134 A 
ATOM     80  C   UNL A   1      41.632  23.290  28.336  1.00  0.00     0.134 A 
ATOM     81  F   UNL A   1      39.689  25.263  25.994  1.00  0.00    -0.206 F 
ATOM     82  C   UNL A   1      39.602  22.966  26.472  1.00  0.00     0.040 A 
ATOM     83  C   UNL A   1      41.091  22.022  28.111  1.00  0.00     0.040 A 
ATOM     84  F   UNL A   1      42.603  23.404  29.255  1.00  0.00    -0.206 F 
ATOM     85  C   UNL A   1      40.065  21.861  27.182  1.00  0.00     0.006 A 
ENDBRANCH  57  78
BRANCH  69  86
ATOM     86  C   UNL A   1      47.258  27.427  25.985  1.00  0.00     0.057 A 
ATOM     87  C   UNL A   1      47.433  27.608  24.607  1.00  0.00     0.134 A 
ATOM     88  C   UNL A   1      48.291  26.789  26.686  1.00  0.00     0.134 A 
ATOM     89  F   UNL A   1      46.480  28.201  23.871  1.00  0.00    -0.206 F 
ATOM     90  C   UNL A   1      48.576  27.148  23.948  1.00  0.00     0.040 A 
ATOM     91  C   UNL A   1      49.451  26.355  26.046  1.00  0.00     0.040 A 
ATOM     92  F   UNL A   1      48.195  26.592  28.010  1.00  0.00    -0.206 F 
ATOM     93  C   UNL A   1      49.593  26.527  24.670  1.00  0.00     0.006 A 
ENDBRANCH  69  86
ENDBRANCH  43  44
ENDBRANCH  36  38
ENDBRANCH  35  36
ENDBRANCH  34  35
ENDBRANCH  33  34
ENDBRANCH  32  33
ENDBRANCH  31  32
ENDBRANCH  30  31
ENDBRANCH  29  30
ENDBRANCH   1  29
TORSDOF 26
ENDMDL
MODEL 2
REMARK VINA RESULT:      -9.7      2.040      3.348
REMARK SMILES CC(C)C[NH2+][C@@H](CC(=O)Nc1cccc(Cl)c1)C(=O)OCCOCCOCCOCCOC(=O)c1ccc(-c2c3nc(c(-c4c(F)cccc4F)c4ccc([nH]4)c(-c4c(F)cccc4F)c4nc(c(-c5c(F)cccc5F)c5ccc2[nH]5)C=C4)C=C3)cc1
REMARK SMILES IDX 25 1 24 2 23 3 22 4 21 5 20 6 18 7 19 8 6 9 5 10 4 13 2 14
REMARK SMILES IDX 1 15 3 16 7 17 8 18 9 19 10 20 11 22 12 23 17 24 13 25 15 26
REMARK SMILES IDX 14 27 16 28 26 29 27 30 28 31 29 32 30 33 31 34 32 35 33 36
REMARK SMILES IDX 34 37 35 38 36 39 88 40 37 41 87 42 38 43 39 44 40 45 81 46
REMARK SMILES IDX 41 47 86 48 80 49 82 50 42 51 85 52 79 53 78 54 43 56 69 57
REMARK SMILES IDX 52 58 68 59 53 60 56 61 67 62 83 63 54 64 55 65 66 67 84 68
REMARK SMILES IDX 57 69 44 70 45 71 50 72 46 73 47 74 49 75 51 76 48 77 70 78
REMARK SMILES IDX 71 79 76 80 72 81 73 82 75 83 77 84 74 85 58 86 59 87 64 88
REMARK SMILES IDX 60 89 61 90 63 91 65 92 62 93
REMARK H PARENT 5 11 5 12 10 21 82 55 56 66
REMARK Flexibility Score: inf
ROOT
ATOM      1  C   UNL A   1      33.828  33.852  27.931  1.00  0.00     0.188 C 
ENDROOT
BRANCH   1   2
ATOM      2  C   UNL A   1      33.764  32.354  28.247  1.00  0.00     0.188 C 
BRANCH   2   3
ATOM      3  O   UNL A   1      34.294  31.397  27.342  1.00  0.00    -0.376 OA
BRANCH   3   4
ATOM      4  C   UNL A   1      34.435  30.038  27.725  1.00  0.00     0.202 C 
BRANCH   4   5
ATOM      5  C   UNL A   1      34.790  28.933  26.712  1.00  0.00     0.261 C 
BRANCH   5   6
ATOM      6  O   UNL A   1      33.852  28.666  25.658  1.00  0.00    -0.459 OA
BRANCH   6   7
ATOM      7  C   UNL A   1      33.329  27.405  25.614  1.00  0.00     0.365 C 
ATOM      8  O   UNL A   1      32.668  26.890  26.508  1.00  0.00    -0.245 OA
BRANCH   7   9
ATOM      9  C   UNL A   1      33.750  26.661  24.321  1.00  0.00     0.302 C 
BRANCH   9  10
ATOM     10  N   UNL A   1      33.899  25.216  24.574  1.00  0.00    -0.334 N 
ATOM     11  H   UNL A   1      33.101  24.909  25.131  1.00  0.00     0.347 HD
ATOM     12  H   UNL A   1      33.948  24.771  23.657  1.00  0.00     0.347 HD
BRANCH  10  13
ATOM     13  C   UNL A   1      35.126  24.832  25.283  1.00  0.00     0.264 C 
BRANCH  13  14
ATOM     14  C   UNL A   1      35.676  23.152  25.639  1.00  0.00     0.038 C 
ATOM     15  C   UNL A   1      34.640  21.461  26.584  1.00  0.00     0.013 C 
ATOM     16  C   UNL A   1      36.611  23.151  24.140  1.00  0.00     0.013 C 
ENDBRANCH  13  14
ENDBRANCH  10  13
ENDBRANCH   9  10
BRANCH   9  17
ATOM     17  C   UNL A   1      32.755  27.011  23.218  1.00  0.00     0.177 C 
BRANCH  17  18
ATOM     18  C   UNL A   1      31.391  26.341  23.298  1.00  0.00     0.231 C 
ATOM     19  O   UNL A   1      31.315  25.112  23.207  1.00  0.00    -0.274 OA
ATOM     20  N   UNL A   1      30.233  27.027  23.552  1.00  0.00    -0.326 N 
ATOM     21  H   UNL A   1      29.487  26.471  23.870  1.00  0.00     0.169 HD
BRANCH  20  22
ATOM     22  C   UNL A   1      29.938  28.393  23.433  1.00  0.00     0.042 A 
ATOM     23  C   UNL A   1      28.394  28.887  22.618  1.00  0.00     0.026 A 
ATOM     24  C   UNL A   1      30.836  29.586  24.441  1.00  0.00     0.046 A 
ATOM     25  C   UNL A   1      27.737  30.555  22.810  1.00  0.00     0.004 A 
ATOM     26  C   UNL A   1      30.146  31.234  24.677  1.00  0.00     0.043 A 
ATOM     27  C   UNL A   1      28.644  31.745  23.804  1.00  0.00     0.020 A 
ATOM     28  Cl  UNL A   1      30.814  32.275  25.880  1.00  0.00    -0.084 Cl
ENDBRANCH  20  22
ENDBRANCH  17  18
ENDBRANCH   9  17
ENDBRANCH   7   9
ENDBRANCH   6   7
ENDBRANCH   5   6
ENDBRANCH   4   5
ENDBRANCH   3   4
ENDBRANCH   2   3
ENDBRANCH   1   2
BRANCH   1  29
ATOM     29  O   UNL A   1      34.149  34.690  29.027  1.00  0.00    -0.377 OA
BRANCH  29  30
ATOM     30  C   UNL A   1      33.260  35.774  29.267  1.00  0.00     0.188 C 
BRANCH  30  31
ATOM     31  C   UNL A   1      33.068  36.221  30.730  1.00  0.00     0.188 C 
BRANCH  31  32
ATOM     32  O   UNL A   1      33.446  35.242  31.686  1.00  0.00    -0.376 OA
BRANCH  32  33
ATOM     33  C   UNL A   1      34.292  35.592  32.770  1.00  0.00     0.202 C 
BRANCH  33  34
ATOM     34  C   UNL A   1      35.261  34.554  33.366  1.00  0.00     0.261 C 
BRANCH  34  35
ATOM     35  O   UNL A   1      36.029  33.759  32.451  1.00  0.00    -0.460 OA
BRANCH  35  36
ATOM     36  C   UNL A   1      35.532  32.560  32.084  1.00  0.00     0.338 C 
ATOM     37  O   UNL A   1      34.365  32.220  32.089  1.00  0.00    -0.246 OA
BRANCH  36  38
ATOM     38  C   UNL A   1      36.638  31.774  31.488  1.00  0.00     0.060 A 
ATOM     39  C   UNL A   1      37.598  31.208  32.337  1.00  0.00     0.016 A 
ATOM     40  C   UNL A   1      36.732  31.601  30.106  1.00  0.00     0.016 A 
ATOM     41  C   UNL A   1      38.674  30.495  31.804  1.00  0.00     0.010 A 
ATOM     42  C   UNL A   1      37.824  30.908  29.572  1.00  0.00     0.010 A 
ATOM     43  C   UNL A   1      38.816  30.376  30.416  1.00  0.00    -0.014 A 
BRANCH  43  44
ATOM     44  C   UNL A   1      40.077  29.840  29.846  1.00  0.00     0.031 A 
ATOM     45  C   UNL A   1      41.260  30.761  29.711  1.00  0.00     0.074 A 
ATOM     46  C   UNL A   1      40.181  28.553  29.471  1.00  0.00     0.049 A 
ATOM     47  N   UNL A   1      42.436  30.533  29.185  1.00  0.00    -0.248 NA
ATOM     48  C   UNL A   1      41.089  32.123  30.239  1.00  0.00     0.031 C 
ATOM     49  C   UNL A   1      39.129  27.548  29.596  1.00  0.00     0.029 A 
ATOM     50  N   UNL A   1      41.228  27.876  28.895  1.00  0.00    -0.354 N 
ATOM     51  C   UNL A   1      43.141  31.724  29.310  1.00  0.00     0.074 A 
ATOM     52  C   UNL A   1      42.251  32.680  29.933  1.00  0.00     0.031 C 
ATOM     53  C   UNL A   1      39.578  26.383  29.097  1.00  0.00     0.029 A 
ATOM     54  C   UNL A   1      40.932  26.572  28.581  1.00  0.00     0.049 A 
ATOM     55  H   UNL A   1      42.107  28.285  28.724  1.00  0.00     0.167 HD
ATOM     56  C   UNL A   1      44.417  31.995  28.946  1.00  0.00     0.037 A 
ATOM     57  C   UNL A   1      41.661  25.647  27.924  1.00  0.00     0.037 A 
ATOM     58  C   UNL A   1      45.299  31.043  28.320  1.00  0.00     0.049 A 
ATOM     59  C   UNL A   1      43.045  26.001  27.442  1.00  0.00     0.074 A 
ATOM     60  C   UNL A   1      46.616  31.215  27.931  1.00  0.00     0.029 A 
ATOM     61  N   UNL A   1      44.948  29.745  27.979  1.00  0.00    -0.354 N 
ATOM     62  N   UNL A   1      43.714  27.119  27.590  1.00  0.00    -0.248 NA
ATOM     63  C   UNL A   1      43.775  24.961  26.702  1.00  0.00     0.031 C 
ATOM     64  C   UNL A   1      47.040  30.045  27.293  1.00  0.00     0.029 A 
ATOM     65  C   UNL A   1      46.011  29.118  27.348  1.00  0.00     0.049 A 
ATOM     66  H   UNL A   1      44.074  29.331  28.160  1.00  0.00     0.167 HD
ATOM     67  C   UNL A   1      44.950  26.908  26.987  1.00  0.00     0.074 A 
ATOM     68  C   UNL A   1      44.945  25.548  26.490  1.00  0.00     0.031 C 
ATOM     69  C   UNL A   1      45.995  27.763  26.857  1.00  0.00     0.037 A 
BRANCH  56  70
ATOM     70  C   UNL A   1      44.926  33.389  29.180  1.00  0.00     0.057 A 
ATOM     71  C   UNL A   1      44.751  34.415  28.242  1.00  0.00     0.134 A 
ATOM     72  C   UNL A   1      45.572  33.717  30.380  1.00  0.00     0.134 A 
ATOM     73  F   UNL A   1      44.154  34.166  27.067  1.00  0.00    -0.206 F 
ATOM     74  C   UNL A   1      45.222  35.708  28.477  1.00  0.00     0.040 A 
ATOM     75  C   UNL A   1      46.019  35.013  30.640  1.00  0.00     0.040 A 
ATOM     76  F   UNL A   1      45.768  32.786  31.325  1.00  0.00    -0.206 F 
ATOM     77  C   UNL A   1      45.851  36.012  29.682  1.00  0.00     0.006 A 
ENDBRANCH  56  70
BRANCH  57  78
ATOM     78  C   UNL A   1      41.091  24.301  27.654  1.00  0.00     0.057 A 
ATOM     79  C   UNL A   1      41.530  23.170  28.354  1.00  0.00     0.134 A 
ATOM     80  C   UNL A   1      40.116  24.107  26.667  1.00  0.00     0.134 A 
ATOM     81  F   UNL A   1      42.481  23.286  29.292  1.00  0.00    -0.206 F 
ATOM     82  C   UNL A   1      41.038  21.896  28.069  1.00  0.00     0.040 A 
ATOM     83  C   UNL A   1      39.592  22.842  26.393  1.00  0.00     0.040 A 
ATOM     84  F   UNL A   1      39.652  25.146  25.958  1.00  0.00    -0.206 F 
ATOM     85  C   UNL A   1      40.061  21.731  27.090  1.00  0.00     0.006 A 
ENDBRANCH  57  78
BRANCH  69  86
ATOM     86  C   UNL A   1      47.232  27.247  26.176  1.00  0.00     0.057 A 
ATOM     87  C   UNL A   1      47.436  27.390  24.797  1.00  0.00     0.134 A 
ATOM     88  C   UNL A   1      48.252  26.633  26.916  1.00  0.00     0.134 A 
ATOM     89  F   UNL A   1      46.497  27.958  24.025  1.00  0.00    -0.206 F 
ATOM     90  C   UNL A   1      48.594  26.916  24.175  1.00  0.00     0.040 A 
ATOM     91  C   UNL A   1      49.428  26.186  26.313  1.00  0.00     0.040 A 
ATOM     92  F   UNL A   1      48.130  26.474  28.243  1.00  0.00    -0.206 F 
ATOM     93  C   UNL A   1      49.597  26.319  24.936  1.00  0.00     0.006 A 
ENDBRANCH  69  86
ENDBRANCH  43  44
ENDBRANCH  36  38
ENDBRANCH  35  36
ENDBRANCH  34  35
ENDBRANCH  33  34
ENDBRANCH  32  33
ENDBRANCH  31  32
ENDBRANCH  30  31
ENDBRANCH  29  30
ENDBRANCH   1  29
TORSDOF 26
ENDMDL
MODEL 3
REMARK VINA RESULT:      -8.8      6.038      8.558
REMARK SMILES CC(C)C[NH2+][C@@H](CC(=O)Nc1cccc(Cl)c1)C(=O)OCCOCCOCCOCCOC(=O)c1ccc(-c2c3nc(c(-c4c(F)cccc4F)c4ccc([nH]4)c(-c4c(F)cccc4F)c4nc(c(-c5c(F)cccc5F)c5ccc2[nH]5)C=C4)C=C3)cc1
REMARK SMILES IDX 25 1 24 2 23 3 22 4 21 5 20 6 18 7 19 8 6 9 5 10 4 13 2 14
REMARK SMILES IDX 1 15 3 16 7 17 8 18 9 19 10 20 11 22 12 23 17 24 13 25 15 26
REMARK SMILES IDX 14 27 16 28 26 29 27 30 28 31 29 32 30 33 31 34 32 35 33 36
REMARK SMILES IDX 34 37 35 38 36 39 88 40 37 41 87 42 38 43 39 44 40 45 81 46
REMARK SMILES IDX 41 47 86 48 80 49 82 50 42 51 85 52 79 53 78 54 43 56 69 57
REMARK SMILES IDX 52 58 68 59 53 60 56 61 67 62 83 63 54 64 55 65 66 67 84 68
REMARK SMILES IDX 57 69 44 70 45 71 50 72 46 73 47 74 49 75 51 76 48 77 70 78
REMARK SMILES IDX 71 79 76 80 72 81 73 82 75 83 77 84 74 85 58 86 59 87 64 88
REMARK SMILES IDX 60 89 61 90 63 91 65 92 62 93
REMARK H PARENT 5 11 5 12 10 21 82 55 56 66
REMARK Flexibility Score: inf
ROOT
ATOM      1  C   UNL A   1      32.508  28.563  25.015  1.00  0.00     0.188 C 
ENDROOT
BRANCH   1   2
ATOM      2  C   UNL A   1      33.762  27.955  24.377  1.00  0.00     0.188 C 
BRANCH   2   3
ATOM      3  O   UNL A   1      33.976  28.037  22.975  1.00  0.00    -0.376 OA
BRANCH   3   4
ATOM      4  C   UNL A   1      33.460  27.041  22.106  1.00  0.00     0.202 C 
BRANCH   4   5
ATOM      5  C   UNL A   1      32.952  25.683  22.626  1.00  0.00     0.261 C 
BRANCH   5   6
ATOM      6  O   UNL A   1      31.572  25.354  22.402  1.00  0.00    -0.459 OA
BRANCH   6   7
ATOM      7  C   UNL A   1      30.937  24.679  23.404  1.00  0.00     0.365 C 
ATOM      8  O   UNL A   1      30.527  23.528  23.321  1.00  0.00    -0.245 OA
BRANCH   7   9
ATOM      9  C   UNL A   1      30.714  25.581  24.644  1.00  0.00     0.302 C 
BRANCH   9  10
ATOM     10  N   UNL A   1      29.276  25.815  24.871  1.00  0.00    -0.334 N 
ATOM     11  H   UNL A   1      28.820  24.907  24.967  1.00  0.00     0.347 HD
ATOM     12  H   UNL A   1      29.210  26.392  25.709  1.00  0.00     0.347 HD
BRANCH  10  13
ATOM     13  C   UNL A   1      28.591  26.558  23.805  1.00  0.00     0.264 C 
BRANCH  13  14
ATOM     14  C   UNL A   1      28.829  28.294  23.386  1.00  0.00     0.038 C 
ATOM     15  C   UNL A   1      30.357  29.289  22.159  1.00  0.00     0.013 C 
ATOM     16  C   UNL A   1      27.077  28.509  23.321  1.00  0.00     0.013 C 
ENDBRANCH  13  14
ENDBRANCH  10  13
ENDBRANCH   9  10
BRANCH   9  17
ATOM     17  C   UNL A   1      31.448  24.961  25.830  1.00  0.00     0.177 C 
BRANCH  17  18
ATOM     18  C   UNL A   1      30.808  23.729  26.454  1.00  0.00     0.231 C 
ATOM     19  O   UNL A   1      29.809  23.863  27.168  1.00  0.00    -0.274 OA
ATOM     20  N   UNL A   1      31.235  22.453  26.200  1.00  0.00    -0.326 N 
ATOM     21  H   UNL A   1      30.579  21.751  26.411  1.00  0.00     0.169 HD
BRANCH  20  22
ATOM     22  C   UNL A   1      32.453  21.985  25.687  1.00  0.00     0.042 A 
ATOM     23  C   UNL A   1      33.997  22.735  26.277  1.00  0.00     0.026 A 
ATOM     24  C   UNL A   1      32.504  20.407  24.820  1.00  0.00     0.046 A 
ATOM     25  C   UNL A   1      35.584  21.919  26.015  1.00  0.00     0.004 A 
ATOM     26  C   UNL A   1      34.084  19.568  24.611  1.00  0.00     0.043 A 
ATOM     27  C   UNL A   1      35.629  20.353  25.136  1.00  0.00     0.020 A 
ATOM     28  Cl  UNL A   1      34.116  17.927  24.075  1.00  0.00    -0.084 Cl
ENDBRANCH  20  22
ENDBRANCH  17  18
ENDBRANCH   9  17
ENDBRANCH   7   9
ENDBRANCH   6   7
ENDBRANCH   5   6
ENDBRANCH   4   5
ENDBRANCH   3   4
ENDBRANCH   2   3
ENDBRANCH   1   2
BRANCH   1  29
ATOM     29  O   UNL A   1      32.427  29.977  24.966  1.00  0.00    -0.377 OA
BRANCH  29  30
ATOM     30  C   UNL A   1      31.861  30.610  26.107  1.00  0.00     0.188 C 
BRANCH  30  31
ATOM     31  C   UNL A   1      32.705  30.629  27.397  1.00  0.00     0.188 C 
BRANCH  31  32
ATOM     32  O   UNL A   1      34.069  30.961  27.188  1.00  0.00    -0.376 OA
BRANCH  32  33
ATOM     33  C   UNL A   1      35.094  30.108  27.671  1.00  0.00     0.202 C 
BRANCH  33  34
ATOM     34  C   UNL A   1      36.194  30.661  28.597  1.00  0.00     0.261 C 
BRANCH  34  35
ATOM     35  O   UNL A   1      36.015  31.983  29.125  1.00  0.00    -0.460 OA
BRANCH  35  36
ATOM     36  C   UNL A   1      35.609  32.103  30.406  1.00  0.00     0.338 C 
ATOM     37  O   UNL A   1      34.484  32.348  30.797  1.00  0.00    -0.246 OA
BRANCH  36  38
ATOM     38  C   UNL A   1      36.736  31.696  31.278  1.00  0.00     0.060 A 
ATOM     39  C   UNL A   1      36.485  30.822  32.343  1.00  0.00     0.016 A 
ATOM     40  C   UNL A   1      38.027  32.177  31.052  1.00  0.00     0.016 A 
ATOM     41  C   UNL A   1      37.519  30.451  33.206  1.00  0.00     0.010 A 
ATOM     42  C   UNL A   1      39.057  31.825  31.932  1.00  0.00     0.010 A 
ATOM     43  C   UNL A   1      38.802  30.983  33.031  1.00  0.00    -0.014 A 
BRANCH  43  44
ATOM     44  C   UNL A   1      39.831  30.791  34.082  1.00  0.00     0.031 A 
ATOM     45  C   UNL A   1      39.977  31.837  35.154  1.00  0.00     0.074 A 
ATOM     46  C   UNL A   1      40.614  29.697  34.100  1.00  0.00     0.049 A 
ATOM     47  N   UNL A   1      40.844  31.914  36.130  1.00  0.00    -0.248 NA
ATOM     48  C   UNL A   1      39.014  32.949  35.114  1.00  0.00     0.031 C 
ATOM     49  C   UNL A   1      40.539  28.589  33.152  1.00  0.00     0.029 A 
ATOM     50  N   UNL A   1      41.636  29.349  34.948  1.00  0.00    -0.354 N 
ATOM     51  C   UNL A   1      40.539  33.083  36.815  1.00  0.00     0.074 A 
ATOM     52  C   UNL A   1      39.426  33.699  36.124  1.00  0.00     0.031 C 
ATOM     53  C   UNL A   1      41.488  27.687  33.461  1.00  0.00     0.029 A 
ATOM     54  C   UNL A   1      42.260  28.175  34.602  1.00  0.00     0.049 A 
ATOM     55  H   UNL A   1      41.897  29.887  35.729  1.00  0.00     0.167 HD
ATOM     56  C   UNL A   1      41.126  33.594  37.924  1.00  0.00     0.037 A 
ATOM     57  C   UNL A   1      43.350  27.580  35.127  1.00  0.00     0.037 A 
ATOM     58  C   UNL A   1      42.237  32.981  38.605  1.00  0.00     0.049 A 
ATOM     59  C   UNL A   1      44.047  28.217  36.303  1.00  0.00     0.074 A 
ATOM     60  C   UNL A   1      42.890  33.410  39.747  1.00  0.00     0.029 A 
ATOM     61  N   UNL A   1      42.870  31.815  38.198  1.00  0.00    -0.354 N 
ATOM     62  N   UNL A   1      43.734  29.307  36.961  1.00  0.00    -0.248 NA
ATOM     63  C   UNL A   1      45.250  27.538  36.808  1.00  0.00     0.031 C 
ATOM     64  C   UNL A   1      43.960  32.544  39.991  1.00  0.00     0.029 A 
ATOM     65  C   UNL A   1      43.930  31.533  39.044  1.00  0.00     0.049 A 
ATOM     66  H   UNL A   1      42.603  31.270  37.424  1.00  0.00     0.167 HD
ATOM     67  C   UNL A   1      44.682  29.429  37.972  1.00  0.00     0.074 A 
ATOM     68  C   UNL A   1      45.568  28.290  37.851  1.00  0.00     0.031 C 
ATOM     69  C   UNL A   1      44.808  30.396  38.915  1.00  0.00     0.037 A 
BRANCH  56  70
ATOM     70  C   UNL A   1      40.603  34.901  38.448  1.00  0.00     0.057 A 
ATOM     71  C   UNL A   1      39.469  34.976  39.268  1.00  0.00     0.134 A 
ATOM     72  C   UNL A   1      41.266  36.101  38.156  1.00  0.00     0.134 A 
ATOM     73  F   UNL A   1      38.779  33.868  39.576  1.00  0.00    -0.206 F 
ATOM     74  C   UNL A   1      39.000  36.197  39.755  1.00  0.00     0.040 A 
ATOM     75  C   UNL A   1      40.824  37.323  38.663  1.00  0.00     0.040 A 
ATOM     76  F   UNL A   1      42.361  36.103  37.382  1.00  0.00    -0.206 F 
ATOM     77  C   UNL A   1      39.682  37.374  39.460  1.00  0.00     0.006 A 
ENDBRANCH  56  70
BRANCH  57  78
ATOM     78  C   UNL A   1      43.874  26.323  34.533  1.00  0.00     0.057 A 
ATOM     79  C   UNL A   1      43.399  25.070  34.941  1.00  0.00     0.134 A 
ATOM     80  C   UNL A   1      44.886  26.340  33.564  1.00  0.00     0.134 A 
ATOM     81  F   UNL A   1      42.450  24.985  35.884  1.00  0.00    -0.206 F 
ATOM     82  C   UNL A   1      43.923  23.884  34.425  1.00  0.00     0.040 A 
ATOM     83  C   UNL A   1      45.398  25.163  33.016  1.00  0.00     0.040 A 
ATOM     84  F   UNL A   1      45.389  27.505  33.129  1.00  0.00    -0.206 F 
ATOM     85  C   UNL A   1      44.922  23.929  33.456  1.00  0.00     0.006 A 
ENDBRANCH  57  78
BRANCH  69  86
ATOM     86  C   UNL A   1      45.925  30.253  39.910  1.00  0.00     0.057 A 
ATOM     87  C   UNL A   1      45.756  29.576  41.125  1.00  0.00     0.134 A 
ATOM     88  C   UNL A   1      47.200  30.768  39.633  1.00  0.00     0.134 A 
ATOM     89  F   UNL A   1      44.560  29.068  41.460  1.00  0.00    -0.206 F 
ATOM     90  C   UNL A   1      46.804  29.440  42.039  1.00  0.00     0.040 A 
ATOM     91  C   UNL A   1      48.262  30.609  40.522  1.00  0.00     0.040 A 
ATOM     92  F   UNL A   1      47.436  31.417  38.483  1.00  0.00    -0.206 F 
ATOM     93  C   UNL A   1      48.063  29.951  41.734  1.00  0.00     0.006 A 
ENDBRANCH  69  86
ENDBRANCH  43  44
ENDBRANCH  36  38
ENDBRANCH  35  36
ENDBRANCH  34  35
ENDBRANCH  33  34
ENDBRANCH  32  33
ENDBRANCH  31  32
ENDBRANCH  30  31
ENDBRANCH  29  30
ENDBRANCH   1  29
TORSDOF 26
ENDMDL
