MODEL 1
REMARK VINA RESULT:     -11.2      0.000      0.000
REMARK SMILES Cc1ccc(-c2cc(Cl)ccc2Cl)c(C(=O)OCCOCCOCCOCCOC(=O)c2ccc(-c3c4nc(c(-c5c(F)cccc5F)c5ccc([nH]5)c(-c5c(F)cccc5F)c5nc(c(-c6c(F)cccc6F)c6ccc3[nH]6)C=C5)C=C4)cc2)c1
REMARK SMILES IDX 24 1 23 2 22 3 21 4 20 5 19 6 18 7 17 8 15 9 16 10 14 11
REMARK SMILES IDX 1 12 2 13 3 14 86 15 4 16 5 17 6 18 7 19 12 20 8 21 11 22
REMARK SMILES IDX 13 23 9 24 10 25 25 26 26 27 27 28 28 29 29 30 30 31 31 32
REMARK SMILES IDX 32 33 33 34 85 35 34 36 84 37 35 38 36 39 37 40 78 41 38 42
REMARK SMILES IDX 83 43 77 44 79 45 39 46 82 47 76 48 75 49 40 51 66 52 49 53
REMARK SMILES IDX 65 54 50 55 53 56 64 57 80 58 51 59 52 60 63 62 81 63 54 64
REMARK SMILES IDX 41 65 42 66 47 67 43 68 44 69 46 70 48 71 45 72 67 73 68 74
REMARK SMILES IDX 73 75 69 76 70 77 72 78 74 79 71 80 55 81 56 82 61 83 57 84
REMARK SMILES IDX 58 85 60 86 62 87 59 88
REMARK H PARENT 79 50 53 61
REMARK Flexibility Score: inf
ROOT
ATOM      1  C   UNL A   1      41.095  20.339  27.395  1.00  0.00     0.188 C 
ENDROOT
BRANCH   1   2
ATOM      2  O   UNL A   1      40.389  21.550  27.656  1.00  0.00    -0.377 OA
BRANCH   2   3
ATOM      3  C   UNL A   1      39.878  22.202  26.487  1.00  0.00     0.188 C 
BRANCH   3   4
ATOM      4  C   UNL A   1      39.138  23.491  26.807  1.00  0.00     0.188 C 
BRANCH   4   5
ATOM      5  O   UNL A   1      37.926  23.673  26.068  1.00  0.00    -0.376 OA
BRANCH   5   6
ATOM      6  C   UNL A   1      37.247  22.446  25.779  1.00  0.00     0.202 C 
BRANCH   6   7
ATOM      7  C   UNL A   1      36.274  22.462  24.597  1.00  0.00     0.261 C 
BRANCH   7   8
ATOM      8  O   UNL A   1      35.182  23.334  24.890  1.00  0.00    -0.460 OA
BRANCH   8   9
ATOM      9  C   UNL A   1      34.374  23.598  23.845  1.00  0.00     0.338 C 
ATOM     10  O   UNL A   1      34.585  23.377  22.680  1.00  0.00    -0.246 OA
BRANCH   9  11
ATOM     11  C   UNL A   1      33.039  23.846  24.421  1.00  0.00     0.068 A 
ATOM     12  C   UNL A   1      31.264  26.750  26.091  1.00  0.00     0.044 C 
ATOM     13  C   UNL A   1      31.552  25.376  25.557  1.00  0.00    -0.050 A 
ATOM     14  C   UNL A   1      30.687  24.296  25.797  1.00  0.00     0.004 A 
ATOM     15  C   UNL A   1      32.710  25.151  24.816  1.00  0.00     0.019 A 
ATOM     16  C   UNL A   1      31.033  22.983  25.424  1.00  0.00     0.010 A 
ATOM     17  C   UNL A   1      32.244  22.722  24.774  1.00  0.00    -0.002 A 
BRANCH  17  18
ATOM     18  C   UNL A   1      32.818  21.348  24.652  1.00  0.00     0.003 A 
ATOM     19  C   UNL A   1      32.600  20.639  23.448  1.00  0.00     0.030 A 
ATOM     20  C   UNL A   1      33.235  20.606  25.773  1.00  0.00     0.049 A 
ATOM     21  C   UNL A   1      32.594  19.240  23.427  1.00  0.00     0.041 A 
ATOM     22  C   UNL A   1      33.201  19.203  25.751  1.00  0.00     0.023 A 
ATOM     23  Cl  UNL A   1      33.672  21.385  27.255  1.00  0.00    -0.084 Cl
ATOM     24  Cl  UNL A   1      32.149  18.399  21.990  1.00  0.00    -0.084 Cl
ATOM     25  C   UNL A   1      32.840  18.520  24.589  1.00  0.00     0.022 A 
ENDBRANCH  17  18
ENDBRANCH   9  11
ENDBRANCH   8   9
ENDBRANCH   7   8
ENDBRANCH   6   7
ENDBRANCH   5   6
ENDBRANCH   4   5
ENDBRANCH   3   4
ENDBRANCH   2   3
ENDBRANCH   1   2
BRANCH   1  26
ATOM     26  C   UNL A   1      40.629  19.670  26.111  1.00  0.00     0.188 C 
BRANCH  26  27
ATOM     27  O   UNL A   1      41.573  18.671  25.736  1.00  0.00    -0.376 OA
BRANCH  27  28
ATOM     28  C   UNL A   1      42.767  18.613  26.515  1.00  0.00     0.202 C 
BRANCH  28  29
ATOM     29  C   UNL A   1      44.052  18.472  25.686  1.00  0.00     0.261 C 
BRANCH  29  30
ATOM     30  O   UNL A   1      44.149  19.559  24.744  1.00  0.00    -0.460 OA
BRANCH  30  31
ATOM     31  C   UNL A   1      44.967  20.581  25.117  1.00  0.00     0.338 C 
ATOM     32  O   UNL A   1      46.137  20.465  25.446  1.00  0.00    -0.246 OA
BRANCH  31  33
ATOM     33  C   UNL A   1      44.154  21.810  25.376  1.00  0.00     0.060 A 
ATOM     34  C   UNL A   1      43.918  22.730  24.336  1.00  0.00     0.016 A 
ATOM     35  C   UNL A   1      43.960  22.208  26.690  1.00  0.00     0.016 A 
ATOM     36  C   UNL A   1      43.674  24.087  24.627  1.00  0.00     0.010 A 
ATOM     37  C   UNL A   1      43.814  23.555  26.959  1.00  0.00     0.010 A 
ATOM     38  C   UNL A   1      43.712  24.528  25.948  1.00  0.00    -0.014 A 
BRANCH  38  39
ATOM     39  C   UNL A   1      43.797  25.937  26.416  1.00  0.00     0.031 A 
ATOM     40  C   UNL A   1      42.519  26.734  26.535  1.00  0.00     0.074 A 
ATOM     41  C   UNL A   1      44.905  26.356  27.092  1.00  0.00     0.049 A 
ATOM     42  N   UNL A   1      42.412  27.883  27.110  1.00  0.00    -0.248 NA
ATOM     43  C   UNL A   1      41.212  26.272  26.053  1.00  0.00     0.031 C 
ATOM     44  C   UNL A   1      44.941  27.348  28.171  1.00  0.00     0.029 A 
ATOM     45  N   UNL A   1      46.235  25.960  27.035  1.00  0.00    -0.354 N 
ATOM     46  C   UNL A   1      41.089  28.083  27.450  1.00  0.00     0.074 A 
ATOM     47  C   UNL A   1      40.370  27.109  26.674  1.00  0.00     0.031 C 
ATOM     48  C   UNL A   1      46.185  27.523  28.641  1.00  0.00     0.029 A 
ATOM     49  C   UNL A   1      47.049  26.929  27.660  1.00  0.00     0.049 A 
ATOM     50  H   UNL A   1      46.561  25.129  26.621  1.00  0.00     0.167 HD
ATOM     51  C   UNL A   1      40.788  28.949  28.466  1.00  0.00     0.037 A 
ATOM     52  C   UNL A   1      47.906  27.707  26.923  1.00  0.00     0.037 A 
ATOM     53  C   UNL A   1      41.957  29.752  28.856  1.00  0.00     0.049 A 
ATOM     54  C   UNL A   1      47.428  29.158  26.855  1.00  0.00     0.074 A 
ATOM     55  C   UNL A   1      42.551  30.088  30.056  1.00  0.00     0.029 A 
ATOM     56  N   UNL A   1      42.797  30.278  27.874  1.00  0.00    -0.354 N 
ATOM     57  N   UNL A   1      46.164  29.499  26.969  1.00  0.00    -0.248 NA
ATOM     58  C   UNL A   1      48.304  30.330  26.853  1.00  0.00     0.031 C 
ATOM     59  C   UNL A   1      43.859  30.579  29.785  1.00  0.00     0.029 A 
ATOM     60  C   UNL A   1      43.980  30.730  28.412  1.00  0.00     0.049 A 
ATOM     61  H   UNL A   1      42.571  30.320  26.917  1.00  0.00     0.167 HD
ATOM     62  C   UNL A   1      46.065  30.843  27.194  1.00  0.00     0.074 A 
ATOM     63  C   UNL A   1      47.422  31.334  27.036  1.00  0.00     0.031 C 
ATOM     64  C   UNL A   1      44.921  31.474  27.593  1.00  0.00     0.037 A 
BRANCH  51  65
ATOM     65  C   UNL A   1      39.487  28.962  29.269  1.00  0.00     0.057 A 
ATOM     66  C   UNL A   1      38.333  29.600  28.762  1.00  0.00     0.134 A 
ATOM     67  C   UNL A   1      39.334  28.483  30.587  1.00  0.00     0.134 A 
ATOM     68  F   UNL A   1      38.303  30.099  27.518  1.00  0.00    -0.206 F 
ATOM     69  C   UNL A   1      37.147  29.761  29.499  1.00  0.00     0.040 A 
ATOM     70  C   UNL A   1      38.130  28.578  31.312  1.00  0.00     0.040 A 
ATOM     71  F   UNL A   1      40.351  27.944  31.270  1.00  0.00    -0.206 F 
ATOM     72  C   UNL A   1      37.033  29.233  30.775  1.00  0.00     0.006 A 
ENDBRANCH  51  65
BRANCH  52  73
ATOM     73  C   UNL A   1      48.635  26.864  25.926  1.00  0.00     0.057 A 
ATOM     74  C   UNL A   1      48.269  27.122  24.585  1.00  0.00     0.134 A 
ATOM     75  C   UNL A   1      49.972  26.517  26.156  1.00  0.00     0.134 A 
ATOM     76  F   UNL A   1      46.991  27.410  24.285  1.00  0.00    -0.206 F 
ATOM     77  C   UNL A   1      49.229  27.325  23.590  1.00  0.00     0.040 A 
ATOM     78  C   UNL A   1      50.937  26.681  25.151  1.00  0.00     0.040 A 
ATOM     79  F   UNL A   1      50.398  26.237  27.395  1.00  0.00    -0.206 F 
ATOM     80  C   UNL A   1      50.576  27.164  23.891  1.00  0.00     0.006 A 
ENDBRANCH  52  73
BRANCH  64  81
ATOM     81  C   UNL A   1      44.568  32.910  27.282  1.00  0.00     0.057 A 
ATOM     82  C   UNL A   1      44.019  33.302  26.056  1.00  0.00     0.134 A 
ATOM     83  C   UNL A   1      44.515  33.892  28.304  1.00  0.00     0.134 A 
ATOM     84  F   UNL A   1      43.914  32.448  25.029  1.00  0.00    -0.206 F 
ATOM     85  C   UNL A   1      43.484  34.579  25.850  1.00  0.00     0.040 A 
ATOM     86  C   UNL A   1      43.936  35.148  28.124  1.00  0.00     0.040 A 
ATOM     87  F   UNL A   1      44.976  33.668  29.543  1.00  0.00    -0.206 F 
ATOM     88  C   UNL A   1      43.425  35.499  26.889  1.00  0.00     0.006 A 
ENDBRANCH  64  81
ENDBRANCH  38  39
ENDBRANCH  31  33
ENDBRANCH  30  31
ENDBRANCH  29  30
ENDBRANCH  28  29
ENDBRANCH  27  28
ENDBRANCH  26  27
ENDBRANCH   1  26
TORSDOF 21
ENDMDL
MODEL 2
REMARK VINA RESULT:     -10.9      1.381      2.879
REMARK SMILES Cc1ccc(-c2cc(Cl)ccc2Cl)c(C(=O)OCCOCCOCCOCCOC(=O)c2ccc(-c3c4nc(c(-c5c(F)cccc5F)c5ccc([nH]5)c(-c5c(F)cccc5F)c5nc(c(-c6c(F)cccc6F)c6ccc3[nH]6)C=C5)C=C4)cc2)c1
REMARK SMILES IDX 24 1 23 2 22 3 21 4 20 5 19 6 18 7 17 8 15 9 16 10 14 11
REMARK SMILES IDX 1 12 2 13 3 14 86 15 4 16 5 17 6 18 7 19 12 20 8 21 11 22
REMARK SMILES IDX 13 23 9 24 10 25 25 26 26 27 27 28 28 29 29 30 30 31 31 32
REMARK SMILES IDX 32 33 33 34 85 35 34 36 84 37 35 38 36 39 37 40 78 41 38 42
REMARK SMILES IDX 83 43 77 44 79 45 39 46 82 47 76 48 75 49 40 51 66 52 49 53
REMARK SMILES IDX 65 54 50 55 53 56 64 57 80 58 51 59 52 60 63 62 81 63 54 64
REMARK SMILES IDX 41 65 42 66 47 67 43 68 44 69 46 70 48 71 45 72 67 73 68 74
REMARK SMILES IDX 73 75 69 76 70 77 72 78 74 79 71 80 55 81 56 82 61 83 57 84
REMARK SMILES IDX 58 85 60 86 62 87 59 88
REMARK H PARENT 79 50 53 61
REMARK Flexibility Score: inf
ROOT
ATOM      1  C   UNL A   1      42.213  19.725  27.445  1.00  0.00     0.188 C 
ENDROOT
BRANCH   1   2
ATOM      2  O   UNL A   1      41.433  20.895  27.683  1.00  0.00    -0.377 OA
BRANCH   2   3
ATOM      3  C   UNL A   1      41.051  21.602  26.498  1.00  0.00     0.188 C 
BRANCH   3   4
ATOM      4  C   UNL A   1      39.571  21.947  26.468  1.00  0.00     0.188 C 
BRANCH   4   5
ATOM      5  O   UNL A   1      39.249  23.219  27.040  1.00  0.00    -0.376 OA
BRANCH   5   6
ATOM      6  C   UNL A   1      38.240  23.929  26.314  1.00  0.00     0.202 C 
BRANCH   6   7
ATOM      7  C   UNL A   1      37.240  23.084  25.521  1.00  0.00     0.261 C 
BRANCH   7   8
ATOM      8  O   UNL A   1      36.333  23.943  24.830  1.00  0.00    -0.460 OA
BRANCH   8   9
ATOM      9  C   UNL A   1      35.716  23.380  23.774  1.00  0.00     0.338 C 
ATOM     10  O   UNL A   1      36.212  23.033  22.733  1.00  0.00    -0.246 OA
BRANCH   9  11
ATOM     11  C   UNL A   1      34.407  22.916  24.272  1.00  0.00     0.068 A 
ATOM     12  C   UNL A   1      32.526  19.628  24.408  1.00  0.00     0.044 C 
ATOM     13  C   UNL A   1      32.845  21.091  24.531  1.00  0.00    -0.050 A 
ATOM     14  C   UNL A   1      31.864  22.030  24.884  1.00  0.00     0.004 A 
ATOM     15  C   UNL A   1      34.138  21.540  24.276  1.00  0.00     0.019 A 
ATOM     16  C   UNL A   1      32.128  23.413  24.852  1.00  0.00     0.010 A 
ATOM     17  C   UNL A   1      33.394  23.889  24.492  1.00  0.00    -0.002 A 
BRANCH  17  18
ATOM     18  C   UNL A   1      33.647  25.313  24.119  1.00  0.00     0.003 A 
ATOM     19  C   UNL A   1      33.949  26.230  25.152  1.00  0.00     0.030 A 
ATOM     20  C   UNL A   1      33.253  25.846  22.877  1.00  0.00     0.049 A 
ATOM     21  C   UNL A   1      33.665  27.593  25.012  1.00  0.00     0.041 A 
ATOM     22  C   UNL A   1      32.946  27.209  22.752  1.00  0.00     0.023 A 
ATOM     23  Cl  UNL A   1      33.003  24.827  21.501  1.00  0.00    -0.084 Cl
ATOM     24  Cl  UNL A   1      33.874  28.661  26.348  1.00  0.00    -0.084 Cl
ATOM     25  C   UNL A   1      33.112  28.076  23.833  1.00  0.00     0.022 A 
ENDBRANCH  17  18
ENDBRANCH   9  11
ENDBRANCH   8   9
ENDBRANCH   7   8
ENDBRANCH   6   7
ENDBRANCH   5   6
ENDBRANCH   4   5
ENDBRANCH   3   4
ENDBRANCH   2   3
ENDBRANCH   1   2
BRANCH   1  26
ATOM     26  C   UNL A   1      41.901  19.092  26.099  1.00  0.00     0.188 C 
BRANCH  26  27
ATOM     27  O   UNL A   1      42.839  18.051  25.843  1.00  0.00    -0.376 OA
BRANCH  27  28
ATOM     28  C   UNL A   1      44.200  18.455  25.697  1.00  0.00     0.202 C 
BRANCH  28  29
ATOM     29  C   UNL A   1      44.616  18.746  24.248  1.00  0.00     0.261 C 
BRANCH  29  30
ATOM     30  O   UNL A   1      44.513  20.160  23.984  1.00  0.00    -0.460 OA
BRANCH  30  31
ATOM     31  C   UNL A   1      45.287  20.957  24.770  1.00  0.00     0.338 C 
ATOM     32  O   UNL A   1      46.398  20.673  25.186  1.00  0.00    -0.246 OA
BRANCH  31  33
ATOM     33  C   UNL A   1      44.464  22.083  25.312  1.00  0.00     0.060 A 
ATOM     34  C   UNL A   1      43.779  22.942  24.431  1.00  0.00     0.016 A 
ATOM     35  C   UNL A   1      44.679  22.486  26.621  1.00  0.00     0.016 A 
ATOM     36  C   UNL A   1      43.483  24.266  24.814  1.00  0.00     0.010 A 
ATOM     37  C   UNL A   1      44.467  23.811  26.950  1.00  0.00     0.010 A 
ATOM     38  C   UNL A   1      43.910  24.740  26.052  1.00  0.00    -0.014 A 
BRANCH  38  39
ATOM     39  C   UNL A   1      43.974  26.159  26.490  1.00  0.00     0.031 A 
ATOM     40  C   UNL A   1      42.685  26.939  26.592  1.00  0.00     0.074 A 
ATOM     41  C   UNL A   1      45.075  26.608  27.159  1.00  0.00     0.049 A 
ATOM     42  N   UNL A   1      42.560  28.099  27.143  1.00  0.00    -0.248 NA
ATOM     43  C   UNL A   1      41.385  26.449  26.118  1.00  0.00     0.031 C 
ATOM     44  C   UNL A   1      45.095  27.623  28.217  1.00  0.00     0.029 A 
ATOM     45  N   UNL A   1      46.410  26.230  27.112  1.00  0.00    -0.354 N 
ATOM     46  C   UNL A   1      41.234  28.287  27.477  1.00  0.00     0.074 A 
ATOM     47  C   UNL A   1      40.530  27.286  26.720  1.00  0.00     0.031 C 
ATOM     48  C   UNL A   1      46.335  27.826  28.685  1.00  0.00     0.029 A 
ATOM     49  C   UNL A   1      47.210  27.224  27.717  1.00  0.00     0.049 A 
ATOM     50  H   UNL A   1      46.750  25.396  26.716  1.00  0.00     0.167 HD
ATOM     51  C   UNL A   1      40.919  29.168  28.474  1.00  0.00     0.037 A 
ATOM     52  C   UNL A   1      48.056  28.000  26.965  1.00  0.00     0.037 A 
ATOM     53  C   UNL A   1      42.075  29.996  28.849  1.00  0.00     0.049 A 
ATOM     54  C   UNL A   1      47.557  29.441  26.867  1.00  0.00     0.074 A 
ATOM     55  C   UNL A   1      42.663  30.366  30.042  1.00  0.00     0.029 A 
ATOM     56  N   UNL A   1      42.909  30.515  27.857  1.00  0.00    -0.354 N 
ATOM     57  N   UNL A   1      46.289  29.766  26.972  1.00  0.00    -0.248 NA
ATOM     58  C   UNL A   1      48.416  30.626  26.841  1.00  0.00     0.031 C 
ATOM     59  C   UNL A   1      43.964  30.871  29.762  1.00  0.00     0.029 A 
ATOM     60  C   UNL A   1      44.084  30.995  28.387  1.00  0.00     0.049 A 
ATOM     61  H   UNL A   1      42.683  30.533  26.899  1.00  0.00     0.167 HD
ATOM     62  C   UNL A   1      46.169  31.113  27.168  1.00  0.00     0.074 A 
ATOM     63  C   UNL A   1      47.519  31.620  27.002  1.00  0.00     0.031 C 
ATOM     64  C   UNL A   1      45.015  31.735  27.554  1.00  0.00     0.037 A 
BRANCH  51  65
ATOM     65  C   UNL A   1      39.616  29.179  29.275  1.00  0.00     0.057 A 
ATOM     66  C   UNL A   1      39.530  28.517  30.520  1.00  0.00     0.134 A 
ATOM     67  C   UNL A   1      38.386  29.707  28.830  1.00  0.00     0.134 A 
ATOM     68  F   UNL A   1      40.611  27.971  31.094  1.00  0.00    -0.206 F 
ATOM     69  C   UNL A   1      38.333  28.378  31.244  1.00  0.00     0.040 A 
ATOM     70  C   UNL A   1      37.194  29.633  29.578  1.00  0.00     0.040 A 
ATOM     71  F   UNL A   1      38.251  30.277  27.626  1.00  0.00    -0.206 F 
ATOM     72  C   UNL A   1      37.160  28.952  30.785  1.00  0.00     0.006 A 
ENDBRANCH  51  65
BRANCH  52  73
ATOM     73  C   UNL A   1      48.798  27.147  25.987  1.00  0.00     0.057 A 
ATOM     74  C   UNL A   1      48.413  27.353  24.643  1.00  0.00     0.134 A 
ATOM     75  C   UNL A   1      50.146  26.843  26.214  1.00  0.00     0.134 A 
ATOM     76  F   UNL A   1      47.126  27.597  24.347  1.00  0.00    -0.206 F 
ATOM     77  C   UNL A   1      49.359  27.552  23.632  1.00  0.00     0.040 A 
ATOM     78  C   UNL A   1      51.098  27.003  25.194  1.00  0.00     0.040 A 
ATOM     79  F   UNL A   1      50.592  26.613  27.457  1.00  0.00    -0.206 F 
ATOM     80  C   UNL A   1      50.712  27.437  23.924  1.00  0.00     0.006 A 
ENDBRANCH  52  73
BRANCH  64  81
ATOM     81  C   UNL A   1      44.642  33.159  27.212  1.00  0.00     0.057 A 
ATOM     82  C   UNL A   1      43.977  33.500  26.029  1.00  0.00     0.134 A 
ATOM     83  C   UNL A   1      44.695  34.187  28.188  1.00  0.00     0.134 A 
ATOM     84  F   UNL A   1      43.767  32.602  25.058  1.00  0.00    -0.206 F 
ATOM     85  C   UNL A   1      43.432  34.772  25.817  1.00  0.00     0.040 A 
ATOM     86  C   UNL A   1      44.109  35.439  28.007  1.00  0.00     0.040 A 
ATOM     87  F   UNL A   1      45.274  34.015  29.384  1.00  0.00    -0.206 F 
ATOM     88  C   UNL A   1      43.481  35.739  26.813  1.00  0.00     0.006 A 
ENDBRANCH  64  81
ENDBRANCH  38  39
ENDBRANCH  31  33
ENDBRANCH  30  31
ENDBRANCH  29  30
ENDBRANCH  28  29
ENDBRANCH  27  28
ENDBRANCH  26  27
ENDBRANCH   1  26
TORSDOF 21
ENDMDL
MODEL 3
REMARK VINA RESULT:     -10.6      1.258      2.191
REMARK SMILES Cc1ccc(-c2cc(Cl)ccc2Cl)c(C(=O)OCCOCCOCCOCCOC(=O)c2ccc(-c3c4nc(c(-c5c(F)cccc5F)c5ccc([nH]5)c(-c5c(F)cccc5F)c5nc(c(-c6c(F)cccc6F)c6ccc3[nH]6)C=C5)C=C4)cc2)c1
REMARK SMILES IDX 24 1 23 2 22 3 21 4 20 5 19 6 18 7 17 8 15 9 16 10 14 11
REMARK SMILES IDX 1 12 2 13 3 14 86 15 4 16 5 17 6 18 7 19 12 20 8 21 11 22
REMARK SMILES IDX 13 23 9 24 10 25 25 26 26 27 27 28 28 29 29 30 30 31 31 32
REMARK SMILES IDX 32 33 33 34 85 35 34 36 84 37 35 38 36 39 37 40 78 41 38 42
REMARK SMILES IDX 83 43 77 44 79 45 39 46 82 47 76 48 75 49 40 51 66 52 49 53
REMARK SMILES IDX 65 54 50 55 53 56 64 57 80 58 51 59 52 60 63 62 81 63 54 64
REMARK SMILES IDX 41 65 42 66 47 67 43 68 44 69 46 70 48 71 45 72 67 73 68 74
REMARK SMILES IDX 73 75 69 76 70 77 72 78 74 79 71 80 55 81 56 82 61 83 57 84
REMARK SMILES IDX 58 85 60 86 62 87 59 88
REMARK H PARENT 79 50 53 61
REMARK Flexibility Score: inf
ROOT
ATOM      1  C   UNL A   1      40.517  21.141  27.019  1.00  0.00     0.188 C 
ENDROOT
BRANCH   1   2
ATOM      2  O   UNL A   1      39.628  20.738  25.980  1.00  0.00    -0.377 OA
BRANCH   2   3
ATOM      3  C   UNL A   1      38.661  21.728  25.611  1.00  0.00     0.188 C 
BRANCH   3   4
ATOM      4  C   UNL A   1      38.767  22.996  26.444  1.00  0.00     0.188 C 
BRANCH   4   5
ATOM      5  O   UNL A   1      37.667  23.898  26.286  1.00  0.00    -0.376 OA
BRANCH   5   6
ATOM      6  C   UNL A   1      36.997  23.764  25.028  1.00  0.00     0.202 C 
BRANCH   6   7
ATOM      7  C   UNL A   1      35.468  23.724  25.065  1.00  0.00     0.261 C 
BRANCH   7   8
ATOM      8  O   UNL A   1      34.972  24.956  25.587  1.00  0.00    -0.460 OA
BRANCH   8   9
ATOM      9  C   UNL A   1      34.191  25.655  24.741  1.00  0.00     0.338 C 
ATOM     10  O   UNL A   1      33.882  25.360  23.615  1.00  0.00    -0.246 OA
BRANCH   9  11
ATOM     11  C   UNL A   1      33.477  26.642  25.574  1.00  0.00     0.068 A 
ATOM     12  C   UNL A   1      34.352  29.854  27.386  1.00  0.00     0.044 C 
ATOM     13  C   UNL A   1      33.581  28.662  26.897  1.00  0.00    -0.050 A 
ATOM     14  C   UNL A   1      32.303  28.358  27.390  1.00  0.00     0.004 A 
ATOM     15  C   UNL A   1      34.144  27.819  25.940  1.00  0.00     0.019 A 
ATOM     16  C   UNL A   1      31.647  27.162  27.042  1.00  0.00     0.010 A 
ATOM     17  C   UNL A   1      32.245  26.250  26.165  1.00  0.00    -0.002 A 
BRANCH  17  18
ATOM     18  C   UNL A   1      31.773  24.842  26.016  1.00  0.00     0.003 A 
ATOM     19  C   UNL A   1      32.325  23.858  26.868  1.00  0.00     0.030 A 
ATOM     20  C   UNL A   1      31.100  24.393  24.863  1.00  0.00     0.049 A 
ATOM     21  C   UNL A   1      32.386  22.516  26.476  1.00  0.00     0.041 A 
ATOM     22  C   UNL A   1      31.188  23.051  24.463  1.00  0.00     0.023 A 
ATOM     23  Cl  UNL A   1      30.260  25.496  23.827  1.00  0.00    -0.084 Cl
ATOM     24  Cl  UNL A   1      33.224  21.368  27.451  1.00  0.00    -0.084 Cl
ATOM     25  C   UNL A   1      31.867  22.119  25.250  1.00  0.00     0.022 A 
ENDBRANCH  17  18
ENDBRANCH   9  11
ENDBRANCH   8   9
ENDBRANCH   7   8
ENDBRANCH   6   7
ENDBRANCH   5   6
ENDBRANCH   4   5
ENDBRANCH   3   4
ENDBRANCH   2   3
ENDBRANCH   1   2
BRANCH   1  26
ATOM     26  C   UNL A   1      41.503  20.044  27.385  1.00  0.00     0.188 C 
BRANCH  26  27
ATOM     27  O   UNL A   1      41.880  19.341  26.205  1.00  0.00    -0.376 OA
BRANCH  27  28
ATOM     28  C   UNL A   1      42.960  18.417  26.343  1.00  0.00     0.202 C 
BRANCH  28  29
ATOM     29  C   UNL A   1      44.122  18.660  25.371  1.00  0.00     0.261 C 
BRANCH  29  30
ATOM     30  O   UNL A   1      43.967  19.944  24.732  1.00  0.00    -0.460 OA
BRANCH  30  31
ATOM     31  C   UNL A   1      44.798  20.923  25.182  1.00  0.00     0.338 C 
ATOM     32  O   UNL A   1      45.973  20.772  25.473  1.00  0.00    -0.246 OA
BRANCH  31  33
ATOM     33  C   UNL A   1      43.997  22.124  25.573  1.00  0.00     0.060 A 
ATOM     34  C   UNL A   1      43.564  23.033  24.588  1.00  0.00     0.016 A 
ATOM     35  C   UNL A   1      44.007  22.520  26.902  1.00  0.00     0.016 A 
ATOM     36  C   UNL A   1      43.325  24.382  24.919  1.00  0.00     0.010 A 
ATOM     37  C   UNL A   1      43.861  23.862  27.195  1.00  0.00     0.010 A 
ATOM     38  C   UNL A   1      43.563  24.828  26.217  1.00  0.00    -0.014 A 
BRANCH  38  39
ATOM     39  C   UNL A   1      43.676  26.240  26.667  1.00  0.00     0.031 A 
ATOM     40  C   UNL A   1      42.410  27.050  26.819  1.00  0.00     0.074 A 
ATOM     41  C   UNL A   1      44.809  26.655  27.304  1.00  0.00     0.049 A 
ATOM     42  N   UNL A   1      42.332  28.206  27.387  1.00  0.00    -0.248 NA
ATOM     43  C   UNL A   1      41.084  26.597  26.384  1.00  0.00     0.031 C 
ATOM     44  C   UNL A   1      44.889  27.657  28.372  1.00  0.00     0.029 A 
ATOM     45  N   UNL A   1      46.132  26.246  27.209  1.00  0.00    -0.354 N 
ATOM     46  C   UNL A   1      41.022  28.422  27.766  1.00  0.00     0.074 A 
ATOM     47  C   UNL A   1      40.270  27.447  27.023  1.00  0.00     0.031 C 
ATOM     48  C   UNL A   1      46.148  27.825  28.800  1.00  0.00     0.029 A 
ATOM     49  C   UNL A   1      46.975  27.213  27.798  1.00  0.00     0.049 A 
ATOM     50  H   UNL A   1      46.438  25.408  26.793  1.00  0.00     0.167 HD
ATOM     51  C   UNL A   1      40.762  29.300  28.782  1.00  0.00     0.037 A 
ATOM     52  C   UNL A   1      47.815  27.977  27.026  1.00  0.00     0.037 A 
ATOM     53  C   UNL A   1      41.950  30.095  29.128  1.00  0.00     0.049 A 
ATOM     54  C   UNL A   1      47.349  29.431  26.960  1.00  0.00     0.074 A 
ATOM     55  C   UNL A   1      42.585  30.437  30.305  1.00  0.00     0.029 A 
ATOM     56  N   UNL A   1      42.763  30.605  28.114  1.00  0.00    -0.354 N 
ATOM     57  N   UNL A   1      46.092  29.785  27.110  1.00  0.00    -0.248 NA
ATOM     58  C   UNL A   1      48.235  30.594  26.918  1.00  0.00     0.031 C 
ATOM     59  C   UNL A   1      43.888  30.913  29.987  1.00  0.00     0.029 A 
ATOM     60  C   UNL A   1      43.966  31.050  28.610  1.00  0.00     0.049 A 
ATOM     61  H   UNL A   1      42.507  30.639  27.164  1.00  0.00     0.167 HD
ATOM     62  C   UNL A   1      46.012  31.132  27.325  1.00  0.00     0.074 A 
ATOM     63  C   UNL A   1      47.368  31.608  27.120  1.00  0.00     0.031 C 
ATOM     64  C   UNL A   1      44.887  31.777  27.755  1.00  0.00     0.037 A 
BRANCH  51  65
ATOM     65  C   UNL A   1      39.487  29.333  29.626  1.00  0.00     0.057 A 
ATOM     66  C   UNL A   1      39.395  28.588  30.823  1.00  0.00     0.134 A 
ATOM     67  C   UNL A   1      38.280  29.967  29.262  1.00  0.00     0.134 A 
ATOM     68  F   UNL A   1      40.455  27.935  31.320  1.00  0.00    -0.206 F 
ATOM     69  C   UNL A   1      38.214  28.470  31.576  1.00  0.00     0.040 A 
ATOM     70  C   UNL A   1      37.109  29.913  30.043  1.00  0.00     0.040 A 
ATOM     71  F   UNL A   1      38.147  30.631  28.108  1.00  0.00    -0.206 F 
ATOM     72  C   UNL A   1      37.067  29.149  31.199  1.00  0.00     0.006 A 
ENDBRANCH  51  65
BRANCH  52  73
ATOM     73  C   UNL A   1      48.504  27.117  26.015  1.00  0.00     0.057 A 
ATOM     74  C   UNL A   1      47.990  27.254  24.706  1.00  0.00     0.134 A 
ATOM     75  C   UNL A   1      49.879  26.879  26.128  1.00  0.00     0.134 A 
ATOM     76  F   UNL A   1      46.671  27.432  24.521  1.00  0.00    -0.206 F 
ATOM     77  C   UNL A   1      48.831  27.451  23.606  1.00  0.00     0.040 A 
ATOM     78  C   UNL A   1      50.727  27.038  25.020  1.00  0.00     0.040 A 
ATOM     79  F   UNL A   1      50.445  26.717  27.332  1.00  0.00    -0.206 F 
ATOM     80  C   UNL A   1      50.209  27.405  23.776  1.00  0.00     0.006 A 
ENDBRANCH  52  73
BRANCH  64  81
ATOM     81  C   UNL A   1      44.538  33.213  27.441  1.00  0.00     0.057 A 
ATOM     82  C   UNL A   1      44.001  33.606  26.210  1.00  0.00     0.134 A 
ATOM     83  C   UNL A   1      44.476  34.195  28.463  1.00  0.00     0.134 A 
ATOM     84  F   UNL A   1      43.905  32.753  25.181  1.00  0.00    -0.206 F 
ATOM     85  C   UNL A   1      43.468  34.883  26.000  1.00  0.00     0.040 A 
ATOM     86  C   UNL A   1      43.899  35.451  28.278  1.00  0.00     0.040 A 
ATOM     87  F   UNL A   1      44.925  33.970  29.706  1.00  0.00    -0.206 F 
ATOM     88  C   UNL A   1      43.400  35.803  27.038  1.00  0.00     0.006 A 
ENDBRANCH  64  81
ENDBRANCH  38  39
ENDBRANCH  31  33
ENDBRANCH  30  31
ENDBRANCH  29  30
ENDBRANCH  28  29
ENDBRANCH  27  28
ENDBRANCH  26  27
ENDBRANCH   1  26
TORSDOF 21
ENDMDL
