MODEL 1
REMARK VINA RESULT:      -7.4      0.000      0.000
REMARK SMILES CC(C)CN(C)c1cc2c(cc1Cl)C=C(C(=O)OCCOCCOCCOCCOC(=O)c1ccc(-c3c4nc(c(-c5c(F)cccc5F)c5ccc([nH]5)c(-c5c(F)cccc5F)c5nc(c(-c6c(F)cccc6F)c6ccc3[nH]6)C=C5)C=C4)cc1)[C@@H](C(F)(F)F)O2
REMARK SMILES IDX 23 1 22 2 21 3 20 4 19 5 18 6 16 7 17 8 15 9 7 10 8 11 12 12
REMARK SMILES IDX 9 13 11 14 13 15 10 16 92 17 14 18 87 19 5 20 6 21 4 22 2 23
REMARK SMILES IDX 1 24 3 25 88 26 89 27 90 28 91 29 24 30 25 31 26 32 27 33
REMARK SMILES IDX 28 34 29 35 30 36 31 37 32 38 33 39 34 40 86 41 35 42 85 43
REMARK SMILES IDX 36 44 37 45 38 46 79 47 39 48 84 49 78 50 80 51 40 52 83 53
REMARK SMILES IDX 77 54 76 55 41 57 67 58 50 59 66 60 51 61 54 62 65 63 81 64
REMARK SMILES IDX 52 65 53 66 64 68 82 69 55 70 42 71 43 72 48 73 44 74 45 75
REMARK SMILES IDX 47 76 49 77 46 78 68 79 69 80 74 81 70 82 71 83 73 84 75 85
REMARK SMILES IDX 72 86 56 87 57 88 62 89 58 90 59 91 61 92 63 93 60 94
REMARK H PARENT 80 56 54 67
REMARK Flexibility Score: inf
ROOT
ATOM      1  C   UNL A   1      34.171  34.406  30.373  1.00  0.00     0.188 C 
ENDROOT
BRANCH   1   2
ATOM      2  C   UNL A   1      34.752  33.005  30.637  1.00  0.00     0.188 C 
BRANCH   2   3
ATOM      3  O   UNL A   1      34.662  32.147  29.504  1.00  0.00    -0.376 OA
BRANCH   3   4
ATOM      4  C   UNL A   1      35.829  31.435  29.115  1.00  0.00     0.202 C 
BRANCH   4   5
ATOM      5  C   UNL A   1      37.143  32.223  28.957  1.00  0.00     0.261 C 
BRANCH   5   6
ATOM      6  O   UNL A   1      38.334  31.426  28.860  1.00  0.00    -0.460 OA
BRANCH   6   7
ATOM      7  C   UNL A   1      38.952  31.128  30.016  1.00  0.00     0.338 C 
ATOM      8  O   UNL A   1      38.752  31.656  31.096  1.00  0.00    -0.246 OA
BRANCH   7   9
ATOM      9  C   UNL A   1      39.806  29.938  29.815  1.00  0.00     0.087 C 
ATOM     10  C   UNL A   1      42.763  26.399  27.784  1.00  0.00     0.059 A 
ATOM     11  C   UNL A   1      42.198  26.587  29.065  1.00  0.00     0.074 A 
ATOM     12  C   UNL A   1      42.527  27.402  26.821  1.00  0.00     0.065 A 
ATOM     13  C   UNL A   1      41.443  27.731  29.365  1.00  0.00     0.130 A 
ATOM     14  C   UNL A   1      41.873  28.588  27.154  1.00  0.00     0.034 A 
ATOM     15  Cl  UNL A   1      42.932  27.209  25.149  1.00  0.00    -0.082 Cl
ATOM     16  C   UNL A   1      41.321  28.748  28.421  1.00  0.00     0.019 A 
ATOM     17  O   UNL A   1      40.853  27.803  30.600  1.00  0.00    -0.475 OA
ATOM     18  C   UNL A   1      40.566  29.948  28.716  1.00  0.00     0.027 C 
ATOM     19  C   UNL A   1      39.793  28.795  30.799  1.00  0.00     0.316 C 
BRANCH  10  20
ATOM     20  N   UNL A   1      43.500  25.248  27.479  1.00  0.00    -0.373 N 
ATOM     21  C   UNL A   1      44.944  25.428  27.377  1.00  0.00     0.143 C 
BRANCH  20  22
ATOM     22  C   UNL A   1      42.880  24.201  26.640  1.00  0.00     0.119 C 
BRANCH  22  23
ATOM     23  C   UNL A   1      42.971  22.792  27.266  1.00  0.00     0.002 C 
ATOM     24  C   UNL A   1      42.160  22.687  28.561  1.00  0.00     0.009 C 
ATOM     25  C   UNL A   1      42.500  21.703  26.299  1.00  0.00     0.009 C 
ENDBRANCH  22  23
ENDBRANCH  20  22
ENDBRANCH  10  20
BRANCH  19  26
ATOM     26  C   UNL A   1      38.418  28.114  30.826  1.00  0.00     0.430 C 
ATOM     27  F   UNL A   1      38.525  26.766  30.793  1.00  0.00    -0.167 F 
ATOM     28  F   UNL A   1      37.735  28.423  31.957  1.00  0.00    -0.167 F 
ATOM     29  F   UNL A   1      37.646  28.487  29.780  1.00  0.00    -0.167 F 
ENDBRANCH  19  26
ENDBRANCH   7   9
ENDBRANCH   6   7
ENDBRANCH   5   6
ENDBRANCH   4   5
ENDBRANCH   3   4
ENDBRANCH   2   3
ENDBRANCH   1   2
BRANCH   1  30
ATOM     30  O   UNL A   1      33.400  34.907  31.453  1.00  0.00    -0.377 OA
BRANCH  30  31
ATOM     31  C   UNL A   1      34.039  35.784  32.384  1.00  0.00     0.188 C 
BRANCH  31  32
ATOM     32  C   UNL A   1      34.666  35.279  33.706  1.00  0.00     0.188 C 
BRANCH  32  33
ATOM     33  O   UNL A   1      36.080  35.122  33.661  1.00  0.00    -0.376 OA
BRANCH  33  34
ATOM     34  C   UNL A   1      36.594  33.818  33.890  1.00  0.00     0.202 C 
BRANCH  34  35
ATOM     35  C   UNL A   1      36.975  33.544  35.349  1.00  0.00     0.261 C 
BRANCH  35  36
ATOM     36  O   UNL A   1      38.385  33.495  35.613  1.00  0.00    -0.460 OA
BRANCH  36  37
ATOM     37  C   UNL A   1      38.870  32.411  36.258  1.00  0.00     0.338 C 
ATOM     38  O   UNL A   1      38.457  31.917  37.292  1.00  0.00    -0.246 OA
BRANCH  37  39
ATOM     39  C   UNL A   1      39.884  31.798  35.374  1.00  0.00     0.060 A 
ATOM     40  C   UNL A   1      39.507  30.823  34.448  1.00  0.00     0.016 A 
ATOM     41  C   UNL A   1      41.228  32.169  35.510  1.00  0.00     0.016 A 
ATOM     42  C   UNL A   1      40.474  30.239  33.632  1.00  0.00     0.010 A 
ATOM     43  C   UNL A   1      42.197  31.579  34.693  1.00  0.00     0.010 A 
ATOM     44  C   UNL A   1      41.820  30.629  33.732  1.00  0.00    -0.014 A 
BRANCH  44  45
ATOM     45  C   UNL A   1      42.780  30.175  32.700  1.00  0.00     0.031 A 
ATOM     46  C   UNL A   1      43.121  31.001  31.501  1.00  0.00     0.074 A 
ATOM     47  C   UNL A   1      43.357  28.972  32.876  1.00  0.00     0.049 A 
ATOM     48  N   UNL A   1      44.036  30.784  30.589  1.00  0.00    -0.248 NA
ATOM     49  C   UNL A   1      42.330  32.219  31.291  1.00  0.00     0.031 C 
ATOM     50  C   UNL A   1      43.064  28.058  33.982  1.00  0.00     0.029 A 
ATOM     51  N   UNL A   1      44.307  28.316  32.139  1.00  0.00    -0.354 N 
ATOM     52  C   UNL A   1      43.953  31.851  29.705  1.00  0.00     0.074 A 
ATOM     53  C   UNL A   1      42.857  32.684  30.165  1.00  0.00     0.031 C 
ATOM     54  C   UNL A   1      43.836  26.969  33.863  1.00  0.00     0.029 A 
ATOM     55  C   UNL A   1      44.662  27.101  32.668  1.00  0.00     0.049 A 
ATOM     56  H   UNL A   1      44.697  28.681  31.312  1.00  0.00     0.167 HD
ATOM     57  C   UNL A   1      44.729  32.115  28.625  1.00  0.00     0.037 A 
ATOM     58  C   UNL A   1      45.560  26.195  32.242  1.00  0.00     0.037 A 
ATOM     59  C   UNL A   1      45.789  31.256  28.153  1.00  0.00     0.049 A 
ATOM     60  C   UNL A   1      46.382  26.491  31.024  1.00  0.00     0.074 A 
ATOM     61  C   UNL A   1      46.661  31.456  27.095  1.00  0.00     0.029 A 
ATOM     62  N   UNL A   1      46.105  30.015  28.692  1.00  0.00    -0.354 N 
ATOM     63  N   UNL A   1      46.368  27.553  30.256  1.00  0.00    -0.248 NA
ATOM     64  C   UNL A   1      47.354  25.468  30.621  1.00  0.00     0.031 C 
ATOM     65  C   UNL A   1      47.462  30.315  26.960  1.00  0.00     0.029 A 
ATOM     66  C   UNL A   1      47.130  29.424  27.968  1.00  0.00     0.049 A 
ATOM     67  H   UNL A   1      45.664  29.614  29.476  1.00  0.00     0.167 HD
ATOM     68  C   UNL A   1      47.339  27.336  29.289  1.00  0.00     0.074 A 
ATOM     69  C   UNL A   1      47.938  26.049  29.584  1.00  0.00     0.031 C 
ATOM     70  C   UNL A   1      47.703  28.131  28.252  1.00  0.00     0.037 A 
BRANCH  57  71
ATOM     71  C   UNL A   1      44.445  33.386  27.874  1.00  0.00     0.057 A 
ATOM     72  C   UNL A   1      43.841  33.359  26.611  1.00  0.00     0.134 A 
ATOM     73  C   UNL A   1      44.779  34.642  28.400  1.00  0.00     0.134 A 
ATOM     74  F   UNL A   1      43.508  32.193  26.040  1.00  0.00    -0.206 F 
ATOM     75  C   UNL A   1      43.568  34.533  25.906  1.00  0.00     0.040 A 
ATOM     76  C   UNL A   1      44.484  35.825  27.718  1.00  0.00     0.040 A 
ATOM     77  F   UNL A   1      45.356  34.743  29.607  1.00  0.00    -0.206 F 
ATOM     78  C   UNL A   1      43.878  35.771  26.465  1.00  0.00     0.006 A 
ENDBRANCH  57  71
BRANCH  58  79
ATOM     79  C   UNL A   1      45.741  24.937  33.006  1.00  0.00     0.057 A 
ATOM     80  C   UNL A   1      44.853  23.865  32.858  1.00  0.00     0.134 A 
ATOM     81  C   UNL A   1      46.790  24.789  33.917  1.00  0.00     0.134 A 
ATOM     82  F   UNL A   1      43.818  23.954  32.009  1.00  0.00    -0.206 F 
ATOM     83  C   UNL A   1      44.994  22.693  33.600  1.00  0.00     0.040 A 
ATOM     84  C   UNL A   1      46.960  23.612  34.647  1.00  0.00     0.040 A 
ATOM     85  F   UNL A   1      47.679  25.778  34.091  1.00  0.00    -0.206 F 
ATOM     86  C   UNL A   1      46.056  22.562  34.494  1.00  0.00     0.006 A 
ENDBRANCH  58  79
BRANCH  70  87
ATOM     87  C   UNL A   1      48.808  27.625  27.368  1.00  0.00     0.057 A 
ATOM     88  C   UNL A   1      50.151  27.821  27.714  1.00  0.00     0.134 A 
ATOM     89  C   UNL A   1      48.545  26.938  26.175  1.00  0.00     0.134 A 
ATOM     90  F   UNL A   1      50.476  28.475  28.839  1.00  0.00    -0.206 F 
ATOM     91  C   UNL A   1      51.190  27.350  26.910  1.00  0.00     0.040 A 
ATOM     92  C   UNL A   1      49.575  26.435  25.377  1.00  0.00     0.040 A 
ATOM     93  F   UNL A   1      47.281  26.698  25.793  1.00  0.00    -0.206 F 
ATOM     94  C   UNL A   1      50.903  26.646  25.742  1.00  0.00     0.006 A 
ENDBRANCH  70  87
ENDBRANCH  44  45
ENDBRANCH  37  39
ENDBRANCH  36  37
ENDBRANCH  35  36
ENDBRANCH  34  35
ENDBRANCH  33  34
ENDBRANCH  32  33
ENDBRANCH  31  32
ENDBRANCH  30  31
ENDBRANCH   1  30
TORSDOF 24
ENDMDL
MODEL 2
REMARK VINA RESULT:      -7.3      6.352     10.330
REMARK SMILES CC(C)CN(C)c1cc2c(cc1Cl)C=C(C(=O)OCCOCCOCCOCCOC(=O)c1ccc(-c3c4nc(c(-c5c(F)cccc5F)c5ccc([nH]5)c(-c5c(F)cccc5F)c5nc(c(-c6c(F)cccc6F)c6ccc3[nH]6)C=C5)C=C4)cc1)[C@@H](C(F)(F)F)O2
REMARK SMILES IDX 23 1 22 2 21 3 20 4 19 5 18 6 16 7 17 8 15 9 7 10 8 11 12 12
REMARK SMILES IDX 9 13 11 14 13 15 10 16 92 17 14 18 87 19 5 20 6 21 4 22 2 23
REMARK SMILES IDX 1 24 3 25 88 26 89 27 90 28 91 29 24 30 25 31 26 32 27 33
REMARK SMILES IDX 28 34 29 35 30 36 31 37 32 38 33 39 34 40 86 41 35 42 85 43
REMARK SMILES IDX 36 44 37 45 38 46 79 47 39 48 84 49 78 50 80 51 40 52 83 53
REMARK SMILES IDX 77 54 76 55 41 57 67 58 50 59 66 60 51 61 54 62 65 63 81 64
REMARK SMILES IDX 52 65 53 66 64 68 82 69 55 70 42 71 43 72 48 73 44 74 45 75
REMARK SMILES IDX 47 76 49 77 46 78 68 79 69 80 74 81 70 82 71 83 73 84 75 85
REMARK SMILES IDX 72 86 56 87 57 88 62 89 58 90 59 91 61 92 63 93 60 94
REMARK H PARENT 80 56 54 67
REMARK Flexibility Score: inf
ROOT
ATOM      1  C   UNL A   1      36.868  21.597  24.424  1.00  0.00     0.188 C 
ENDROOT
BRANCH   1   2
ATOM      2  C   UNL A   1      35.835  20.875  25.308  1.00  0.00     0.188 C 
BRANCH   2   3
ATOM      3  O   UNL A   1      35.463  21.634  26.455  1.00  0.00    -0.376 OA
BRANCH   3   4
ATOM      4  C   UNL A   1      34.253  21.287  27.116  1.00  0.00     0.202 C 
BRANCH   4   5
ATOM      5  C   UNL A   1      33.295  22.423  27.522  1.00  0.00     0.261 C 
BRANCH   5   6
ATOM      6  O   UNL A   1      31.929  22.255  27.113  1.00  0.00    -0.460 OA
BRANCH   6   7
ATOM      7  C   UNL A   1      31.703  22.183  25.790  1.00  0.00     0.338 C 
ATOM      8  O   UNL A   1      31.420  21.177  25.161  1.00  0.00    -0.246 OA
BRANCH   7   9
ATOM      9  C   UNL A   1      31.688  23.549  25.226  1.00  0.00     0.087 C 
ATOM     10  C   UNL A   1      30.210  28.014  23.416  1.00  0.00     0.059 A 
ATOM     11  C   UNL A   1      31.468  27.392  23.585  1.00  0.00     0.074 A 
ATOM     12  C   UNL A   1      29.076  27.308  23.870  1.00  0.00     0.065 A 
ATOM     13  C   UNL A   1      31.579  26.131  24.189  1.00  0.00     0.130 A 
ATOM     14  C   UNL A   1      29.199  26.108  24.569  1.00  0.00     0.034 A 
ATOM     15  Cl  UNL A   1      27.457  27.812  23.516  1.00  0.00    -0.082 Cl
ATOM     16  C   UNL A   1      30.448  25.514  24.718  1.00  0.00     0.019 A 
ATOM     17  O   UNL A   1      32.821  25.552  24.238  1.00  0.00    -0.475 OA
ATOM     18  C   UNL A   1      30.542  24.222  25.366  1.00  0.00     0.027 C 
ATOM     19  C   UNL A   1      32.900  24.119  24.533  1.00  0.00     0.316 C 
BRANCH  10  20
ATOM     20  N   UNL A   1      30.097  29.265  22.797  1.00  0.00    -0.373 N 
ATOM     21  C   UNL A   1      31.044  29.526  21.718  1.00  0.00     0.143 C 
BRANCH  20  22
ATOM     22  C   UNL A   1      29.631  30.419  23.593  1.00  0.00     0.119 C 
BRANCH  22  23
ATOM     23  C   UNL A   1      28.528  31.236  22.884  1.00  0.00     0.002 C 
ATOM     24  C   UNL A   1      28.055  30.561  21.593  1.00  0.00     0.009 C 
ATOM     25  C   UNL A   1      27.316  31.471  23.790  1.00  0.00     0.009 C 
ENDBRANCH  22  23
ENDBRANCH  20  22
ENDBRANCH  10  20
BRANCH  19  26
ATOM     26  C   UNL A   1      33.223  23.327  23.258  1.00  0.00     0.430 C 
ATOM     27  F   UNL A   1      32.107  23.045  22.547  1.00  0.00    -0.167 F 
ATOM     28  F   UNL A   1      34.044  24.026  22.436  1.00  0.00    -0.167 F 
ATOM     29  F   UNL A   1      33.838  22.154  23.533  1.00  0.00    -0.167 F 
ENDBRANCH  19  26
ENDBRANCH   7   9
ENDBRANCH   6   7
ENDBRANCH   5   6
ENDBRANCH   4   5
ENDBRANCH   3   4
ENDBRANCH   2   3
ENDBRANCH   1   2
BRANCH   1  30
ATOM     30  O   UNL A   1      37.167  22.911  24.869  1.00  0.00    -0.377 OA
BRANCH  30  31
ATOM     31  C   UNL A   1      38.420  23.130  25.521  1.00  0.00     0.188 C 
BRANCH  31  32
ATOM     32  C   UNL A   1      39.054  22.088  26.475  1.00  0.00     0.188 C 
BRANCH  32  33
ATOM     33  O   UNL A   1      40.296  21.561  26.023  1.00  0.00    -0.376 OA
BRANCH  33  34
ATOM     34  C   UNL A   1      41.217  21.132  27.016  1.00  0.00     0.202 C 
BRANCH  34  35
ATOM     35  C   UNL A   1      42.405  22.080  27.218  1.00  0.00     0.261 C 
BRANCH  35  36
ATOM     36  O   UNL A   1      42.270  23.005  28.307  1.00  0.00    -0.460 OA
BRANCH  36  37
ATOM     37  C   UNL A   1      41.731  24.216  28.045  1.00  0.00     0.338 C 
ATOM     38  O   UNL A   1      40.566  24.551  28.167  1.00  0.00    -0.246 OA
BRANCH  37  39
ATOM     39  C   UNL A   1      42.851  25.139  27.767  1.00  0.00     0.060 A 
ATOM     40  C   UNL A   1      43.166  25.481  26.449  1.00  0.00     0.016 A 
ATOM     41  C   UNL A   1      43.622  25.625  28.831  1.00  0.00     0.016 A 
ATOM     42  C   UNL A   1      44.235  26.338  26.198  1.00  0.00     0.010 A 
ATOM     43  C   UNL A   1      44.697  26.481  28.576  1.00  0.00     0.010 A 
ATOM     44  C   UNL A   1      44.993  26.861  27.259  1.00  0.00    -0.014 A 
BRANCH  44  45
ATOM     45  C   UNL A   1      45.961  27.948  26.985  1.00  0.00     0.031 A 
ATOM     46  C   UNL A   1      45.562  29.389  26.945  1.00  0.00     0.074 A 
ATOM     47  C   UNL A   1      47.243  27.597  26.772  1.00  0.00     0.049 A 
ATOM     48  N   UNL A   1      46.326  30.448  26.844  1.00  0.00    -0.248 NA
ATOM     49  C   UNL A   1      44.126  29.679  27.017  1.00  0.00     0.031 C 
ATOM     50  C   UNL A   1      47.739  26.220  26.738  1.00  0.00     0.029 A 
ATOM     51  N   UNL A   1      48.358  28.363  26.553  1.00  0.00    -0.354 N 
ATOM     52  C   UNL A   1      45.467  31.539  26.866  1.00  0.00     0.074 A 
ATOM     53  C   UNL A   1      44.120  31.004  26.933  1.00  0.00     0.031 C 
ATOM     54  C   UNL A   1      49.063  26.238  26.534  1.00  0.00     0.029 A 
ATOM     55  C   UNL A   1      49.504  27.623  26.407  1.00  0.00     0.049 A 
ATOM     56  H   UNL A   1      48.339  29.346  26.507  1.00  0.00     0.167 HD
ATOM     57  C   UNL A   1      45.778  32.859  26.848  1.00  0.00     0.037 A 
ATOM     58  C   UNL A   1      50.773  28.016  26.200  1.00  0.00     0.037 A 
ATOM     59  C   UNL A   1      47.121  33.379  26.738  1.00  0.00     0.049 A 
ATOM     60  C   UNL A   1      51.090  29.481  26.147  1.00  0.00     0.074 A 
ATOM     61  C   UNL A   1      47.543  34.698  26.755  1.00  0.00     0.029 A 
ATOM     62  N   UNL A   1      48.259  32.605  26.559  1.00  0.00    -0.354 N 
ATOM     63  N   UNL A   1      50.282  30.505  26.275  1.00  0.00    -0.248 NA
ATOM     64  C   UNL A   1      52.496  29.843  25.933  1.00  0.00     0.031 C 
ATOM     65  C   UNL A   1      48.925  34.722  26.530  1.00  0.00     0.029 A 
ATOM     66  C   UNL A   1      49.377  33.417  26.428  1.00  0.00     0.049 A 
ATOM     67  H   UNL A   1      48.272  31.620  26.530  1.00  0.00     0.167 HD
ATOM     68  C   UNL A   1      51.083  31.635  26.175  1.00  0.00     0.074 A 
ATOM     69  C   UNL A   1      52.443  31.166  26.000  1.00  0.00     0.031 C 
ATOM     70  C   UNL A   1      50.724  32.942  26.227  1.00  0.00     0.037 A 
BRANCH  57  71
ATOM     71  C   UNL A   1      44.635  33.831  26.939  1.00  0.00     0.057 A 
ATOM     72  C   UNL A   1      44.176  34.293  28.178  1.00  0.00     0.134 A 
ATOM     73  C   UNL A   1      43.978  34.305  25.794  1.00  0.00     0.134 A 
ATOM     74  F   UNL A   1      44.747  33.872  29.317  1.00  0.00    -0.206 F 
ATOM     75  C   UNL A   1      43.119  35.200  28.276  1.00  0.00     0.040 A 
ATOM     76  C   UNL A   1      42.939  35.235  25.876  1.00  0.00     0.040 A 
ATOM     77  F   UNL A   1      44.367  33.906  24.573  1.00  0.00    -0.206 F 
ATOM     78  C   UNL A   1      42.505  35.683  27.122  1.00  0.00     0.006 A 
ENDBRANCH  57  71
BRANCH  58  79
ATOM     79  C   UNL A   1      51.838  26.994  26.062  1.00  0.00     0.057 A 
ATOM     80  C   UNL A   1      52.602  26.590  27.162  1.00  0.00     0.134 A 
ATOM     81  C   UNL A   1      52.130  26.418  24.822  1.00  0.00     0.134 A 
ATOM     82  F   UNL A   1      52.377  27.118  28.375  1.00  0.00    -0.206 F 
ATOM     83  C   UNL A   1      53.630  25.657  27.032  1.00  0.00     0.040 A 
ATOM     84  C   UNL A   1      53.138  25.464  24.682  1.00  0.00     0.040 A 
ATOM     85  F   UNL A   1      51.422  26.758  23.735  1.00  0.00    -0.206 F 
ATOM     86  C   UNL A   1      53.896  25.085  25.789  1.00  0.00     0.006 A 
ENDBRANCH  58  79
BRANCH  70  87
ATOM     87  C   UNL A   1      51.830  33.952  26.097  1.00  0.00     0.057 A 
ATOM     88  C   UNL A   1      52.490  34.442  27.231  1.00  0.00     0.134 A 
ATOM     89  C   UNL A   1      52.246  34.437  24.850  1.00  0.00     0.134 A 
ATOM     90  F   UNL A   1      52.140  34.025  28.457  1.00  0.00    -0.206 F 
ATOM     91  C   UNL A   1      53.525  35.373  27.129  1.00  0.00     0.040 A 
ATOM     92  C   UNL A   1      53.300  35.346  24.732  1.00  0.00     0.040 A 
ATOM     93  F   UNL A   1      51.668  33.995  23.721  1.00  0.00    -0.206 F 
ATOM     94  C   UNL A   1      53.939  35.820  25.876  1.00  0.00     0.006 A 
ENDBRANCH  70  87
ENDBRANCH  44  45
ENDBRANCH  37  39
ENDBRANCH  36  37
ENDBRANCH  35  36
ENDBRANCH  34  35
ENDBRANCH  33  34
ENDBRANCH  32  33
ENDBRANCH  31  32
ENDBRANCH  30  31
ENDBRANCH   1  30
TORSDOF 24
ENDMDL
MODEL 3
REMARK VINA RESULT:      -7.0      6.097     10.549
REMARK SMILES CC(C)CN(C)c1cc2c(cc1Cl)C=C(C(=O)OCCOCCOCCOCCOC(=O)c1ccc(-c3c4nc(c(-c5c(F)cccc5F)c5ccc([nH]5)c(-c5c(F)cccc5F)c5nc(c(-c6c(F)cccc6F)c6ccc3[nH]6)C=C5)C=C4)cc1)[C@@H](C(F)(F)F)O2
REMARK SMILES IDX 23 1 22 2 21 3 20 4 19 5 18 6 16 7 17 8 15 9 7 10 8 11 12 12
REMARK SMILES IDX 9 13 11 14 13 15 10 16 92 17 14 18 87 19 5 20 6 21 4 22 2 23
REMARK SMILES IDX 1 24 3 25 88 26 89 27 90 28 91 29 24 30 25 31 26 32 27 33
REMARK SMILES IDX 28 34 29 35 30 36 31 37 32 38 33 39 34 40 86 41 35 42 85 43
REMARK SMILES IDX 36 44 37 45 38 46 79 47 39 48 84 49 78 50 80 51 40 52 83 53
REMARK SMILES IDX 77 54 76 55 41 57 67 58 50 59 66 60 51 61 54 62 65 63 81 64
REMARK SMILES IDX 52 65 53 66 64 68 82 69 55 70 42 71 43 72 48 73 44 74 45 75
REMARK SMILES IDX 47 76 49 77 46 78 68 79 69 80 74 81 70 82 71 83 73 84 75 85
REMARK SMILES IDX 72 86 56 87 57 88 62 89 58 90 59 91 61 92 63 93 60 94
REMARK H PARENT 80 56 54 67
REMARK Flexibility Score: inf
ROOT
ATOM      1  C   UNL A   1      40.074  20.002  25.886  1.00  0.00     0.188 C 
ENDROOT
BRANCH   1   2
ATOM      2  C   UNL A   1      38.794  20.854  25.969  1.00  0.00     0.188 C 
BRANCH   2   3
ATOM      3  O   UNL A   1      37.915  20.640  24.869  1.00  0.00    -0.376 OA
BRANCH   3   4
ATOM      4  C   UNL A   1      36.554  20.344  25.154  1.00  0.00     0.202 C 
BRANCH   4   5
ATOM      5  C   UNL A   1      35.748  21.358  25.988  1.00  0.00     0.261 C 
BRANCH   5   6
ATOM      6  O   UNL A   1      34.343  21.086  26.101  1.00  0.00    -0.460 OA
BRANCH   6   7
ATOM      7  C   UNL A   1      33.594  21.331  25.012  1.00  0.00     0.338 C 
ATOM      8  O   UNL A   1      33.080  20.494  24.289  1.00  0.00    -0.246 OA
BRANCH   7   9
ATOM      9  C   UNL A   1      33.348  22.784  24.909  1.00  0.00     0.087 C 
ATOM     10  C   UNL A   1      31.136  27.294  24.496  1.00  0.00     0.059 A 
ATOM     11  C   UNL A   1      32.480  26.863  24.557  1.00  0.00     0.074 A 
ATOM     12  C   UNL A   1      30.137  26.305  24.613  1.00  0.00     0.065 A 
ATOM     13  C   UNL A   1      32.802  25.510  24.737  1.00  0.00     0.130 A 
ATOM     14  C   UNL A   1      30.457  24.980  24.903  1.00  0.00     0.034 A 
ATOM     15  Cl  UNL A   1      28.462  26.627  24.311  1.00  0.00    -0.082 Cl
ATOM     16  C   UNL A   1      31.788  24.580  24.954  1.00  0.00     0.019 A 
ATOM     17  O   UNL A   1      34.126  25.156  24.698  1.00  0.00    -0.475 OA
ATOM     18  C   UNL A   1      32.097  23.181  25.165  1.00  0.00     0.027 C 
ATOM     19  C   UNL A   1      34.453  23.737  24.529  1.00  0.00     0.316 C 
BRANCH  10  20
ATOM     20  N   UNL A   1      30.815  28.642  24.297  1.00  0.00    -0.373 N 
ATOM     21  C   UNL A   1      30.020  28.936  23.110  1.00  0.00     0.143 C 
BRANCH  20  22
ATOM     22  C   UNL A   1      31.759  29.680  24.762  1.00  0.00     0.119 C 
BRANCH  22  23
ATOM     23  C   UNL A   1      31.542  30.074  26.240  1.00  0.00     0.002 C 
ATOM     24  C   UNL A   1      32.715  29.643  27.126  1.00  0.00     0.009 C 
ATOM     25  C   UNL A   1      31.327  31.581  26.406  1.00  0.00     0.009 C 
ENDBRANCH  22  23
ENDBRANCH  20  22
ENDBRANCH  10  20
BRANCH  19  26
ATOM     26  C   UNL A   1      34.940  23.466  23.099  1.00  0.00     0.430 C 
ATOM     27  F   UNL A   1      35.116  24.612  22.402  1.00  0.00    -0.167 F 
ATOM     28  F   UNL A   1      36.133  22.821  23.097  1.00  0.00    -0.167 F 
ATOM     29  F   UNL A   1      34.070  22.697  22.404  1.00  0.00    -0.167 F 
ENDBRANCH  19  26
ENDBRANCH   7   9
ENDBRANCH   6   7
ENDBRANCH   5   6
ENDBRANCH   4   5
ENDBRANCH   3   4
ENDBRANCH   2   3
ENDBRANCH   1   2
BRANCH   1  30
ATOM     30  O   UNL A   1      40.872  20.073  27.057  1.00  0.00    -0.377 OA
BRANCH  30  31
ATOM     31  C   UNL A   1      41.974  19.170  27.173  1.00  0.00     0.188 C 
BRANCH  31  32
ATOM     32  C   UNL A   1      42.875  18.798  25.971  1.00  0.00     0.188 C 
BRANCH  32  33
ATOM     33  O   UNL A   1      43.088  19.860  25.048  1.00  0.00    -0.376 OA
BRANCH  33  34
ATOM     34  C   UNL A   1      44.334  20.538  25.117  1.00  0.00     0.202 C 
BRANCH  34  35
ATOM     35  C   UNL A   1      44.224  22.006  25.546  1.00  0.00     0.261 C 
BRANCH  35  36
ATOM     36  O   UNL A   1      43.280  22.267  26.595  1.00  0.00    -0.460 OA
BRANCH  36  37
ATOM     37  C   UNL A   1      42.440  23.314  26.444  1.00  0.00     0.338 C 
ATOM     38  O   UNL A   1      41.222  23.299  26.479  1.00  0.00    -0.246 OA
BRANCH  37  39
ATOM     39  C   UNL A   1      43.271  24.537  26.423  1.00  0.00     0.060 A 
ATOM     40  C   UNL A   1      43.863  25.000  27.600  1.00  0.00     0.016 A 
ATOM     41  C   UNL A   1      43.415  25.249  25.225  1.00  0.00     0.016 A 
ATOM     42  C   UNL A   1      44.629  26.163  27.572  1.00  0.00     0.010 A 
ATOM     43  C   UNL A   1      44.182  26.417  25.201  1.00  0.00     0.010 A 
ATOM     44  C   UNL A   1      44.813  26.866  26.370  1.00  0.00    -0.014 A 
BRANCH  44  45
ATOM     45  C   UNL A   1      45.819  27.953  26.318  1.00  0.00     0.031 A 
ATOM     46  C   UNL A   1      45.456  29.392  26.499  1.00  0.00     0.074 A 
ATOM     47  C   UNL A   1      47.100  27.602  26.103  1.00  0.00     0.049 A 
ATOM     48  N   UNL A   1      46.249  30.430  26.604  1.00  0.00    -0.248 NA
ATOM     49  C   UNL A   1      44.026  29.711  26.559  1.00  0.00     0.031 C 
ATOM     50  C   UNL A   1      47.563  26.233  25.864  1.00  0.00     0.029 A 
ATOM     51  N   UNL A   1      48.242  28.358  26.058  1.00  0.00    -0.354 N 
ATOM     52  C   UNL A   1      45.416  31.529  26.769  1.00  0.00     0.074 A 
ATOM     53  C   UNL A   1      44.055  31.032  26.693  1.00  0.00     0.031 C 
ATOM     54  C   UNL A   1      48.896  26.243  25.720  1.00  0.00     0.029 A 
ATOM     55  C   UNL A   1      49.375  27.616  25.839  1.00  0.00     0.049 A 
ATOM     56  H   UNL A   1      48.248  29.335  26.173  1.00  0.00     0.167 HD
ATOM     57  C   UNL A   1      45.759  32.824  26.981  1.00  0.00     0.037 A 
ATOM     58  C   UNL A   1      50.661  27.998  25.752  1.00  0.00     0.037 A 
ATOM     59  C   UNL A   1      47.118  33.313  27.012  1.00  0.00     0.049 A 
ATOM     60  C   UNL A   1      51.015  29.441  25.953  1.00  0.00     0.074 A 
ATOM     61  C   UNL A   1      47.570  34.598  27.263  1.00  0.00     0.029 A 
ATOM     62  N   UNL A   1      48.244  32.543  26.755  1.00  0.00    -0.354 N 
ATOM     63  N   UNL A   1      50.227  30.456  26.214  1.00  0.00    -0.248 NA
ATOM     64  C   UNL A   1      52.438  29.790  25.859  1.00  0.00     0.031 C 
ATOM     65  C   UNL A   1      48.962  34.615  27.102  1.00  0.00     0.029 A 
ATOM     66  C   UNL A   1      49.386  33.330  26.805  1.00  0.00     0.049 A 
ATOM     67  H   UNL A   1      48.234  31.576  26.566  1.00  0.00     0.167 HD
ATOM     68  C   UNL A   1      51.058  31.561  26.334  1.00  0.00     0.074 A 
ATOM     69  C   UNL A   1      52.414  31.085  26.139  1.00  0.00     0.031 C 
ATOM     70  C   UNL A   1      50.729  32.853  26.585  1.00  0.00     0.037 A 
BRANCH  57  71
ATOM     71  C   UNL A   1      44.637  33.803  27.183  1.00  0.00     0.057 A 
ATOM     72  C   UNL A   1      44.129  34.066  28.461  1.00  0.00     0.134 A 
ATOM     73  C   UNL A   1      44.050  34.483  26.106  1.00  0.00     0.134 A 
ATOM     74  F   UNL A   1      44.632  33.442  29.536  1.00  0.00    -0.206 F 
ATOM     75  C   UNL A   1      43.090  34.977  28.662  1.00  0.00     0.040 A 
ATOM     76  C   UNL A   1      43.030  35.418  26.297  1.00  0.00     0.040 A 
ATOM     77  F   UNL A   1      44.489  34.282  24.854  1.00  0.00    -0.206 F 
ATOM     78  C   UNL A   1      42.546  35.666  27.580  1.00  0.00     0.006 A 
ENDBRANCH  57  71
BRANCH  58  79
ATOM     79  C   UNL A   1      51.706  26.979  25.492  1.00  0.00     0.057 A 
ATOM     80  C   UNL A   1      52.296  26.262  26.539  1.00  0.00     0.134 A 
ATOM     81  C   UNL A   1      52.155  26.719  24.193  1.00  0.00     0.134 A 
ATOM     82  F   UNL A   1      51.917  26.478  27.807  1.00  0.00    -0.206 F 
ATOM     83  C   UNL A   1      53.306  25.329  26.305  1.00  0.00     0.040 A 
ATOM     84  C   UNL A   1      53.146  25.771  23.942  1.00  0.00     0.040 A 
ATOM     85  F   UNL A   1      51.617  27.368  23.150  1.00  0.00    -0.206 F 
ATOM     86  C   UNL A   1      53.729  25.077  25.001  1.00  0.00     0.006 A 
ENDBRANCH  58  79
BRANCH  70  87
ATOM     87  C   UNL A   1      51.863  33.835  26.667  1.00  0.00     0.057 A 
ATOM     88  C   UNL A   1      52.288  34.537  25.532  1.00  0.00     0.134 A 
ATOM     89  C   UNL A   1      52.534  34.092  27.871  1.00  0.00     0.134 A 
ATOM     90  F   UNL A   1      51.694  34.338  24.346  1.00  0.00    -0.206 F 
ATOM     91  C   UNL A   1      53.334  35.461  25.591  1.00  0.00     0.040 A 
ATOM     92  C   UNL A   1      53.561  35.035  27.950  1.00  0.00     0.040 A 
ATOM     93  F   UNL A   1      52.166  33.468  29.001  1.00  0.00    -0.206 F 
ATOM     94  C   UNL A   1      53.967  35.719  26.805  1.00  0.00     0.006 A 
ENDBRANCH  70  87
ENDBRANCH  44  45
ENDBRANCH  37  39
ENDBRANCH  36  37
ENDBRANCH  35  36
ENDBRANCH  34  35
ENDBRANCH  33  34
ENDBRANCH  32  33
ENDBRANCH  31  32
ENDBRANCH  30  31
ENDBRANCH   1  30
TORSDOF 24
ENDMDL
