MODEL 1
REMARK VINA RESULT:     -10.3      0.000      0.000
REMARK SMILES O=C(OCCOCCOCCOCCOC(=O)[C@H]1Cc2[nH]cnc2CN1C(=O)c1ccncc1Cl)c1ccc(-c2c3nc(c(-c4c(F)cccc4F)c4ccc([nH]4)c(-c4c(F)cccc4F)c4nc(c(-c5c(F)cccc5F)c5ccc2[nH]5)C=C4)C=C3)cc1
REMARK SMILES IDX 9 1 8 2 7 3 6 4 5 5 4 6 3 7 2 8 1 9 36 10 37 11 89 12 38 13
REMARK SMILES IDX 88 14 39 15 40 16 41 17 82 18 42 19 87 20 81 21 83 22 43 23
REMARK SMILES IDX 86 24 80 25 79 26 44 28 70 29 53 30 69 31 54 32 57 33 68 34
REMARK SMILES IDX 84 35 55 36 56 37 67 39 85 40 58 41 45 42 46 43 51 44 47 45
REMARK SMILES IDX 48 46 50 47 52 48 49 49 71 50 72 51 77 52 73 53 74 54 76 55
REMARK SMILES IDX 78 56 75 57 59 58 60 59 65 60 61 61 62 62 64 63 66 64 63 65
REMARK SMILES IDX 10 66 11 67 12 68 13 69 14 70 15 71 16 72 17 73 18 74 19 75
REMARK SMILES IDX 26 76 20 77 25 78 21 79 24 80 22 81 23 83 27 84 28 85 29 86
REMARK SMILES IDX 30 87 34 88 31 89 33 90 35 91 32 92
REMARK H PARENT 83 27 57 38 21 82
REMARK Flexibility Score: inf
ROOT
ATOM      1  O   UNL A   1      31.406  28.107  25.913  1.00  0.00    -0.377 OA
ENDROOT
BRANCH   1   2
ATOM      2  C   UNL A   1      32.305  28.123  27.005  1.00  0.00     0.188 C 
BRANCH   2   3
ATOM      3  C   UNL A   1      33.815  28.159  26.710  1.00  0.00     0.188 C 
BRANCH   3   4
ATOM      4  O   UNL A   1      34.701  29.224  26.983  1.00  0.00    -0.376 OA
BRANCH   4   5
ATOM      5  C   UNL A   1      34.501  30.567  27.357  1.00  0.00     0.202 C 
BRANCH   5   6
ATOM      6  C   UNL A   1      34.902  31.236  28.679  1.00  0.00     0.261 C 
BRANCH   6   7
ATOM      7  O   UNL A   1      36.189  30.971  29.221  1.00  0.00    -0.460 OA
BRANCH   7   8
ATOM      8  C   UNL A   1      36.613  29.842  29.828  1.00  0.00     0.338 C 
ATOM      9  O   UNL A   1      36.129  29.514  30.905  1.00  0.00    -0.246 OA
BRANCH   8  10
ATOM     10  C   UNL A   1      37.796  29.103  29.339  1.00  0.00     0.060 A 
ATOM     11  C   UNL A   1      38.424  28.068  30.031  1.00  0.00     0.016 A 
ATOM     12  C   UNL A   1      38.316  29.542  28.103  1.00  0.00     0.016 A 
ATOM     13  C   UNL A   1      39.606  27.553  29.562  1.00  0.00     0.010 A 
ATOM     14  C   UNL A   1      39.508  29.035  27.630  1.00  0.00     0.010 A 
ATOM     15  C   UNL A   1      40.177  28.117  28.426  1.00  0.00    -0.014 A 
BRANCH  15  16
ATOM     16  C   UNL A   1      41.582  27.833  28.249  1.00  0.00     0.031 A 
ATOM     17  C   UNL A   1      41.878  26.553  27.574  1.00  0.00     0.074 A 
ATOM     18  C   UNL A   1      42.479  28.663  28.810  1.00  0.00     0.049 A 
ATOM     19  N   UNL A   1      42.403  25.491  28.089  1.00  0.00    -0.248 NA
ATOM     20  C   UNL A   1      41.368  26.375  26.208  1.00  0.00     0.031 C 
ATOM     21  C   UNL A   1      42.256  30.013  29.344  1.00  0.00     0.029 A 
ATOM     22  N   UNL A   1      43.818  28.499  28.949  1.00  0.00    -0.354 N 
ATOM     23  C   UNL A   1      42.494  24.575  27.044  1.00  0.00     0.074 A 
ATOM     24  C   UNL A   1      41.689  25.102  25.975  1.00  0.00     0.031 C 
ATOM     25  C   UNL A   1      43.446  30.628  29.508  1.00  0.00     0.029 A 
ATOM     26  C   UNL A   1      44.500  29.673  29.232  1.00  0.00     0.049 A 
ATOM     27  H   UNL A   1      44.264  27.626  28.858  1.00  0.00     0.167 HD
ATOM     28  C   UNL A   1      43.449  23.606  27.054  1.00  0.00     0.037 A 
ATOM     29  C   UNL A   1      45.839  29.843  29.117  1.00  0.00     0.037 A 
ATOM     30  C   UNL A   1      43.887  23.326  28.400  1.00  0.00     0.049 A 
ATOM     31  C   UNL A   1      46.459  28.492  29.157  1.00  0.00     0.074 A 
ATOM     32  C   UNL A   1      43.268  22.874  29.550  1.00  0.00     0.029 A 
ATOM     33  N   UNL A   1      45.092  23.845  28.809  1.00  0.00    -0.354 N 
ATOM     34  N   UNL A   1      46.476  27.740  30.226  1.00  0.00    -0.248 NA
ATOM     35  C   UNL A   1      46.620  27.781  27.897  1.00  0.00     0.031 C 
ATOM     36  C   UNL A   1      43.910  23.569  30.617  1.00  0.00     0.029 A 
ATOM     37  C   UNL A   1      44.917  24.361  30.064  1.00  0.00     0.049 A 
ATOM     38  H   UNL A   1      45.930  23.844  28.291  1.00  0.00     0.167 HD
ATOM     39  C   UNL A   1      46.227  26.455  29.763  1.00  0.00     0.074 A 
ATOM     40  C   UNL A   1      46.402  26.531  28.315  1.00  0.00     0.031 C 
ATOM     41  C   UNL A   1      45.619  25.523  30.556  1.00  0.00     0.037 A 
BRANCH  28  42
ATOM     42  C   UNL A   1      44.293  23.270  25.840  1.00  0.00     0.057 A 
ATOM     43  C   UNL A   1      44.464  21.916  25.494  1.00  0.00     0.134 A 
ATOM     44  C   UNL A   1      45.194  24.158  25.216  1.00  0.00     0.134 A 
ATOM     45  F   UNL A   1      43.656  20.969  25.994  1.00  0.00    -0.206 F 
ATOM     46  C   UNL A   1      45.534  21.471  24.708  1.00  0.00     0.040 A 
ATOM     47  C   UNL A   1      46.239  23.728  24.395  1.00  0.00     0.040 A 
ATOM     48  F   UNL A   1      45.183  25.478  25.424  1.00  0.00    -0.206 F 
ATOM     49  C   UNL A   1      46.440  22.377  24.175  1.00  0.00     0.006 A 
ENDBRANCH  28  42
BRANCH  29  50
ATOM     50  C   UNL A   1      46.529  31.043  28.593  1.00  0.00     0.057 A 
ATOM     51  C   UNL A   1      47.400  31.783  29.398  1.00  0.00     0.134 A 
ATOM     52  C   UNL A   1      46.546  31.349  27.218  1.00  0.00     0.134 A 
ATOM     53  F   UNL A   1      47.488  31.533  30.712  1.00  0.00    -0.206 F 
ATOM     54  C   UNL A   1      48.252  32.760  28.866  1.00  0.00     0.040 A 
ATOM     55  C   UNL A   1      47.382  32.329  26.676  1.00  0.00     0.040 A 
ATOM     56  F   UNL A   1      45.816  30.649  26.336  1.00  0.00    -0.206 F 
ATOM     57  C   UNL A   1      48.251  33.030  27.501  1.00  0.00     0.006 A 
ENDBRANCH  29  50
BRANCH  41  58
ATOM     58  C   UNL A   1      45.445  25.846  32.012  1.00  0.00     0.057 A 
ATOM     59  C   UNL A   1      46.440  25.641  32.979  1.00  0.00     0.134 A 
ATOM     60  C   UNL A   1      44.298  26.535  32.418  1.00  0.00     0.134 A 
ATOM     61  F   UNL A   1      47.616  25.085  32.657  1.00  0.00    -0.206 F 
ATOM     62  C   UNL A   1      46.279  26.063  34.303  1.00  0.00     0.040 A 
ATOM     63  C   UNL A   1      44.138  26.992  33.728  1.00  0.00     0.040 A 
ATOM     64  F   UNL A   1      43.332  26.822  31.531  1.00  0.00    -0.206 F 
ATOM     65  C   UNL A   1      45.126  26.748  34.679  1.00  0.00     0.006 A 
ENDBRANCH  41  58
ENDBRANCH  15  16
ENDBRANCH   8  10
ENDBRANCH   7   8
ENDBRANCH   6   7
ENDBRANCH   5   6
ENDBRANCH   4   5
ENDBRANCH   3   4
ENDBRANCH   2   3
ENDBRANCH   1   2
BRANCH   1  66
ATOM     66  C   UNL A   1      31.499  29.214  25.055  1.00  0.00     0.188 C 
BRANCH  66  67
ATOM     67  C   UNL A   1      31.081  28.974  23.601  1.00  0.00     0.188 C 
BRANCH  67  68
ATOM     68  O   UNL A   1      31.921  28.214  22.754  1.00  0.00    -0.376 OA
BRANCH  68  69
ATOM     69  C   UNL A   1      31.625  26.845  22.528  1.00  0.00     0.202 C 
BRANCH  69  70
ATOM     70  C   UNL A   1      32.215  25.754  23.424  1.00  0.00     0.261 C 
BRANCH  70  71
ATOM     71  O   UNL A   1      33.600  25.377  23.250  1.00  0.00    -0.462 OA
BRANCH  71  72
ATOM     72  C   UNL A   1      33.838  24.083  22.897  1.00  0.00     0.329 C 
ATOM     73  O   UNL A   1      33.173  23.472  22.076  1.00  0.00    -0.250 OA
BRANCH  72  74
ATOM     74  C   UNL A   1      34.954  23.425  23.728  1.00  0.00     0.201 C 
ATOM     75  C   UNL A   1      35.660  24.326  24.785  1.00  0.00     0.093 C 
ATOM     76  N   UNL A   1      34.780  22.011  24.205  1.00  0.00    -0.318 N 
ATOM     77  C   UNL A   1      36.767  23.564  25.409  1.00  0.00     0.042 A 
ATOM     78  C   UNL A   1      36.049  21.297  24.519  1.00  0.00     0.179 C 
ATOM     79  N   UNL A   1      37.845  24.041  26.097  1.00  0.00    -0.348 N 
ATOM     80  C   UNL A   1      36.959  22.209  25.285  1.00  0.00     0.081 A 
ATOM     81  C   UNL A   1      38.662  22.966  26.331  1.00  0.00     0.197 A 
ATOM     82  H   UNL A   1      38.002  24.973  26.371  1.00  0.00     0.167 HD
ATOM     83  N   UNL A   1      38.153  21.849  25.855  1.00  0.00    -0.240 NA
BRANCH  76  84
ATOM     84  C   UNL A   1      33.606  21.389  24.622  1.00  0.00     0.256 C 
ATOM     85  O   UNL A   1      33.243  20.283  24.228  1.00  0.00    -0.269 OA
BRANCH  84  86
ATOM     86  C   UNL A   1      32.676  22.037  25.555  1.00  0.00     0.061 A 
ATOM     87  C   UNL A   1      31.512  22.603  25.028  1.00  0.00     0.035 A 
ATOM     88  C   UNL A   1      33.011  22.242  26.894  1.00  0.00     0.072 A 
ATOM     89  C   UNL A   1      30.688  23.309  25.886  1.00  0.00     0.112 A 
ATOM     90  C   UNL A   1      32.101  22.937  27.676  1.00  0.00     0.132 A 
ATOM     91  Cl  UNL A   1      34.476  21.684  27.603  1.00  0.00    -0.082 Cl
ATOM     92  N   UNL A   1      30.940  23.464  27.205  1.00  0.00    -0.263 NA
ENDBRANCH  84  86
ENDBRANCH  76  84
ENDBRANCH  72  74
ENDBRANCH  71  72
ENDBRANCH  70  71
ENDBRANCH  69  70
ENDBRANCH  68  69
ENDBRANCH  67  68
ENDBRANCH  66  67
ENDBRANCH   1  66
TORSDOF 22
ENDMDL
MODEL 2
REMARK VINA RESULT:     -10.1      1.286      2.699
REMARK SMILES O=C(OCCOCCOCCOCCOC(=O)[C@H]1Cc2[nH]cnc2CN1C(=O)c1ccncc1Cl)c1ccc(-c2c3nc(c(-c4c(F)cccc4F)c4ccc([nH]4)c(-c4c(F)cccc4F)c4nc(c(-c5c(F)cccc5F)c5ccc2[nH]5)C=C4)C=C3)cc1
REMARK SMILES IDX 9 1 8 2 7 3 6 4 5 5 4 6 3 7 2 8 1 9 36 10 37 11 89 12 38 13
REMARK SMILES IDX 88 14 39 15 40 16 41 17 82 18 42 19 87 20 81 21 83 22 43 23
REMARK SMILES IDX 86 24 80 25 79 26 44 28 70 29 53 30 69 31 54 32 57 33 68 34
REMARK SMILES IDX 84 35 55 36 56 37 67 39 85 40 58 41 45 42 46 43 51 44 47 45
REMARK SMILES IDX 48 46 50 47 52 48 49 49 71 50 72 51 77 52 73 53 74 54 76 55
REMARK SMILES IDX 78 56 75 57 59 58 60 59 65 60 61 61 62 62 64 63 66 64 63 65
REMARK SMILES IDX 10 66 11 67 12 68 13 69 14 70 15 71 16 72 17 73 18 74 19 75
REMARK SMILES IDX 26 76 20 77 25 78 21 79 24 80 22 81 23 83 27 84 28 85 29 86
REMARK SMILES IDX 30 87 34 88 31 89 33 90 35 91 32 92
REMARK H PARENT 83 27 57 38 21 82
REMARK Flexibility Score: inf
ROOT
ATOM      1  O   UNL A   1      31.406  28.975  25.990  1.00  0.00    -0.377 OA
ENDROOT
BRANCH   1   2
ATOM      2  C   UNL A   1      32.266  29.820  26.730  1.00  0.00     0.188 C 
BRANCH   2   3
ATOM      3  C   UNL A   1      33.753  29.437  26.838  1.00  0.00     0.188 C 
BRANCH   3   4
ATOM      4  O   UNL A   1      34.812  30.278  27.246  1.00  0.00    -0.376 OA
BRANCH   4   5
ATOM      5  C   UNL A   1      34.849  31.517  27.913  1.00  0.00     0.202 C 
BRANCH   5   6
ATOM      6  C   UNL A   1      35.288  31.784  29.360  1.00  0.00     0.261 C 
BRANCH   6   7
ATOM      7  O   UNL A   1      36.495  31.202  29.831  1.00  0.00    -0.460 OA
BRANCH   7   8
ATOM      8  C   UNL A   1      36.730  29.903  30.116  1.00  0.00     0.338 C 
ATOM      9  O   UNL A   1      36.072  29.344  30.984  1.00  0.00    -0.246 OA
BRANCH   8  10
ATOM     10  C   UNL A   1      37.901  29.193  29.561  1.00  0.00     0.060 A 
ATOM     11  C   UNL A   1      38.528  28.106  30.168  1.00  0.00     0.016 A 
ATOM     12  C   UNL A   1      38.411  29.717  28.354  1.00  0.00     0.016 A 
ATOM     13  C   UNL A   1      39.701  27.618  29.650  1.00  0.00     0.010 A 
ATOM     14  C   UNL A   1      39.594  29.237  27.832  1.00  0.00     0.010 A 
ATOM     15  C   UNL A   1      40.264  28.259  28.551  1.00  0.00    -0.014 A 
BRANCH  15  16
ATOM     16  C   UNL A   1      41.665  27.979  28.338  1.00  0.00     0.031 A 
ATOM     17  C   UNL A   1      41.948  26.686  27.682  1.00  0.00     0.074 A 
ATOM     18  C   UNL A   1      42.574  28.826  28.853  1.00  0.00     0.049 A 
ATOM     19  N   UNL A   1      42.495  25.638  28.204  1.00  0.00    -0.248 NA
ATOM     20  C   UNL A   1      41.399  26.476  26.336  1.00  0.00     0.031 C 
ATOM     21  C   UNL A   1      42.359  30.186  29.365  1.00  0.00     0.029 A 
ATOM     22  N   UNL A   1      43.917  28.672  28.955  1.00  0.00    -0.354 N 
ATOM     23  C   UNL A   1      42.560  24.701  27.177  1.00  0.00     0.074 A 
ATOM     24  C   UNL A   1      41.720  25.200  26.121  1.00  0.00     0.031 C 
ATOM     25  C   UNL A   1      43.550  30.811  29.479  1.00  0.00     0.029 A 
ATOM     26  C   UNL A   1      44.600  29.855  29.192  1.00  0.00     0.049 A 
ATOM     27  H   UNL A   1      44.365  27.799  28.870  1.00  0.00     0.167 HD
ATOM     28  C   UNL A   1      43.521  23.737  27.179  1.00  0.00     0.037 A 
ATOM     29  C   UNL A   1      45.934  30.030  29.034  1.00  0.00     0.037 A 
ATOM     30  C   UNL A   1      44.000  23.489  28.516  1.00  0.00     0.049 A 
ATOM     31  C   UNL A   1      46.563  28.684  29.084  1.00  0.00     0.074 A 
ATOM     32  C   UNL A   1      43.419  23.058  29.694  1.00  0.00     0.029 A 
ATOM     33  N   UNL A   1      45.214  24.023  28.878  1.00  0.00    -0.354 N 
ATOM     34  N   UNL A   1      46.617  27.955  30.168  1.00  0.00    -0.248 NA
ATOM     35  C   UNL A   1      46.691  27.946  27.835  1.00  0.00     0.031 C 
ATOM     36  C   UNL A   1      44.089  23.779  30.726  1.00  0.00     0.029 A 
ATOM     37  C   UNL A   1      45.074  24.565  30.126  1.00  0.00     0.049 A 
ATOM     38  H   UNL A   1      46.036  24.015  28.335  1.00  0.00     0.167 HD
ATOM     39  C   UNL A   1      46.361  26.659  29.741  1.00  0.00     0.074 A 
ATOM     40  C   UNL A   1      46.492  26.704  28.287  1.00  0.00     0.031 C 
ATOM     41  C   UNL A   1      45.783  25.741  30.571  1.00  0.00     0.037 A 
BRANCH  28  42
ATOM     42  C   UNL A   1      44.330  23.379  25.947  1.00  0.00     0.057 A 
ATOM     43  C   UNL A   1      44.466  22.021  25.604  1.00  0.00     0.134 A 
ATOM     44  C   UNL A   1      45.234  24.247  25.299  1.00  0.00     0.134 A 
ATOM     45  F   UNL A   1      43.650  21.092  26.126  1.00  0.00    -0.206 F 
ATOM     46  C   UNL A   1      45.508  21.551  24.796  1.00  0.00     0.040 A 
ATOM     47  C   UNL A   1      46.250  23.792  24.457  1.00  0.00     0.040 A 
ATOM     48  F   UNL A   1      45.254  25.567  25.502  1.00  0.00    -0.206 F 
ATOM     49  C   UNL A   1      46.420  22.437  24.238  1.00  0.00     0.006 A 
ENDBRANCH  28  42
BRANCH  29  50
ATOM     50  C   UNL A   1      46.600  31.222  28.463  1.00  0.00     0.057 A 
ATOM     51  C   UNL A   1      47.674  31.832  29.120  1.00  0.00     0.134 A 
ATOM     52  C   UNL A   1      46.367  31.641  27.139  1.00  0.00     0.134 A 
ATOM     53  F   UNL A   1      48.002  31.466  30.368  1.00  0.00    -0.206 F 
ATOM     54  C   UNL A   1      48.479  32.792  28.494  1.00  0.00     0.040 A 
ATOM     55  C   UNL A   1      47.155  32.606  26.506  1.00  0.00     0.040 A 
ATOM     56  F   UNL A   1      45.420  31.069  26.380  1.00  0.00    -0.206 F 
ATOM     57  C   UNL A   1      48.226  33.176  27.180  1.00  0.00     0.006 A 
ENDBRANCH  29  50
BRANCH  41  58
ATOM     58  C   UNL A   1      45.652  26.095  32.025  1.00  0.00     0.057 A 
ATOM     59  C   UNL A   1      44.555  26.785  32.562  1.00  0.00     0.134 A 
ATOM     60  C   UNL A   1      46.583  25.580  32.931  1.00  0.00     0.134 A 
ATOM     61  F   UNL A   1      43.559  27.221  31.779  1.00  0.00    -0.206 F 
ATOM     62  C   UNL A   1      44.417  26.991  33.939  1.00  0.00     0.040 A 
ATOM     63  C   UNL A   1      46.441  25.750  34.310  1.00  0.00     0.040 A 
ATOM     64  F   UNL A   1      47.624  24.855  32.493  1.00  0.00    -0.206 F 
ATOM     65  C   UNL A   1      45.360  26.466  34.818  1.00  0.00     0.006 A 
ENDBRANCH  41  58
ENDBRANCH  15  16
ENDBRANCH   8  10
ENDBRANCH   7   8
ENDBRANCH   6   7
ENDBRANCH   5   6
ENDBRANCH   4   5
ENDBRANCH   3   4
ENDBRANCH   2   3
ENDBRANCH   1   2
BRANCH   1  66
ATOM     66  C   UNL A   1      31.246  29.331  24.641  1.00  0.00     0.188 C 
BRANCH  66  67
ATOM     67  C   UNL A   1      30.566  28.288  23.748  1.00  0.00     0.188 C 
BRANCH  67  68
ATOM     68  O   UNL A   1      31.188  27.033  23.549  1.00  0.00    -0.376 OA
BRANCH  68  69
ATOM     69  C   UNL A   1      30.730  25.907  24.280  1.00  0.00     0.202 C 
BRANCH  69  70
ATOM     70  C   UNL A   1      31.712  24.861  24.810  1.00  0.00     0.261 C 
BRANCH  70  71
ATOM     71  O   UNL A   1      33.102  24.944  24.423  1.00  0.00    -0.462 OA
BRANCH  71  72
ATOM     72  C   UNL A   1      33.516  24.080  23.455  1.00  0.00     0.329 C 
ATOM     73  O   UNL A   1      33.719  24.406  22.297  1.00  0.00    -0.250 OA
BRANCH  72  74
ATOM     74  C   UNL A   1      33.584  22.619  23.937  1.00  0.00     0.201 C 
ATOM     75  C   UNL A   1      32.859  21.560  23.054  1.00  0.00     0.093 C 
ATOM     76  N   UNL A   1      34.862  22.096  24.526  1.00  0.00    -0.318 N 
ATOM     77  C   UNL A   1      32.937  20.239  23.720  1.00  0.00     0.042 A 
ATOM     78  C   UNL A   1      34.703  20.912  25.415  1.00  0.00     0.179 C 
ATOM     79  N   UNL A   1      32.165  19.133  23.507  1.00  0.00    -0.348 N 
ATOM     80  C   UNL A   1      33.749  19.941  24.788  1.00  0.00     0.081 A 
ATOM     81  C   UNL A   1      32.514  18.225  24.472  1.00  0.00     0.197 A 
ATOM     82  H   UNL A   1      31.493  19.012  22.799  1.00  0.00     0.167 HD
ATOM     83  N   UNL A   1      33.467  18.684  25.258  1.00  0.00    -0.240 NA
BRANCH  76  84
ATOM     84  C   UNL A   1      36.166  22.412  24.152  1.00  0.00     0.256 C 
ATOM     85  O   UNL A   1      36.521  22.575  22.986  1.00  0.00    -0.269 OA
BRANCH  84  86
ATOM     86  C   UNL A   1      37.245  22.541  25.140  1.00  0.00     0.061 A 
ATOM     87  C   UNL A   1      37.458  23.797  25.712  1.00  0.00     0.035 A 
ATOM     88  C   UNL A   1      38.143  21.500  25.377  1.00  0.00     0.072 A 
ATOM     89  C   UNL A   1      38.542  23.949  26.559  1.00  0.00     0.112 A 
ATOM     90  C   UNL A   1      39.178  21.747  26.266  1.00  0.00     0.132 A 
ATOM     91  Cl  UNL A   1      38.029  19.955  24.627  1.00  0.00    -0.082 Cl
ATOM     92  N   UNL A   1      39.390  22.944  26.873  1.00  0.00    -0.263 NA
ENDBRANCH  84  86
ENDBRANCH  76  84
ENDBRANCH  72  74
ENDBRANCH  71  72
ENDBRANCH  70  71
ENDBRANCH  69  70
ENDBRANCH  68  69
ENDBRANCH  67  68
ENDBRANCH  66  67
ENDBRANCH   1  66
TORSDOF 22
ENDMDL
MODEL 3
REMARK VINA RESULT:      -9.8      2.143      6.123
REMARK SMILES O=C(OCCOCCOCCOCCOC(=O)[C@H]1Cc2[nH]cnc2CN1C(=O)c1ccncc1Cl)c1ccc(-c2c3nc(c(-c4c(F)cccc4F)c4ccc([nH]4)c(-c4c(F)cccc4F)c4nc(c(-c5c(F)cccc5F)c5ccc2[nH]5)C=C4)C=C3)cc1
REMARK SMILES IDX 9 1 8 2 7 3 6 4 5 5 4 6 3 7 2 8 1 9 36 10 37 11 89 12 38 13
REMARK SMILES IDX 88 14 39 15 40 16 41 17 82 18 42 19 87 20 81 21 83 22 43 23
REMARK SMILES IDX 86 24 80 25 79 26 44 28 70 29 53 30 69 31 54 32 57 33 68 34
REMARK SMILES IDX 84 35 55 36 56 37 67 39 85 40 58 41 45 42 46 43 51 44 47 45
REMARK SMILES IDX 48 46 50 47 52 48 49 49 71 50 72 51 77 52 73 53 74 54 76 55
REMARK SMILES IDX 78 56 75 57 59 58 60 59 65 60 61 61 62 62 64 63 66 64 63 65
REMARK SMILES IDX 10 66 11 67 12 68 13 69 14 70 15 71 16 72 17 73 18 74 19 75
REMARK SMILES IDX 26 76 20 77 25 78 21 79 24 80 22 81 23 83 27 84 28 85 29 86
REMARK SMILES IDX 30 87 34 88 31 89 33 90 35 91 32 92
REMARK H PARENT 83 27 57 38 21 82
REMARK Flexibility Score: inf
ROOT
ATOM      1  O   UNL A   1      31.538  30.068  25.722  1.00  0.00    -0.377 OA
ENDROOT
BRANCH   1   2
ATOM      2  C   UNL A   1      32.143  29.771  26.966  1.00  0.00     0.188 C 
BRANCH   2   3
ATOM      3  C   UNL A   1      33.676  29.642  27.022  1.00  0.00     0.188 C 
BRANCH   3   4
ATOM      4  O   UNL A   1      34.576  30.548  27.625  1.00  0.00    -0.376 OA
BRANCH   4   5
ATOM      5  C   UNL A   1      34.604  31.952  27.720  1.00  0.00     0.202 C 
BRANCH   5   6
ATOM      6  C   UNL A   1      34.530  32.801  28.997  1.00  0.00     0.261 C 
BRANCH   6   7
ATOM      7  O   UNL A   1      34.507  32.147  30.258  1.00  0.00    -0.460 OA
BRANCH   7   8
ATOM      8  C   UNL A   1      35.558  31.839  31.048  1.00  0.00     0.338 C 
ATOM      9  O   UNL A   1      35.702  32.418  32.117  1.00  0.00    -0.246 OA
BRANCH   8  10
ATOM     10  C   UNL A   1      36.657  30.978  30.564  1.00  0.00     0.060 A 
ATOM     11  C   UNL A   1      36.620  29.585  30.543  1.00  0.00     0.016 A 
ATOM     12  C   UNL A   1      37.820  31.659  30.146  1.00  0.00     0.016 A 
ATOM     13  C   UNL A   1      37.751  28.877  30.219  1.00  0.00     0.010 A 
ATOM     14  C   UNL A   1      38.963  30.955  29.828  1.00  0.00     0.010 A 
ATOM     15  C   UNL A   1      38.927  29.576  29.968  1.00  0.00    -0.014 A 
BRANCH  15  16
ATOM     16  C   UNL A   1      40.133  28.786  30.064  1.00  0.00     0.031 A 
ATOM     17  C   UNL A   1      40.764  28.774  31.399  1.00  0.00     0.074 A 
ATOM     18  C   UNL A   1      40.640  28.250  28.939  1.00  0.00     0.049 A 
ATOM     19  N   UNL A   1      41.881  29.320  31.751  1.00  0.00    -0.248 NA
ATOM     20  C   UNL A   1      39.974  28.240  32.516  1.00  0.00     0.031 C 
ATOM     21  C   UNL A   1      39.984  28.094  27.633  1.00  0.00     0.029 A 
ATOM     22  N   UNL A   1      41.842  27.652  28.749  1.00  0.00    -0.354 N 
ATOM     23  C   UNL A   1      42.044  29.005  33.097  1.00  0.00     0.074 A 
ATOM     24  C   UNL A   1      40.774  28.505  33.550  1.00  0.00     0.031 C 
ATOM     25  C   UNL A   1      40.695  27.227  26.881  1.00  0.00     0.029 A 
ATOM     26  C   UNL A   1      41.912  26.892  27.591  1.00  0.00     0.049 A 
ATOM     27  H   UNL A   1      42.594  27.750  29.376  1.00  0.00     0.167 HD
ATOM     28  C   UNL A   1      43.287  28.924  33.644  1.00  0.00     0.037 A 
ATOM     29  C   UNL A   1      42.863  25.965  27.324  1.00  0.00     0.037 A 
ATOM     30  C   UNL A   1      44.236  29.702  32.887  1.00  0.00     0.049 A 
ATOM     31  C   UNL A   1      44.035  26.278  28.185  1.00  0.00     0.074 A 
ATOM     32  C   UNL A   1      44.355  31.040  32.558  1.00  0.00     0.029 A 
ATOM     33  N   UNL A   1      45.090  29.037  32.041  1.00  0.00    -0.354 N 
ATOM     34  N   UNL A   1      44.783  27.337  28.026  1.00  0.00    -0.248 NA
ATOM     35  C   UNL A   1      44.080  25.682  29.513  1.00  0.00     0.031 C 
ATOM     36  C   UNL A   1      44.897  31.053  31.239  1.00  0.00     0.029 A 
ATOM     37  C   UNL A   1      45.128  29.730  30.861  1.00  0.00     0.049 A 
ATOM     38  H   UNL A   1      45.585  28.211  32.247  1.00  0.00     0.167 HD
ATOM     39  C   UNL A   1      45.052  27.783  29.314  1.00  0.00     0.074 A 
ATOM     40  C   UNL A   1      44.659  26.680  30.188  1.00  0.00     0.031 C 
ATOM     41  C   UNL A   1      45.292  29.103  29.570  1.00  0.00     0.037 A 
BRANCH  28  42
ATOM     42  C   UNL A   1      43.711  27.789  34.555  1.00  0.00     0.057 A 
ATOM     43  C   UNL A   1      43.615  26.469  34.075  1.00  0.00     0.134 A 
ATOM     44  C   UNL A   1      43.882  27.899  35.952  1.00  0.00     0.134 A 
ATOM     45  F   UNL A   1      43.479  26.220  32.763  1.00  0.00    -0.206 F 
ATOM     46  C   UNL A   1      43.547  25.362  34.929  1.00  0.00     0.040 A 
ATOM     47  C   UNL A   1      43.860  26.797  36.808  1.00  0.00     0.040 A 
ATOM     48  F   UNL A   1      43.991  29.070  36.585  1.00  0.00    -0.206 F 
ATOM     49  C   UNL A   1      43.646  25.527  36.304  1.00  0.00     0.006 A 
ENDBRANCH  28  42
BRANCH  29  50
ATOM     50  C   UNL A   1      42.651  24.650  26.681  1.00  0.00     0.057 A 
ATOM     51  C   UNL A   1      43.207  24.361  25.430  1.00  0.00     0.134 A 
ATOM     52  C   UNL A   1      42.109  23.557  27.384  1.00  0.00     0.134 A 
ATOM     53  F   UNL A   1      43.787  25.328  24.705  1.00  0.00    -0.206 F 
ATOM     54  C   UNL A   1      43.237  23.058  24.915  1.00  0.00     0.040 A 
ATOM     55  C   UNL A   1      42.122  22.255  26.878  1.00  0.00     0.040 A 
ATOM     56  F   UNL A   1      41.625  23.696  28.627  1.00  0.00    -0.206 F 
ATOM     57  C   UNL A   1      42.702  21.999  25.643  1.00  0.00     0.006 A 
ENDBRANCH  29  50
BRANCH  41  58
ATOM     58  C   UNL A   1      45.494  30.020  28.399  1.00  0.00     0.057 A 
ATOM     59  C   UNL A   1      44.460  30.747  27.791  1.00  0.00     0.134 A 
ATOM     60  C   UNL A   1      46.798  30.300  27.979  1.00  0.00     0.134 A 
ATOM     61  F   UNL A   1      43.191  30.623  28.203  1.00  0.00    -0.206 F 
ATOM     62  C   UNL A   1      44.710  31.678  26.778  1.00  0.00     0.040 A 
ATOM     63  C   UNL A   1      47.066  31.251  26.992  1.00  0.00     0.040 A 
ATOM     64  F   UNL A   1      47.842  29.688  28.560  1.00  0.00    -0.206 F 
ATOM     65  C   UNL A   1      46.020  31.937  26.380  1.00  0.00     0.006 A 
ENDBRANCH  41  58
ENDBRANCH  15  16
ENDBRANCH   8  10
ENDBRANCH   7   8
ENDBRANCH   6   7
ENDBRANCH   5   6
ENDBRANCH   4   5
ENDBRANCH   3   4
ENDBRANCH   2   3
ENDBRANCH   1   2
BRANCH   1  66
ATOM     66  C   UNL A   1      31.921  29.227  24.664  1.00  0.00     0.188 C 
BRANCH  66  67
ATOM     67  C   UNL A   1      30.942  28.103  24.312  1.00  0.00     0.188 C 
BRANCH  67  68
ATOM     68  O   UNL A   1      30.925  27.583  22.997  1.00  0.00    -0.376 OA
BRANCH  68  69
ATOM     69  C   UNL A   1      31.451  26.288  22.755  1.00  0.00     0.202 C 
BRANCH  69  70
ATOM     70  C   UNL A   1      32.613  25.743  23.588  1.00  0.00     0.261 C 
BRANCH  70  71
ATOM     71  O   UNL A   1      32.769  24.311  23.718  1.00  0.00    -0.462 OA
BRANCH  71  72
ATOM     72  C   UNL A   1      33.744  23.735  22.961  1.00  0.00     0.329 C 
ATOM     73  O   UNL A   1      33.663  23.583  21.754  1.00  0.00    -0.250 OA
BRANCH  72  74
ATOM     74  C   UNL A   1      34.911  23.179  23.798  1.00  0.00     0.201 C 
ATOM     75  C   UNL A   1      35.540  24.146  24.845  1.00  0.00     0.093 C 
ATOM     76  N   UNL A   1      34.856  21.761  24.288  1.00  0.00    -0.318 N 
ATOM     77  C   UNL A   1      36.707  23.484  25.475  1.00  0.00     0.042 A 
ATOM     78  C   UNL A   1      36.179  21.158  24.608  1.00  0.00     0.179 C 
ATOM     79  N   UNL A   1      37.742  24.056  26.158  1.00  0.00    -0.348 N 
ATOM     80  C   UNL A   1      37.011  22.149  25.364  1.00  0.00     0.081 A 
ATOM     81  C   UNL A   1      38.645  23.055  26.402  1.00  0.00     0.197 A 
ATOM     82  H   UNL A   1      37.822  25.000  26.423  1.00  0.00     0.167 HD
ATOM     83  N   UNL A   1      38.231  21.894  25.936  1.00  0.00    -0.240 NA
BRANCH  76  84
ATOM     84  C   UNL A   1      33.737  21.048  24.712  1.00  0.00     0.256 C 
ATOM     85  O   UNL A   1      32.973  21.438  25.592  1.00  0.00    -0.269 OA
BRANCH  84  86
ATOM     86  C   UNL A   1      33.400  19.732  24.154  1.00  0.00     0.061 A 
ATOM     87  C   UNL A   1      34.083  18.619  24.651  1.00  0.00     0.035 A 
ATOM     88  C   UNL A   1      32.559  19.604  23.049  1.00  0.00     0.072 A 
ATOM     89  C   UNL A   1      33.849  17.394  24.052  1.00  0.00     0.112 A 
ATOM     90  C   UNL A   1      32.367  18.326  22.543  1.00  0.00     0.132 A 
ATOM     91  Cl  UNL A   1      31.766  20.933  22.297  1.00  0.00    -0.082 Cl
ATOM     92  N   UNL A   1      32.983  17.216  23.029  1.00  0.00    -0.263 NA
ENDBRANCH  84  86
ENDBRANCH  76  84
ENDBRANCH  72  74
ENDBRANCH  71  72
ENDBRANCH  70  71
ENDBRANCH  69  70
ENDBRANCH  68  69
ENDBRANCH  67  68
ENDBRANCH  66  67
ENDBRANCH   1  66
TORSDOF 22
ENDMDL
