MODEL 1
REMARK VINA RESULT:      -9.6      0.000      0.000
REMARK SMILES COc1ccccc1NC(=O)N[C@@](C)(C(=O)OCCOCCOCCOCCOC(=O)c1ccc(-c2c3nc(c(-c4c(F)cccc4F)c4ccc([nH]4)c(-c4c(F)cccc4F)c4nc(c(-c5c(F)cccc5F)c5ccc2[nH]5)C=C4)C=C3)cc1)C(F)(F)F
REMARK SMILES IDX 22 1 21 2 20 3 19 4 18 5 17 6 15 7 16 8 13 9 14 10 12 11
REMARK SMILES IDX 9 12 10 13 11 15 8 17 3 18 4 19 5 20 7 21 6 22 2 23 1 24
REMARK SMILES IDX 86 25 87 26 88 27 89 28 23 29 24 30 25 31 26 32 27 33 28 34
REMARK SMILES IDX 29 35 30 36 31 37 32 38 33 39 85 40 34 41 84 42 35 43 36 44
REMARK SMILES IDX 37 45 78 46 38 47 83 48 77 49 79 50 39 51 82 52 76 53 75 54
REMARK SMILES IDX 40 56 66 57 49 58 65 59 50 60 53 61 64 62 80 63 51 64 52 65
REMARK SMILES IDX 63 67 81 68 54 69 41 70 42 71 47 72 43 73 44 74 46 75 48 76
REMARK SMILES IDX 45 77 67 78 68 79 73 80 69 81 70 82 72 83 74 84 71 85 55 86
REMARK SMILES IDX 56 87 61 88 57 89 58 90 60 91 62 92 59 93
REMARK H PARENT 9 14 12 16 79 55 53 66
REMARK Flexibility Score: inf
ROOT
ATOM      1  C   UNL A   1      34.892  21.631  26.863  1.00  0.00     0.188 C 
ENDROOT
BRANCH   1   2
ATOM      2  C   UNL A   1      33.613  22.362  27.312  1.00  0.00     0.188 C 
BRANCH   2   3
ATOM      3  O   UNL A   1      33.442  23.644  26.740  1.00  0.00    -0.376 OA
BRANCH   3   4
ATOM      4  C   UNL A   1      34.379  24.126  25.795  1.00  0.00     0.202 C 
BRANCH   4   5
ATOM      5  C   UNL A   1      34.382  25.574  25.257  1.00  0.00     0.261 C 
BRANCH   5   6
ATOM      6  O   UNL A   1      33.331  26.427  25.742  1.00  0.00    -0.461 OA
BRANCH   6   7
ATOM      7  C   UNL A   1      33.077  27.525  24.982  1.00  0.00     0.341 C 
ATOM      8  O   UNL A   1      33.771  27.834  24.016  1.00  0.00    -0.249 OA
BRANCH   7   9
ATOM      9  C   UNL A   1      31.675  28.130  25.249  1.00  0.00     0.232 C 
ATOM     10  C   UNL A   1      30.927  27.029  26.015  1.00  0.00     0.058 C 
BRANCH   9  11
ATOM     11  N   UNL A   1      30.825  28.400  24.032  1.00  0.00    -0.314 N 
ATOM     12  N   UNL A   1      30.749  26.656  22.354  1.00  0.00    -0.305 N 
ATOM     13  C   UNL A   1      30.575  27.900  22.816  1.00  0.00     0.320 C 
ATOM     14  H   UNL A   1      30.348  26.558  21.459  1.00  0.00     0.172 HD
ATOM     15  O   UNL A   1      29.968  28.666  22.052  1.00  0.00    -0.248 OA
ATOM     16  H   UNL A   1      30.277  29.204  24.181  1.00  0.00     0.166 HD
BRANCH  12  17
ATOM     17  C   UNL A   1      31.336  25.456  22.769  1.00  0.00     0.085 A 
ATOM     18  C   UNL A   1      32.472  25.004  22.076  1.00  0.00     0.142 A 
ATOM     19  C   UNL A   1      32.891  23.677  22.174  1.00  0.00     0.048 A 
ATOM     20  C   UNL A   1      32.282  22.841  23.103  1.00  0.00     0.004 A 
ATOM     21  C   UNL A   1      30.870  24.685  23.818  1.00  0.00     0.030 A 
ATOM     22  C   UNL A   1      31.337  23.370  23.980  1.00  0.00     0.002 A 
BRANCH  18  23
ATOM     23  O   UNL A   1      33.160  25.832  21.224  1.00  0.00    -0.495 OA
ATOM     24  C   UNL A   1      32.782  25.553  19.868  1.00  0.00     0.278 C 
ENDBRANCH  18  23
ENDBRANCH  12  17
ENDBRANCH   9  11
BRANCH   9  25
ATOM     25  C   UNL A   1      32.122  29.340  26.108  1.00  0.00     0.422 C 
ATOM     26  F   UNL A   1      32.083  30.497  25.410  1.00  0.00    -0.168 F 
ATOM     27  F   UNL A   1      31.362  29.462  27.217  1.00  0.00    -0.168 F 
ATOM     28  F   UNL A   1      33.393  29.273  26.580  1.00  0.00    -0.168 F 
ENDBRANCH   9  25
ENDBRANCH   7   9
ENDBRANCH   6   7
ENDBRANCH   5   6
ENDBRANCH   4   5
ENDBRANCH   3   4
ENDBRANCH   2   3
ENDBRANCH   1   2
BRANCH   1  29
ATOM     29  O   UNL A   1      34.820  20.788  25.724  1.00  0.00    -0.377 OA
BRANCH  29  30
ATOM     30  C   UNL A   1      35.999  20.564  24.956  1.00  0.00     0.188 C 
BRANCH  30  31
ATOM     31  C   UNL A   1      36.757  21.725  24.264  1.00  0.00     0.188 C 
BRANCH  31  32
ATOM     32  O   UNL A   1      37.846  22.259  24.991  1.00  0.00    -0.376 OA
BRANCH  32  33
ATOM     33  C   UNL A   1      38.536  21.418  25.900  1.00  0.00     0.202 C 
BRANCH  33  34
ATOM     34  C   UNL A   1      39.458  20.321  25.345  1.00  0.00     0.261 C 
BRANCH  34  35
ATOM     35  O   UNL A   1      40.229  19.583  26.304  1.00  0.00    -0.460 OA
BRANCH  35  36
ATOM     36  C   UNL A   1      41.569  19.560  26.154  1.00  0.00     0.338 C 
ATOM     37  O   UNL A   1      42.237  18.710  25.586  1.00  0.00    -0.246 OA
BRANCH  36  38
ATOM     38  C   UNL A   1      42.079  20.867  26.615  1.00  0.00     0.060 A 
ATOM     39  C   UNL A   1      41.935  21.220  27.966  1.00  0.00     0.016 A 
ATOM     40  C   UNL A   1      42.755  21.713  25.732  1.00  0.00     0.016 A 
ATOM     41  C   UNL A   1      42.446  22.430  28.431  1.00  0.00     0.010 A 
ATOM     42  C   UNL A   1      43.233  22.942  26.189  1.00  0.00     0.010 A 
ATOM     43  C   UNL A   1      43.049  23.317  27.533  1.00  0.00    -0.014 A 
BRANCH  43  44
ATOM     44  C   UNL A   1      43.238  24.733  27.927  1.00  0.00     0.031 A 
ATOM     45  C   UNL A   1      44.646  25.212  28.137  1.00  0.00     0.074 A 
ATOM     46  C   UNL A   1      42.204  25.576  28.073  1.00  0.00     0.049 A 
ATOM     47  N   UNL A   1      45.083  26.381  28.526  1.00  0.00    -0.248 NA
ATOM     48  C   UNL A   1      45.709  24.228  27.870  1.00  0.00     0.031 C 
ATOM     49  C   UNL A   1      40.800  25.249  27.836  1.00  0.00     0.029 A 
ATOM     50  N   UNL A   1      42.185  26.891  28.462  1.00  0.00    -0.354 N 
ATOM     51  C   UNL A   1      46.467  26.271  28.555  1.00  0.00     0.074 A 
ATOM     52  C   UNL A   1      46.796  24.912  28.185  1.00  0.00     0.031 C 
ATOM     53  C   UNL A   1      40.053  26.338  28.091  1.00  0.00     0.029 A 
ATOM     54  C   UNL A   1      40.922  27.424  28.543  1.00  0.00     0.049 A 
ATOM     55  H   UNL A   1      43.001  27.404  28.666  1.00  0.00     0.167 HD
ATOM     56  C   UNL A   1      47.386  27.219  28.854  1.00  0.00     0.037 A 
ATOM     57  C   UNL A   1      40.523  28.644  28.954  1.00  0.00     0.037 A 
ATOM     58  C   UNL A   1      47.053  28.560  29.249  1.00  0.00     0.049 A 
ATOM     59  C   UNL A   1      41.556  29.648  29.400  1.00  0.00     0.074 A 
ATOM     60  C   UNL A   1      47.903  29.599  29.582  1.00  0.00     0.029 A 
ATOM     61  N   UNL A   1      45.759  29.043  29.383  1.00  0.00    -0.354 N 
ATOM     62  N   UNL A   1      42.863  29.546  29.412  1.00  0.00    -0.248 NA
ATOM     63  C   UNL A   1      41.052  30.938  29.892  1.00  0.00     0.031 C 
ATOM     64  C   UNL A   1      47.122  30.691  29.976  1.00  0.00     0.029 A 
ATOM     65  C   UNL A   1      45.786  30.356  29.824  1.00  0.00     0.049 A 
ATOM     66  H   UNL A   1      44.941  28.528  29.191  1.00  0.00     0.167 HD
ATOM     67  C   UNL A   1      43.339  30.768  29.875  1.00  0.00     0.074 A 
ATOM     68  C   UNL A   1      42.178  31.597  30.128  1.00  0.00     0.031 C 
ATOM     69  C   UNL A   1      44.621  31.171  30.066  1.00  0.00     0.037 A 
BRANCH  56  70
ATOM     70  C   UNL A   1      48.828  26.803  28.808  1.00  0.00     0.057 A 
ATOM     71  C   UNL A   1      49.476  26.239  29.917  1.00  0.00     0.134 A 
ATOM     72  C   UNL A   1      49.590  27.000  27.649  1.00  0.00     0.134 A 
ATOM     73  F   UNL A   1      48.811  26.041  31.066  1.00  0.00    -0.206 F 
ATOM     74  C   UNL A   1      50.837  25.929  29.889  1.00  0.00     0.040 A 
ATOM     75  C   UNL A   1      50.943  26.661  27.598  1.00  0.00     0.040 A 
ATOM     76  F   UNL A   1      49.034  27.532  26.551  1.00  0.00    -0.206 F 
ATOM     77  C   UNL A   1      51.574  26.137  28.724  1.00  0.00     0.006 A 
ENDBRANCH  56  70
BRANCH  57  78
ATOM     78  C   UNL A   1      39.079  28.992  28.955  1.00  0.00     0.057 A 
ATOM     79  C   UNL A   1      38.292  28.795  30.095  1.00  0.00     0.134 A 
ATOM     80  C   UNL A   1      38.449  29.516  27.820  1.00  0.00     0.134 A 
ATOM     81  F   UNL A   1      38.832  28.271  31.205  1.00  0.00    -0.206 F 
ATOM     82  C   UNL A   1      36.929  29.096  30.106  1.00  0.00     0.040 A 
ATOM     83  C   UNL A   1      37.092  29.847  27.824  1.00  0.00     0.040 A 
ATOM     84  F   UNL A   1      39.145  29.727  26.693  1.00  0.00    -0.206 F 
ATOM     85  C   UNL A   1      36.327  29.632  28.968  1.00  0.00     0.006 A 
ENDBRANCH  57  78
BRANCH  69  86
ATOM     86  C   UNL A   1      44.842  32.584  30.525  1.00  0.00     0.057 A 
ATOM     87  C   UNL A   1      44.918  32.926  31.882  1.00  0.00     0.134 A 
ATOM     88  C   UNL A   1      45.035  33.612  29.591  1.00  0.00     0.134 A 
ATOM     89  F   UNL A   1      44.733  31.994  32.829  1.00  0.00    -0.206 F 
ATOM     90  C   UNL A   1      45.150  34.240  32.292  1.00  0.00     0.040 A 
ATOM     91  C   UNL A   1      45.300  34.923  29.988  1.00  0.00     0.040 A 
ATOM     92  F   UNL A   1      44.987  33.354  28.275  1.00  0.00    -0.206 F 
ATOM     93  C   UNL A   1      45.350  35.242  31.343  1.00  0.00     0.006 A 
ENDBRANCH  69  86
ENDBRANCH  43  44
ENDBRANCH  36  38
ENDBRANCH  35  36
ENDBRANCH  34  35
ENDBRANCH  33  34
ENDBRANCH  32  33
ENDBRANCH  31  32
ENDBRANCH  30  31
ENDBRANCH  29  30
ENDBRANCH   1  29
TORSDOF 24
ENDMDL
MODEL 2
REMARK VINA RESULT:      -9.5      5.279      9.915
REMARK SMILES COc1ccccc1NC(=O)N[C@@](C)(C(=O)OCCOCCOCCOCCOC(=O)c1ccc(-c2c3nc(c(-c4c(F)cccc4F)c4ccc([nH]4)c(-c4c(F)cccc4F)c4nc(c(-c5c(F)cccc5F)c5ccc2[nH]5)C=C4)C=C3)cc1)C(F)(F)F
REMARK SMILES IDX 22 1 21 2 20 3 19 4 18 5 17 6 15 7 16 8 13 9 14 10 12 11
REMARK SMILES IDX 9 12 10 13 11 15 8 17 3 18 4 19 5 20 7 21 6 22 2 23 1 24
REMARK SMILES IDX 86 25 87 26 88 27 89 28 23 29 24 30 25 31 26 32 27 33 28 34
REMARK SMILES IDX 29 35 30 36 31 37 32 38 33 39 85 40 34 41 84 42 35 43 36 44
REMARK SMILES IDX 37 45 78 46 38 47 83 48 77 49 79 50 39 51 82 52 76 53 75 54
REMARK SMILES IDX 40 56 66 57 49 58 65 59 50 60 53 61 64 62 80 63 51 64 52 65
REMARK SMILES IDX 63 67 81 68 54 69 41 70 42 71 47 72 43 73 44 74 46 75 48 76
REMARK SMILES IDX 45 77 67 78 68 79 73 80 69 81 70 82 72 83 74 84 71 85 55 86
REMARK SMILES IDX 56 87 61 88 57 89 58 90 60 91 62 92 59 93
REMARK H PARENT 9 14 12 16 79 55 53 66
REMARK Flexibility Score: inf
ROOT
ATOM      1  C   UNL A   1      32.799  30.493  26.905  1.00  0.00     0.188 C 
ENDROOT
BRANCH   1   2
ATOM      2  C   UNL A   1      31.886  29.294  27.221  1.00  0.00     0.188 C 
BRANCH   2   3
ATOM      3  O   UNL A   1      32.550  28.047  27.254  1.00  0.00    -0.376 OA
BRANCH   3   4
ATOM      4  C   UNL A   1      33.660  27.815  26.407  1.00  0.00     0.202 C 
BRANCH   4   5
ATOM      5  C   UNL A   1      33.785  26.587  25.479  1.00  0.00     0.261 C 
BRANCH   5   6
ATOM      6  O   UNL A   1      32.891  26.555  24.353  1.00  0.00    -0.461 OA
BRANCH   6   7
ATOM      7  C   UNL A   1      31.852  25.687  24.461  1.00  0.00     0.341 C 
ATOM      8  O   UNL A   1      31.525  25.177  25.530  1.00  0.00    -0.249 OA
BRANCH   7   9
ATOM      9  C   UNL A   1      30.945  25.676  23.203  1.00  0.00     0.232 C 
ATOM     10  C   UNL A   1      30.175  24.351  23.303  1.00  0.00     0.058 C 
BRANCH   9  11
ATOM     11  N   UNL A   1      31.655  25.610  21.873  1.00  0.00    -0.314 N 
ATOM     12  N   UNL A   1      33.242  23.806  21.578  1.00  0.00    -0.305 N 
ATOM     13  C   UNL A   1      32.673  24.978  21.275  1.00  0.00     0.320 C 
ATOM     14  H   UNL A   1      33.879  23.537  20.877  1.00  0.00     0.172 HD
ATOM     15  O   UNL A   1      33.048  25.488  20.209  1.00  0.00    -0.248 OA
ATOM     16  H   UNL A   1      31.234  26.235  21.240  1.00  0.00     0.166 HD
BRANCH  12  17
ATOM     17  C   UNL A   1      33.199  22.851  22.600  1.00  0.00     0.085 A 
ATOM     18  C   UNL A   1      34.217  22.877  23.570  1.00  0.00     0.142 A 
ATOM     19  C   UNL A   1      34.456  21.772  24.387  1.00  0.00     0.048 A 
ATOM     20  C   UNL A   1      33.566  20.705  24.361  1.00  0.00     0.004 A 
ATOM     21  C   UNL A   1      32.218  21.883  22.719  1.00  0.00     0.030 A 
ATOM     22  C   UNL A   1      32.407  20.802  23.595  1.00  0.00     0.002 A 
BRANCH  18  23
ATOM     23  O   UNL A   1      35.053  23.958  23.691  1.00  0.00    -0.495 OA
ATOM     24  C   UNL A   1      35.984  23.733  24.760  1.00  0.00     0.278 C 
ENDBRANCH  18  23
ENDBRANCH  12  17
ENDBRANCH   9  11
BRANCH   9  25
ATOM     25  C   UNL A   1      30.115  26.944  23.523  1.00  0.00     0.422 C 
ATOM     26  F   UNL A   1      30.099  27.813  22.488  1.00  0.00    -0.168 F 
ATOM     27  F   UNL A   1      28.847  26.628  23.861  1.00  0.00    -0.168 F 
ATOM     28  F   UNL A   1      30.567  27.679  24.573  1.00  0.00    -0.168 F 
ENDBRANCH   9  25
ENDBRANCH   7   9
ENDBRANCH   6   7
ENDBRANCH   5   6
ENDBRANCH   4   5
ENDBRANCH   3   4
ENDBRANCH   2   3
ENDBRANCH   1   2
BRANCH   1  29
ATOM     29  O   UNL A   1      33.582  31.038  27.955  1.00  0.00    -0.377 OA
BRANCH  29  30
ATOM     30  C   UNL A   1      34.638  31.938  27.634  1.00  0.00     0.188 C 
BRANCH  30  31
ATOM     31  C   UNL A   1      35.321  32.815  28.714  1.00  0.00     0.188 C 
BRANCH  31  32
ATOM     32  O   UNL A   1      34.448  33.615  29.488  1.00  0.00    -0.376 OA
BRANCH  32  33
ATOM     33  C   UNL A   1      34.128  34.916  29.026  1.00  0.00     0.202 C 
BRANCH  33  34
ATOM     34  C   UNL A   1      32.948  35.664  29.666  1.00  0.00     0.261 C 
BRANCH  34  35
ATOM     35  O   UNL A   1      33.196  36.296  30.931  1.00  0.00    -0.460 OA
BRANCH  35  36
ATOM     36  C   UNL A   1      32.806  35.649  32.048  1.00  0.00     0.338 C 
ATOM     37  O   UNL A   1      31.667  35.503  32.460  1.00  0.00    -0.246 OA
BRANCH  36  38
ATOM     38  C   UNL A   1      33.995  34.953  32.582  1.00  0.00     0.060 A 
ATOM     39  C   UNL A   1      35.247  35.583  32.509  1.00  0.00     0.016 A 
ATOM     40  C   UNL A   1      33.863  33.714  33.212  1.00  0.00     0.016 A 
ATOM     41  C   UNL A   1      36.374  34.964  33.045  1.00  0.00     0.010 A 
ATOM     42  C   UNL A   1      34.999  33.075  33.715  1.00  0.00     0.010 A 
ATOM     43  C   UNL A   1      36.261  33.685  33.602  1.00  0.00    -0.014 A 
BRANCH  43  44
ATOM     44  C   UNL A   1      37.484  32.875  33.812  1.00  0.00     0.031 A 
ATOM     45  C   UNL A   1      38.271  33.122  35.068  1.00  0.00     0.074 A 
ATOM     46  C   UNL A   1      37.876  31.935  32.937  1.00  0.00     0.049 A 
ATOM     47  N   UNL A   1      39.394  32.587  35.469  1.00  0.00    -0.248 NA
ATOM     48  C   UNL A   1      37.707  34.115  35.997  1.00  0.00     0.031 C 
ATOM     49  C   UNL A   1      37.165  31.559  31.718  1.00  0.00     0.029 A 
ATOM     50  N   UNL A   1      38.983  31.125  32.949  1.00  0.00    -0.354 N 
ATOM     51  C   UNL A   1      39.672  33.182  36.694  1.00  0.00     0.074 A 
ATOM     52  C   UNL A   1      38.626  34.146  36.948  1.00  0.00     0.031 C 
ATOM     53  C   UNL A   1      37.859  30.591  31.094  1.00  0.00     0.029 A 
ATOM     54  C   UNL A   1      39.078  30.308  31.850  1.00  0.00     0.049 A 
ATOM     55  H   UNL A   1      39.647  31.131  33.676  1.00  0.00     0.167 HD
ATOM     56  C   UNL A   1      40.703  32.941  37.537  1.00  0.00     0.037 A 
ATOM     57  C   UNL A   1      40.053  29.447  31.495  1.00  0.00     0.037 A 
ATOM     58  C   UNL A   1      41.758  32.002  37.265  1.00  0.00     0.049 A 
ATOM     59  C   UNL A   1      41.255  29.282  32.389  1.00  0.00     0.074 A 
ATOM     60  C   UNL A   1      42.855  31.685  38.046  1.00  0.00     0.029 A 
ATOM     61  N   UNL A   1      41.854  31.240  36.110  1.00  0.00    -0.354 N 
ATOM     62  N   UNL A   1      41.509  29.834  33.552  1.00  0.00    -0.248 NA
ATOM     63  C   UNL A   1      42.309  28.373  31.917  1.00  0.00     0.031 C 
ATOM     64  C   UNL A   1      43.646  30.777  37.334  1.00  0.00     0.029 A 
ATOM     65  C   UNL A   1      43.009  30.476  36.141  1.00  0.00     0.049 A 
ATOM     66  H   UNL A   1      41.198  31.241  35.376  1.00  0.00     0.167 HD
ATOM     67  C   UNL A   1      42.729  29.312  33.967  1.00  0.00     0.074 A 
ATOM     68  C   UNL A   1      43.161  28.395  32.933  1.00  0.00     0.031 C 
ATOM     69  C   UNL A   1      43.424  29.562  35.105  1.00  0.00     0.037 A 
BRANCH  56  70
ATOM     70  C   UNL A   1      40.750  33.752  38.800  1.00  0.00     0.057 A 
ATOM     71  C   UNL A   1      39.993  33.411  39.932  1.00  0.00     0.134 A 
ATOM     72  C   UNL A   1      41.538  34.907  38.877  1.00  0.00     0.134 A 
ATOM     73  F   UNL A   1      39.201  32.328  39.920  1.00  0.00    -0.206 F 
ATOM     74  C   UNL A   1      39.983  34.215  41.073  1.00  0.00     0.040 A 
ATOM     75  C   UNL A   1      41.563  35.699  40.026  1.00  0.00     0.040 A 
ATOM     76  F   UNL A   1      42.289  35.290  37.835  1.00  0.00    -0.206 F 
ATOM     77  C   UNL A   1      40.773  35.362  41.124  1.00  0.00     0.006 A 
ENDBRANCH  56  70
BRANCH  57  78
ATOM     78  C   UNL A   1      39.931  28.664  30.239  1.00  0.00     0.057 A 
ATOM     79  C   UNL A   1      39.249  27.443  30.214  1.00  0.00     0.134 A 
ATOM     80  C   UNL A   1      40.501  29.108  29.039  1.00  0.00     0.134 A 
ATOM     81  F   UNL A   1      38.704  26.952  31.336  1.00  0.00    -0.206 F 
ATOM     82  C   UNL A   1      39.144  26.685  29.046  1.00  0.00     0.040 A 
ATOM     83  C   UNL A   1      40.383  28.374  27.857  1.00  0.00     0.040 A 
ATOM     84  F   UNL A   1      41.172  30.269  28.994  1.00  0.00    -0.206 F 
ATOM     85  C   UNL A   1      39.707  27.155  27.860  1.00  0.00     0.006 A 
ENDBRANCH  57  78
BRANCH  69  86
ATOM     86  C   UNL A   1      44.702  28.800  35.319  1.00  0.00     0.057 A 
ATOM     87  C   UNL A   1      44.727  27.543  35.937  1.00  0.00     0.134 A 
ATOM     88  C   UNL A   1      45.920  29.311  34.852  1.00  0.00     0.134 A 
ATOM     89  F   UNL A   1      43.598  26.998  36.416  1.00  0.00    -0.206 F 
ATOM     90  C   UNL A   1      45.919  26.836  36.105  1.00  0.00     0.040 A 
ATOM     91  C   UNL A   1      47.113  28.600  34.985  1.00  0.00     0.040 A 
ATOM     92  F   UNL A   1      45.969  30.505  34.240  1.00  0.00    -0.206 F 
ATOM     93  C   UNL A   1      47.116  27.361  35.621  1.00  0.00     0.006 A 
ENDBRANCH  69  86
ENDBRANCH  43  44
ENDBRANCH  36  38
ENDBRANCH  35  36
ENDBRANCH  34  35
ENDBRANCH  33  34
ENDBRANCH  32  33
ENDBRANCH  31  32
ENDBRANCH  30  31
ENDBRANCH  29  30
ENDBRANCH   1  29
TORSDOF 24
ENDMDL
MODEL 3
REMARK VINA RESULT:      -9.5      1.394      6.189
REMARK SMILES COc1ccccc1NC(=O)N[C@@](C)(C(=O)OCCOCCOCCOCCOC(=O)c1ccc(-c2c3nc(c(-c4c(F)cccc4F)c4ccc([nH]4)c(-c4c(F)cccc4F)c4nc(c(-c5c(F)cccc5F)c5ccc2[nH]5)C=C4)C=C3)cc1)C(F)(F)F
REMARK SMILES IDX 22 1 21 2 20 3 19 4 18 5 17 6 15 7 16 8 13 9 14 10 12 11
REMARK SMILES IDX 9 12 10 13 11 15 8 17 3 18 4 19 5 20 7 21 6 22 2 23 1 24
REMARK SMILES IDX 86 25 87 26 88 27 89 28 23 29 24 30 25 31 26 32 27 33 28 34
REMARK SMILES IDX 29 35 30 36 31 37 32 38 33 39 85 40 34 41 84 42 35 43 36 44
REMARK SMILES IDX 37 45 78 46 38 47 83 48 77 49 79 50 39 51 82 52 76 53 75 54
REMARK SMILES IDX 40 56 66 57 49 58 65 59 50 60 53 61 64 62 80 63 51 64 52 65
REMARK SMILES IDX 63 67 81 68 54 69 41 70 42 71 47 72 43 73 44 74 46 75 48 76
REMARK SMILES IDX 45 77 67 78 68 79 73 80 69 81 70 82 72 83 74 84 71 85 55 86
REMARK SMILES IDX 56 87 61 88 57 89 58 90 60 91 62 92 59 93
REMARK H PARENT 9 14 12 16 79 55 53 66
REMARK Flexibility Score: inf
ROOT
ATOM      1  C   UNL A   1      33.922  21.867  27.209  1.00  0.00     0.188 C 
ENDROOT
BRANCH   1   2
ATOM      2  C   UNL A   1      32.504  22.292  26.785  1.00  0.00     0.188 C 
BRANCH   2   3
ATOM      3  O   UNL A   1      32.089  23.540  27.301  1.00  0.00    -0.376 OA
BRANCH   3   4
ATOM      4  C   UNL A   1      31.923  24.644  26.431  1.00  0.00     0.202 C 
BRANCH   4   5
ATOM      5  C   UNL A   1      33.057  25.218  25.554  1.00  0.00     0.261 C 
BRANCH   5   6
ATOM      6  O   UNL A   1      33.479  26.557  25.868  1.00  0.00    -0.461 OA
BRANCH   6   7
ATOM      7  C   UNL A   1      32.482  27.477  25.943  1.00  0.00     0.341 C 
ATOM      8  O   UNL A   1      31.449  27.281  26.579  1.00  0.00    -0.249 OA
BRANCH   7   9
ATOM      9  C   UNL A   1      32.919  28.878  25.444  1.00  0.00     0.232 C 
ATOM     10  C   UNL A   1      31.602  29.652  25.286  1.00  0.00     0.058 C 
BRANCH   9  11
ATOM     11  N   UNL A   1      33.561  28.928  24.080  1.00  0.00    -0.314 N 
ATOM     12  N   UNL A   1      32.351  27.865  22.272  1.00  0.00    -0.305 N 
ATOM     13  C   UNL A   1      33.429  28.401  22.856  1.00  0.00     0.320 C 
ATOM     14  H   UNL A   1      32.525  27.685  21.319  1.00  0.00     0.172 HD
ATOM     15  O   UNL A   1      34.410  28.557  22.113  1.00  0.00    -0.248 OA
ATOM     16  H   UNL A   1      34.325  29.548  24.095  1.00  0.00     0.166 HD
BRANCH  12  17
ATOM     17  C   UNL A   1      31.050  27.485  22.618  1.00  0.00     0.085 A 
ATOM     18  C   UNL A   1      30.026  28.438  22.478  1.00  0.00     0.142 A 
ATOM     19  C   UNL A   1      28.802  28.274  23.126  1.00  0.00     0.048 A 
ATOM     20  C   UNL A   1      28.532  27.073  23.772  1.00  0.00     0.004 A 
ATOM     21  C   UNL A   1      30.706  26.230  23.088  1.00  0.00     0.030 A 
ATOM     22  C   UNL A   1      29.446  26.027  23.675  1.00  0.00     0.002 A 
BRANCH  18  23
ATOM     23  O   UNL A   1      30.224  29.592  21.763  1.00  0.00    -0.495 OA
ATOM     24  C   UNL A   1      28.995  30.328  21.680  1.00  0.00     0.278 C 
ENDBRANCH  18  23
ENDBRANCH  12  17
ENDBRANCH   9  11
BRANCH   9  25
ATOM     25  C   UNL A   1      33.777  29.286  26.668  1.00  0.00     0.422 C 
ATOM     26  F   UNL A   1      33.595  28.450  27.715  1.00  0.00    -0.168 F 
ATOM     27  F   UNL A   1      35.090  29.329  26.354  1.00  0.00    -0.168 F 
ATOM     28  F   UNL A   1      33.514  30.519  27.172  1.00  0.00    -0.168 F 
ENDBRANCH   9  25
ENDBRANCH   7   9
ENDBRANCH   6   7
ENDBRANCH   5   6
ENDBRANCH   4   5
ENDBRANCH   3   4
ENDBRANCH   2   3
ENDBRANCH   1   2
BRANCH   1  29
ATOM     29  O   UNL A   1      35.021  22.638  26.751  1.00  0.00    -0.377 OA
BRANCH  29  30
ATOM     30  C   UNL A   1      35.893  22.082  25.771  1.00  0.00     0.188 C 
BRANCH  30  31
ATOM     31  C   UNL A   1      35.568  20.750  25.048  1.00  0.00     0.188 C 
BRANCH  31  32
ATOM     32  O   UNL A   1      36.623  19.810  25.001  1.00  0.00    -0.376 OA
BRANCH  32  33
ATOM     33  C   UNL A   1      37.945  20.258  25.244  1.00  0.00     0.202 C 
BRANCH  33  34
ATOM     34  C   UNL A   1      39.091  19.232  25.242  1.00  0.00     0.261 C 
BRANCH  34  35
ATOM     35  O   UNL A   1      39.981  19.260  26.368  1.00  0.00    -0.460 OA
BRANCH  35  36
ATOM     36  C   UNL A   1      41.286  19.505  26.135  1.00  0.00     0.338 C 
ATOM     37  O   UNL A   1      42.064  18.823  25.488  1.00  0.00    -0.246 OA
BRANCH  36  38
ATOM     38  C   UNL A   1      41.564  20.870  26.627  1.00  0.00     0.060 A 
ATOM     39  C   UNL A   1      41.497  21.947  25.729  1.00  0.00     0.016 A 
ATOM     40  C   UNL A   1      41.824  21.093  27.981  1.00  0.00     0.016 A 
ATOM     41  C   UNL A   1      41.714  23.247  26.180  1.00  0.00     0.010 A 
ATOM     42  C   UNL A   1      42.079  22.392  28.426  1.00  0.00     0.010 A 
ATOM     43  C   UNL A   1      42.057  23.467  27.519  1.00  0.00    -0.014 A 
BRANCH  43  44
ATOM     44  C   UNL A   1      42.658  24.763  27.910  1.00  0.00     0.031 A 
ATOM     45  C   UNL A   1      41.723  25.861  28.331  1.00  0.00     0.074 A 
ATOM     46  C   UNL A   1      43.986  24.961  27.918  1.00  0.00     0.049 A 
ATOM     47  N   UNL A   1      41.983  27.096  28.674  1.00  0.00    -0.248 NA
ATOM     48  C   UNL A   1      40.292  25.513  28.366  1.00  0.00     0.031 C 
ATOM     49  C   UNL A   1      44.996  23.957  27.593  1.00  0.00     0.029 A 
ATOM     50  N   UNL A   1      44.709  26.089  28.212  1.00  0.00    -0.354 N 
ATOM     51  C   UNL A   1      40.751  27.670  28.961  1.00  0.00     0.074 A 
ATOM     52  C   UNL A   1      39.742  26.665  28.711  1.00  0.00     0.031 C 
ATOM     53  C   UNL A   1      46.213  24.519  27.702  1.00  0.00     0.029 A 
ATOM     54  C   UNL A   1      46.065  25.927  28.066  1.00  0.00     0.049 A 
ATOM     55  H   UNL A   1      44.295  26.935  28.498  1.00  0.00     0.167 HD
ATOM     56  C   UNL A   1      40.482  28.921  29.401  1.00  0.00     0.037 A 
ATOM     57  C   UNL A   1      47.061  26.824  28.197  1.00  0.00     0.037 A 
ATOM     58  C   UNL A   1      41.486  29.926  29.620  1.00  0.00     0.049 A 
ATOM     59  C   UNL A   1      46.731  28.247  28.570  1.00  0.00     0.074 A 
ATOM     60  C   UNL A   1      41.324  31.228  30.057  1.00  0.00     0.029 A 
ATOM     61  N   UNL A   1      42.844  29.744  29.398  1.00  0.00    -0.354 N 
ATOM     62  N   UNL A   1      45.568  28.783  28.854  1.00  0.00    -0.248 NA
ATOM     63  C   UNL A   1      47.856  29.190  28.639  1.00  0.00     0.031 C 
ATOM     64  C   UNL A   1      42.577  31.851  30.041  1.00  0.00     0.029 A 
ATOM     65  C   UNL A   1      43.529  30.919  29.659  1.00  0.00     0.049 A 
ATOM     66  H   UNL A   1      43.259  28.902  29.100  1.00  0.00     0.167 HD
ATOM     67  C   UNL A   1      45.825  30.112  29.171  1.00  0.00     0.074 A 
ATOM     68  C   UNL A   1      47.256  30.299  29.049  1.00  0.00     0.031 C 
ATOM     69  C   UNL A   1      44.956  31.088  29.538  1.00  0.00     0.037 A 
BRANCH  56  70
ATOM     70  C   UNL A   1      39.037  29.267  29.620  1.00  0.00     0.057 A 
ATOM     71  C   UNL A   1      38.428  29.160  30.879  1.00  0.00     0.134 A 
ATOM     72  C   UNL A   1      38.234  29.683  28.550  1.00  0.00     0.134 A 
ATOM     73  F   UNL A   1      39.134  28.748  31.944  1.00  0.00    -0.206 F 
ATOM     74  C   UNL A   1      37.066  29.409  31.056  1.00  0.00     0.040 A 
ATOM     75  C   UNL A   1      36.879  29.969  28.722  1.00  0.00     0.040 A 
ATOM     76  F   UNL A   1      38.751  29.810  27.319  1.00  0.00    -0.206 F 
ATOM     77  C   UNL A   1      36.287  29.818  29.975  1.00  0.00     0.006 A 
ENDBRANCH  56  70
BRANCH  57  78
ATOM     78  C   UNL A   1      48.470  26.406  27.983  1.00  0.00     0.057 A 
ATOM     79  C   UNL A   1      49.092  26.578  26.741  1.00  0.00     0.134 A 
ATOM     80  C   UNL A   1      49.226  25.817  29.004  1.00  0.00     0.134 A 
ATOM     81  F   UNL A   1      48.413  27.113  25.715  1.00  0.00    -0.206 F 
ATOM     82  C   UNL A   1      50.408  26.171  26.518  1.00  0.00     0.040 A 
ATOM     83  C   UNL A   1      50.551  25.428  28.804  1.00  0.00     0.040 A 
ATOM     84  F   UNL A   1      48.689  25.620  30.218  1.00  0.00    -0.206 F 
ATOM     85  C   UNL A   1      51.144  25.600  27.554  1.00  0.00     0.006 A 
ENDBRANCH  57  78
BRANCH  69  86
ATOM     86  C   UNL A   1      45.530  32.434  29.883  1.00  0.00     0.057 A 
ATOM     87  C   UNL A   1      45.985  32.744  31.171  1.00  0.00     0.134 A 
ATOM     88  C   UNL A   1      45.677  33.417  28.895  1.00  0.00     0.134 A 
ATOM     89  F   UNL A   1      45.866  31.853  32.167  1.00  0.00    -0.206 F 
ATOM     90  C   UNL A   1      46.539  33.990  31.470  1.00  0.00     0.040 A 
ATOM     91  C   UNL A   1      46.259  34.655  29.173  1.00  0.00     0.040 A 
ATOM     92  F   UNL A   1      45.274  33.184  27.637  1.00  0.00    -0.206 F 
ATOM     93  C   UNL A   1      46.686  34.947  30.466  1.00  0.00     0.006 A 
ENDBRANCH  69  86
ENDBRANCH  43  44
ENDBRANCH  36  38
ENDBRANCH  35  36
ENDBRANCH  34  35
ENDBRANCH  33  34
ENDBRANCH  32  33
ENDBRANCH  31  32
ENDBRANCH  30  31
ENDBRANCH  29  30
ENDBRANCH   1  29
TORSDOF 24
ENDMDL
