MODEL 1
REMARK VINA RESULT:     -11.8      0.000      0.000
REMARK SMILES CC1=C[C@H](C)[C@H](CN2C[C@]34C=C[C@@H](O3)[C@H](C(=O)OCCOCCOCCOCCOC(=O)c3ccc(-c5c6nc(c(-c7c(F)cccc7F)c7ccc([nH]7)c(-c7c(F)cccc7F)c7nc(c(-c8c(F)cccc8F)c8ccc5[nH]8)C=C7)C=C6)cc3)[C@@H]4C2=O)[C@H](C)C1
REMARK SMILES IDX 24 1 23 2 22 3 21 4 20 5 19 6 18 7 16 8 17 9 15 10 8 11 9 12
REMARK SMILES IDX 88 13 10 14 87 15 89 16 11 17 14 18 12 19 13 20 7 21 6 22
REMARK SMILES IDX 1 23 2 24 3 25 92 26 4 27 90 28 5 29 91 30 25 31 26 32 27 33
REMARK SMILES IDX 28 34 29 35 30 36 31 37 32 38 33 39 34 40 86 41 35 42 85 43
REMARK SMILES IDX 36 44 37 45 38 46 79 47 39 48 84 49 78 50 80 51 40 52 83 53
REMARK SMILES IDX 77 54 76 55 41 57 67 58 50 59 66 60 51 61 54 62 65 63 81 64
REMARK SMILES IDX 52 65 53 66 64 68 82 69 55 70 42 71 43 72 48 73 44 74 45 75
REMARK SMILES IDX 47 76 49 77 46 78 68 79 69 80 74 81 70 82 71 83 73 84 75 85
REMARK SMILES IDX 72 86 56 87 57 88 62 89 58 90 59 91 61 92 63 93 60 94
REMARK H PARENT 80 56 54 67
REMARK Flexibility Score: inf
ROOT
ATOM      1  O   UNL A   1      42.888  19.552  25.102  1.00  0.00    -0.377 OA
ENDROOT
BRANCH   1   2
ATOM      2  C   UNL A   1      42.324  20.341  26.151  1.00  0.00     0.188 C 
BRANCH   2   3
ATOM      3  C   UNL A   1      40.968  19.922  26.742  1.00  0.00     0.188 C 
BRANCH   3   4
ATOM      4  O   UNL A   1      40.181  21.033  27.103  1.00  0.00    -0.376 OA
BRANCH   4   5
ATOM      5  C   UNL A   1      39.496  21.834  26.154  1.00  0.00     0.202 C 
BRANCH   5   6
ATOM      6  C   UNL A   1      38.155  21.440  25.500  1.00  0.00     0.261 C 
BRANCH   6   7
ATOM      7  O   UNL A   1      37.574  22.469  24.686  1.00  0.00    -0.463 OA
BRANCH   7   8
ATOM      8  C   UNL A   1      36.373  23.004  25.066  1.00  0.00     0.312 C 
ATOM      9  O   UNL A   1      36.220  24.151  25.463  1.00  0.00    -0.252 OA
BRANCH   8  10
ATOM     10  C   UNL A   1      35.223  22.034  24.811  1.00  0.00     0.148 C 
ATOM     11  N   UNL A   1      33.387  24.510  23.478  1.00  0.00    -0.339 N 
ATOM     12  C   UNL A   1      33.490  24.191  24.832  1.00  0.00     0.160 C 
ATOM     13  C   UNL A   1      33.767  23.394  22.781  1.00  0.00     0.230 C 
ATOM     14  C   UNL A   1      32.859  22.723  24.912  1.00  0.00     0.117 C 
ATOM     15  C   UNL A   1      34.022  22.325  23.842  1.00  0.00     0.133 C 
ATOM     16  O   UNL A   1      33.688  23.212  21.580  1.00  0.00    -0.274 OA
ATOM     17  C   UNL A   1      32.745  23.069  26.402  1.00  0.00     0.009 C 
ATOM     18  O   UNL A   1      33.175  21.382  25.422  1.00  0.00    -0.360 OA
ATOM     19  C   UNL A   1      33.833  22.620  27.030  1.00  0.00     0.004 C 
ATOM     20  C   UNL A   1      34.435  21.643  26.081  1.00  0.00     0.157 C 
BRANCH  11  21
ATOM     21  C   UNL A   1      32.533  25.630  23.147  1.00  0.00     0.124 C 
BRANCH  21  22
ATOM     22  C   UNL A   1      32.638  26.672  24.295  1.00  0.00     0.018 C 
ATOM     23  C   UNL A   1      31.986  30.586  26.291  1.00  0.00     0.039 C 
ATOM     24  C   UNL A   1      32.202  29.281  25.584  1.00  0.00    -0.077 C 
ATOM     25  C   UNL A   1      33.166  29.146  24.666  1.00  0.00    -0.025 C 
ATOM     26  C   UNL A   1      31.303  28.171  26.019  1.00  0.00     0.034 C 
ATOM     27  C   UNL A   1      33.514  27.892  23.934  1.00  0.00     0.014 C 
ATOM     28  C   UNL A   1      31.374  26.858  25.226  1.00  0.00    -0.005 C 
ATOM     29  C   UNL A   1      33.686  28.173  22.439  1.00  0.00     0.012 C 
ATOM     30  C   UNL A   1      29.987  26.501  24.665  1.00  0.00     0.008 C 
ENDBRANCH  21  22
ENDBRANCH  11  21
ENDBRANCH   8  10
ENDBRANCH   7   8
ENDBRANCH   6   7
ENDBRANCH   5   6
ENDBRANCH   4   5
ENDBRANCH   3   4
ENDBRANCH   2   3
ENDBRANCH   1   2
BRANCH   1  31
ATOM     31  C   UNL A   1      43.990  18.692  25.377  1.00  0.00     0.188 C 
BRANCH  31  32
ATOM     32  C   UNL A   1      45.384  19.117  24.896  1.00  0.00     0.188 C 
BRANCH  32  33
ATOM     33  O   UNL A   1      45.415  20.343  24.191  1.00  0.00    -0.376 OA
BRANCH  33  34
ATOM     34  C   UNL A   1      45.965  21.479  24.849  1.00  0.00     0.202 C 
BRANCH  34  35
ATOM     35  C   UNL A   1      45.801  22.875  24.218  1.00  0.00     0.261 C 
BRANCH  35  36
ATOM     36  O   UNL A   1      45.026  23.823  24.973  1.00  0.00    -0.460 OA
BRANCH  36  37
ATOM     37  C   UNL A   1      43.679  23.742  24.873  1.00  0.00     0.338 C 
ATOM     38  O   UNL A   1      43.028  22.946  24.235  1.00  0.00    -0.246 OA
BRANCH  37  39
ATOM     39  C   UNL A   1      43.107  24.700  25.842  1.00  0.00     0.060 A 
ATOM     40  C   UNL A   1      43.620  26.003  25.887  1.00  0.00     0.016 A 
ATOM     41  C   UNL A   1      42.084  24.309  26.708  1.00  0.00     0.016 A 
ATOM     42  C   UNL A   1      43.120  26.916  26.815  1.00  0.00     0.010 A 
ATOM     43  C   UNL A   1      41.602  25.218  27.653  1.00  0.00     0.010 A 
ATOM     44  C   UNL A   1      42.131  26.519  27.725  1.00  0.00    -0.014 A 
BRANCH  44  45
ATOM     45  C   UNL A   1      41.752  27.417  28.844  1.00  0.00     0.031 A 
ATOM     46  C   UNL A   1      42.522  27.335  30.132  1.00  0.00     0.074 A 
ATOM     47  C   UNL A   1      40.750  28.306  28.709  1.00  0.00     0.049 A 
ATOM     48  N   UNL A   1      42.322  27.967  31.260  1.00  0.00    -0.248 NA
ATOM     49  C   UNL A   1      43.673  26.417  30.151  1.00  0.00     0.031 C 
ATOM     50  C   UNL A   1      39.963  28.515  27.496  1.00  0.00     0.029 A 
ATOM     51  N   UNL A   1      40.217  29.189  29.615  1.00  0.00    -0.354 N 
ATOM     52  C   UNL A   1      43.320  27.526  32.120  1.00  0.00     0.074 A 
ATOM     53  C   UNL A   1      44.107  26.552  31.395  1.00  0.00     0.031 C 
ATOM     54  C   UNL A   1      39.031  29.455  27.740  1.00  0.00     0.029 A 
ATOM     55  C   UNL A   1      39.133  29.882  29.134  1.00  0.00     0.049 A 
ATOM     56  H   UNL A   1      40.578  29.315  30.522  1.00  0.00     0.167 HD
ATOM     57  C   UNL A   1      43.564  27.907  33.397  1.00  0.00     0.037 A 
ATOM     58  C   UNL A   1      38.298  30.736  29.760  1.00  0.00     0.037 A 
ATOM     59  C   UNL A   1      42.776  28.869  34.119  1.00  0.00     0.049 A 
ATOM     60  C   UNL A   1      38.532  31.065  31.213  1.00  0.00     0.074 A 
ATOM     61  C   UNL A   1      42.947  29.323  35.416  1.00  0.00     0.029 A 
ATOM     62  N   UNL A   1      41.662  29.519  33.612  1.00  0.00    -0.354 N 
ATOM     63  N   UNL A   1      39.491  30.660  32.012  1.00  0.00    -0.248 NA
ATOM     64  C   UNL A   1      37.564  31.968  31.854  1.00  0.00     0.031 C 
ATOM     65  C   UNL A   1      41.905  30.207  35.711  1.00  0.00     0.029 A 
ATOM     66  C   UNL A   1      41.117  30.347  34.580  1.00  0.00     0.049 A 
ATOM     67  H   UNL A   1      41.310  29.409  32.699  1.00  0.00     0.167 HD
ATOM     68  C   UNL A   1      39.255  31.276  33.236  1.00  0.00     0.074 A 
ATOM     69  C   UNL A   1      38.078  32.100  33.069  1.00  0.00     0.031 C 
ATOM     70  C   UNL A   1      39.948  31.168  34.397  1.00  0.00     0.037 A 
BRANCH  57  71
ATOM     71  C   UNL A   1      44.723  27.268  34.105  1.00  0.00     0.057 A 
ATOM     72  C   UNL A   1      44.593  26.049  34.782  1.00  0.00     0.134 A 
ATOM     73  C   UNL A   1      45.997  27.849  34.057  1.00  0.00     0.134 A 
ATOM     74  F   UNL A   1      43.398  25.448  34.877  1.00  0.00    -0.206 F 
ATOM     75  C   UNL A   1      45.687  25.437  35.397  1.00  0.00     0.040 A 
ATOM     76  C   UNL A   1      47.103  27.235  34.645  1.00  0.00     0.040 A 
ATOM     77  F   UNL A   1      46.190  29.014  33.420  1.00  0.00    -0.206 F 
ATOM     78  C   UNL A   1      46.948  26.026  35.321  1.00  0.00     0.006 A 
ENDBRANCH  57  71
BRANCH  58  79
ATOM     79  C   UNL A   1      37.132  31.313  29.039  1.00  0.00     0.057 A 
ATOM     80  C   UNL A   1      37.130  32.642  28.599  1.00  0.00     0.134 A 
ATOM     81  C   UNL A   1      35.966  30.566  28.826  1.00  0.00     0.134 A 
ATOM     82  F   UNL A   1      38.206  33.419  28.796  1.00  0.00    -0.206 F 
ATOM     83  C   UNL A   1      36.005  33.215  28.001  1.00  0.00     0.040 A 
ATOM     84  C   UNL A   1      34.845  31.117  28.202  1.00  0.00     0.040 A 
ATOM     85  F   UNL A   1      35.898  29.287  29.222  1.00  0.00    -0.206 F 
ATOM     86  C   UNL A   1      34.860  32.450  27.799  1.00  0.00     0.006 A 
ENDBRANCH  58  79
BRANCH  70  87
ATOM     87  C   UNL A   1      39.470  31.979  35.567  1.00  0.00     0.057 A 
ATOM     88  C   UNL A   1      39.951  33.271  35.818  1.00  0.00     0.134 A 
ATOM     89  C   UNL A   1      38.483  31.480  36.428  1.00  0.00     0.134 A 
ATOM     90  F   UNL A   1      40.905  33.804  35.039  1.00  0.00    -0.206 F 
ATOM     91  C   UNL A   1      39.487  34.026  36.896  1.00  0.00     0.040 A 
ATOM     92  C   UNL A   1      37.990  32.238  37.492  1.00  0.00     0.040 A 
ATOM     93  F   UNL A   1      37.969  30.255  36.239  1.00  0.00    -0.206 F 
ATOM     94  C   UNL A   1      38.498  33.513  37.732  1.00  0.00     0.006 A 
ENDBRANCH  70  87
ENDBRANCH  44  45
ENDBRANCH  37  39
ENDBRANCH  36  37
ENDBRANCH  35  36
ENDBRANCH  34  35
ENDBRANCH  33  34
ENDBRANCH  32  33
ENDBRANCH  31  32
ENDBRANCH   1  31
TORSDOF 22
ENDMDL
MODEL 2
REMARK VINA RESULT:     -11.8      4.957     10.553
REMARK SMILES CC1=C[C@H](C)[C@H](CN2C[C@]34C=C[C@@H](O3)[C@H](C(=O)OCCOCCOCCOCCOC(=O)c3ccc(-c5c6nc(c(-c7c(F)cccc7F)c7ccc([nH]7)c(-c7c(F)cccc7F)c7nc(c(-c8c(F)cccc8F)c8ccc5[nH]8)C=C7)C=C6)cc3)[C@@H]4C2=O)[C@H](C)C1
REMARK SMILES IDX 24 1 23 2 22 3 21 4 20 5 19 6 18 7 16 8 17 9 15 10 8 11 9 12
REMARK SMILES IDX 88 13 10 14 87 15 89 16 11 17 14 18 12 19 13 20 7 21 6 22
REMARK SMILES IDX 1 23 2 24 3 25 92 26 4 27 90 28 5 29 91 30 25 31 26 32 27 33
REMARK SMILES IDX 28 34 29 35 30 36 31 37 32 38 33 39 34 40 86 41 35 42 85 43
REMARK SMILES IDX 36 44 37 45 38 46 79 47 39 48 84 49 78 50 80 51 40 52 83 53
REMARK SMILES IDX 77 54 76 55 41 57 67 58 50 59 66 60 51 61 54 62 65 63 81 64
REMARK SMILES IDX 52 65 53 66 64 68 82 69 55 70 42 71 43 72 48 73 44 74 45 75
REMARK SMILES IDX 47 76 49 77 46 78 68 79 69 80 74 81 70 82 71 83 73 84 75 85
REMARK SMILES IDX 72 86 56 87 57 88 62 89 58 90 59 91 61 92 63 93 60 94
REMARK H PARENT 80 56 54 67
REMARK Flexibility Score: inf
ROOT
ATOM      1  O   UNL A   1      32.917  34.979  30.647  1.00  0.00    -0.377 OA
ENDROOT
BRANCH   1   2
ATOM      2  C   UNL A   1      33.320  35.408  29.344  1.00  0.00     0.188 C 
BRANCH   2   3
ATOM      3  C   UNL A   1      34.173  34.460  28.486  1.00  0.00     0.188 C 
BRANCH   3   4
ATOM      4  O   UNL A   1      33.596  33.180  28.377  1.00  0.00    -0.376 OA
BRANCH   4   5
ATOM      5  C   UNL A   1      34.183  32.129  27.626  1.00  0.00     0.202 C 
BRANCH   5   6
ATOM      6  C   UNL A   1      33.670  30.675  27.632  1.00  0.00     0.261 C 
BRANCH   6   7
ATOM      7  O   UNL A   1      32.814  30.350  26.527  1.00  0.00    -0.463 OA
BRANCH   7   8
ATOM      8  C   UNL A   1      32.088  29.191  26.578  1.00  0.00     0.312 C 
ATOM      9  O   UNL A   1      31.851  28.566  27.602  1.00  0.00    -0.252 OA
BRANCH   8  10
ATOM     10  C   UNL A   1      31.500  28.840  25.214  1.00  0.00     0.148 C 
ATOM     11  N   UNL A   1      31.826  25.565  25.882  1.00  0.00    -0.339 N 
ATOM     12  C   UNL A   1      32.807  26.405  25.355  1.00  0.00     0.160 C 
ATOM     13  C   UNL A   1      30.621  26.169  25.642  1.00  0.00     0.230 C 
ATOM     14  C   UNL A   1      32.195  26.845  23.944  1.00  0.00     0.117 C 
ATOM     15  C   UNL A   1      30.953  27.419  24.829  1.00  0.00     0.133 C 
ATOM     16  O   UNL A   1      29.511  25.700  25.820  1.00  0.00    -0.274 OA
ATOM     17  C   UNL A   1      33.655  27.210  23.649  1.00  0.00     0.009 C 
ATOM     18  O   UNL A   1      31.911  28.056  23.162  1.00  0.00    -0.360 OA
ATOM     19  C   UNL A   1      33.843  28.496  23.953  1.00  0.00     0.004 C 
ATOM     20  C   UNL A   1      32.470  29.066  24.032  1.00  0.00     0.157 C 
BRANCH  11  21
ATOM     21  C   UNL A   1      32.207  24.185  26.087  1.00  0.00     0.124 C 
BRANCH  21  22
ATOM     22  C   UNL A   1      33.632  23.986  25.501  1.00  0.00     0.018 C 
ATOM     23  C   UNL A   1      37.151  21.671  24.089  1.00  0.00     0.039 C 
ATOM     24  C   UNL A   1      35.953  22.424  24.586  1.00  0.00    -0.077 C 
ATOM     25  C   UNL A   1      35.750  22.609  25.896  1.00  0.00    -0.025 C 
ATOM     26  C   UNL A   1      35.062  22.969  23.519  1.00  0.00     0.034 C 
ATOM     27  C   UNL A   1      34.631  23.382  26.512  1.00  0.00     0.014 C 
ATOM     28  C   UNL A   1      33.743  23.615  23.968  1.00  0.00    -0.005 C 
ATOM     29  C   UNL A   1      34.014  22.597  27.674  1.00  0.00     0.012 C 
ATOM     30  C   UNL A   1      32.552  22.913  23.293  1.00  0.00     0.008 C 
ENDBRANCH  21  22
ENDBRANCH  11  21
ENDBRANCH   8  10
ENDBRANCH   7   8
ENDBRANCH   6   7
ENDBRANCH   5   6
ENDBRANCH   4   5
ENDBRANCH   3   4
ENDBRANCH   2   3
ENDBRANCH   1   2
BRANCH   1  31
ATOM     31  C   UNL A   1      32.604  35.947  31.644  1.00  0.00     0.188 C 
BRANCH  31  32
ATOM     32  C   UNL A   1      33.649  37.024  31.969  1.00  0.00     0.188 C 
BRANCH  32  33
ATOM     33  O   UNL A   1      34.441  36.750  33.108  1.00  0.00    -0.376 OA
BRANCH  33  34
ATOM     34  C   UNL A   1      34.712  35.388  33.422  1.00  0.00     0.202 C 
BRANCH  34  35
ATOM     35  C   UNL A   1      35.918  34.684  32.771  1.00  0.00     0.261 C 
BRANCH  35  36
ATOM     36  O   UNL A   1      36.055  33.279  33.049  1.00  0.00    -0.460 OA
BRANCH  36  37
ATOM     37  C   UNL A   1      35.534  32.415  32.148  1.00  0.00     0.338 C 
ATOM     38  O   UNL A   1      34.385  32.329  31.780  1.00  0.00    -0.246 OA
BRANCH  37  39
ATOM     39  C   UNL A   1      36.663  31.688  31.530  1.00  0.00     0.060 A 
ATOM     40  C   UNL A   1      37.620  31.093  32.363  1.00  0.00     0.016 A 
ATOM     41  C   UNL A   1      36.783  31.610  30.142  1.00  0.00     0.016 A 
ATOM     42  C   UNL A   1      38.712  30.430  31.804  1.00  0.00     0.010 A 
ATOM     43  C   UNL A   1      37.891  30.966  29.585  1.00  0.00     0.010 A 
ATOM     44  C   UNL A   1      38.872  30.391  30.413  1.00  0.00    -0.014 A 
BRANCH  44  45
ATOM     45  C   UNL A   1      40.134  29.876  29.827  1.00  0.00     0.031 A 
ATOM     46  C   UNL A   1      41.295  30.817  29.665  1.00  0.00     0.074 A 
ATOM     47  C   UNL A   1      40.251  28.586  29.462  1.00  0.00     0.049 A 
ATOM     48  N   UNL A   1      42.463  30.606  29.115  1.00  0.00    -0.248 NA
ATOM     49  C   UNL A   1      41.115  32.178  30.197  1.00  0.00     0.031 C 
ATOM     50  C   UNL A   1      39.216  27.567  29.615  1.00  0.00     0.029 A 
ATOM     51  N   UNL A   1      41.297  27.920  28.873  1.00  0.00    -0.354 N 
ATOM     52  C   UNL A   1      43.157  31.804  29.235  1.00  0.00     0.074 A 
ATOM     53  C   UNL A   1      42.270  32.746  29.883  1.00  0.00     0.031 C 
ATOM     54  C   UNL A   1      39.672  26.405  29.111  1.00  0.00     0.029 A 
ATOM     55  C   UNL A   1      41.013  26.611  28.568  1.00  0.00     0.049 A 
ATOM     56  H   UNL A   1      42.168  28.340  28.688  1.00  0.00     0.167 HD
ATOM     57  C   UNL A   1      44.423  32.090  28.847  1.00  0.00     0.037 A 
ATOM     58  C   UNL A   1      41.741  25.697  27.895  1.00  0.00     0.037 A 
ATOM     59  C   UNL A   1      45.300  31.154  28.195  1.00  0.00     0.049 A 
ATOM     60  C   UNL A   1      43.110  26.073  27.384  1.00  0.00     0.074 A 
ATOM     61  C   UNL A   1      46.602  31.350  27.767  1.00  0.00     0.029 A 
ATOM     62  N   UNL A   1      44.963  29.851  27.867  1.00  0.00    -0.354 N 
ATOM     63  N   UNL A   1      43.765  27.200  27.521  1.00  0.00    -0.248 NA
ATOM     64  C   UNL A   1      43.838  25.049  26.620  1.00  0.00     0.031 C 
ATOM     65  C   UNL A   1      47.034  30.181  27.132  1.00  0.00     0.029 A 
ATOM     66  C   UNL A   1      46.021  29.239  27.215  1.00  0.00     0.049 A 
ATOM     67  H   UNL A   1      44.099  29.423  28.068  1.00  0.00     0.167 HD
ATOM     68  C   UNL A   1      44.987  27.012  26.885  1.00  0.00     0.074 A 
ATOM     69  C   UNL A   1      44.992  25.656  26.382  1.00  0.00     0.031 C 
ATOM     70  C   UNL A   1      46.013  27.885  26.726  1.00  0.00     0.037 A 
BRANCH  57  71
ATOM     71  C   UNL A   1      44.933  33.478  29.102  1.00  0.00     0.057 A 
ATOM     72  C   UNL A   1      45.639  33.803  30.266  1.00  0.00     0.134 A 
ATOM     73  C   UNL A   1      44.768  34.485  28.143  1.00  0.00     0.134 A 
ATOM     74  F   UNL A   1      45.820  32.888  31.230  1.00  0.00    -0.206 F 
ATOM     75  C   UNL A   1      46.153  35.084  30.474  1.00  0.00     0.040 A 
ATOM     76  C   UNL A   1      45.298  35.762  28.326  1.00  0.00     0.040 A 
ATOM     77  F   UNL A   1      44.104  34.238  27.002  1.00  0.00    -0.206 F 
ATOM     78  C   UNL A   1      45.991  36.066  29.497  1.00  0.00     0.006 A 
ENDBRANCH  57  71
BRANCH  58  79
ATOM     79  C   UNL A   1      41.184  24.346  27.620  1.00  0.00     0.057 A 
ATOM     80  C   UNL A   1      40.146  24.157  26.699  1.00  0.00     0.134 A 
ATOM     81  C   UNL A   1      41.635  23.216  28.317  1.00  0.00     0.134 A 
ATOM     82  F   UNL A   1      39.651  25.201  26.018  1.00  0.00    -0.206 F 
ATOM     83  C   UNL A   1      39.560  22.904  26.501  1.00  0.00     0.040 A 
ATOM     84  C   UNL A   1      41.078  21.953  28.108  1.00  0.00     0.040 A 
ATOM     85  F   UNL A   1      42.625  23.325  29.214  1.00  0.00    -0.206 F 
ATOM     86  C   UNL A   1      40.029  21.798  27.205  1.00  0.00     0.006 A 
ENDBRANCH  58  79
BRANCH  70  87
ATOM     87  C   UNL A   1      47.237  27.392  26.006  1.00  0.00     0.057 A 
ATOM     88  C   UNL A   1      48.305  26.793  26.687  1.00  0.00     0.134 A 
ATOM     89  C   UNL A   1      47.328  27.477  24.610  1.00  0.00     0.134 A 
ATOM     90  F   UNL A   1      48.286  26.690  28.024  1.00  0.00    -0.206 F 
ATOM     91  C   UNL A   1      49.429  26.319  26.008  1.00  0.00     0.040 A 
ATOM     92  C   UNL A   1      48.433  26.980  23.918  1.00  0.00     0.040 A 
ATOM     93  F   UNL A   1      46.336  28.028  23.894  1.00  0.00    -0.206 F 
ATOM     94  C   UNL A   1      49.491  26.405  24.619  1.00  0.00     0.006 A 
ENDBRANCH  70  87
ENDBRANCH  44  45
ENDBRANCH  37  39
ENDBRANCH  36  37
ENDBRANCH  35  36
ENDBRANCH  34  35
ENDBRANCH  33  34
ENDBRANCH  32  33
ENDBRANCH  31  32
ENDBRANCH   1  31
TORSDOF 22
ENDMDL
MODEL 3
REMARK VINA RESULT:     -11.0      4.656     10.414
REMARK SMILES CC1=C[C@H](C)[C@H](CN2C[C@]34C=C[C@@H](O3)[C@H](C(=O)OCCOCCOCCOCCOC(=O)c3ccc(-c5c6nc(c(-c7c(F)cccc7F)c7ccc([nH]7)c(-c7c(F)cccc7F)c7nc(c(-c8c(F)cccc8F)c8ccc5[nH]8)C=C7)C=C6)cc3)[C@@H]4C2=O)[C@H](C)C1
REMARK SMILES IDX 24 1 23 2 22 3 21 4 20 5 19 6 18 7 16 8 17 9 15 10 8 11 9 12
REMARK SMILES IDX 88 13 10 14 87 15 89 16 11 17 14 18 12 19 13 20 7 21 6 22
REMARK SMILES IDX 1 23 2 24 3 25 92 26 4 27 90 28 5 29 91 30 25 31 26 32 27 33
REMARK SMILES IDX 28 34 29 35 30 36 31 37 32 38 33 39 34 40 86 41 35 42 85 43
REMARK SMILES IDX 36 44 37 45 38 46 79 47 39 48 84 49 78 50 80 51 40 52 83 53
REMARK SMILES IDX 77 54 76 55 41 57 67 58 50 59 66 60 51 61 54 62 65 63 81 64
REMARK SMILES IDX 52 65 53 66 64 68 82 69 55 70 42 71 43 72 48 73 44 74 45 75
REMARK SMILES IDX 47 76 49 77 46 78 68 79 69 80 74 81 70 82 71 83 73 84 75 85
REMARK SMILES IDX 72 86 56 87 57 88 62 89 58 90 59 91 61 92 63 93 60 94
REMARK H PARENT 80 56 54 67
REMARK Flexibility Score: inf
ROOT
ATOM      1  O   UNL A   1      34.002  34.362  27.854  1.00  0.00    -0.377 OA
ENDROOT
BRANCH   1   2
ATOM      2  C   UNL A   1      33.867  33.030  28.353  1.00  0.00     0.188 C 
BRANCH   2   3
ATOM      3  C   UNL A   1      34.880  31.967  27.901  1.00  0.00     0.188 C 
BRANCH   3   4
ATOM      4  O   UNL A   1      34.280  30.962  27.117  1.00  0.00    -0.376 OA
BRANCH   4   5
ATOM      5  C   UNL A   1      32.881  30.727  27.101  1.00  0.00     0.202 C 
BRANCH   5   6
ATOM      6  C   UNL A   1      32.112  30.187  25.877  1.00  0.00     0.261 C 
BRANCH   6   7
ATOM      7  O   UNL A   1      32.913  29.403  24.980  1.00  0.00    -0.463 OA
BRANCH   7   8
ATOM      8  C   UNL A   1      32.485  28.146  24.649  1.00  0.00     0.312 C 
ATOM      9  O   UNL A   1      32.269  27.766  23.506  1.00  0.00    -0.252 OA
BRANCH   8  10
ATOM     10  C   UNL A   1      32.432  27.234  25.871  1.00  0.00     0.148 C 
ATOM     11  N   UNL A   1      33.557  24.657  24.035  1.00  0.00    -0.339 N 
ATOM     12  C   UNL A   1      32.230  25.069  24.160  1.00  0.00     0.160 C 
ATOM     13  C   UNL A   1      34.229  25.163  25.116  1.00  0.00     0.230 C 
ATOM     14  C   UNL A   1      31.915  24.830  25.710  1.00  0.00     0.117 C 
ATOM     15  C   UNL A   1      33.162  25.847  25.968  1.00  0.00     0.133 C 
ATOM     16  O   UNL A   1      35.374  24.920  25.453  1.00  0.00    -0.274 OA
ATOM     17  C   UNL A   1      30.463  24.900  25.221  1.00  0.00     0.009 C 
ATOM     18  O   UNL A   1      31.379  25.540  26.878  1.00  0.00    -0.360 OA
ATOM     19  C   UNL A   1      30.032  26.157  25.343  1.00  0.00     0.004 C 
ATOM     20  C   UNL A   1      31.004  26.797  26.271  1.00  0.00     0.157 C 
BRANCH  11  21
ATOM     21  C   UNL A   1      33.795  23.516  23.178  1.00  0.00     0.124 C 
BRANCH  21  22
ATOM     22  C   UNL A   1      33.620  22.228  24.030  1.00  0.00     0.018 C 
ATOM     23  C   UNL A   1      33.693  17.861  24.840  1.00  0.00     0.039 C 
ATOM     24  C   UNL A   1      33.665  19.328  24.531  1.00  0.00    -0.077 C 
ATOM     25  C   UNL A   1      32.643  19.872  23.859  1.00  0.00    -0.025 C 
ATOM     26  C   UNL A   1      34.821  20.108  25.063  1.00  0.00     0.034 C 
ATOM     27  C   UNL A   1      32.473  21.320  23.536  1.00  0.00     0.014 C 
ATOM     28  C   UNL A   1      34.925  21.583  24.648  1.00  0.00    -0.005 C 
ATOM     29  C   UNL A   1      32.060  21.498  22.072  1.00  0.00     0.012 C 
ATOM     30  C   UNL A   1      36.275  21.846  23.958  1.00  0.00     0.008 C 
ENDBRANCH  21  22
ENDBRANCH  11  21
ENDBRANCH   8  10
ENDBRANCH   7   8
ENDBRANCH   6   7
ENDBRANCH   5   6
ENDBRANCH   4   5
ENDBRANCH   3   4
ENDBRANCH   2   3
ENDBRANCH   1   2
BRANCH   1  31
ATOM     31  C   UNL A   1      34.134  35.449  28.766  1.00  0.00     0.188 C 
BRANCH  31  32
ATOM     32  C   UNL A   1      32.966  35.748  29.717  1.00  0.00     0.188 C 
BRANCH  32  33
ATOM     33  O   UNL A   1      33.351  36.072  31.038  1.00  0.00    -0.376 OA
BRANCH  33  34
ATOM     34  C   UNL A   1      33.717  35.006  31.908  1.00  0.00     0.202 C 
BRANCH  34  35
ATOM     35  C   UNL A   1      35.178  34.878  32.378  1.00  0.00     0.261 C 
BRANCH  35  36
ATOM     36  O   UNL A   1      35.948  33.826  31.770  1.00  0.00    -0.460 OA
BRANCH  36  37
ATOM     37  C   UNL A   1      36.260  32.759  32.542  1.00  0.00     0.338 C 
ATOM     38  O   UNL A   1      35.694  32.375  33.540  1.00  0.00    -0.246 OA
BRANCH  37  39
ATOM     39  C   UNL A   1      37.327  32.009  31.848  1.00  0.00     0.060 A 
ATOM     40  C   UNL A   1      38.293  31.345  32.614  1.00  0.00     0.016 A 
ATOM     41  C   UNL A   1      37.380  31.977  30.453  1.00  0.00     0.016 A 
ATOM     42  C   UNL A   1      39.330  30.657  31.982  1.00  0.00     0.010 A 
ATOM     43  C   UNL A   1      38.433  31.308  29.824  1.00  0.00     0.010 A 
ATOM     44  C   UNL A   1      39.425  30.662  30.585  1.00  0.00    -0.014 A 
BRANCH  44  45
ATOM     45  C   UNL A   1      40.635  30.116  29.923  1.00  0.00     0.031 A 
ATOM     46  C   UNL A   1      41.809  31.027  29.695  1.00  0.00     0.074 A 
ATOM     47  C   UNL A   1      40.696  28.826  29.547  1.00  0.00     0.049 A 
ATOM     48  N   UNL A   1      42.936  30.787  29.076  1.00  0.00    -0.248 NA
ATOM     49  C   UNL A   1      41.698  32.390  30.241  1.00  0.00     0.031 C 
ATOM     50  C   UNL A   1      39.644  27.833  29.758  1.00  0.00     0.029 A 
ATOM     51  N   UNL A   1      41.687  28.135  28.895  1.00  0.00    -0.354 N 
ATOM     52  C   UNL A   1      43.668  31.966  29.158  1.00  0.00     0.074 A 
ATOM     53  C   UNL A   1      42.847  32.928  29.861  1.00  0.00     0.031 C 
ATOM     54  C   UNL A   1      40.038  26.662  29.225  1.00  0.00     0.029 A 
ATOM     55  C   UNL A   1      41.350  26.835  28.603  1.00  0.00     0.049 A 
ATOM     56  H   UNL A   1      42.556  28.532  28.659  1.00  0.00     0.167 HD
ATOM     57  C   UNL A   1      44.916  32.219  28.696  1.00  0.00     0.037 A 
ATOM     58  C   UNL A   1      42.011  25.905  27.886  1.00  0.00     0.037 A 
ATOM     59  C   UNL A   1      45.728  31.264  27.990  1.00  0.00     0.049 A 
ATOM     60  C   UNL A   1      43.357  26.247  27.295  1.00  0.00     0.074 A 
ATOM     61  C   UNL A   1      47.007  31.427  27.486  1.00  0.00     0.029 A 
ATOM     62  N   UNL A   1      45.336  29.972  27.679  1.00  0.00    -0.354 N 
ATOM     63  N   UNL A   1      44.050  27.356  27.396  1.00  0.00    -0.248 NA
ATOM     64  C   UNL A   1      44.011  25.207  26.486  1.00  0.00     0.031 C 
ATOM     65  C   UNL A   1      47.368  30.250  26.823  1.00  0.00     0.029 A 
ATOM     66  C   UNL A   1      46.337  29.336  26.962  1.00  0.00     0.049 A 
ATOM     67  H   UNL A   1      44.475  29.566  27.929  1.00  0.00     0.167 HD
ATOM     68  C   UNL A   1      45.226  27.138  26.688  1.00  0.00     0.074 A 
ATOM     69  C   UNL A   1      45.165  25.784  26.182  1.00  0.00     0.031 C 
ATOM     70  C   UNL A   1      46.264  27.984  26.471  1.00  0.00     0.037 A 
BRANCH  57  71
ATOM     71  C   UNL A   1      45.477  33.592  28.924  1.00  0.00     0.057 A 
ATOM     72  C   UNL A   1      45.336  34.614  27.978  1.00  0.00     0.134 A 
ATOM     73  C   UNL A   1      46.114  33.911  30.131  1.00  0.00     0.134 A 
ATOM     74  F   UNL A   1      44.750  34.371  26.797  1.00  0.00    -0.206 F 
ATOM     75  C   UNL A   1      45.819  35.902  28.218  1.00  0.00     0.040 A 
ATOM     76  C   UNL A   1      46.577  35.200  30.394  1.00  0.00     0.040 A 
ATOM     77  F   UNL A   1      46.277  32.979  31.083  1.00  0.00    -0.206 F 
ATOM     78  C   UNL A   1      46.433  36.200  29.434  1.00  0.00     0.006 A 
ENDBRANCH  57  71
BRANCH  58  79
ATOM     79  C   UNL A   1      41.403  24.570  27.640  1.00  0.00     0.057 A 
ATOM     80  C   UNL A   1      40.366  24.399  26.714  1.00  0.00     0.134 A 
ATOM     81  C   UNL A   1      41.803  23.442  28.370  1.00  0.00     0.134 A 
ATOM     82  F   UNL A   1      39.919  25.445  26.003  1.00  0.00    -0.206 F 
ATOM     83  C   UNL A   1      39.731  23.167  26.544  1.00  0.00     0.040 A 
ATOM     84  C   UNL A   1      41.198  22.198  28.187  1.00  0.00     0.040 A 
ATOM     85  F   UNL A   1      42.790  23.534  29.273  1.00  0.00    -0.206 F 
ATOM     86  C   UNL A   1      40.150  22.061  27.280  1.00  0.00     0.006 A 
ENDBRANCH  58  79
BRANCH  70  87
ATOM     87  C   UNL A   1      47.429  27.462  25.677  1.00  0.00     0.057 A 
ATOM     88  C   UNL A   1      48.502  26.799  26.288  1.00  0.00     0.134 A 
ATOM     89  C   UNL A   1      47.455  27.584  24.282  1.00  0.00     0.134 A 
ATOM     90  F   UNL A   1      48.543  26.658  27.622  1.00  0.00    -0.206 F 
ATOM     91  C   UNL A   1      49.570  26.299  25.542  1.00  0.00     0.040 A 
ATOM     92  C   UNL A   1      48.504  27.062  23.522  1.00  0.00     0.040 A 
ATOM     93  F   UNL A   1      46.455  28.197  23.632  1.00  0.00    -0.206 F 
ATOM     94  C   UNL A   1      49.569  26.423  24.154  1.00  0.00     0.006 A 
ENDBRANCH  70  87
ENDBRANCH  44  45
ENDBRANCH  37  39
ENDBRANCH  36  37
ENDBRANCH  35  36
ENDBRANCH  34  35
ENDBRANCH  33  34
ENDBRANCH  32  33
ENDBRANCH  31  32
ENDBRANCH   1  31
TORSDOF 22
ENDMDL
