MODEL 1
REMARK VINA RESULT:     -10.8      0.000      0.000
REMARK SMILES COc1cc(Cn2cc(C(=O)OCCOCCOCCOCCOC(=O)c3ccc(-c4c5nc(c(-c6c(F)cccc6F)c6ccc([nH]6)c(-c6c(F)cccc6F)c6nc(c(-c7c(F)cccc7F)c7ccc4[nH]7)C=C6)C=C5)cc3)c(=O)[nH]c2=O)ccn1
REMARK SMILES IDX 17 1 16 2 15 3 14 4 13 5 12 6 10 7 11 8 9 9 7 10 8 11 84 12
REMARK SMILES IDX 83 13 85 14 81 15 82 17 6 18 5 19 3 20 4 21 88 22 87 23
REMARK SMILES IDX 86 24 2 25 1 26 18 27 19 28 20 29 21 30 22 31 23 32 24 33
REMARK SMILES IDX 25 34 26 35 27 36 28 37 80 38 29 39 79 40 30 41 31 42 32 43
REMARK SMILES IDX 73 44 33 45 78 46 72 47 74 48 34 49 77 50 71 51 70 52 35 54
REMARK SMILES IDX 61 55 44 56 60 57 45 58 48 59 59 60 75 61 46 62 47 63 58 65
REMARK SMILES IDX 76 66 49 67 36 68 37 69 42 70 38 71 39 72 41 73 43 74 40 75
REMARK SMILES IDX 62 76 63 77 68 78 64 79 65 80 67 81 69 82 66 83 50 84 51 85
REMARK SMILES IDX 56 86 52 87 53 88 55 89 57 90 54 91
REMARK H PARENT 83 16 74 53 48 64
REMARK Flexibility Score: inf
ROOT
ATOM      1  C   UNL A   1      41.800  19.698  27.150  1.00  0.00     0.188 C 
ENDROOT
BRANCH   1   2
ATOM      2  C   UNL A   1      41.433  21.195  27.116  1.00  0.00     0.188 C 
BRANCH   2   3
ATOM      3  O   UNL A   1      40.027  21.423  27.213  1.00  0.00    -0.376 OA
BRANCH   3   4
ATOM      4  C   UNL A   1      39.403  22.122  26.144  1.00  0.00     0.202 C 
BRANCH   4   5
ATOM      5  C   UNL A   1      38.215  21.423  25.473  1.00  0.00     0.261 C 
BRANCH   5   6
ATOM      6  O   UNL A   1      37.349  22.286  24.723  1.00  0.00    -0.459 OA
BRANCH   6   7
ATOM      7  C   UNL A   1      36.259  22.804  25.338  1.00  0.00     0.345 C 
ATOM      8  O   UNL A   1      36.262  23.423  26.387  1.00  0.00    -0.246 OA
BRANCH   7   9
ATOM      9  C   UNL A   1      35.074  22.540  24.498  1.00  0.00     0.141 A 
ATOM     10  N   UNL A   1      33.068  21.267  24.206  1.00  0.00    -0.295 N 
ATOM     11  C   UNL A   1      34.284  21.510  24.815  1.00  0.00     0.112 A 
ATOM     12  C   UNL A   1      32.643  22.021  23.122  1.00  0.00     0.328 A 
ATOM     13  N   UNL A   1      33.515  23.004  22.720  1.00  0.00    -0.273 N 
ATOM     14  O   UNL A   1      31.571  21.862  22.545  1.00  0.00    -0.248 OA
ATOM     15  C   UNL A   1      34.708  23.335  23.315  1.00  0.00     0.268 A 
ATOM     16  H   UNL A   1      33.259  23.524  21.924  1.00  0.00     0.175 HD
ATOM     17  O   UNL A   1      35.447  24.184  22.831  1.00  0.00    -0.268 OA
BRANCH  10  18
ATOM     18  C   UNL A   1      32.158  20.290  24.828  1.00  0.00     0.162 C 
BRANCH  18  19
ATOM     19  C   UNL A   1      32.521  18.887  24.379  1.00  0.00    -0.021 A 
ATOM     20  C   UNL A   1      33.596  16.794  24.790  1.00  0.00     0.213 A 
ATOM     21  C   UNL A   1      33.092  17.989  25.282  1.00  0.00     0.074 A 
ATOM     22  N   UNL A   1      33.620  16.459  23.485  1.00  0.00    -0.222 NA
ATOM     23  C   UNL A   1      33.065  17.337  22.629  1.00  0.00     0.115 A 
ATOM     24  C   UNL A   1      32.478  18.528  23.024  1.00  0.00     0.026 A 
BRANCH  20  25
ATOM     25  O   UNL A   1      34.160  15.885  25.646  1.00  0.00    -0.481 OA
ATOM     26  C   UNL A   1      35.544  15.755  25.336  1.00  0.00     0.280 C 
ENDBRANCH  20  25
ENDBRANCH  18  19
ENDBRANCH  10  18
ENDBRANCH   7   9
ENDBRANCH   6   7
ENDBRANCH   5   6
ENDBRANCH   4   5
ENDBRANCH   3   4
ENDBRANCH   2   3
ENDBRANCH   1   2
BRANCH   1  27
ATOM     27  O   UNL A   1      42.150  19.183  25.874  1.00  0.00    -0.377 OA
BRANCH  27  28
ATOM     28  C   UNL A   1      43.393  18.485  25.766  1.00  0.00     0.188 C 
BRANCH  28  29
ATOM     29  C   UNL A   1      44.477  18.902  24.745  1.00  0.00     0.188 C 
BRANCH  29  30
ATOM     30  O   UNL A   1      44.207  20.141  24.095  1.00  0.00    -0.376 OA
BRANCH  30  31
ATOM     31  C   UNL A   1      44.595  21.327  24.771  1.00  0.00     0.202 C 
BRANCH  31  32
ATOM     32  C   UNL A   1      44.202  22.614  24.039  1.00  0.00     0.261 C 
BRANCH  32  33
ATOM     33  O   UNL A   1      43.681  23.657  24.878  1.00  0.00    -0.460 OA
BRANCH  33  34
ATOM     34  C   UNL A   1      44.500  24.685  25.191  1.00  0.00     0.338 C 
ATOM     35  O   UNL A   1      45.529  25.010  24.626  1.00  0.00    -0.246 OA
BRANCH  34  36
ATOM     36  C   UNL A   1      43.820  25.484  26.232  1.00  0.00     0.060 A 
ATOM     37  C   UNL A   1      42.779  24.925  26.976  1.00  0.00     0.016 A 
ATOM     38  C   UNL A   1      44.204  26.815  26.435  1.00  0.00     0.016 A 
ATOM     39  C   UNL A   1      42.141  25.690  27.951  1.00  0.00     0.010 A 
ATOM     40  C   UNL A   1      43.560  27.584  27.409  1.00  0.00     0.010 A 
ATOM     41  C   UNL A   1      42.542  27.017  28.190  1.00  0.00    -0.014 A 
BRANCH  41  42
ATOM     42  C   UNL A   1      42.023  27.724  29.386  1.00  0.00     0.031 A 
ATOM     43  C   UNL A   1      42.670  27.605  30.731  1.00  0.00     0.074 A 
ATOM     44  C   UNL A   1      40.931  28.495  29.223  1.00  0.00     0.049 A 
ATOM     45  N   UNL A   1      42.385  28.249  31.835  1.00  0.00    -0.248 NA
ATOM     46  C   UNL A   1      43.768  26.638  30.862  1.00  0.00     0.031 C 
ATOM     47  C   UNL A   1      40.191  28.649  27.969  1.00  0.00     0.029 A 
ATOM     48  N   UNL A   1      40.255  29.290  30.110  1.00  0.00    -0.354 N 
ATOM     49  C   UNL A   1      43.275  27.780  32.791  1.00  0.00     0.074 A 
ATOM     50  C   UNL A   1      44.087  26.768  32.145  1.00  0.00     0.031 C 
ATOM     51  C   UNL A   1      39.172  29.497  28.162  1.00  0.00     0.029 A 
ATOM     52  C   UNL A   1      39.175  29.932  29.555  1.00  0.00     0.049 A 
ATOM     53  H   UNL A   1      40.517  29.393  31.054  1.00  0.00     0.167 HD
ATOM     54  C   UNL A   1      43.405  28.172  34.083  1.00  0.00     0.037 A 
ATOM     55  C   UNL A   1      38.286  30.777  30.106  1.00  0.00     0.037 A 
ATOM     56  C   UNL A   1      42.581  29.169  34.723  1.00  0.00     0.049 A 
ATOM     57  C   UNL A   1      38.445  31.170  31.547  1.00  0.00     0.074 A 
ATOM     58  C   UNL A   1      42.686  29.681  36.005  1.00  0.00     0.029 A 
ATOM     59  N   UNL A   1      41.485  29.787  34.138  1.00  0.00    -0.354 N 
ATOM     60  N   UNL A   1      39.367  30.811  32.406  1.00  0.00    -0.248 NA
ATOM     61  C   UNL A   1      37.442  32.095  32.091  1.00  0.00     0.031 C 
ATOM     62  C   UNL A   1      41.621  30.566  36.215  1.00  0.00     0.029 A 
ATOM     63  C   UNL A   1      40.883  30.645  35.047  1.00  0.00     0.049 A 
ATOM     64  H   UNL A   1      41.180  29.638  33.215  1.00  0.00     0.167 HD
ATOM     65  C   UNL A   1      39.072  31.487  33.582  1.00  0.00     0.074 A 
ATOM     66  C   UNL A   1      37.898  32.294  33.319  1.00  0.00     0.031 C 
ATOM     67  C   UNL A   1      39.713  31.441  34.775  1.00  0.00     0.037 A 
BRANCH  54  68
ATOM     68  C   UNL A   1      44.480  27.524  34.908  1.00  0.00     0.057 A 
ATOM     69  C   UNL A   1      44.199  26.396  35.691  1.00  0.00     0.134 A 
ATOM     70  C   UNL A   1      45.769  28.065  34.995  1.00  0.00     0.134 A 
ATOM     71  F   UNL A   1      42.982  25.832  35.663  1.00  0.00    -0.206 F 
ATOM     72  C   UNL A   1      45.159  25.837  36.538  1.00  0.00     0.040 A 
ATOM     73  C   UNL A   1      46.742  27.504  35.824  1.00  0.00     0.040 A 
ATOM     74  F   UNL A   1      46.105  29.141  34.269  1.00  0.00    -0.206 F 
ATOM     75  C   UNL A   1      46.436  26.391  36.604  1.00  0.00     0.006 A 
ENDBRANCH  54  68
BRANCH  55  76
ATOM     76  C   UNL A   1      37.171  31.321  29.295  1.00  0.00     0.057 A 
ATOM     77  C   UNL A   1      36.014  30.569  29.058  1.00  0.00     0.134 A 
ATOM     78  C   UNL A   1      37.217  32.618  28.773  1.00  0.00     0.134 A 
ATOM     79  F   UNL A   1      35.914  29.315  29.522  1.00  0.00    -0.206 F 
ATOM     80  C   UNL A   1      34.941  31.090  28.336  1.00  0.00     0.040 A 
ATOM     81  C   UNL A   1      36.139  33.162  28.074  1.00  0.00     0.040 A 
ATOM     82  F   UNL A   1      38.294  33.391  28.981  1.00  0.00    -0.206 F 
ATOM     83  C   UNL A   1      34.996  32.397  27.854  1.00  0.00     0.006 A 
ENDBRANCH  55  76
BRANCH  67  84
ATOM     84  C   UNL A   1      39.166  32.309  35.872  1.00  0.00     0.057 A 
ATOM     85  C   UNL A   1      38.235  31.801  36.787  1.00  0.00     0.134 A 
ATOM     86  C   UNL A   1      39.563  33.644  36.028  1.00  0.00     0.134 A 
ATOM     87  F   UNL A   1      37.807  30.533  36.693  1.00  0.00    -0.206 F 
ATOM     88  C   UNL A   1      37.722  32.589  37.820  1.00  0.00     0.040 A 
ATOM     89  C   UNL A   1      39.080  34.432  37.074  1.00  0.00     0.040 A 
ATOM     90  F   UNL A   1      40.466  34.186  35.195  1.00  0.00    -0.206 F 
ATOM     91  C   UNL A   1      38.153  33.906  37.971  1.00  0.00     0.006 A 
ENDBRANCH  67  84
ENDBRANCH  41  42
ENDBRANCH  34  36
ENDBRANCH  33  34
ENDBRANCH  32  33
ENDBRANCH  31  32
ENDBRANCH  30  31
ENDBRANCH  29  30
ENDBRANCH  28  29
ENDBRANCH  27  28
ENDBRANCH   1  27
TORSDOF 23
ENDMDL
MODEL 2
REMARK VINA RESULT:     -10.2      2.363      7.316
REMARK SMILES COc1cc(Cn2cc(C(=O)OCCOCCOCCOCCOC(=O)c3ccc(-c4c5nc(c(-c6c(F)cccc6F)c6ccc([nH]6)c(-c6c(F)cccc6F)c6nc(c(-c7c(F)cccc7F)c7ccc4[nH]7)C=C6)C=C5)cc3)c(=O)[nH]c2=O)ccn1
REMARK SMILES IDX 17 1 16 2 15 3 14 4 13 5 12 6 10 7 11 8 9 9 7 10 8 11 84 12
REMARK SMILES IDX 83 13 85 14 81 15 82 17 6 18 5 19 3 20 4 21 88 22 87 23
REMARK SMILES IDX 86 24 2 25 1 26 18 27 19 28 20 29 21 30 22 31 23 32 24 33
REMARK SMILES IDX 25 34 26 35 27 36 28 37 80 38 29 39 79 40 30 41 31 42 32 43
REMARK SMILES IDX 73 44 33 45 78 46 72 47 74 48 34 49 77 50 71 51 70 52 35 54
REMARK SMILES IDX 61 55 44 56 60 57 45 58 48 59 59 60 75 61 46 62 47 63 58 65
REMARK SMILES IDX 76 66 49 67 36 68 37 69 42 70 38 71 39 72 41 73 43 74 40 75
REMARK SMILES IDX 62 76 63 77 68 78 64 79 65 80 67 81 69 82 66 83 50 84 51 85
REMARK SMILES IDX 56 86 52 87 53 88 55 89 57 90 54 91
REMARK H PARENT 83 16 74 53 48 64
REMARK Flexibility Score: inf
ROOT
ATOM      1  C   UNL A   1      40.746  20.977  27.297  1.00  0.00     0.188 C 
ENDROOT
BRANCH   1   2
ATOM      2  C   UNL A   1      39.958  22.068  26.545  1.00  0.00     0.188 C 
BRANCH   2   3
ATOM      3  O   UNL A   1      38.775  21.567  25.925  1.00  0.00    -0.376 OA
BRANCH   3   4
ATOM      4  C   UNL A   1      37.696  22.475  25.747  1.00  0.00     0.202 C 
BRANCH   4   5
ATOM      5  C   UNL A   1      36.884  22.325  24.454  1.00  0.00     0.261 C 
BRANCH   5   6
ATOM      6  O   UNL A   1      36.138  23.487  24.069  1.00  0.00    -0.459 OA
BRANCH   6   7
ATOM      7  C   UNL A   1      34.912  23.680  24.611  1.00  0.00     0.345 C 
ATOM      8  O   UNL A   1      34.607  23.470  25.772  1.00  0.00    -0.246 OA
BRANCH   7   9
ATOM      9  C   UNL A   1      34.021  24.238  23.575  1.00  0.00     0.141 A 
ATOM     10  N   UNL A   1      33.212  26.203  22.472  1.00  0.00    -0.295 N 
ATOM     11  C   UNL A   1      33.885  25.565  23.497  1.00  0.00     0.112 A 
ATOM     12  C   UNL A   1      32.519  25.484  21.510  1.00  0.00     0.328 A 
ATOM     13  N   UNL A   1      32.559  24.119  21.664  1.00  0.00    -0.273 N 
ATOM     14  O   UNL A   1      31.911  25.989  20.571  1.00  0.00    -0.248 OA
ATOM     15  C   UNL A   1      33.254  23.422  22.621  1.00  0.00     0.268 A 
ATOM     16  H   UNL A   1      32.037  23.586  21.020  1.00  0.00     0.175 HD
ATOM     17  O   UNL A   1      33.164  22.203  22.713  1.00  0.00    -0.268 OA
BRANCH  10  18
ATOM     18  C   UNL A   1      33.375  27.659  22.331  1.00  0.00     0.162 C 
BRANCH  18  19
ATOM     19  C   UNL A   1      32.377  28.379  23.218  1.00  0.00    -0.021 A 
ATOM     20  C   UNL A   1      30.299  29.526  23.492  1.00  0.00     0.213 A 
ATOM     21  C   UNL A   1      31.106  28.693  22.731  1.00  0.00     0.074 A 
ATOM     22  N   UNL A   1      30.677  30.098  24.652  1.00  0.00    -0.222 NA
ATOM     23  C   UNL A   1      31.904  29.784  25.106  1.00  0.00     0.115 A 
ATOM     24  C   UNL A   1      32.764  28.914  24.455  1.00  0.00     0.026 A 
BRANCH  20  25
ATOM     25  O   UNL A   1      29.045  29.853  23.051  1.00  0.00    -0.481 OA
ATOM     26  C   UNL A   1      29.161  30.757  21.955  1.00  0.00     0.280 C 
ENDBRANCH  20  25
ENDBRANCH  18  19
ENDBRANCH  10  18
ENDBRANCH   7   9
ENDBRANCH   6   7
ENDBRANCH   5   6
ENDBRANCH   4   5
ENDBRANCH   3   4
ENDBRANCH   2   3
ENDBRANCH   1   2
BRANCH   1  27
ATOM     27  O   UNL A   1      41.142  19.900  26.459  1.00  0.00    -0.377 OA
BRANCH  27  28
ATOM     28  C   UNL A   1      42.369  19.238  26.776  1.00  0.00     0.188 C 
BRANCH  28  29
ATOM     29  C   UNL A   1      43.446  18.962  25.702  1.00  0.00     0.188 C 
BRANCH  29  30
ATOM     30  O   UNL A   1      43.640  20.040  24.791  1.00  0.00    -0.376 OA
BRANCH  30  31
ATOM     31  C   UNL A   1      43.957  21.309  25.345  1.00  0.00     0.202 C 
BRANCH  31  32
ATOM     32  C   UNL A   1      43.823  22.468  24.353  1.00  0.00     0.261 C 
BRANCH  32  33
ATOM     33  O   UNL A   1      43.282  23.680  24.902  1.00  0.00    -0.460 OA
BRANCH  33  34
ATOM     34  C   UNL A   1      44.144  24.675  25.207  1.00  0.00     0.338 C 
ATOM     35  O   UNL A   1      45.209  24.922  24.673  1.00  0.00    -0.246 OA
BRANCH  34  36
ATOM     36  C   UNL A   1      43.469  25.549  26.189  1.00  0.00     0.060 A 
ATOM     37  C   UNL A   1      42.526  25.017  27.071  1.00  0.00     0.016 A 
ATOM     38  C   UNL A   1      43.757  26.921  26.198  1.00  0.00     0.016 A 
ATOM     39  C   UNL A   1      41.892  25.854  27.989  1.00  0.00     0.010 A 
ATOM     40  C   UNL A   1      43.115  27.760  27.115  1.00  0.00     0.010 A 
ATOM     41  C   UNL A   1      42.199  27.225  28.032  1.00  0.00    -0.014 A 
BRANCH  41  42
ATOM     42  C   UNL A   1      41.701  28.041  29.166  1.00  0.00     0.031 A 
ATOM     43  C   UNL A   1      40.466  28.881  29.068  1.00  0.00     0.074 A 
ATOM     44  C   UNL A   1      42.407  28.004  30.312  1.00  0.00     0.049 A 
ATOM     45  N   UNL A   1      39.861  29.560  30.011  1.00  0.00    -0.248 NA
ATOM     46  C   UNL A   1      39.830  28.985  27.747  1.00  0.00     0.031 C 
ATOM     47  C   UNL A   1      43.651  27.256  30.507  1.00  0.00     0.029 A 
ATOM     48  N   UNL A   1      42.183  28.602  31.524  1.00  0.00    -0.354 N 
ATOM     49  C   UNL A   1      38.764  30.159  29.407  1.00  0.00     0.074 A 
ATOM     50  C   UNL A   1      38.809  29.794  28.004  1.00  0.00     0.031 C 
ATOM     51  C   UNL A   1      44.074  27.430  31.768  1.00  0.00     0.029 A 
ATOM     52  C   UNL A   1      43.142  28.313  32.462  1.00  0.00     0.049 A 
ATOM     53  H   UNL A   1      41.409  29.184  31.705  1.00  0.00     0.167 HD
ATOM     54  C   UNL A   1      37.807  30.931  29.978  1.00  0.00     0.037 A 
ATOM     55  C   UNL A   1      43.260  28.714  33.740  1.00  0.00     0.037 A 
ATOM     56  C   UNL A   1      37.780  31.303  31.372  1.00  0.00     0.049 A 
ATOM     57  C   UNL A   1      42.195  29.590  34.334  1.00  0.00     0.074 A 
ATOM     58  C   UNL A   1      36.813  32.022  32.055  1.00  0.00     0.029 A 
ATOM     59  N   UNL A   1      38.776  31.008  32.292  1.00  0.00    -0.354 N 
ATOM     60  N   UNL A   1      41.098  30.049  33.783  1.00  0.00    -0.248 NA
ATOM     61  C   UNL A   1      42.380  29.995  35.734  1.00  0.00     0.031 C 
ATOM     62  C   UNL A   1      37.250  32.210  33.372  1.00  0.00     0.029 A 
ATOM     63  C   UNL A   1      38.464  31.564  33.524  1.00  0.00     0.049 A 
ATOM     64  H   UNL A   1      39.585  30.483  32.098  1.00  0.00     0.167 HD
ATOM     65  C   UNL A   1      40.451  30.772  34.774  1.00  0.00     0.074 A 
ATOM     66  C   UNL A   1      41.266  30.672  35.967  1.00  0.00     0.031 C 
ATOM     67  C   UNL A   1      39.285  31.461  34.703  1.00  0.00     0.037 A 
BRANCH  54  68
ATOM     68  C   UNL A   1      36.697  31.436  29.101  1.00  0.00     0.057 A 
ATOM     69  C   UNL A   1      36.650  32.781  28.709  1.00  0.00     0.134 A 
ATOM     70  C   UNL A   1      35.630  30.615  28.718  1.00  0.00     0.134 A 
ATOM     71  F   UNL A   1      37.635  33.625  29.051  1.00  0.00    -0.206 F 
ATOM     72  C   UNL A   1      35.577  33.291  27.975  1.00  0.00     0.040 A 
ATOM     73  C   UNL A   1      34.561  31.109  27.967  1.00  0.00     0.040 A 
ATOM     74  F   UNL A   1      35.614  29.317  29.057  1.00  0.00    -0.206 F 
ATOM     75  C   UNL A   1      34.529  32.453  27.601  1.00  0.00     0.006 A 
ENDBRANCH  54  68
BRANCH  55  76
ATOM     76  C   UNL A   1      44.424  28.285  34.553  1.00  0.00     0.057 A 
ATOM     77  C   UNL A   1      44.384  27.110  35.313  1.00  0.00     0.134 A 
ATOM     78  C   UNL A   1      45.616  29.017  34.556  1.00  0.00     0.134 A 
ATOM     79  F   UNL A   1      43.266  26.371  35.360  1.00  0.00    -0.206 F 
ATOM     80  C   UNL A   1      45.490  26.675  36.042  1.00  0.00     0.040 A 
ATOM     81  C   UNL A   1      46.740  28.578  35.257  1.00  0.00     0.040 A 
ATOM     82  F   UNL A   1      45.719  30.143  33.833  1.00  0.00    -0.206 F 
ATOM     83  C   UNL A   1      46.678  27.403  36.003  1.00  0.00     0.006 A 
ENDBRANCH  55  76
BRANCH  67  84
ATOM     84  C   UNL A   1      38.821  32.137  35.962  1.00  0.00     0.057 A 
ATOM     85  C   UNL A   1      39.074  33.498  36.177  1.00  0.00     0.134 A 
ATOM     86  C   UNL A   1      38.117  31.445  36.957  1.00  0.00     0.134 A 
ATOM     87  F   UNL A   1      39.747  34.219  35.268  1.00  0.00    -0.206 F 
ATOM     88  C   UNL A   1      38.641  34.146  37.336  1.00  0.00     0.040 A 
ATOM     89  C   UNL A   1      37.655  32.090  38.106  1.00  0.00     0.040 A 
ATOM     90  F   UNL A   1      37.826  30.144  36.804  1.00  0.00    -0.206 F 
ATOM     91  C   UNL A   1      37.920  33.443  38.299  1.00  0.00     0.006 A 
ENDBRANCH  67  84
ENDBRANCH  41  42
ENDBRANCH  34  36
ENDBRANCH  33  34
ENDBRANCH  32  33
ENDBRANCH  31  32
ENDBRANCH  30  31
ENDBRANCH  29  30
ENDBRANCH  28  29
ENDBRANCH  27  28
ENDBRANCH   1  27
TORSDOF 23
ENDMDL
MODEL 3
REMARK VINA RESULT:     -10.1      2.150      3.970
REMARK SMILES COc1cc(Cn2cc(C(=O)OCCOCCOCCOCCOC(=O)c3ccc(-c4c5nc(c(-c6c(F)cccc6F)c6ccc([nH]6)c(-c6c(F)cccc6F)c6nc(c(-c7c(F)cccc7F)c7ccc4[nH]7)C=C6)C=C5)cc3)c(=O)[nH]c2=O)ccn1
REMARK SMILES IDX 17 1 16 2 15 3 14 4 13 5 12 6 10 7 11 8 9 9 7 10 8 11 84 12
REMARK SMILES IDX 83 13 85 14 81 15 82 17 6 18 5 19 3 20 4 21 88 22 87 23
REMARK SMILES IDX 86 24 2 25 1 26 18 27 19 28 20 29 21 30 22 31 23 32 24 33
REMARK SMILES IDX 25 34 26 35 27 36 28 37 80 38 29 39 79 40 30 41 31 42 32 43
REMARK SMILES IDX 73 44 33 45 78 46 72 47 74 48 34 49 77 50 71 51 70 52 35 54
REMARK SMILES IDX 61 55 44 56 60 57 45 58 48 59 59 60 75 61 46 62 47 63 58 65
REMARK SMILES IDX 76 66 49 67 36 68 37 69 42 70 38 71 39 72 41 73 43 74 40 75
REMARK SMILES IDX 62 76 63 77 68 78 64 79 65 80 67 81 69 82 66 83 50 84 51 85
REMARK SMILES IDX 56 86 52 87 53 88 55 89 57 90 54 91
REMARK H PARENT 83 16 74 53 48 64
REMARK Flexibility Score: inf
ROOT
ATOM      1  C   UNL A   1      41.474  20.050  26.778  1.00  0.00     0.188 C 
ENDROOT
BRANCH   1   2
ATOM      2  C   UNL A   1      40.532  21.200  26.370  1.00  0.00     0.188 C 
BRANCH   2   3
ATOM      3  O   UNL A   1      39.299  20.737  25.820  1.00  0.00    -0.376 OA
BRANCH   3   4
ATOM      4  C   UNL A   1      38.289  21.706  25.573  1.00  0.00     0.202 C 
BRANCH   4   5
ATOM      5  C   UNL A   1      37.220  21.330  24.539  1.00  0.00     0.261 C 
BRANCH   5   6
ATOM      6  O   UNL A   1      36.585  22.441  23.894  1.00  0.00    -0.459 OA
BRANCH   6   7
ATOM      7  C   UNL A   1      36.054  23.421  24.663  1.00  0.00     0.345 C 
ATOM      8  O   UNL A   1      36.659  24.087  25.483  1.00  0.00    -0.246 OA
BRANCH   7   9
ATOM      9  C   UNL A   1      34.631  23.584  24.304  1.00  0.00     0.141 A 
ATOM     10  N   UNL A   1      32.990  24.898  23.159  1.00  0.00    -0.295 N 
ATOM     11  C   UNL A   1      34.253  24.706  23.686  1.00  0.00     0.112 A 
ATOM     12  C   UNL A   1      31.981  23.966  23.353  1.00  0.00     0.328 A 
ATOM     13  N   UNL A   1      32.341  22.866  24.095  1.00  0.00    -0.273 N 
ATOM     14  O   UNL A   1      30.843  24.072  22.903  1.00  0.00    -0.248 OA
ATOM     15  C   UNL A   1      33.588  22.588  24.596  1.00  0.00     0.268 A 
ATOM     16  H   UNL A   1      31.631  22.211  24.286  1.00  0.00     0.175 HD
ATOM     17  O   UNL A   1      33.785  21.610  25.309  1.00  0.00    -0.268 OA
BRANCH  10  18
ATOM     18  C   UNL A   1      32.776  26.039  22.254  1.00  0.00     0.162 C 
BRANCH  18  19
ATOM     19  C   UNL A   1      31.843  27.045  22.902  1.00  0.00    -0.021 A 
ATOM     20  C   UNL A   1      30.000  28.557  22.750  1.00  0.00     0.213 A 
ATOM     21  C   UNL A   1      30.712  27.494  22.216  1.00  0.00     0.074 A 
ATOM     22  N   UNL A   1      30.354  29.225  23.866  1.00  0.00    -0.222 NA
ATOM     23  C   UNL A   1      31.445  28.779  24.513  1.00  0.00     0.115 A 
ATOM     24  C   UNL A   1      32.190  27.686  24.099  1.00  0.00     0.026 A 
BRANCH  20  25
ATOM     25  O   UNL A   1      28.883  29.023  22.109  1.00  0.00    -0.481 OA
ATOM     26  C   UNL A   1      29.145  30.336  21.620  1.00  0.00     0.280 C 
ENDBRANCH  20  25
ENDBRANCH  18  19
ENDBRANCH  10  18
ENDBRANCH   7   9
ENDBRANCH   6   7
ENDBRANCH   5   6
ENDBRANCH   4   5
ENDBRANCH   3   4
ENDBRANCH   2   3
ENDBRANCH   1   2
BRANCH   1  27
ATOM     27  O   UNL A   1      41.998  19.340  25.665  1.00  0.00    -0.377 OA
BRANCH  27  28
ATOM     28  C   UNL A   1      43.314  18.797  25.794  1.00  0.00     0.188 C 
BRANCH  28  29
ATOM     29  C   UNL A   1      44.376  18.960  24.682  1.00  0.00     0.188 C 
BRANCH  29  30
ATOM     30  O   UNL A   1      44.293  20.200  23.986  1.00  0.00    -0.376 OA
BRANCH  30  31
ATOM     31  C   UNL A   1      44.591  21.378  24.720  1.00  0.00     0.202 C 
BRANCH  31  32
ATOM     32  C   UNL A   1      44.348  22.673  23.939  1.00  0.00     0.261 C 
BRANCH  32  33
ATOM     33  O   UNL A   1      43.807  23.757  24.710  1.00  0.00    -0.460 OA
BRANCH  33  34
ATOM     34  C   UNL A   1      44.654  24.729  25.114  1.00  0.00     0.338 C 
ATOM     35  O   UNL A   1      45.722  25.034  24.616  1.00  0.00    -0.246 OA
BRANCH  34  36
ATOM     36  C   UNL A   1      43.960  25.503  26.164  1.00  0.00     0.060 A 
ATOM     37  C   UNL A   1      42.942  24.911  26.915  1.00  0.00     0.016 A 
ATOM     38  C   UNL A   1      44.307  26.845  26.370  1.00  0.00     0.016 A 
ATOM     39  C   UNL A   1      42.290  25.654  27.898  1.00  0.00     0.010 A 
ATOM     40  C   UNL A   1      43.648  27.591  27.353  1.00  0.00     0.010 A 
ATOM     41  C   UNL A   1      42.654  26.990  28.139  1.00  0.00    -0.014 A 
BRANCH  41  42
ATOM     42  C   UNL A   1      42.124  27.678  29.342  1.00  0.00     0.031 A 
ATOM     43  C   UNL A   1      42.766  27.545  30.688  1.00  0.00     0.074 A 
ATOM     44  C   UNL A   1      41.027  28.443  29.185  1.00  0.00     0.049 A 
ATOM     45  N   UNL A   1      42.471  28.172  31.800  1.00  0.00    -0.248 NA
ATOM     46  C   UNL A   1      43.869  26.583  30.812  1.00  0.00     0.031 C 
ATOM     47  C   UNL A   1      40.293  28.610  27.929  1.00  0.00     0.029 A 
ATOM     48  N   UNL A   1      40.342  29.222  30.078  1.00  0.00    -0.354 N 
ATOM     49  C   UNL A   1      43.359  27.695  32.754  1.00  0.00     0.074 A 
ATOM     50  C   UNL A   1      44.181  26.698  32.098  1.00  0.00     0.031 C 
ATOM     51  C   UNL A   1      39.267  29.449  28.129  1.00  0.00     0.029 A 
ATOM     52  C   UNL A   1      39.261  29.864  29.528  1.00  0.00     0.049 A 
ATOM     53  H   UNL A   1      40.598  29.313  31.025  1.00  0.00     0.167 HD
ATOM     54  C   UNL A   1      43.480  28.070  34.052  1.00  0.00     0.037 A 
ATOM     55  C   UNL A   1      38.364  30.696  30.086  1.00  0.00     0.037 A 
ATOM     56  C   UNL A   1      42.646  29.053  34.701  1.00  0.00     0.049 A 
ATOM     57  C   UNL A   1      38.512  31.070  31.532  1.00  0.00     0.074 A 
ATOM     58  C   UNL A   1      42.741  29.548  35.991  1.00  0.00     0.029 A 
ATOM     59  N   UNL A   1      41.549  29.671  34.119  1.00  0.00    -0.354 N 
ATOM     60  N   UNL A   1      39.433  30.705  32.391  1.00  0.00    -0.248 NA
ATOM     61  C   UNL A   1      37.500  31.980  32.084  1.00  0.00     0.031 C 
ATOM     62  C   UNL A   1      41.669  30.422  36.208  1.00  0.00     0.029 A 
ATOM     63  C   UNL A   1      40.937  30.513  35.037  1.00  0.00     0.049 A 
ATOM     64  H   UNL A   1      41.249  29.533  33.193  1.00  0.00     0.167 HD
ATOM     65  C   UNL A   1      39.127  31.362  33.575  1.00  0.00     0.074 A 
ATOM     66  C   UNL A   1      37.950  32.166  33.317  1.00  0.00     0.031 C 
ATOM     67  C   UNL A   1      39.763  31.304  34.770  1.00  0.00     0.037 A 
BRANCH  54  68
ATOM     68  C   UNL A   1      44.555  27.417  34.873  1.00  0.00     0.057 A 
ATOM     69  C   UNL A   1      44.285  26.262  35.619  1.00  0.00     0.134 A 
ATOM     70  C   UNL A   1      45.832  27.980  34.995  1.00  0.00     0.134 A 
ATOM     71  F   UNL A   1      43.079  25.678  35.557  1.00  0.00    -0.206 F 
ATOM     72  C   UNL A   1      45.242  25.697  36.463  1.00  0.00     0.040 A 
ATOM     73  C   UNL A   1      46.804  27.412  35.821  1.00  0.00     0.040 A 
ATOM     74  F   UNL A   1      46.158  29.083  34.305  1.00  0.00    -0.206 F 
ATOM     75  C   UNL A   1      46.508  26.271  36.564  1.00  0.00     0.006 A 
ENDBRANCH  54  68
BRANCH  55  76
ATOM     76  C   UNL A   1      37.248  31.243  29.276  1.00  0.00     0.057 A 
ATOM     77  C   UNL A   1      36.097  30.488  29.025  1.00  0.00     0.134 A 
ATOM     78  C   UNL A   1      37.290  32.547  28.770  1.00  0.00     0.134 A 
ATOM     79  F   UNL A   1      36.001  29.228  29.474  1.00  0.00    -0.206 F 
ATOM     80  C   UNL A   1      35.023  31.012  28.305  1.00  0.00     0.040 A 
ATOM     81  C   UNL A   1      36.212  33.094  28.073  1.00  0.00     0.040 A 
ATOM     82  F   UNL A   1      38.361  33.323  28.992  1.00  0.00    -0.206 F 
ATOM     83  C   UNL A   1      35.074  32.325  27.839  1.00  0.00     0.006 A 
ENDBRANCH  55  76
BRANCH  67  84
ATOM     84  C   UNL A   1      39.204  32.153  35.876  1.00  0.00     0.057 A 
ATOM     85  C   UNL A   1      39.617  33.483  36.034  1.00  0.00     0.134 A 
ATOM     86  C   UNL A   1      38.255  31.660  36.781  1.00  0.00     0.134 A 
ATOM     87  F   UNL A   1      40.527  34.018  35.206  1.00  0.00    -0.206 F 
ATOM     88  C   UNL A   1      39.101  34.292  37.049  1.00  0.00     0.040 A 
ATOM     89  C   UNL A   1      37.712  32.467  37.782  1.00  0.00     0.040 A 
ATOM     90  F   UNL A   1      37.805  30.400  36.674  1.00  0.00    -0.206 F 
ATOM     91  C   UNL A   1      38.137  33.786  37.920  1.00  0.00     0.006 A 
ENDBRANCH  67  84
ENDBRANCH  41  42
ENDBRANCH  34  36
ENDBRANCH  33  34
ENDBRANCH  32  33
ENDBRANCH  31  32
ENDBRANCH  30  31
ENDBRANCH  29  30
ENDBRANCH  28  29
ENDBRANCH  27  28
ENDBRANCH   1  27
TORSDOF 23
ENDMDL
