MODEL 1
REMARK VINA RESULT:     -10.2      0.000      0.000
REMARK SMILES CC[C@]1(C(=O)OCCOCCOCCOCCOC(=O)c2ccc(-c3c4nc(c(-c5c(F)cccc5F)c5ccc([nH]5)c(-c5c(F)cccc5F)c5nc(c(-c6c(F)cccc6F)c6ccc3[nH]6)C=C5)C=C4)cc2)CCC[N@@H+](Cc2cc(OC)ccc2F)C1
REMARK SMILES IDX 11 1 10 2 9 3 8 4 7 5 6 6 4 7 5 8 3 9 75 10 89 11 76 12
REMARK SMILES IDX 78 13 77 14 2 16 1 17 79 18 80 19 81 20 87 21 82 22 86 23
REMARK SMILES IDX 88 24 85 25 83 26 84 27 12 28 13 29 14 30 15 31 16 32 17 33
REMARK SMILES IDX 18 34 19 35 20 36 21 37 22 38 74 39 23 40 73 41 24 42 25 43
REMARK SMILES IDX 26 44 67 45 27 46 72 47 66 48 68 49 28 50 71 51 65 52 64 53
REMARK SMILES IDX 29 55 55 56 38 57 54 58 39 59 42 60 53 61 69 62 40 63 41 64
REMARK SMILES IDX 52 66 70 67 43 68 30 69 31 70 36 71 32 72 33 73 35 74 37 75
REMARK SMILES IDX 34 76 56 77 57 78 62 79 58 80 59 81 61 82 63 83 60 84 44 85
REMARK SMILES IDX 45 86 50 87 46 88 47 89 49 90 51 91 48 92
REMARK H PARENT 78 15 68 54 42 65
REMARK Flexibility Score: inf
ROOT
ATOM      1  C   UNL A   1      34.143  33.976  28.899  1.00  0.00     0.188 C 
ENDROOT
BRANCH   1   2
ATOM      2  C   UNL A   1      33.989  32.477  28.618  1.00  0.00     0.188 C 
BRANCH   2   3
ATOM      3  O   UNL A   1      33.401  32.027  27.413  1.00  0.00    -0.376 OA
BRANCH   3   4
ATOM      4  C   UNL A   1      33.216  30.655  27.114  1.00  0.00     0.202 C 
BRANCH   4   5
ATOM      5  C   UNL A   1      31.857  29.955  26.910  1.00  0.00     0.261 C 
BRANCH   5   6
ATOM      6  O   UNL A   1      31.759  28.944  25.896  1.00  0.00    -0.463 OA
BRANCH   6   7
ATOM      7  C   UNL A   1      31.371  27.728  26.345  1.00  0.00     0.317 C 
ATOM      8  O   UNL A   1      31.178  27.491  27.536  1.00  0.00    -0.251 OA
BRANCH   7   9
ATOM      9  C   UNL A   1      31.291  26.624  25.256  1.00  0.00     0.117 C 
ATOM     10  C   UNL A   1      31.047  27.050  23.784  1.00  0.00     0.030 C 
ATOM     11  C   UNL A   1      32.762  26.176  25.320  1.00  0.00     0.281 C 
ATOM     12  C   UNL A   1      31.489  25.982  22.775  1.00  0.00     0.063 C 
ATOM     13  N   UNL A   1      33.208  25.158  24.366  1.00  0.00    -0.330 N 
ATOM     14  C   UNL A   1      32.939  25.558  22.980  1.00  0.00     0.262 C 
ATOM     15  H   UNL A   1      32.675  24.302  24.516  1.00  0.00     0.348 HD
BRANCH   9  16
ATOM     16  C   UNL A   1      30.300  25.543  25.808  1.00  0.00     0.021 C 
ATOM     17  C   UNL A   1      30.767  24.101  25.962  1.00  0.00     0.005 C 
ENDBRANCH   9  16
BRANCH  13  18
ATOM     18  C   UNL A   1      34.647  24.862  24.606  1.00  0.00     0.302 C 
BRANCH  18  19
ATOM     19  C   UNL A   1      34.993  23.410  24.884  1.00  0.00     0.046 A 
ATOM     20  C   UNL A   1      34.079  22.398  24.561  1.00  0.00     0.059 A 
ATOM     21  C   UNL A   1      36.246  23.023  25.379  1.00  0.00     0.132 A 
ATOM     22  C   UNL A   1      34.437  21.053  24.671  1.00  0.00     0.119 A 
ATOM     23  C   UNL A   1      36.645  21.691  25.387  1.00  0.00     0.043 A 
ATOM     24  F   UNL A   1      37.125  23.942  25.805  1.00  0.00    -0.206 F 
ATOM     25  C   UNL A   1      35.743  20.702  25.013  1.00  0.00     0.049 A 
BRANCH  22  26
ATOM     26  O   UNL A   1      33.445  20.153  24.394  1.00  0.00    -0.497 OA
ATOM     27  C   UNL A   1      32.155  20.542  24.858  1.00  0.00     0.278 C 
ENDBRANCH  22  26
ENDBRANCH  18  19
ENDBRANCH  13  18
ENDBRANCH   7   9
ENDBRANCH   6   7
ENDBRANCH   5   6
ENDBRANCH   4   5
ENDBRANCH   3   4
ENDBRANCH   2   3
ENDBRANCH   1   2
BRANCH   1  28
ATOM     28  O   UNL A   1      33.242  34.539  29.828  1.00  0.00    -0.377 OA
BRANCH  28  29
ATOM     29  C   UNL A   1      33.425  35.892  30.215  1.00  0.00     0.188 C 
BRANCH  29  30
ATOM     30  C   UNL A   1      32.878  36.371  31.572  1.00  0.00     0.188 C 
BRANCH  30  31
ATOM     31  O   UNL A   1      33.424  35.708  32.700  1.00  0.00    -0.376 OA
BRANCH  31  32
ATOM     32  C   UNL A   1      34.832  35.629  32.854  1.00  0.00     0.202 C 
BRANCH  32  33
ATOM     33  C   UNL A   1      35.429  34.438  33.623  1.00  0.00     0.261 C 
BRANCH  33  34
ATOM     34  O   UNL A   1      36.270  33.540  32.881  1.00  0.00    -0.460 OA
BRANCH  34  35
ATOM     35  C   UNL A   1      35.697  32.510  32.229  1.00  0.00     0.338 C 
ATOM     36  O   UNL A   1      34.507  32.325  32.036  1.00  0.00    -0.246 OA
BRANCH  35  37
ATOM     37  C   UNL A   1      36.779  31.726  31.599  1.00  0.00     0.060 A 
ATOM     38  C   UNL A   1      37.720  31.084  32.416  1.00  0.00     0.016 A 
ATOM     39  C   UNL A   1      36.858  31.618  30.209  1.00  0.00     0.016 A 
ATOM     40  C   UNL A   1      38.765  30.360  31.843  1.00  0.00     0.010 A 
ATOM     41  C   UNL A   1      37.920  30.915  29.636  1.00  0.00     0.010 A 
ATOM     42  C   UNL A   1      38.897  30.312  30.449  1.00  0.00    -0.014 A 
BRANCH  42  43
ATOM     43  C   UNL A   1      40.158  29.821  29.846  1.00  0.00     0.031 A 
ATOM     44  C   UNL A   1      41.289  30.798  29.675  1.00  0.00     0.074 A 
ATOM     45  C   UNL A   1      40.309  28.538  29.475  1.00  0.00     0.049 A 
ATOM     46  N   UNL A   1      42.455  30.631  29.108  1.00  0.00    -0.248 NA
ATOM     47  C   UNL A   1      41.069  32.150  30.216  1.00  0.00     0.031 C 
ATOM     48  C   UNL A   1      39.311  27.484  29.643  1.00  0.00     0.029 A 
ATOM     49  N   UNL A   1      41.368  27.909  28.868  1.00  0.00    -0.354 N 
ATOM     50  C   UNL A   1      43.104  31.855  29.217  1.00  0.00     0.074 A 
ATOM     51  C   UNL A   1      42.190  32.764  29.875  1.00  0.00     0.031 C 
ATOM     52  C   UNL A   1      39.800  26.339  29.136  1.00  0.00     0.029 A 
ATOM     53  C   UNL A   1      41.127  26.590  28.574  1.00  0.00     0.049 A 
ATOM     54  H   UNL A   1      42.218  28.361  28.662  1.00  0.00     0.167 HD
ATOM     55  C   UNL A   1      44.352  32.189  28.813  1.00  0.00     0.037 A 
ATOM     56  C   UNL A   1      41.884  25.698  27.904  1.00  0.00     0.037 A 
ATOM     57  C   UNL A   1      45.254  31.285  28.152  1.00  0.00     0.049 A 
ATOM     58  C   UNL A   1      43.231  26.123  27.373  1.00  0.00     0.074 A 
ATOM     59  C   UNL A   1      46.541  31.525  27.707  1.00  0.00     0.029 A 
ATOM     60  N   UNL A   1      44.958  29.967  27.833  1.00  0.00    -0.354 N 
ATOM     61  N   UNL A   1      43.843  27.277  27.491  1.00  0.00    -0.248 NA
ATOM     62  C   UNL A   1      43.992  25.118  26.616  1.00  0.00     0.031 C 
ATOM     63  C   UNL A   1      47.002  30.371  27.064  1.00  0.00     0.029 A 
ATOM     64  C   UNL A   1      46.028  29.391  27.170  1.00  0.00     0.049 A 
ATOM     65  H   UNL A   1      44.112  29.511  28.048  1.00  0.00     0.167 HD
ATOM     66  C   UNL A   1      45.070  27.126  26.856  1.00  0.00     0.074 A 
ATOM     67  C   UNL A   1      45.121  25.765  26.363  1.00  0.00     0.031 C 
ATOM     68  C   UNL A   1      46.068  28.031  26.696  1.00  0.00     0.037 A 
BRANCH  55  69
ATOM     69  C   UNL A   1      44.798  33.604  29.047  1.00  0.00     0.057 A 
ATOM     70  C   UNL A   1      44.480  34.640  28.159  1.00  0.00     0.134 A 
ATOM     71  C   UNL A   1      45.533  33.938  30.191  1.00  0.00     0.134 A 
ATOM     72  F   UNL A   1      43.794  34.386  27.034  1.00  0.00    -0.206 F 
ATOM     73  C   UNL A   1      44.900  35.952  28.388  1.00  0.00     0.040 A 
ATOM     74  C   UNL A   1      45.932  35.250  30.447  1.00  0.00     0.040 A 
ATOM     75  F   UNL A   1      45.869  32.995  31.085  1.00  0.00    -0.206 F 
ATOM     76  C   UNL A   1      45.620  36.261  29.540  1.00  0.00     0.006 A 
ENDBRANCH  55  69
BRANCH  56  77
ATOM     77  C   UNL A   1      41.386  24.317  27.672  1.00  0.00     0.057 A 
ATOM     78  C   UNL A   1      40.417  24.050  26.698  1.00  0.00     0.134 A 
ATOM     79  C   UNL A   1      41.838  23.237  28.441  1.00  0.00     0.134 A 
ATOM     80  F   UNL A   1      39.923  25.045  25.946  1.00  0.00    -0.206 F 
ATOM     81  C   UNL A   1      39.901  22.766  26.510  1.00  0.00     0.040 A 
ATOM     82  C   UNL A   1      41.352  21.943  28.244  1.00  0.00     0.040 A 
ATOM     83  F   UNL A   1      42.765  23.424  29.393  1.00  0.00    -0.206 F 
ATOM     84  C   UNL A   1      40.374  21.707  27.282  1.00  0.00     0.006 A 
ENDBRANCH  56  77
BRANCH  68  85
ATOM     85  C   UNL A   1      47.320  27.571  26.004  1.00  0.00     0.057 A 
ATOM     86  C   UNL A   1      48.418  27.063  26.709  1.00  0.00     0.134 A 
ATOM     87  C   UNL A   1      47.406  27.590  24.604  1.00  0.00     0.134 A 
ATOM     88  F   UNL A   1      48.406  27.026  28.050  1.00  0.00    -0.206 F 
ATOM     89  C   UNL A   1      49.564  26.611  26.050  1.00  0.00     0.040 A 
ATOM     90  C   UNL A   1      48.532  27.113  23.934  1.00  0.00     0.040 A 
ATOM     91  F   UNL A   1      46.386  28.053  23.865  1.00  0.00    -0.206 F 
ATOM     92  C   UNL A   1      49.618  26.627  24.658  1.00  0.00     0.006 A 
ENDBRANCH  68  85
ENDBRANCH  42  43
ENDBRANCH  35  37
ENDBRANCH  34  35
ENDBRANCH  33  34
ENDBRANCH  32  33
ENDBRANCH  31  32
ENDBRANCH  30  31
ENDBRANCH  29  30
ENDBRANCH  28  29
ENDBRANCH   1  28
TORSDOF 24
ENDMDL
MODEL 2
REMARK VINA RESULT:      -9.9      1.510      2.561
REMARK SMILES CC[C@]1(C(=O)OCCOCCOCCOCCOC(=O)c2ccc(-c3c4nc(c(-c5c(F)cccc5F)c5ccc([nH]5)c(-c5c(F)cccc5F)c5nc(c(-c6c(F)cccc6F)c6ccc3[nH]6)C=C5)C=C4)cc2)CCC[N@@H+](Cc2cc(OC)ccc2F)C1
REMARK SMILES IDX 11 1 10 2 9 3 8 4 7 5 6 6 4 7 5 8 3 9 75 10 89 11 76 12
REMARK SMILES IDX 78 13 77 14 2 16 1 17 79 18 80 19 81 20 87 21 82 22 86 23
REMARK SMILES IDX 88 24 85 25 83 26 84 27 12 28 13 29 14 30 15 31 16 32 17 33
REMARK SMILES IDX 18 34 19 35 20 36 21 37 22 38 74 39 23 40 73 41 24 42 25 43
REMARK SMILES IDX 26 44 67 45 27 46 72 47 66 48 68 49 28 50 71 51 65 52 64 53
REMARK SMILES IDX 29 55 55 56 38 57 54 58 39 59 42 60 53 61 69 62 40 63 41 64
REMARK SMILES IDX 52 66 70 67 43 68 30 69 31 70 36 71 32 72 33 73 35 74 37 75
REMARK SMILES IDX 34 76 56 77 57 78 62 79 58 80 59 81 61 82 63 83 60 84 44 85
REMARK SMILES IDX 45 86 50 87 46 88 47 89 49 90 51 91 48 92
REMARK H PARENT 78 15 68 54 42 65
REMARK Flexibility Score: inf
ROOT
ATOM      1  C   UNL A   1      34.259  34.695  28.176  1.00  0.00     0.188 C 
ENDROOT
BRANCH   1   2
ATOM      2  C   UNL A   1      35.186  33.488  27.993  1.00  0.00     0.188 C 
BRANCH   2   3
ATOM      3  O   UNL A   1      34.723  32.315  27.353  1.00  0.00    -0.376 OA
BRANCH   3   4
ATOM      4  C   UNL A   1      35.139  31.015  27.735  1.00  0.00     0.202 C 
BRANCH   4   5
ATOM      5  C   UNL A   1      34.382  29.706  27.439  1.00  0.00     0.261 C 
BRANCH   5   6
ATOM      6  O   UNL A   1      33.278  29.751  26.523  1.00  0.00    -0.463 OA
BRANCH   6   7
ATOM      7  C   UNL A   1      33.288  28.785  25.576  1.00  0.00     0.317 C 
ATOM      8  O   UNL A   1      34.327  28.338  25.094  1.00  0.00    -0.251 OA
BRANCH   7   9
ATOM      9  C   UNL A   1      31.886  28.356  25.064  1.00  0.00     0.117 C 
ATOM     10  C   UNL A   1      30.982  29.425  24.394  1.00  0.00     0.030 C 
ATOM     11  C   UNL A   1      32.362  27.441  23.923  1.00  0.00     0.281 C 
ATOM     12  C   UNL A   1      29.896  28.810  23.502  1.00  0.00     0.063 C 
ATOM     13  N   UNL A   1      31.345  26.843  23.056  1.00  0.00    -0.330 N 
ATOM     14  C   UNL A   1      30.475  27.862  22.458  1.00  0.00     0.262 C 
ATOM     15  H   UNL A   1      30.732  26.251  23.617  1.00  0.00     0.348 HD
BRANCH   9  16
ATOM     16  C   UNL A   1      31.219  27.566  26.241  1.00  0.00     0.021 C 
ATOM     17  C   UNL A   1      31.602  26.111  26.484  1.00  0.00     0.005 C 
ENDBRANCH   9  16
BRANCH  13  18
ATOM     18  C   UNL A   1      32.013  25.991  22.034  1.00  0.00     0.302 C 
BRANCH  18  19
ATOM     19  C   UNL A   1      32.532  24.649  22.520  1.00  0.00     0.046 A 
ATOM     20  C   UNL A   1      33.902  24.362  22.451  1.00  0.00     0.059 A 
ATOM     21  C   UNL A   1      31.697  23.702  23.127  1.00  0.00     0.132 A 
ATOM     22  C   UNL A   1      34.416  23.199  23.028  1.00  0.00     0.119 A 
ATOM     23  C   UNL A   1      32.214  22.598  23.796  1.00  0.00     0.043 A 
ATOM     24  F   UNL A   1      30.366  23.868  23.130  1.00  0.00    -0.206 F 
ATOM     25  C   UNL A   1      33.582  22.355  23.763  1.00  0.00     0.049 A 
BRANCH  22  26
ATOM     26  O   UNL A   1      35.754  22.987  22.842  1.00  0.00    -0.497 OA
ATOM     27  C   UNL A   1      36.423  22.440  23.975  1.00  0.00     0.278 C 
ENDBRANCH  22  26
ENDBRANCH  18  19
ENDBRANCH  13  18
ENDBRANCH   7   9
ENDBRANCH   6   7
ENDBRANCH   5   6
ENDBRANCH   4   5
ENDBRANCH   3   4
ENDBRANCH   2   3
ENDBRANCH   1   2
BRANCH   1  28
ATOM     28  O   UNL A   1      33.397  34.663  29.294  1.00  0.00    -0.377 OA
BRANCH  28  29
ATOM     29  C   UNL A   1      32.880  35.889  29.786  1.00  0.00     0.188 C 
BRANCH  29  30
ATOM     30  C   UNL A   1      32.691  36.076  31.302  1.00  0.00     0.188 C 
BRANCH  30  31
ATOM     31  O   UNL A   1      32.954  34.920  32.080  1.00  0.00    -0.376 OA
BRANCH  31  32
ATOM     32  C   UNL A   1      34.143  34.847  32.849  1.00  0.00     0.202 C 
BRANCH  32  33
ATOM     33  C   UNL A   1      35.477  34.582  32.130  1.00  0.00     0.261 C 
BRANCH  33  34
ATOM     34  O   UNL A   1      35.658  33.279  31.554  1.00  0.00    -0.460 OA
BRANCH  34  35
ATOM     35  C   UNL A   1      36.231  32.317  32.302  1.00  0.00     0.338 C 
ATOM     36  O   UNL A   1      35.729  31.701  33.228  1.00  0.00    -0.246 OA
BRANCH  35  37
ATOM     37  C   UNL A   1      37.526  31.980  31.677  1.00  0.00     0.060 A 
ATOM     38  C   UNL A   1      37.656  32.076  30.284  1.00  0.00     0.016 A 
ATOM     39  C   UNL A   1      38.610  31.582  32.463  1.00  0.00     0.016 A 
ATOM     40  C   UNL A   1      38.862  31.738  29.670  1.00  0.00     0.010 A 
ATOM     41  C   UNL A   1      39.808  31.218  31.844  1.00  0.00     0.010 A 
ATOM     42  C   UNL A   1      39.928  31.263  30.443  1.00  0.00    -0.014 A 
BRANCH  42  43
ATOM     43  C   UNL A   1      41.084  30.613  29.781  1.00  0.00     0.031 A 
ATOM     44  C   UNL A   1      42.297  31.452  29.489  1.00  0.00     0.074 A 
ATOM     45  C   UNL A   1      41.070  29.308  29.461  1.00  0.00     0.049 A 
ATOM     46  N   UNL A   1      43.396  31.136  28.855  1.00  0.00    -0.248 NA
ATOM     47  C   UNL A   1      42.262  32.839  29.981  1.00  0.00     0.031 C 
ATOM     48  C   UNL A   1      39.979  28.377  29.743  1.00  0.00     0.029 A 
ATOM     49  N   UNL A   1      42.010  28.542  28.814  1.00  0.00    -0.354 N 
ATOM     50  C   UNL A   1      44.178  32.284  28.863  1.00  0.00     0.074 A 
ATOM     51  C   UNL A   1      43.416  33.313  29.537  1.00  0.00     0.031 C 
ATOM     52  C   UNL A   1      40.306  27.166  29.259  1.00  0.00     0.029 A 
ATOM     53  C   UNL A   1      41.609  27.247  28.600  1.00  0.00     0.049 A 
ATOM     54  H   UNL A   1      42.886  28.890  28.532  1.00  0.00     0.167 HD
ATOM     55  C   UNL A   1      45.423  32.463  28.363  1.00  0.00     0.037 A 
ATOM     56  C   UNL A   1      42.216  26.252  27.923  1.00  0.00     0.037 A 
ATOM     57  C   UNL A   1      46.174  31.440  27.686  1.00  0.00     0.049 A 
ATOM     58  C   UNL A   1      43.560  26.504  27.285  1.00  0.00     0.074 A 
ATOM     59  C   UNL A   1      47.444  31.519  27.146  1.00  0.00     0.029 A 
ATOM     60  N   UNL A   1      45.716  30.151  27.450  1.00  0.00    -0.354 N 
ATOM     61  N   UNL A   1      44.299  27.588  27.308  1.00  0.00    -0.248 NA
ATOM     62  C   UNL A   1      44.153  25.393  26.526  1.00  0.00     0.031 C 
ATOM     63  C   UNL A   1      47.733  30.297  26.529  1.00  0.00     0.029 A 
ATOM     64  C   UNL A   1      46.669  29.435  26.744  1.00  0.00     0.049 A 
ATOM     65  H   UNL A   1      44.844  29.799  27.741  1.00  0.00     0.167 HD
ATOM     66  C   UNL A   1      45.455  27.278  26.600  1.00  0.00     0.074 A 
ATOM     67  C   UNL A   1      45.324  25.902  26.170  1.00  0.00     0.031 C 
ATOM     68  C   UNL A   1      46.530  28.061  26.333  1.00  0.00     0.037 A 
BRANCH  55  69
ATOM     69  C   UNL A   1      46.033  33.827  28.500  1.00  0.00     0.057 A 
ATOM     70  C   UNL A   1      46.754  34.209  29.640  1.00  0.00     0.134 A 
ATOM     71  C   UNL A   1      45.921  34.765  27.465  1.00  0.00     0.134 A 
ATOM     72  F   UNL A   1      46.885  33.366  30.675  1.00  0.00    -0.206 F 
ATOM     73  C   UNL A   1      47.319  35.480  29.754  1.00  0.00     0.040 A 
ATOM     74  C   UNL A   1      46.506  36.028  27.555  1.00  0.00     0.040 A 
ATOM     75  F   UNL A   1      45.246  34.465  26.344  1.00  0.00    -0.206 F 
ATOM     76  C   UNL A   1      47.203  36.391  28.706  1.00  0.00     0.006 A 
ENDBRANCH  55  69
BRANCH  56  77
ATOM     77  C   UNL A   1      41.558  24.926  27.790  1.00  0.00     0.057 A 
ATOM     78  C   UNL A   1      41.982  23.827  28.546  1.00  0.00     0.134 A 
ATOM     79  C   UNL A   1      40.514  24.715  26.880  1.00  0.00     0.134 A 
ATOM     80  F   UNL A   1      42.995  23.956  29.415  1.00  0.00    -0.206 F 
ATOM     81  C   UNL A   1      41.408  22.563  28.388  1.00  0.00     0.040 A 
ATOM     82  C   UNL A   1      39.911  23.465  26.734  1.00  0.00     0.040 A 
ATOM     83  F   UNL A   1      40.060  25.726  26.123  1.00  0.00    -0.206 F 
ATOM     84  C   UNL A   1      40.364  22.382  27.483  1.00  0.00     0.006 A 
ENDBRANCH  56  77
BRANCH  68  85
ATOM     85  C   UNL A   1      47.673  27.439  25.581  1.00  0.00     0.057 A 
ATOM     86  C   UNL A   1      47.751  27.472  24.184  1.00  0.00     0.134 A 
ATOM     87  C   UNL A   1      48.737  26.845  26.273  1.00  0.00     0.134 A 
ATOM     88  F   UNL A   1      46.762  28.016  23.460  1.00  0.00    -0.206 F 
ATOM     89  C   UNL A   1      48.836  26.917  23.500  1.00  0.00     0.040 A 
ATOM     90  C   UNL A   1      49.841  26.315  25.603  1.00  0.00     0.040 A 
ATOM     91  F   UNL A   1      48.733  26.790  27.614  1.00  0.00    -0.206 F 
ATOM     92  C   UNL A   1      49.888  26.344  24.212  1.00  0.00     0.006 A 
ENDBRANCH  68  85
ENDBRANCH  42  43
ENDBRANCH  35  37
ENDBRANCH  34  35
ENDBRANCH  33  34
ENDBRANCH  32  33
ENDBRANCH  31  32
ENDBRANCH  30  31
ENDBRANCH  29  30
ENDBRANCH  28  29
ENDBRANCH   1  28
TORSDOF 24
ENDMDL
MODEL 3
REMARK VINA RESULT:      -9.3      4.875      9.155
REMARK SMILES CC[C@]1(C(=O)OCCOCCOCCOCCOC(=O)c2ccc(-c3c4nc(c(-c5c(F)cccc5F)c5ccc([nH]5)c(-c5c(F)cccc5F)c5nc(c(-c6c(F)cccc6F)c6ccc3[nH]6)C=C5)C=C4)cc2)CCC[N@@H+](Cc2cc(OC)ccc2F)C1
REMARK SMILES IDX 11 1 10 2 9 3 8 4 7 5 6 6 4 7 5 8 3 9 75 10 89 11 76 12
REMARK SMILES IDX 78 13 77 14 2 16 1 17 79 18 80 19 81 20 87 21 82 22 86 23
REMARK SMILES IDX 88 24 85 25 83 26 84 27 12 28 13 29 14 30 15 31 16 32 17 33
REMARK SMILES IDX 18 34 19 35 20 36 21 37 22 38 74 39 23 40 73 41 24 42 25 43
REMARK SMILES IDX 26 44 67 45 27 46 72 47 66 48 68 49 28 50 71 51 65 52 64 53
REMARK SMILES IDX 29 55 55 56 38 57 54 58 39 59 42 60 53 61 69 62 40 63 41 64
REMARK SMILES IDX 52 66 70 67 43 68 30 69 31 70 36 71 32 72 33 73 35 74 37 75
REMARK SMILES IDX 34 76 56 77 57 78 62 79 58 80 59 81 61 82 63 83 60 84 44 85
REMARK SMILES IDX 45 86 50 87 46 88 47 89 49 90 51 91 48 92
REMARK H PARENT 78 15 68 54 42 65
REMARK Flexibility Score: inf
ROOT
ATOM      1  C   UNL A   1      37.008  19.861  24.983  1.00  0.00     0.188 C 
ENDROOT
BRANCH   1   2
ATOM      2  C   UNL A   1      36.070  21.046  25.241  1.00  0.00     0.188 C 
BRANCH   2   3
ATOM      3  O   UNL A   1      36.293  22.291  24.608  1.00  0.00    -0.376 OA
BRANCH   3   4
ATOM      4  C   UNL A   1      35.483  22.771  23.550  1.00  0.00     0.202 C 
BRANCH   4   5
ATOM      5  C   UNL A   1      33.951  22.621  23.451  1.00  0.00     0.261 C 
BRANCH   5   6
ATOM      6  O   UNL A   1      33.163  22.923  24.612  1.00  0.00    -0.463 OA
BRANCH   6   7
ATOM      7  C   UNL A   1      32.091  23.713  24.378  1.00  0.00     0.317 C 
ATOM      8  O   UNL A   1      31.126  23.343  23.712  1.00  0.00    -0.251 OA
BRANCH   7   9
ATOM      9  C   UNL A   1      32.214  25.162  24.924  1.00  0.00     0.117 C 
ATOM     10  C   UNL A   1      33.632  25.763  25.116  1.00  0.00     0.030 C 
ATOM     11  C   UNL A   1      31.619  25.885  23.704  1.00  0.00     0.281 C 
ATOM     12  C   UNL A   1      33.626  27.297  25.157  1.00  0.00     0.063 C 
ATOM     13  N   UNL A   1      31.603  27.349  23.719  1.00  0.00    -0.330 N 
ATOM     14  C   UNL A   1      32.943  27.904  23.937  1.00  0.00     0.262 C 
ATOM     15  H   UNL A   1      31.039  27.671  24.505  1.00  0.00     0.348 HD
BRANCH   9  16
ATOM     16  C   UNL A   1      31.288  25.229  26.185  1.00  0.00     0.021 C 
ATOM     17  C   UNL A   1      29.821  25.611  26.024  1.00  0.00     0.005 C 
ENDBRANCH   9  16
BRANCH  13  18
ATOM     18  C   UNL A   1      30.978  27.843  22.460  1.00  0.00     0.302 C 
BRANCH  18  19
ATOM     19  C   UNL A   1      29.789  28.773  22.626  1.00  0.00     0.046 A 
ATOM     20  C   UNL A   1      29.888  30.114  22.234  1.00  0.00     0.059 A 
ATOM     21  C   UNL A   1      28.544  28.317  23.080  1.00  0.00     0.132 A 
ATOM     22  C   UNL A   1      28.765  30.944  22.239  1.00  0.00     0.119 A 
ATOM     23  C   UNL A   1      27.401  29.105  22.985  1.00  0.00     0.043 A 
ATOM     24  F   UNL A   1      28.408  27.075  23.568  1.00  0.00    -0.206 F 
ATOM     25  C   UNL A   1      27.509  30.418  22.544  1.00  0.00     0.049 A 
BRANCH  22  26
ATOM     26  O   UNL A   1      28.993  32.249  21.902  1.00  0.00    -0.497 OA
ATOM     27  C   UNL A   1      28.983  33.149  23.007  1.00  0.00     0.278 C 
ENDBRANCH  22  26
ENDBRANCH  18  19
ENDBRANCH  13  18
ENDBRANCH   7   9
ENDBRANCH   6   7
ENDBRANCH   5   6
ENDBRANCH   4   5
ENDBRANCH   3   4
ENDBRANCH   2   3
ENDBRANCH   1   2
BRANCH   1  28
ATOM     28  O   UNL A   1      38.393  20.131  25.027  1.00  0.00    -0.377 OA
BRANCH  28  29
ATOM     29  C   UNL A   1      39.237  19.233  25.729  1.00  0.00     0.188 C 
BRANCH  29  30
ATOM     30  C   UNL A   1      40.639  19.695  26.164  1.00  0.00     0.188 C 
BRANCH  30  31
ATOM     31  O   UNL A   1      40.759  20.015  27.540  1.00  0.00    -0.376 OA
BRANCH  31  32
ATOM     32  C   UNL A   1      41.170  21.317  27.925  1.00  0.00     0.202 C 
BRANCH  32  33
ATOM     33  C   UNL A   1      40.590  22.530  27.178  1.00  0.00     0.261 C 
BRANCH  33  34
ATOM     34  O   UNL A   1      41.071  23.825  27.568  1.00  0.00    -0.460 OA
BRANCH  34  35
ATOM     35  C   UNL A   1      40.943  24.849  26.703  1.00  0.00     0.338 C 
ATOM     36  O   UNL A   1      39.920  25.242  26.167  1.00  0.00    -0.246 OA
BRANCH  35  37
ATOM     37  C   UNL A   1      42.237  25.560  26.661  1.00  0.00     0.060 A 
ATOM     38  C   UNL A   1      42.908  25.826  27.863  1.00  0.00     0.016 A 
ATOM     39  C   UNL A   1      42.790  25.953  25.441  1.00  0.00     0.016 A 
ATOM     40  C   UNL A   1      44.118  26.519  27.850  1.00  0.00     0.010 A 
ATOM     41  C   UNL A   1      43.989  26.671  25.431  1.00  0.00     0.010 A 
ATOM     42  C   UNL A   1      44.640  26.986  26.638  1.00  0.00    -0.014 A 
BRANCH  42  43
ATOM     43  C   UNL A   1      45.741  27.978  26.644  1.00  0.00     0.031 A 
ATOM     44  C   UNL A   1      45.381  29.434  26.753  1.00  0.00     0.074 A 
ATOM     45  C   UNL A   1      47.029  27.602  26.574  1.00  0.00     0.049 A 
ATOM     46  N   UNL A   1      46.152  30.489  26.703  1.00  0.00    -0.248 NA
ATOM     47  C   UNL A   1      43.953  29.740  26.941  1.00  0.00     0.031 C 
ATOM     48  C   UNL A   1      47.508  26.222  26.524  1.00  0.00     0.029 A 
ATOM     49  N   UNL A   1      48.173  28.360  26.523  1.00  0.00    -0.354 N 
ATOM     50  C   UNL A   1      45.305  31.581  26.845  1.00  0.00     0.074 A 
ATOM     51  C   UNL A   1      43.958  31.063  26.950  1.00  0.00     0.031 C 
ATOM     52  C   UNL A   1      48.849  26.231  26.435  1.00  0.00     0.029 A 
ATOM     53  C   UNL A   1      49.318  27.616  26.382  1.00  0.00     0.049 A 
ATOM     54  H   UNL A   1      48.172  29.343  26.581  1.00  0.00     0.167 HD
ATOM     55  C   UNL A   1      45.621  32.896  26.892  1.00  0.00     0.037 A 
ATOM     56  C   UNL A   1      50.594  28.013  26.203  1.00  0.00     0.037 A 
ATOM     57  C   UNL A   1      46.961  33.407  26.778  1.00  0.00     0.049 A 
ATOM     58  C   UNL A   1      50.910  29.487  26.157  1.00  0.00     0.074 A 
ATOM     59  C   UNL A   1      47.387  34.722  26.818  1.00  0.00     0.029 A 
ATOM     60  N   UNL A   1      48.091  32.624  26.593  1.00  0.00    -0.354 N 
ATOM     61  N   UNL A   1      50.107  30.513  26.305  1.00  0.00    -0.248 NA
ATOM     62  C   UNL A   1      52.313  29.858  25.919  1.00  0.00     0.031 C 
ATOM     63  C   UNL A   1      48.768  34.739  26.596  1.00  0.00     0.029 A 
ATOM     64  C   UNL A   1      49.211  33.431  26.487  1.00  0.00     0.049 A 
ATOM     65  H   UNL A   1      48.095  31.641  26.545  1.00  0.00     0.167 HD
ATOM     66  C   UNL A   1      50.909  31.645  26.213  1.00  0.00     0.074 A 
ATOM     67  C   UNL A   1      52.265  31.179  26.007  1.00  0.00     0.031 C 
ATOM     68  C   UNL A   1      50.557  32.952  26.294  1.00  0.00     0.037 A 
BRANCH  55  69
ATOM     69  C   UNL A   1      44.491  33.874  27.040  1.00  0.00     0.057 A 
ATOM     70  C   UNL A   1      44.047  34.314  28.294  1.00  0.00     0.134 A 
ATOM     71  C   UNL A   1      43.856  34.403  25.909  1.00  0.00     0.134 A 
ATOM     72  F   UNL A   1      44.601  33.833  29.418  1.00  0.00    -0.206 F 
ATOM     73  C   UNL A   1      42.997  35.224  28.418  1.00  0.00     0.040 A 
ATOM     74  C   UNL A   1      42.825  35.337  26.019  1.00  0.00     0.040 A 
ATOM     75  F   UNL A   1      44.233  34.028  24.677  1.00  0.00    -0.206 F 
ATOM     76  C   UNL A   1      42.388  35.746  27.279  1.00  0.00     0.006 A 
ENDBRANCH  55  69
BRANCH  56  77
ATOM     77  C   UNL A   1      51.674  27.006  26.032  1.00  0.00     0.057 A 
ATOM     78  C   UNL A   1      51.996  26.497  24.769  1.00  0.00     0.134 A 
ATOM     79  C   UNL A   1      52.387  26.504  27.128  1.00  0.00     0.134 A 
ATOM     80  F   UNL A   1      51.332  26.917  23.682  1.00  0.00    -0.206 F 
ATOM     81  C   UNL A   1      52.970  25.509  24.603  1.00  0.00     0.040 A 
ATOM     82  C   UNL A   1      53.384  25.539  26.974  1.00  0.00     0.040 A 
ATOM     83  F   UNL A   1      52.127  26.948  28.367  1.00  0.00    -0.206 F 
ATOM     84  C   UNL A   1      53.672  25.032  25.709  1.00  0.00     0.006 A 
ENDBRANCH  56  77
BRANCH  68  85
ATOM     85  C   UNL A   1      51.655  33.975  26.211  1.00  0.00     0.057 A 
ATOM     86  C   UNL A   1      52.280  34.492  27.352  1.00  0.00     0.134 A 
ATOM     87  C   UNL A   1      52.128  34.408  24.964  1.00  0.00     0.134 A 
ATOM     88  F   UNL A   1      51.870  34.127  28.576  1.00  0.00    -0.206 F 
ATOM     89  C   UNL A   1      53.320  35.419  27.258  1.00  0.00     0.040 A 
ATOM     90  C   UNL A   1      53.187  35.310  24.857  1.00  0.00     0.040 A 
ATOM     91  F   UNL A   1      51.583  33.944  23.829  1.00  0.00    -0.206 F 
ATOM     92  C   UNL A   1      53.781  35.824  26.007  1.00  0.00     0.006 A 
ENDBRANCH  68  85
ENDBRANCH  42  43
ENDBRANCH  35  37
ENDBRANCH  34  35
ENDBRANCH  33  34
ENDBRANCH  32  33
ENDBRANCH  31  32
ENDBRANCH  30  31
ENDBRANCH  29  30
ENDBRANCH  28  29
ENDBRANCH   1  28
TORSDOF 24
ENDMDL
