MODEL 1
REMARK VINA RESULT:     -12.2      0.000      0.000
REMARK SMILES Cc1ccc(C(=O)N2CCC3(CCC(=O)N(CC(=O)OCCOCCOCCOCCOC(=O)c4ccc(-c5c6nc(c(-c7c(F)cccc7F)c7ccc([nH]7)c(-c7c(F)cccc7F)c7nc(c(-c8c(F)cccc8F)c8ccc5[nH]8)C=C7)C=C6)cc4)C3)CC2)cc1O
REMARK SMILES IDX 25 1 24 2 23 3 22 4 21 5 20 6 18 7 19 8 17 9 16 10 6 11 7 12
REMARK SMILES IDX 8 13 9 14 91 15 10 16 90 17 11 18 12 19 89 20 13 21 14 22
REMARK SMILES IDX 15 23 5 24 1 25 2 26 3 27 93 28 4 29 92 30 94 31 26 33 27 34
REMARK SMILES IDX 28 35 29 36 30 37 31 38 32 39 33 40 34 41 35 42 36 43 88 44
REMARK SMILES IDX 37 45 87 46 38 47 39 48 40 49 81 50 41 51 86 52 80 53 82 54
REMARK SMILES IDX 42 55 85 56 79 57 78 58 43 60 69 61 52 62 68 63 53 64 56 65
REMARK SMILES IDX 67 66 83 67 54 68 55 69 66 71 84 72 57 73 44 74 45 75 50 76
REMARK SMILES IDX 46 77 47 78 49 79 51 80 48 81 70 82 71 83 76 84 72 85 73 86
REMARK SMILES IDX 75 87 77 88 74 89 58 90 59 91 64 92 60 93 61 94 63 95 65 96
REMARK SMILES IDX 62 97
REMARK H PARENT 94 32 82 59 56 70
REMARK Flexibility Score: inf
ROOT
ATOM      1  C   UNL A   1      42.043  19.204  26.089  1.00  0.00     0.188 C 
ENDROOT
BRANCH   1   2
ATOM      2  C   UNL A   1      41.147  20.275  26.711  1.00  0.00     0.188 C 
BRANCH   2   3
ATOM      3  O   UNL A   1      39.866  20.523  26.147  1.00  0.00    -0.376 OA
BRANCH   3   4
ATOM      4  C   UNL A   1      39.353  21.854  26.101  1.00  0.00     0.202 C 
BRANCH   4   5
ATOM      5  C   UNL A   1      37.891  22.106  25.659  1.00  0.00     0.261 C 
BRANCH   5   6
ATOM      6  O   UNL A   1      37.346  21.176  24.684  1.00  0.00    -0.462 OA
BRANCH   6   7
ATOM      7  C   UNL A   1      36.301  20.406  25.069  1.00  0.00     0.325 C 
ATOM      8  O   UNL A   1      36.195  19.213  24.785  1.00  0.00    -0.250 OA
BRANCH   7   9
ATOM      9  C   UNL A   1      35.261  21.079  26.005  1.00  0.00     0.242 C 
BRANCH   9  10
ATOM     10  N   UNL A   1      33.793  20.940  25.891  1.00  0.00    -0.331 N 
ATOM     11  C   UNL A   1      32.648  25.974  21.883  1.00  0.00     0.253 C 
ATOM     12  O   UNL A   1      33.150  26.107  20.770  1.00  0.00    -0.269 OA
ATOM     13  N   UNL A   1      32.443  24.726  22.452  1.00  0.00    -0.339 N 
ATOM     14  C   UNL A   1      33.452  23.712  22.234  1.00  0.00     0.120 C 
ATOM     15  C   UNL A   1      31.201  24.292  23.081  1.00  0.00     0.120 C 
ATOM     16  C   UNL A   1      33.833  23.130  23.593  1.00  0.00     0.030 C 
ATOM     17  C   UNL A   1      31.463  23.565  24.401  1.00  0.00     0.030 C 
ATOM     18  C   UNL A   1      32.608  22.521  24.329  1.00  0.00    -0.008 C 
ATOM     19  C   UNL A   1      32.110  21.256  23.567  1.00  0.00     0.019 C 
ATOM     20  C   UNL A   1      32.986  22.142  25.803  1.00  0.00     0.127 C 
ATOM     21  C   UNL A   1      33.097  20.102  23.728  1.00  0.00     0.101 C 
ATOM     22  C   UNL A   1      33.177  19.884  25.220  1.00  0.00     0.223 C 
ATOM     23  O   UNL A   1      32.413  19.093  25.762  1.00  0.00    -0.275 OA
BRANCH  11  24
ATOM     24  C   UNL A   1      32.448  27.174  22.744  1.00  0.00     0.043 A 
ATOM     25  C   UNL A   1      31.738  30.286  25.656  1.00  0.00     0.048 C 
ATOM     26  C   UNL A   1      32.019  29.219  24.640  1.00  0.00    -0.009 A 
ATOM     27  C   UNL A   1      30.990  28.819  23.783  1.00  0.00     0.008 A 
ATOM     28  C   UNL A   1      33.257  28.572  24.541  1.00  0.00     0.119 A 
ATOM     29  C   UNL A   1      31.198  27.789  22.867  1.00  0.00     0.014 A 
ATOM     30  C   UNL A   1      33.481  27.571  23.596  1.00  0.00     0.060 A 
BRANCH  28  31
ATOM     31  O   UNL A   1      34.302  28.852  25.375  1.00  0.00    -0.508 OA
ATOM     32  H   UNL A   1      34.185  28.807  26.303  1.00  0.00     0.293 HD
ENDBRANCH  28  31
ENDBRANCH  11  24
ENDBRANCH   9  10
ENDBRANCH   7   9
ENDBRANCH   6   7
ENDBRANCH   5   6
ENDBRANCH   4   5
ENDBRANCH   3   4
ENDBRANCH   2   3
ENDBRANCH   1   2
BRANCH   1  33
ATOM     33  O   UNL A   1      43.408  19.548  26.089  1.00  0.00    -0.377 OA
BRANCH  33  34
ATOM     34  C   UNL A   1      44.214  19.171  24.988  1.00  0.00     0.188 C 
BRANCH  34  35
ATOM     35  C   UNL A   1      45.681  18.876  25.301  1.00  0.00     0.188 C 
BRANCH  35  36
ATOM     36  O   UNL A   1      46.479  20.049  25.385  1.00  0.00    -0.376 OA
BRANCH  36  37
ATOM     37  C   UNL A   1      46.027  21.244  24.761  1.00  0.00     0.202 C 
BRANCH  37  38
ATOM     38  C   UNL A   1      45.879  22.546  25.575  1.00  0.00     0.261 C 
BRANCH  38  39
ATOM     39  O   UNL A   1      44.643  22.782  26.266  1.00  0.00    -0.460 OA
BRANCH  39  40
ATOM     40  C   UNL A   1      43.568  23.215  25.587  1.00  0.00     0.338 C 
ATOM     41  O   UNL A   1      43.073  22.719  24.587  1.00  0.00    -0.246 OA
BRANCH  40  42
ATOM     42  C   UNL A   1      42.961  24.316  26.366  1.00  0.00     0.060 A 
ATOM     43  C   UNL A   1      43.523  25.597  26.293  1.00  0.00     0.016 A 
ATOM     44  C   UNL A   1      41.851  24.078  27.180  1.00  0.00     0.016 A 
ATOM     45  C   UNL A   1      43.005  26.636  27.069  1.00  0.00     0.010 A 
ATOM     46  C   UNL A   1      41.348  25.112  27.974  1.00  0.00     0.010 A 
ATOM     47  C   UNL A   1      41.947  26.385  27.951  1.00  0.00    -0.014 A 
BRANCH  47  48
ATOM     48  C   UNL A   1      41.598  27.372  29.003  1.00  0.00     0.031 A 
ATOM     49  C   UNL A   1      42.374  27.334  30.291  1.00  0.00     0.074 A 
ATOM     50  C   UNL A   1      40.612  28.270  28.833  1.00  0.00     0.049 A 
ATOM     51  N   UNL A   1      42.172  27.988  31.405  1.00  0.00    -0.248 NA
ATOM     52  C   UNL A   1      43.534  26.427  30.326  1.00  0.00     0.031 C 
ATOM     53  C   UNL A   1      39.828  28.448  27.613  1.00  0.00     0.029 A 
ATOM     54  N   UNL A   1      40.089  29.191  29.708  1.00  0.00    -0.354 N 
ATOM     55  C   UNL A   1      43.163  27.557  32.278  1.00  0.00     0.074 A 
ATOM     56  C   UNL A   1      43.952  26.571  31.574  1.00  0.00     0.031 C 
ATOM     57  C   UNL A   1      38.904  29.402  27.827  1.00  0.00     0.029 A 
ATOM     58  C   UNL A   1      39.003  29.866  29.210  1.00  0.00     0.049 A 
ATOM     59  H   UNL A   1      40.459  29.351  30.607  1.00  0.00     0.167 HD
ATOM     60  C   UNL A   1      43.394  27.947  33.553  1.00  0.00     0.037 A 
ATOM     61  C   UNL A   1      38.161  30.728  29.816  1.00  0.00     0.037 A 
ATOM     62  C   UNL A   1      42.605  28.929  34.248  1.00  0.00     0.049 A 
ATOM     63  C   UNL A   1      38.385  31.085  31.265  1.00  0.00     0.074 A 
ATOM     64  C   UNL A   1      42.764  29.405  35.538  1.00  0.00     0.029 A 
ATOM     65  N   UNL A   1      41.502  29.577  33.714  1.00  0.00    -0.354 N 
ATOM     66  N   UNL A   1      39.327  30.681  32.083  1.00  0.00    -0.248 NA
ATOM     67  C   UNL A   1      37.426  32.017  31.878  1.00  0.00     0.031 C 
ATOM     68  C   UNL A   1      41.720  30.293  35.805  1.00  0.00     0.029 A 
ATOM     69  C   UNL A   1      40.955  30.429  34.657  1.00  0.00     0.049 A 
ATOM     70  H   UNL A   1      41.160  29.450  32.799  1.00  0.00     0.167 HD
ATOM     71  C   UNL A   1      39.102  31.341  33.286  1.00  0.00     0.074 A 
ATOM     72  C   UNL A   1      37.932  32.171  33.094  1.00  0.00     0.031 C 
ATOM     73  C   UNL A   1      39.805  31.272  34.442  1.00  0.00     0.037 A 
BRANCH  60  74
ATOM     74  C   UNL A   1      44.521  27.287  34.293  1.00  0.00     0.057 A 
ATOM     75  C   UNL A   1      44.352  26.084  34.991  1.00  0.00     0.134 A 
ATOM     76  C   UNL A   1      45.805  27.845  34.274  1.00  0.00     0.134 A 
ATOM     77  F   UNL A   1      43.144  25.503  35.061  1.00  0.00    -0.206 F 
ATOM     78  C   UNL A   1      45.413  25.472  35.659  1.00  0.00     0.040 A 
ATOM     79  C   UNL A   1      46.881  27.229  34.912  1.00  0.00     0.040 A 
ATOM     80  F   UNL A   1      46.039  28.995  33.621  1.00  0.00    -0.206 F 
ATOM     81  C   UNL A   1      46.685  26.041  35.613  1.00  0.00     0.006 A 
ENDBRANCH  60  74
BRANCH  61  82
ATOM     82  C   UNL A   1      37.009  31.298  29.071  1.00  0.00     0.057 A 
ATOM     83  C   UNL A   1      37.018  32.622  28.616  1.00  0.00     0.134 A 
ATOM     84  C   UNL A   1      35.853  30.544  28.825  1.00  0.00     0.134 A 
ATOM     85  F   UNL A   1      38.083  33.406  28.842  1.00  0.00    -0.206 F 
ATOM     86  C   UNL A   1      35.917  33.182  27.966  1.00  0.00     0.040 A 
ATOM     87  C   UNL A   1      34.756  31.081  28.150  1.00  0.00     0.040 A 
ATOM     88  F   UNL A   1      35.776  29.269  29.236  1.00  0.00    -0.206 F 
ATOM     89  C   UNL A   1      34.783  32.408  27.726  1.00  0.00     0.006 A 
ENDBRANCH  61  82
BRANCH  73  90
ATOM     90  C   UNL A   1      39.387  32.165  35.575  1.00  0.00     0.057 A 
ATOM     91  C   UNL A   1      39.823  33.490  35.683  1.00  0.00     0.134 A 
ATOM     92  C   UNL A   1      38.464  31.709  36.526  1.00  0.00     0.134 A 
ATOM     93  F   UNL A   1      40.714  33.987  34.811  1.00  0.00    -0.206 F 
ATOM     94  C   UNL A   1      39.367  34.327  36.704  1.00  0.00     0.040 A 
ATOM     95  C   UNL A   1      37.978  32.543  37.534  1.00  0.00     0.040 A 
ATOM     96  F   UNL A   1      37.996  30.453  36.474  1.00  0.00    -0.206 F 
ATOM     97  C   UNL A   1      38.433  33.856  37.626  1.00  0.00     0.006 A 
ENDBRANCH  73  90
ENDBRANCH  47  48
ENDBRANCH  40  42
ENDBRANCH  39  40
ENDBRANCH  38  39
ENDBRANCH  37  38
ENDBRANCH  36  37
ENDBRANCH  35  36
ENDBRANCH  34  35
ENDBRANCH  33  34
ENDBRANCH   1  33
TORSDOF 23
ENDMDL
MODEL 2
REMARK VINA RESULT:     -10.4      6.516      8.276
REMARK SMILES Cc1ccc(C(=O)N2CCC3(CCC(=O)N(CC(=O)OCCOCCOCCOCCOC(=O)c4ccc(-c5c6nc(c(-c7c(F)cccc7F)c7ccc([nH]7)c(-c7c(F)cccc7F)c7nc(c(-c8c(F)cccc8F)c8ccc5[nH]8)C=C7)C=C6)cc4)C3)CC2)cc1O
REMARK SMILES IDX 25 1 24 2 23 3 22 4 21 5 20 6 18 7 19 8 17 9 16 10 6 11 7 12
REMARK SMILES IDX 8 13 9 14 91 15 10 16 90 17 11 18 12 19 89 20 13 21 14 22
REMARK SMILES IDX 15 23 5 24 1 25 2 26 3 27 93 28 4 29 92 30 94 31 26 33 27 34
REMARK SMILES IDX 28 35 29 36 30 37 31 38 32 39 33 40 34 41 35 42 36 43 88 44
REMARK SMILES IDX 37 45 87 46 38 47 39 48 40 49 81 50 41 51 86 52 80 53 82 54
REMARK SMILES IDX 42 55 85 56 79 57 78 58 43 60 69 61 52 62 68 63 53 64 56 65
REMARK SMILES IDX 67 66 83 67 54 68 55 69 66 71 84 72 57 73 44 74 45 75 50 76
REMARK SMILES IDX 46 77 47 78 49 79 51 80 48 81 70 82 71 83 76 84 72 85 73 86
REMARK SMILES IDX 75 87 77 88 74 89 58 90 59 91 64 92 60 93 61 94 63 95 65 96
REMARK SMILES IDX 62 97
REMARK H PARENT 94 32 82 59 56 70
REMARK Flexibility Score: inf
ROOT
ATOM      1  C   UNL A   1      41.995  19.170  25.753  1.00  0.00     0.188 C 
ENDROOT
BRANCH   1   2
ATOM      2  C   UNL A   1      41.144  20.019  26.698  1.00  0.00     0.188 C 
BRANCH   2   3
ATOM      3  O   UNL A   1      39.829  20.388  26.307  1.00  0.00    -0.376 OA
BRANCH   3   4
ATOM      4  C   UNL A   1      39.529  21.751  26.009  1.00  0.00     0.202 C 
BRANCH   4   5
ATOM      5  C   UNL A   1      38.073  22.177  25.705  1.00  0.00     0.261 C 
BRANCH   5   6
ATOM      6  O   UNL A   1      37.372  21.394  24.701  1.00  0.00    -0.462 OA
BRANCH   6   7
ATOM      7  C   UNL A   1      36.394  20.559  25.126  1.00  0.00     0.325 C 
ATOM      8  O   UNL A   1      36.362  19.358  24.859  1.00  0.00    -0.250 OA
BRANCH   7   9
ATOM      9  C   UNL A   1      35.339  21.173  26.086  1.00  0.00     0.242 C 
BRANCH   9  10
ATOM     10  N   UNL A   1      33.875  21.000  25.967  1.00  0.00    -0.331 N 
ATOM     11  C   UNL A   1      32.639  25.936  21.866  1.00  0.00     0.253 C 
ATOM     12  O   UNL A   1      33.144  26.061  20.753  1.00  0.00    -0.269 OA
ATOM     13  N   UNL A   1      32.459  24.695  22.455  1.00  0.00    -0.339 N 
ATOM     14  C   UNL A   1      33.491  23.699  22.260  1.00  0.00     0.120 C 
ATOM     15  C   UNL A   1      31.224  24.245  23.087  1.00  0.00     0.120 C 
ATOM     16  C   UNL A   1      33.878  23.150  23.631  1.00  0.00     0.030 C 
ATOM     17  C   UNL A   1      31.495  23.547  24.420  1.00  0.00     0.030 C 
ATOM     18  C   UNL A   1      32.663  22.527  24.372  1.00  0.00    -0.008 C 
ATOM     19  C   UNL A   1      32.197  21.238  23.630  1.00  0.00     0.019 C 
ATOM     20  C   UNL A   1      33.042  22.183  25.854  1.00  0.00     0.127 C 
ATOM     21  C   UNL A   1      33.207  20.109  23.817  1.00  0.00     0.101 C 
ATOM     22  C   UNL A   1      33.284  19.919  25.312  1.00  0.00     0.223 C 
ATOM     23  O   UNL A   1      32.535  19.121  25.865  1.00  0.00    -0.275 OA
BRANCH  11  24
ATOM     24  C   UNL A   1      32.410  27.147  22.704  1.00  0.00     0.043 A 
ATOM     25  C   UNL A   1      31.618  30.294  25.558  1.00  0.00     0.048 C 
ATOM     26  C   UNL A   1      31.926  29.215  24.562  1.00  0.00    -0.009 A 
ATOM     27  C   UNL A   1      30.911  28.778  23.706  1.00  0.00     0.008 A 
ATOM     28  C   UNL A   1      33.178  28.592  24.481  1.00  0.00     0.119 A 
ATOM     29  C   UNL A   1      31.146  27.738  22.809  1.00  0.00     0.014 A 
ATOM     30  C   UNL A   1      33.429  27.580  23.555  1.00  0.00     0.060 A 
BRANCH  28  31
ATOM     31  O   UNL A   1      34.213  28.909  25.316  1.00  0.00    -0.508 OA
ATOM     32  H   UNL A   1      34.038  29.301  26.149  1.00  0.00     0.293 HD
ENDBRANCH  28  31
ENDBRANCH  11  24
ENDBRANCH   9  10
ENDBRANCH   7   9
ENDBRANCH   6   7
ENDBRANCH   5   6
ENDBRANCH   4   5
ENDBRANCH   3   4
ENDBRANCH   2   3
ENDBRANCH   1   2
BRANCH   1  33
ATOM     33  O   UNL A   1      43.358  19.138  26.103  1.00  0.00    -0.377 OA
BRANCH  33  34
ATOM     34  C   UNL A   1      44.326  18.945  25.089  1.00  0.00     0.188 C 
BRANCH  34  35
ATOM     35  C   UNL A   1      45.771  18.789  25.563  1.00  0.00     0.188 C 
BRANCH  35  36
ATOM     36  O   UNL A   1      46.601  19.880  25.186  1.00  0.00    -0.376 OA
BRANCH  36  37
ATOM     37  C   UNL A   1      46.011  21.031  24.595  1.00  0.00     0.202 C 
BRANCH  37  38
ATOM     38  C   UNL A   1      46.005  22.380  25.341  1.00  0.00     0.261 C 
BRANCH  38  39
ATOM     39  O   UNL A   1      45.411  22.435  26.648  1.00  0.00    -0.460 OA
BRANCH  39  40
ATOM     40  C   UNL A   1      44.307  23.172  26.851  1.00  0.00     0.338 C 
ATOM     41  O   UNL A   1      43.194  22.772  27.156  1.00  0.00    -0.246 OA
BRANCH  40  42
ATOM     42  C   UNL A   1      44.709  24.595  26.819  1.00  0.00     0.060 A 
ATOM     43  C   UNL A   1      44.566  25.319  25.628  1.00  0.00     0.016 A 
ATOM     44  C   UNL A   1      45.240  25.206  27.957  1.00  0.00     0.016 A 
ATOM     45  C   UNL A   1      44.997  26.646  25.558  1.00  0.00     0.010 A 
ATOM     46  C   UNL A   1      45.693  26.526  27.879  1.00  0.00     0.010 A 
ATOM     47  C   UNL A   1      45.609  27.238  26.669  1.00  0.00    -0.014 A 
BRANCH  47  48
ATOM     48  C   UNL A   1      46.354  28.513  26.523  1.00  0.00     0.031 A 
ATOM     49  C   UNL A   1      47.845  28.441  26.330  1.00  0.00     0.074 A 
ATOM     50  C   UNL A   1      45.736  29.706  26.572  1.00  0.00     0.049 A 
ATOM     51  N   UNL A   1      48.732  29.402  26.318  1.00  0.00    -0.248 NA
ATOM     52  C   UNL A   1      48.411  27.096  26.130  1.00  0.00     0.031 C 
ATOM     53  C   UNL A   1      44.295  29.909  26.694  1.00  0.00     0.029 A 
ATOM     54  N   UNL A   1      46.256  30.978  26.547  1.00  0.00    -0.354 N 
ATOM     55  C   UNL A   1      49.959  28.777  26.132  1.00  0.00     0.074 A 
ATOM     56  C   UNL A   1      49.707  27.355  26.057  1.00  0.00     0.031 C 
ATOM     57  C   UNL A   1      44.047  31.229  26.761  1.00  0.00     0.029 A 
ATOM     58  C   UNL A   1      45.314  31.959  26.733  1.00  0.00     0.049 A 
ATOM     59  H   UNL A   1      47.213  31.166  26.409  1.00  0.00     0.167 HD
ATOM     60  C   UNL A   1      51.185  29.339  26.033  1.00  0.00     0.037 A 
ATOM     61  C   UNL A   1      45.465  33.288  26.902  1.00  0.00     0.037 A 
ATOM     62  C   UNL A   1      51.429  30.755  26.108  1.00  0.00     0.049 A 
ATOM     63  C   UNL A   1      46.850  33.885  26.875  1.00  0.00     0.074 A 
ATOM     64  C   UNL A   1      52.635  31.427  26.006  1.00  0.00     0.029 A 
ATOM     65  N   UNL A   1      50.450  31.715  26.314  1.00  0.00    -0.354 N 
ATOM     66  N   UNL A   1      48.006  33.292  26.691  1.00  0.00    -0.248 NA
ATOM     67  C   UNL A   1      46.954  35.338  27.082  1.00  0.00     0.031 C 
ATOM     68  C   UNL A   1      52.393  32.788  26.214  1.00  0.00     0.029 A 
ATOM     69  C   UNL A   1      51.027  32.971  26.369  1.00  0.00     0.049 A 
ATOM     70  H   UNL A   1      49.487  31.529  26.407  1.00  0.00     0.167 HD
ATOM     71  C   UNL A   1      48.963  34.300  26.714  1.00  0.00     0.074 A 
ATOM     72  C   UNL A   1      48.256  35.543  26.932  1.00  0.00     0.031 C 
ATOM     73  C   UNL A   1      50.306  34.204  26.559  1.00  0.00     0.037 A 
BRANCH  60  74
ATOM     74  C   UNL A   1      52.363  28.423  25.870  1.00  0.00     0.057 A 
ATOM     75  C   UNL A   1      53.057  27.898  26.968  1.00  0.00     0.134 A 
ATOM     76  C   UNL A   1      52.784  28.028  24.593  1.00  0.00     0.134 A 
ATOM     77  F   UNL A   1      52.715  28.245  28.218  1.00  0.00    -0.206 F 
ATOM     78  C   UNL A   1      54.139  27.032  26.801  1.00  0.00     0.040 A 
ATOM     79  C   UNL A   1      53.844  27.141  24.414  1.00  0.00     0.040 A 
ATOM     80  F   UNL A   1      52.161  28.491  23.498  1.00  0.00    -0.206 F 
ATOM     81  C   UNL A   1      54.530  26.644  25.520  1.00  0.00     0.006 A 
ENDBRANCH  60  74
BRANCH  61  82
ATOM     82  C   UNL A   1      44.279  34.152  27.142  1.00  0.00     0.057 A 
ATOM     83  C   UNL A   1      43.577  34.737  26.081  1.00  0.00     0.134 A 
ATOM     84  C   UNL A   1      43.838  34.442  28.440  1.00  0.00     0.134 A 
ATOM     85  F   UNL A   1      43.964  34.520  24.815  1.00  0.00    -0.206 F 
ATOM     86  C   UNL A   1      42.497  35.594  26.300  1.00  0.00     0.040 A 
ATOM     87  C   UNL A   1      42.742  35.273  28.674  1.00  0.00     0.040 A 
ATOM     88  F   UNL A   1      44.465  33.916  29.502  1.00  0.00    -0.206 F 
ATOM     89  C   UNL A   1      42.074  35.861  27.601  1.00  0.00     0.006 A 
ENDBRANCH  61  82
BRANCH  73  90
ATOM     90  C   UNL A   1      51.105  35.477  26.544  1.00  0.00     0.057 A 
ATOM     91  C   UNL A   1      51.629  36.045  27.710  1.00  0.00     0.134 A 
ATOM     92  C   UNL A   1      51.422  36.093  25.325  1.00  0.00     0.134 A 
ATOM     93  F   UNL A   1      51.357  35.511  28.910  1.00  0.00    -0.206 F 
ATOM     94  C   UNL A   1      52.430  37.189  27.667  1.00  0.00     0.040 A 
ATOM     95  C   UNL A   1      52.244  37.219  25.266  1.00  0.00     0.040 A 
ATOM     96  F   UNL A   1      50.962  35.592  24.169  1.00  0.00    -0.206 F 
ATOM     97  C   UNL A   1      52.748  37.771  26.441  1.00  0.00     0.006 A 
ENDBRANCH  73  90
ENDBRANCH  47  48
ENDBRANCH  40  42
ENDBRANCH  39  40
ENDBRANCH  38  39
ENDBRANCH  37  38
ENDBRANCH  36  37
ENDBRANCH  35  36
ENDBRANCH  34  35
ENDBRANCH  33  34
ENDBRANCH   1  33
TORSDOF 23
ENDMDL
MODEL 3
REMARK VINA RESULT:      -9.9      4.270     10.478
REMARK SMILES Cc1ccc(C(=O)N2CCC3(CCC(=O)N(CC(=O)OCCOCCOCCOCCOC(=O)c4ccc(-c5c6nc(c(-c7c(F)cccc7F)c7ccc([nH]7)c(-c7c(F)cccc7F)c7nc(c(-c8c(F)cccc8F)c8ccc5[nH]8)C=C7)C=C6)cc4)C3)CC2)cc1O
REMARK SMILES IDX 25 1 24 2 23 3 22 4 21 5 20 6 18 7 19 8 17 9 16 10 6 11 7 12
REMARK SMILES IDX 8 13 9 14 91 15 10 16 90 17 11 18 12 19 89 20 13 21 14 22
REMARK SMILES IDX 15 23 5 24 1 25 2 26 3 27 93 28 4 29 92 30 94 31 26 33 27 34
REMARK SMILES IDX 28 35 29 36 30 37 31 38 32 39 33 40 34 41 35 42 36 43 88 44
REMARK SMILES IDX 37 45 87 46 38 47 39 48 40 49 81 50 41 51 86 52 80 53 82 54
REMARK SMILES IDX 42 55 85 56 79 57 78 58 43 60 69 61 52 62 68 63 53 64 56 65
REMARK SMILES IDX 67 66 83 67 54 68 55 69 66 71 84 72 57 73 44 74 45 75 50 76
REMARK SMILES IDX 46 77 47 78 49 79 51 80 48 81 70 82 71 83 76 84 72 85 73 86
REMARK SMILES IDX 75 87 77 88 74 89 58 90 59 91 64 92 60 93 61 94 63 95 65 96
REMARK SMILES IDX 62 97
REMARK H PARENT 94 32 82 59 56 70
REMARK Flexibility Score: inf
ROOT
ATOM      1  C   UNL A   1      33.118  30.034  25.999  1.00  0.00     0.188 C 
ENDROOT
BRANCH   1   2
ATOM      2  C   UNL A   1      33.828  28.972  25.161  1.00  0.00     0.188 C 
BRANCH   2   3
ATOM      3  O   UNL A   1      33.763  29.047  23.743  1.00  0.00    -0.376 OA
BRANCH   3   4
ATOM      4  C   UNL A   1      32.736  28.352  23.038  1.00  0.00     0.202 C 
BRANCH   4   5
ATOM      5  C   UNL A   1      33.088  27.122  22.167  1.00  0.00     0.261 C 
BRANCH   5   6
ATOM      6  O   UNL A   1      31.993  26.216  21.863  1.00  0.00    -0.462 OA
BRANCH   6   7
ATOM      7  C   UNL A   1      30.911  26.246  22.676  1.00  0.00     0.325 C 
ATOM      8  O   UNL A   1      30.154  27.212  22.765  1.00  0.00    -0.250 OA
BRANCH   7   9
ATOM      9  C   UNL A   1      30.588  24.931  23.437  1.00  0.00     0.242 C 
BRANCH   9  10
ATOM     10  N   UNL A   1      30.713  24.737  24.898  1.00  0.00    -0.331 N 
ATOM     11  C   UNL A   1      35.625  20.427  24.891  1.00  0.00     0.253 C 
ATOM     12  O   UNL A   1      36.730  20.629  24.393  1.00  0.00    -0.269 OA
ATOM     13  N   UNL A   1      34.838  21.460  25.375  1.00  0.00    -0.339 N 
ATOM     14  C   UNL A   1      34.834  22.707  24.641  1.00  0.00     0.120 C 
ATOM     15  C   UNL A   1      34.171  21.460  26.673  1.00  0.00     0.120 C 
ATOM     16  C   UNL A   1      33.380  23.094  24.383  1.00  0.00     0.030 C 
ATOM     17  C   UNL A   1      32.732  21.966  26.566  1.00  0.00     0.030 C 
ATOM     18  C   UNL A   1      32.576  23.246  25.704  1.00  0.00    -0.008 C 
ATOM     19  C   UNL A   1      33.099  24.477  26.502  1.00  0.00     0.019 C 
ATOM     20  C   UNL A   1      31.047  23.417  25.398  1.00  0.00     0.127 C 
ATOM     21  C   UNL A   1      32.697  25.780  25.815  1.00  0.00     0.101 C 
ATOM     22  C   UNL A   1      31.189  25.725  25.761  1.00  0.00     0.223 C 
ATOM     23  O   UNL A   1      30.529  26.195  26.681  1.00  0.00    -0.275 OA
BRANCH  11  24
ATOM     24  C   UNL A   1      35.011  19.073  24.783  1.00  0.00     0.043 A 
ATOM     25  C   UNL A   1      33.125  15.193  25.029  1.00  0.00     0.048 C 
ATOM     26  C   UNL A   1      33.756  16.550  24.918  1.00  0.00    -0.009 A 
ATOM     27  C   UNL A   1      35.143  16.659  25.042  1.00  0.00     0.008 A 
ATOM     28  C   UNL A   1      33.009  17.722  24.739  1.00  0.00     0.119 A 
ATOM     29  C   UNL A   1      35.757  17.910  25.002  1.00  0.00     0.014 A 
ATOM     30  C   UNL A   1      33.625  18.971  24.657  1.00  0.00     0.060 A 
BRANCH  28  31
ATOM     31  O   UNL A   1      31.645  17.721  24.669  1.00  0.00    -0.508 OA
ATOM     32  H   UNL A   1      31.215  18.063  23.910  1.00  0.00     0.293 HD
ENDBRANCH  28  31
ENDBRANCH  11  24
ENDBRANCH   9  10
ENDBRANCH   7   9
ENDBRANCH   6   7
ENDBRANCH   5   6
ENDBRANCH   4   5
ENDBRANCH   3   4
ENDBRANCH   2   3
ENDBRANCH   1   2
BRANCH   1  33
ATOM     33  O   UNL A   1      33.522  30.044  27.348  1.00  0.00    -0.377 OA
BRANCH  33  34
ATOM     34  C   UNL A   1      34.439  31.030  27.785  1.00  0.00     0.188 C 
BRANCH  34  35
ATOM     35  C   UNL A   1      33.859  32.424  28.030  1.00  0.00     0.188 C 
BRANCH  35  36
ATOM     36  O   UNL A   1      34.832  33.362  28.469  1.00  0.00    -0.376 OA
BRANCH  36  37
ATOM     37  C   UNL A   1      36.203  33.137  28.164  1.00  0.00     0.202 C 
BRANCH  37  38
ATOM     38  C   UNL A   1      37.297  33.438  29.207  1.00  0.00     0.261 C 
BRANCH  38  39
ATOM     39  O   UNL A   1      37.212  32.798  30.490  1.00  0.00    -0.460 OA
BRANCH  39  40
ATOM     40  C   UNL A   1      36.934  31.486  30.567  1.00  0.00     0.338 C 
ATOM     41  O   UNL A   1      35.856  30.970  30.815  1.00  0.00    -0.246 OA
BRANCH  40  42
ATOM     42  C   UNL A   1      38.134  30.749  30.116  1.00  0.00     0.060 A 
ATOM     43  C   UNL A   1      39.177  30.519  31.024  1.00  0.00     0.016 A 
ATOM     44  C   UNL A   1      38.236  30.301  28.797  1.00  0.00     0.016 A 
ATOM     45  C   UNL A   1      40.345  29.880  30.603  1.00  0.00     0.010 A 
ATOM     46  C   UNL A   1      39.414  29.683  28.371  1.00  0.00     0.010 A 
ATOM     47  C   UNL A   1      40.489  29.505  29.261  1.00  0.00    -0.014 A 
BRANCH  47  48
ATOM     48  C   UNL A   1      41.821  29.127  28.728  1.00  0.00     0.031 A 
ATOM     49  C   UNL A   1      42.037  27.694  28.323  1.00  0.00     0.074 A 
ATOM     50  C   UNL A   1      42.819  30.019  28.614  1.00  0.00     0.049 A 
ATOM     51  N   UNL A   1      43.138  27.086  27.964  1.00  0.00    -0.248 NA
ATOM     52  C   UNL A   1      40.846  26.827  28.333  1.00  0.00     0.031 C 
ATOM     53  C   UNL A   1      42.719  31.446  28.914  1.00  0.00     0.029 A 
ATOM     54  N   UNL A   1      44.128  29.845  28.232  1.00  0.00    -0.354 N 
ATOM     55  C   UNL A   1      42.777  25.765  27.727  1.00  0.00     0.074 A 
ATOM     56  C   UNL A   1      41.362  25.654  28.002  1.00  0.00     0.031 C 
ATOM     57  C   UNL A   1      43.925  32.013  28.731  1.00  0.00     0.029 A 
ATOM     58  C   UNL A   1      44.889  30.982  28.347  1.00  0.00     0.049 A 
ATOM     59  H   UNL A   1      44.485  28.986  27.908  1.00  0.00     0.167 HD
ATOM     60  C   UNL A   1      43.556  24.738  27.317  1.00  0.00     0.037 A 
ATOM     61  C   UNL A   1      46.217  31.158  28.198  1.00  0.00     0.037 A 
ATOM     62  C   UNL A   1      44.963  24.855  27.045  1.00  0.00     0.049 A 
ATOM     63  C   UNL A   1      47.083  29.979  27.826  1.00  0.00     0.074 A 
ATOM     64  C   UNL A   1      45.841  23.877  26.612  1.00  0.00     0.029 A 
ATOM     65  N   UNL A   1      45.701  26.021  27.190  1.00  0.00    -0.354 N 
ATOM     66  N   UNL A   1      46.736  28.736  27.595  1.00  0.00    -0.248 NA
ATOM     67  C   UNL A   1      48.527  30.228  27.694  1.00  0.00     0.031 C 
ATOM     68  C   UNL A   1      47.121  24.434  26.556  1.00  0.00     0.029 A 
ATOM     69  C   UNL A   1      47.028  25.779  26.880  1.00  0.00     0.049 A 
ATOM     70  H   UNL A   1      45.333  26.890  27.470  1.00  0.00     0.167 HD
ATOM     71  C   UNL A   1      47.905  28.068  27.248  1.00  0.00     0.074 A 
ATOM     72  C   UNL A   1      48.973  29.042  27.301  1.00  0.00     0.031 C 
ATOM     73  C   UNL A   1      48.076  26.767  26.909  1.00  0.00     0.037 A 
BRANCH  60  74
ATOM     74  C   UNL A   1      42.914  23.388  27.174  1.00  0.00     0.057 A 
ATOM     75  C   UNL A   1      42.576  22.853  25.924  1.00  0.00     0.134 A 
ATOM     76  C   UNL A   1      42.665  22.597  28.302  1.00  0.00     0.134 A 
ATOM     77  F   UNL A   1      42.775  23.563  24.803  1.00  0.00    -0.206 F 
ATOM     78  C   UNL A   1      41.996  21.589  25.804  1.00  0.00     0.040 A 
ATOM     79  C   UNL A   1      42.114  21.321  28.194  1.00  0.00     0.040 A 
ATOM     80  F   UNL A   1      42.967  23.048  29.530  1.00  0.00    -0.206 F 
ATOM     81  C   UNL A   1      41.772  20.815  26.942  1.00  0.00     0.006 A 
ENDBRANCH  60  74
BRANCH  61  82
ATOM     82  C   UNL A   1      46.826  32.494  28.429  1.00  0.00     0.057 A 
ATOM     83  C   UNL A   1      46.937  33.433  27.396  1.00  0.00     0.134 A 
ATOM     84  C   UNL A   1      47.345  32.854  29.680  1.00  0.00     0.134 A 
ATOM     85  F   UNL A   1      46.483  33.140  26.168  1.00  0.00    -0.206 F 
ATOM     86  C   UNL A   1      47.558  34.667  27.590  1.00  0.00     0.040 A 
ATOM     87  C   UNL A   1      47.942  34.096  29.897  1.00  0.00     0.040 A 
ATOM     88  F   UNL A   1      47.274  32.002  30.714  1.00  0.00    -0.206 F 
ATOM     89  C   UNL A   1      48.058  35.004  28.846  1.00  0.00     0.006 A 
ENDBRANCH  61  82
BRANCH  73  90
ATOM     90  C   UNL A   1      49.450  26.323  26.494  1.00  0.00     0.057 A 
ATOM     91  C   UNL A   1      49.958  26.562  25.212  1.00  0.00     0.134 A 
ATOM     92  C   UNL A   1      50.306  25.720  27.426  1.00  0.00     0.134 A 
ATOM     93  F   UNL A   1      49.189  27.127  24.269  1.00  0.00    -0.206 F 
ATOM     94  C   UNL A   1      51.263  26.205  24.867  1.00  0.00     0.040 A 
ATOM     95  C   UNL A   1      51.621  25.385  27.103  1.00  0.00     0.040 A 
ATOM     96  F   UNL A   1      49.886  25.473  28.676  1.00  0.00    -0.206 F 
ATOM     97  C   UNL A   1      52.102  25.626  25.818  1.00  0.00     0.006 A 
ENDBRANCH  73  90
ENDBRANCH  47  48
ENDBRANCH  40  42
ENDBRANCH  39  40
ENDBRANCH  38  39
ENDBRANCH  37  38
ENDBRANCH  36  37
ENDBRANCH  35  36
ENDBRANCH  34  35
ENDBRANCH  33  34
ENDBRANCH   1  33
TORSDOF 23
ENDMDL
