MODEL 1
REMARK VINA RESULT:      -6.9      0.000      0.000
REMARK SMILES CCC(CC)(NC(=O)NCCc1nccs1)C(=O)OCCOCCOCCOCCOC(=O)c1ccc(-c2c3nc(c(-c4c(F)cccc4F)c4ccc([nH]4)c(-c4c(F)cccc4F)c4nc(c(-c5c(F)cccc5F)c5ccc2[nH]5)C=C4)C=C3)cc1
REMARK SMILES IDX 24 1 23 2 22 3 21 4 20 5 19 6 17 7 18 8 3 9 2 10 1 11 4 12
REMARK SMILES IDX 5 13 6 14 7 15 8 17 9 18 10 20 11 21 12 22 13 23 16 24 14 25
REMARK SMILES IDX 15 26 25 27 26 28 27 29 28 30 29 31 30 32 31 33 32 34 33 35
REMARK SMILES IDX 34 36 35 37 87 38 36 39 86 40 37 41 38 42 39 43 80 44 40 45
REMARK SMILES IDX 85 46 79 47 81 48 41 49 84 50 78 51 77 52 42 54 68 55 51 56
REMARK SMILES IDX 67 57 52 58 55 59 66 60 82 61 53 62 54 63 65 65 83 66 56 67
REMARK SMILES IDX 43 68 44 69 49 70 45 71 46 72 48 73 50 74 47 75 69 76 70 77
REMARK SMILES IDX 75 78 71 79 72 80 74 81 76 82 73 83 57 84 58 85 63 86 59 87
REMARK SMILES IDX 60 88 62 89 64 90 61 91
REMARK H PARENT 6 16 9 19 81 53 55 64
REMARK Flexibility Score: inf
ROOT
ATOM      1  C   UNL A   1      50.519  26.285  31.785  1.00  0.00     0.188 C 
ENDROOT
BRANCH   1   2
ATOM      2  C   UNL A   1      49.119  26.067  31.187  1.00  0.00     0.188 C 
BRANCH   2   3
ATOM      3  O   UNL A   1      48.994  25.353  29.959  1.00  0.00    -0.376 OA
BRANCH   3   4
ATOM      4  C   UNL A   1      49.731  25.737  28.799  1.00  0.00     0.202 C 
BRANCH   4   5
ATOM      5  C   UNL A   1      49.745  24.797  27.599  1.00  0.00     0.261 C 
BRANCH   5   6
ATOM      6  O   UNL A   1      48.392  24.520  27.211  1.00  0.00    -0.461 OA
BRANCH   6   7
ATOM      7  C   UNL A   1      47.837  25.377  26.328  1.00  0.00     0.331 C 
ATOM      8  O   UNL A   1      48.277  25.537  25.194  1.00  0.00    -0.249 OA
BRANCH   7   9
ATOM      9  C   UNL A   1      46.496  25.982  26.846  1.00  0.00     0.139 C 
BRANCH   9  10
ATOM     10  C   UNL A   1      45.602  26.124  25.560  1.00  0.00     0.037 C 
ATOM     11  C   UNL A   1      45.139  27.517  25.161  1.00  0.00     0.007 C 
ENDBRANCH   9  10
BRANCH   9  12
ATOM     12  C   UNL A   1      46.830  27.346  27.501  1.00  0.00     0.037 C 
ATOM     13  C   UNL A   1      46.426  27.494  28.962  1.00  0.00     0.007 C 
ENDBRANCH   9  12
BRANCH   9  14
ATOM     14  N   UNL A   1      45.625  25.179  27.770  1.00  0.00    -0.322 N 
ATOM     15  C   UNL A   1      45.392  23.904  28.072  1.00  0.00     0.315 C 
ATOM     16  H   UNL A   1      45.059  25.772  28.315  1.00  0.00     0.166 HD
ATOM     17  O   UNL A   1      45.060  23.662  29.235  1.00  0.00    -0.249 OA
ATOM     18  N   UNL A   1      45.449  22.877  27.227  1.00  0.00    -0.338 N 
ATOM     19  H   UNL A   1      45.552  22.001  27.665  1.00  0.00     0.165 HD
BRANCH  18  20
ATOM     20  C   UNL A   1      45.387  22.816  25.782  1.00  0.00     0.125 C 
BRANCH  20  21
ATOM     21  C   UNL A   1      45.456  21.381  25.239  1.00  0.00     0.089 C 
BRANCH  21  22
ATOM     22  C   UNL A   1      44.229  20.557  25.527  1.00  0.00     0.094 A 
ATOM     23  N   UNL A   1      43.121  20.987  26.096  1.00  0.00    -0.250 NA
ATOM     24  S   UNL A   1      44.224  18.884  25.102  1.00  0.00    -0.127 S 
ATOM     25  C   UNL A   1      42.216  19.948  26.219  1.00  0.00     0.123 A 
ATOM     26  C   UNL A   1      42.645  18.729  25.745  1.00  0.00     0.087 A 
ENDBRANCH  21  22
ENDBRANCH  20  21
ENDBRANCH  18  20
ENDBRANCH   9  14
ENDBRANCH   7   9
ENDBRANCH   6   7
ENDBRANCH   5   6
ENDBRANCH   4   5
ENDBRANCH   3   4
ENDBRANCH   2   3
ENDBRANCH   1   2
BRANCH   1  27
ATOM     27  O   UNL A   1      51.327  25.136  31.963  1.00  0.00    -0.377 OA
BRANCH  27  28
ATOM     28  C   UNL A   1      50.842  24.230  32.954  1.00  0.00     0.188 C 
BRANCH  28  29
ATOM     29  C   UNL A   1      51.911  24.048  34.029  1.00  0.00     0.188 C 
BRANCH  29  30
ATOM     30  O   UNL A   1      51.471  24.309  35.366  1.00  0.00    -0.376 OA
BRANCH  30  31
ATOM     31  C   UNL A   1      50.086  24.631  35.506  1.00  0.00     0.202 C 
BRANCH  31  32
ATOM     32  C   UNL A   1      49.835  25.978  36.218  1.00  0.00     0.261 C 
BRANCH  32  33
ATOM     33  O   UNL A   1      48.556  26.567  35.932  1.00  0.00    -0.460 OA
BRANCH  33  34
ATOM     34  C   UNL A   1      48.620  27.669  35.159  1.00  0.00     0.338 C 
ATOM     35  O   UNL A   1      49.523  28.500  35.114  1.00  0.00    -0.246 OA
BRANCH  34  36
ATOM     36  C   UNL A   1      47.438  27.746  34.285  1.00  0.00     0.060 A 
ATOM     37  C   UNL A   1      47.526  28.504  33.113  1.00  0.00     0.016 A 
ATOM     38  C   UNL A   1      46.207  27.251  34.726  1.00  0.00     0.016 A 
ATOM     39  C   UNL A   1      46.362  28.872  32.441  1.00  0.00     0.010 A 
ATOM     40  C   UNL A   1      45.040  27.626  34.054  1.00  0.00     0.010 A 
ATOM     41  C   UNL A   1      45.111  28.500  32.955  1.00  0.00    -0.014 A 
BRANCH  41  42
ATOM     42  C   UNL A   1      43.906  29.249  32.515  1.00  0.00     0.031 A 
ATOM     43  C   UNL A   1      43.066  28.661  31.409  1.00  0.00     0.074 A 
ATOM     44  C   UNL A   1      43.520  30.386  33.117  1.00  0.00     0.049 A 
ATOM     45  N   UNL A   1      41.941  29.096  30.896  1.00  0.00    -0.248 NA
ATOM     46  C   UNL A   1      43.561  27.416  30.800  1.00  0.00     0.031 C 
ATOM     47  C   UNL A   1      44.228  31.044  34.209  1.00  0.00     0.029 A 
ATOM     48  N   UNL A   1      42.425  31.182  32.893  1.00  0.00    -0.354 N 
ATOM     49  C   UNL A   1      41.599  28.179  29.910  1.00  0.00     0.074 A 
ATOM     50  C   UNL A   1      42.647  27.183  29.871  1.00  0.00     0.031 C 
ATOM     51  C   UNL A   1      43.541  32.141  34.573  1.00  0.00     0.029 A 
ATOM     52  C   UNL A   1      42.357  32.272  33.726  1.00  0.00     0.049 A 
ATOM     53  H   UNL A   1      41.750  30.990  32.202  1.00  0.00     0.167 HD
ATOM     54  C   UNL A   1      40.503  28.156  29.114  1.00  0.00     0.037 A 
ATOM     55  C   UNL A   1      41.442  33.258  33.791  1.00  0.00     0.037 A 
ATOM     56  C   UNL A   1      39.457  29.140  29.144  1.00  0.00     0.049 A 
ATOM     57  C   UNL A   1      40.255  33.237  32.863  1.00  0.00     0.074 A 
ATOM     58  C   UNL A   1      38.304  29.200  28.381  1.00  0.00     0.029 A 
ATOM     59  N   UNL A   1      39.440  30.243  29.984  1.00  0.00    -0.354 N 
ATOM     60  N   UNL A   1      39.924  32.346  31.960  1.00  0.00    -0.248 NA
ATOM     61  C   UNL A   1      39.308  34.358  32.973  1.00  0.00     0.031 C 
ATOM     62  C   UNL A   1      37.607  30.361  28.734  1.00  0.00     0.029 A 
ATOM     63  C   UNL A   1      38.304  30.999  29.748  1.00  0.00     0.049 A 
ATOM     64  H   UNL A   1      40.132  30.457  30.650  1.00  0.00     0.167 HD
ATOM     65  C   UNL A   1      38.718  32.779  31.421  1.00  0.00     0.074 A 
ATOM     66  C   UNL A   1      38.372  34.008  32.103  1.00  0.00     0.031 C 
ATOM     67  C   UNL A   1      37.963  32.209  30.449  1.00  0.00     0.037 A 
BRANCH  54  68
ATOM     68  C   UNL A   1      40.402  27.034  28.124  1.00  0.00     0.057 A 
ATOM     69  C   UNL A   1      39.639  25.887  28.383  1.00  0.00     0.134 A 
ATOM     70  C   UNL A   1      41.066  27.106  26.893  1.00  0.00     0.134 A 
ATOM     71  F   UNL A   1      38.991  25.752  29.550  1.00  0.00    -0.206 F 
ATOM     72  C   UNL A   1      39.561  24.841  27.463  1.00  0.00     0.040 A 
ATOM     73  C   UNL A   1      40.977  26.076  25.956  1.00  0.00     0.040 A 
ATOM     74  F   UNL A   1      41.810  28.177  26.583  1.00  0.00    -0.206 F 
ATOM     75  C   UNL A   1      40.228  24.937  26.243  1.00  0.00     0.006 A 
ENDBRANCH  54  68
BRANCH  55  76
ATOM     76  C   UNL A   1      41.596  34.354  34.781  1.00  0.00     0.057 A 
ATOM     77  C   UNL A   1      41.062  34.247  36.070  1.00  0.00     0.134 A 
ATOM     78  C   UNL A   1      42.246  35.548  34.449  1.00  0.00     0.134 A 
ATOM     79  F   UNL A   1      40.407  33.135  36.439  1.00  0.00    -0.206 F 
ATOM     80  C   UNL A   1      41.150  35.294  36.988  1.00  0.00     0.040 A 
ATOM     81  C   UNL A   1      42.361  36.596  35.365  1.00  0.00     0.040 A 
ATOM     82  F   UNL A   1      42.778  35.715  33.230  1.00  0.00    -0.206 F 
ATOM     83  C   UNL A   1      41.804  36.473  36.636  1.00  0.00     0.006 A 
ENDBRANCH  55  76
BRANCH  67  84
ATOM     84  C   UNL A   1      36.664  32.877  30.103  1.00  0.00     0.057 A 
ATOM     85  C   UNL A   1      36.587  33.900  29.150  1.00  0.00     0.134 A 
ATOM     86  C   UNL A   1      35.470  32.463  30.708  1.00  0.00     0.134 A 
ATOM     87  F   UNL A   1      37.695  34.350  28.542  1.00  0.00    -0.206 F 
ATOM     88  C   UNL A   1      35.369  34.505  28.829  1.00  0.00     0.040 A 
ATOM     89  C   UNL A   1      34.245  33.043  30.378  1.00  0.00     0.040 A 
ATOM     90  F   UNL A   1      35.475  31.481  31.622  1.00  0.00    -0.206 F 
ATOM     91  C   UNL A   1      34.193  34.072  29.440  1.00  0.00     0.006 A 
ENDBRANCH  67  84
ENDBRANCH  41  42
ENDBRANCH  34  36
ENDBRANCH  33  34
ENDBRANCH  32  33
ENDBRANCH  31  32
ENDBRANCH  30  31
ENDBRANCH  29  30
ENDBRANCH  28  29
ENDBRANCH  27  28
ENDBRANCH   1  27
TORSDOF 26
ENDMDL
MODEL 2
REMARK VINA RESULT:      -6.8      4.480      8.457
REMARK SMILES CCC(CC)(NC(=O)NCCc1nccs1)C(=O)OCCOCCOCCOCCOC(=O)c1ccc(-c2c3nc(c(-c4c(F)cccc4F)c4ccc([nH]4)c(-c4c(F)cccc4F)c4nc(c(-c5c(F)cccc5F)c5ccc2[nH]5)C=C4)C=C3)cc1
REMARK SMILES IDX 24 1 23 2 22 3 21 4 20 5 19 6 17 7 18 8 3 9 2 10 1 11 4 12
REMARK SMILES IDX 5 13 6 14 7 15 8 17 9 18 10 20 11 21 12 22 13 23 16 24 14 25
REMARK SMILES IDX 15 26 25 27 26 28 27 29 28 30 29 31 30 32 31 33 32 34 33 35
REMARK SMILES IDX 34 36 35 37 87 38 36 39 86 40 37 41 38 42 39 43 80 44 40 45
REMARK SMILES IDX 85 46 79 47 81 48 41 49 84 50 78 51 77 52 42 54 68 55 51 56
REMARK SMILES IDX 67 57 52 58 55 59 66 60 82 61 53 62 54 63 65 65 83 66 56 67
REMARK SMILES IDX 43 68 44 69 49 70 45 71 46 72 48 73 50 74 47 75 69 76 70 77
REMARK SMILES IDX 75 78 71 79 72 80 74 81 76 82 73 83 57 84 58 85 63 86 59 87
REMARK SMILES IDX 60 88 62 89 64 90 61 91
REMARK H PARENT 6 16 9 19 81 53 55 64
REMARK Flexibility Score: inf
ROOT
ATOM      1  C   UNL A   1      50.897  28.320  25.019  1.00  0.00     0.188 C 
ENDROOT
BRANCH   1   2
ATOM      2  C   UNL A   1      49.502  27.761  24.690  1.00  0.00     0.188 C 
BRANCH   2   3
ATOM      3  O   UNL A   1      48.359  28.342  25.314  1.00  0.00    -0.376 OA
BRANCH   3   4
ATOM      4  C   UNL A   1      47.112  27.650  25.370  1.00  0.00     0.202 C 
BRANCH   4   5
ATOM      5  C   UNL A   1      45.974  28.258  26.182  1.00  0.00     0.261 C 
BRANCH   5   6
ATOM      6  O   UNL A   1      45.103  27.206  26.619  1.00  0.00    -0.461 OA
BRANCH   6   7
ATOM      7  C   UNL A   1      44.332  27.478  27.694  1.00  0.00     0.331 C 
ATOM      8  O   UNL A   1      44.670  28.269  28.569  1.00  0.00    -0.249 OA
BRANCH   7   9
ATOM      9  C   UNL A   1      42.920  26.823  27.597  1.00  0.00     0.139 C 
BRANCH   9  10
ATOM     10  C   UNL A   1      42.094  27.798  26.678  1.00  0.00     0.037 C 
ATOM     11  C   UNL A   1      42.264  29.294  26.889  1.00  0.00     0.007 C 
ENDBRANCH   9  10
BRANCH   9  12
ATOM     12  C   UNL A   1      42.356  26.730  29.036  1.00  0.00     0.037 C 
ATOM     13  C   UNL A   1      40.880  27.072  29.191  1.00  0.00     0.007 C 
ENDBRANCH   9  12
BRANCH   9  14
ATOM     14  N   UNL A   1      42.760  25.499  26.905  1.00  0.00    -0.322 N 
ATOM     15  C   UNL A   1      42.923  24.204  27.168  1.00  0.00     0.315 C 
ATOM     16  H   UNL A   1      42.438  25.627  25.984  1.00  0.00     0.166 HD
ATOM     17  O   UNL A   1      42.165  23.421  26.589  1.00  0.00    -0.249 OA
ATOM     18  N   UNL A   1      43.848  23.679  27.967  1.00  0.00    -0.338 N 
ATOM     19  H   UNL A   1      43.639  22.771  28.284  1.00  0.00     0.165 HD
BRANCH  18  20
ATOM     20  C   UNL A   1      45.108  24.202  28.455  1.00  0.00     0.125 C 
BRANCH  20  21
ATOM     21  C   UNL A   1      46.258  24.026  27.453  1.00  0.00     0.089 C 
BRANCH  21  22
ATOM     22  C   UNL A   1      45.890  23.226  26.232  1.00  0.00     0.094 A 
ATOM     23  N   UNL A   1      45.686  21.925  26.188  1.00  0.00    -0.250 NA
ATOM     24  S   UNL A   1      45.714  24.040  24.719  1.00  0.00    -0.127 S 
ATOM     25  C   UNL A   1      45.385  21.535  24.895  1.00  0.00     0.123 A 
ATOM     26  C   UNL A   1      45.366  22.544  23.960  1.00  0.00     0.087 A 
ENDBRANCH  21  22
ENDBRANCH  20  21
ENDBRANCH  18  20
ENDBRANCH   9  14
ENDBRANCH   7   9
ENDBRANCH   6   7
ENDBRANCH   5   6
ENDBRANCH   4   5
ENDBRANCH   3   4
ENDBRANCH   2   3
ENDBRANCH   1   2
BRANCH   1  27
ATOM     27  O   UNL A   1      50.951  29.449  25.873  1.00  0.00    -0.377 OA
BRANCH  27  28
ATOM     28  C   UNL A   1      51.932  30.416  25.496  1.00  0.00     0.188 C 
BRANCH  28  29
ATOM     29  C   UNL A   1      51.348  31.815  25.680  1.00  0.00     0.188 C 
BRANCH  29  30
ATOM     30  O   UNL A   1      51.306  32.610  24.490  1.00  0.00    -0.376 OA
BRANCH  30  31
ATOM     31  C   UNL A   1      51.809  33.941  24.622  1.00  0.00     0.202 C 
BRANCH  31  32
ATOM     32  C   UNL A   1      50.846  34.894  25.364  1.00  0.00     0.261 C 
BRANCH  32  33
ATOM     33  O   UNL A   1      49.537  34.982  24.779  1.00  0.00    -0.460 OA
BRANCH  33  34
ATOM     34  C   UNL A   1      48.725  35.874  25.379  1.00  0.00     0.338 C 
ATOM     35  O   UNL A   1      48.740  37.097  25.259  1.00  0.00    -0.246 OA
BRANCH  34  36
ATOM     36  C   UNL A   1      47.726  35.178  26.204  1.00  0.00     0.060 A 
ATOM     37  C   UNL A   1      47.862  35.229  27.596  1.00  0.00     0.016 A 
ATOM     38  C   UNL A   1      46.799  34.319  25.607  1.00  0.00     0.016 A 
ATOM     39  C   UNL A   1      47.152  34.330  28.391  1.00  0.00     0.010 A 
ATOM     40  C   UNL A   1      46.092  33.414  26.406  1.00  0.00     0.010 A 
ATOM     41  C   UNL A   1      46.326  33.368  27.792  1.00  0.00    -0.014 A 
BRANCH  41  42
ATOM     42  C   UNL A   1      45.945  32.165  28.575  1.00  0.00     0.031 A 
ATOM     43  C   UNL A   1      46.972  31.074  28.750  1.00  0.00     0.074 A 
ATOM     44  C   UNL A   1      44.748  32.060  29.175  1.00  0.00     0.049 A 
ATOM     45  N   UNL A   1      46.896  29.961  29.437  1.00  0.00    -0.248 NA
ATOM     46  C   UNL A   1      48.256  31.264  28.056  1.00  0.00     0.031 C 
ATOM     47  C   UNL A   1      43.680  33.050  29.103  1.00  0.00     0.029 A 
ATOM     48  N   UNL A   1      44.238  31.066  29.973  1.00  0.00    -0.354 N 
ATOM     49  C   UNL A   1      48.119  29.325  29.258  1.00  0.00     0.074 A 
ATOM     50  C   UNL A   1      48.906  30.155  28.372  1.00  0.00     0.031 C 
ATOM     51  C   UNL A   1      42.640  32.622  29.842  1.00  0.00     0.029 A 
ATOM     52  C   UNL A   1      42.965  31.319  30.420  1.00  0.00     0.049 A 
ATOM     53  H   UNL A   1      44.738  30.250  30.204  1.00  0.00     0.167 HD
ATOM     54  C   UNL A   1      48.556  28.160  29.791  1.00  0.00     0.037 A 
ATOM     55  C   UNL A   1      42.158  30.578  31.204  1.00  0.00     0.037 A 
ATOM     56  C   UNL A   1      47.783  27.328  30.671  1.00  0.00     0.049 A 
ATOM     57  C   UNL A   1      42.650  29.262  31.750  1.00  0.00     0.074 A 
ATOM     58  C   UNL A   1      48.142  26.132  31.268  1.00  0.00     0.029 A 
ATOM     59  N   UNL A   1      46.488  27.606  31.078  1.00  0.00    -0.354 N 
ATOM     60  N   UNL A   1      43.820  28.689  31.602  1.00  0.00    -0.248 NA
ATOM     61  C   UNL A   1      41.708  28.495  32.579  1.00  0.00     0.031 C 
ATOM     62  C   UNL A   1      47.048  25.667  32.007  1.00  0.00     0.029 A 
ATOM     63  C   UNL A   1      46.025  26.597  31.906  1.00  0.00     0.049 A 
ATOM     64  H   UNL A   1      45.972  28.403  30.817  1.00  0.00     0.167 HD
ATOM     65  C   UNL A   1      43.767  27.516  32.346  1.00  0.00     0.074 A 
ATOM     66  C   UNL A   1      42.453  27.463  32.950  1.00  0.00     0.031 C 
ATOM     67  C   UNL A   1      44.722  26.568  32.516  1.00  0.00     0.037 A 
BRANCH  54  68
ATOM     68  C   UNL A   1      49.936  27.710  29.410  1.00  0.00     0.057 A 
ATOM     69  C   UNL A   1      50.154  26.798  28.369  1.00  0.00     0.134 A 
ATOM     70  C   UNL A   1      51.059  28.203  30.085  1.00  0.00     0.134 A 
ATOM     71  F   UNL A   1      49.118  26.277  27.694  1.00  0.00    -0.206 F 
ATOM     72  C   UNL A   1      51.439  26.373  28.031  1.00  0.00     0.040 A 
ATOM     73  C   UNL A   1      52.350  27.803  29.741  1.00  0.00     0.040 A 
ATOM     74  F   UNL A   1      50.918  29.080  31.090  1.00  0.00    -0.206 F 
ATOM     75  C   UNL A   1      52.542  26.880  28.714  1.00  0.00     0.006 A 
ENDBRANCH  54  68
BRANCH  55  76
ATOM     76  C   UNL A   1      40.796  31.063  31.541  1.00  0.00     0.057 A 
ATOM     77  C   UNL A   1      39.726  30.893  30.654  1.00  0.00     0.134 A 
ATOM     78  C   UNL A   1      40.540  31.742  32.738  1.00  0.00     0.134 A 
ATOM     79  F   UNL A   1      39.915  30.272  29.480  1.00  0.00    -0.206 F 
ATOM     80  C   UNL A   1      38.456  31.398  30.935  1.00  0.00     0.040 A 
ATOM     81  C   UNL A   1      39.269  32.232  33.043  1.00  0.00     0.040 A 
ATOM     82  F   UNL A   1      41.522  31.938  33.629  1.00  0.00    -0.206 F 
ATOM     83  C   UNL A   1      38.224  32.068  32.135  1.00  0.00     0.006 A 
ENDBRANCH  55  76
BRANCH  67  84
ATOM     84  C   UNL A   1      44.402  25.422  33.430  1.00  0.00     0.057 A 
ATOM     85  C   UNL A   1      44.067  24.153  32.941  1.00  0.00     0.134 A 
ATOM     86  C   UNL A   1      44.465  25.584  34.821  1.00  0.00     0.134 A 
ATOM     87  F   UNL A   1      43.979  23.934  31.621  1.00  0.00    -0.206 F 
ATOM     88  C   UNL A   1      43.783  23.093  33.804  1.00  0.00     0.040 A 
ATOM     89  C   UNL A   1      44.206  24.526  35.692  1.00  0.00     0.040 A 
ATOM     90  F   UNL A   1      44.788  26.772  35.353  1.00  0.00    -0.206 F 
ATOM     91  C   UNL A   1      43.858  23.276  35.183  1.00  0.00     0.006 A 
ENDBRANCH  67  84
ENDBRANCH  41  42
ENDBRANCH  34  36
ENDBRANCH  33  34
ENDBRANCH  32  33
ENDBRANCH  31  32
ENDBRANCH  30  31
ENDBRANCH  29  30
ENDBRANCH  28  29
ENDBRANCH  27  28
ENDBRANCH   1  27
TORSDOF 26
ENDMDL
MODEL 3
REMARK VINA RESULT:      -6.4      6.899     12.245
REMARK SMILES CCC(CC)(NC(=O)NCCc1nccs1)C(=O)OCCOCCOCCOCCOC(=O)c1ccc(-c2c3nc(c(-c4c(F)cccc4F)c4ccc([nH]4)c(-c4c(F)cccc4F)c4nc(c(-c5c(F)cccc5F)c5ccc2[nH]5)C=C4)C=C3)cc1
REMARK SMILES IDX 24 1 23 2 22 3 21 4 20 5 19 6 17 7 18 8 3 9 2 10 1 11 4 12
REMARK SMILES IDX 5 13 6 14 7 15 8 17 9 18 10 20 11 21 12 22 13 23 16 24 14 25
REMARK SMILES IDX 15 26 25 27 26 28 27 29 28 30 29 31 30 32 31 33 32 34 33 35
REMARK SMILES IDX 34 36 35 37 87 38 36 39 86 40 37 41 38 42 39 43 80 44 40 45
REMARK SMILES IDX 85 46 79 47 81 48 41 49 84 50 78 51 77 52 42 54 68 55 51 56
REMARK SMILES IDX 67 57 52 58 55 59 66 60 82 61 53 62 54 63 65 65 83 66 56 67
REMARK SMILES IDX 43 68 44 69 49 70 45 71 46 72 48 73 50 74 47 75 69 76 70 77
REMARK SMILES IDX 75 78 71 79 72 80 74 81 76 82 73 83 57 84 58 85 63 86 59 87
REMARK SMILES IDX 60 88 62 89 64 90 61 91
REMARK H PARENT 6 16 9 19 81 53 55 64
REMARK Flexibility Score: inf
ROOT
ATOM      1  C   UNL A   1      39.978  26.093  27.301  1.00  0.00     0.188 C 
ENDROOT
BRANCH   1   2
ATOM      2  C   UNL A   1      39.520  24.661  26.981  1.00  0.00     0.188 C 
BRANCH   2   3
ATOM      3  O   UNL A   1      38.574  24.454  25.933  1.00  0.00    -0.376 OA
BRANCH   3   4
ATOM      4  C   UNL A   1      37.761  23.283  25.889  1.00  0.00     0.202 C 
BRANCH   4   5
ATOM      5  C   UNL A   1      36.266  23.421  26.154  1.00  0.00     0.261 C 
BRANCH   5   6
ATOM      6  O   UNL A   1      35.581  22.331  25.521  1.00  0.00    -0.461 OA
BRANCH   6   7
ATOM      7  C   UNL A   1      34.485  22.653  24.800  1.00  0.00     0.331 C 
ATOM      8  O   UNL A   1      34.464  23.592  24.011  1.00  0.00    -0.249 OA
BRANCH   7   9
ATOM      9  C   UNL A   1      33.342  21.603  24.950  1.00  0.00     0.139 C 
BRANCH   9  10
ATOM     10  C   UNL A   1      32.275  22.308  25.867  1.00  0.00     0.037 C 
ATOM     11  C   UNL A   1      32.738  22.861  27.206  1.00  0.00     0.007 C 
ENDBRANCH   9  10
BRANCH   9  12
ATOM     12  C   UNL A   1      33.958  20.341  25.604  1.00  0.00     0.037 C 
ATOM     13  C   UNL A   1      33.823  19.051  24.805  1.00  0.00     0.007 C 
ENDBRANCH   9  12
BRANCH   9  14
ATOM     14  N   UNL A   1      32.535  21.205  23.747  1.00  0.00    -0.322 N 
ATOM     15  C   UNL A   1      32.089  21.745  22.614  1.00  0.00     0.315 C 
ATOM     16  H   UNL A   1      32.252  20.265  23.816  1.00  0.00     0.166 HD
ATOM     17  O   UNL A   1      31.974  20.987  21.647  1.00  0.00    -0.249 OA
ATOM     18  N   UNL A   1      31.725  23.013  22.443  1.00  0.00    -0.338 N 
ATOM     19  H   UNL A   1      31.720  23.307  21.504  1.00  0.00     0.165 HD
BRANCH  18  20
ATOM     20  C   UNL A   1      31.336  24.039  23.389  1.00  0.00     0.125 C 
BRANCH  20  21
ATOM     21  C   UNL A   1      31.413  25.456  22.803  1.00  0.00     0.089 C 
BRANCH  21  22
ATOM     22  C   UNL A   1      32.325  26.384  23.561  1.00  0.00     0.094 A 
ATOM     23  N   UNL A   1      32.586  26.332  24.852  1.00  0.00    -0.250 NA
ATOM     24  S   UNL A   1      33.120  27.658  22.710  1.00  0.00    -0.127 S 
ATOM     25  C   UNL A   1      33.450  27.354  25.202  1.00  0.00     0.123 A 
ATOM     26  C   UNL A   1      33.839  28.181  24.173  1.00  0.00     0.087 A 
ENDBRANCH  21  22
ENDBRANCH  20  21
ENDBRANCH  18  20
ENDBRANCH   9  14
ENDBRANCH   7   9
ENDBRANCH   6   7
ENDBRANCH   5   6
ENDBRANCH   4   5
ENDBRANCH   3   4
ENDBRANCH   2   3
ENDBRANCH   1   2
BRANCH   1  27
ATOM     27  O   UNL A   1      39.083  26.903  28.044  1.00  0.00    -0.377 OA
BRANCH  27  28
ATOM     28  C   UNL A   1      39.707  28.002  28.707  1.00  0.00     0.188 C 
BRANCH  28  29
ATOM     29  C   UNL A   1      38.913  29.274  28.417  1.00  0.00     0.188 C 
BRANCH  29  30
ATOM     30  O   UNL A   1      37.493  29.135  28.525  1.00  0.00    -0.376 OA
BRANCH  30  31
ATOM     31  C   UNL A   1      36.736  29.700  27.453  1.00  0.00     0.202 C 
BRANCH  31  32
ATOM     32  C   UNL A   1      35.950  30.968  27.854  1.00  0.00     0.261 C 
BRANCH  32  33
ATOM     33  O   UNL A   1      35.476  30.963  29.210  1.00  0.00    -0.460 OA
BRANCH  33  34
ATOM     34  C   UNL A   1      35.091  32.172  29.662  1.00  0.00     0.338 C 
ATOM     35  O   UNL A   1      34.169  32.868  29.243  1.00  0.00    -0.246 OA
BRANCH  34  36
ATOM     36  C   UNL A   1      35.914  32.570  30.815  1.00  0.00     0.060 A 
ATOM     37  C   UNL A   1      35.926  33.917  31.190  1.00  0.00     0.016 A 
ATOM     38  C   UNL A   1      36.816  31.663  31.378  1.00  0.00     0.016 A 
ATOM     39  C   UNL A   1      36.923  34.386  32.044  1.00  0.00     0.010 A 
ATOM     40  C   UNL A   1      37.819  32.136  32.229  1.00  0.00     0.010 A 
ATOM     41  C   UNL A   1      37.920  33.512  32.501  1.00  0.00    -0.014 A 
BRANCH  41  42
ATOM     42  C   UNL A   1      39.191  34.082  33.015  1.00  0.00     0.031 A 
ATOM     43  C   UNL A   1      39.315  34.327  34.498  1.00  0.00     0.074 A 
ATOM     44  C   UNL A   1      40.239  34.319  32.207  1.00  0.00     0.049 A 
ATOM     45  N   UNL A   1      40.341  34.761  35.188  1.00  0.00    -0.248 NA
ATOM     46  C   UNL A   1      38.120  34.047  35.311  1.00  0.00     0.031 C 
ATOM     47  C   UNL A   1      40.256  34.103  30.765  1.00  0.00     0.029 A 
ATOM     48  N   UNL A   1      41.496  34.786  32.497  1.00  0.00    -0.354 N 
ATOM     49  C   UNL A   1      39.914  34.802  36.509  1.00  0.00     0.074 A 
ATOM     50  C   UNL A   1      38.530  34.384  36.524  1.00  0.00     0.031 C 
ATOM     51  C   UNL A   1      41.474  34.425  30.293  1.00  0.00     0.029 A 
ATOM     52  C   UNL A   1      42.312  34.888  31.398  1.00  0.00     0.049 A 
ATOM     53  H   UNL A   1      41.786  35.025  33.407  1.00  0.00     0.167 HD
ATOM     54  C   UNL A   1      40.613  35.144  37.618  1.00  0.00     0.037 A 
ATOM     55  C   UNL A   1      43.588  35.308  31.301  1.00  0.00     0.037 A 
ATOM     56  C   UNL A   1      41.988  35.561  37.614  1.00  0.00     0.049 A 
ATOM     57  C   UNL A   1      44.332  35.728  32.542  1.00  0.00     0.074 A 
ATOM     58  C   UNL A   1      42.784  35.923  38.687  1.00  0.00     0.029 A 
ATOM     59  N   UNL A   1      42.771  35.676  36.476  1.00  0.00    -0.354 N 
ATOM     60  N   UNL A   1      43.929  35.728  33.790  1.00  0.00    -0.248 NA
ATOM     61  C   UNL A   1      45.714  36.198  32.360  1.00  0.00     0.031 C 
ATOM     62  C   UNL A   1      44.041  36.292  38.193  1.00  0.00     0.029 A 
ATOM     63  C   UNL A   1      44.038  36.118  36.818  1.00  0.00     0.049 A 
ATOM     64  H   UNL A   1      42.471  35.474  35.561  1.00  0.00     0.167 HD
ATOM     65  C   UNL A   1      45.015  36.163  34.541  1.00  0.00     0.074 A 
ATOM     66  C   UNL A   1      46.096  36.409  33.611  1.00  0.00     0.031 C 
ATOM     67  C   UNL A   1      45.110  36.340  35.883  1.00  0.00     0.037 A 
BRANCH  54  68
ATOM     68  C   UNL A   1      39.882  35.101  38.927  1.00  0.00     0.057 A 
ATOM     69  C   UNL A   1      39.788  33.925  39.682  1.00  0.00     0.134 A 
ATOM     70  C   UNL A   1      39.274  36.253  39.442  1.00  0.00     0.134 A 
ATOM     71  F   UNL A   1      40.336  32.785  39.235  1.00  0.00    -0.206 F 
ATOM     72  C   UNL A   1      39.093  33.890  40.892  1.00  0.00     0.040 A 
ATOM     73  C   UNL A   1      38.595  36.235  40.661  1.00  0.00     0.040 A 
ATOM     74  F   UNL A   1      39.329  37.411  38.769  1.00  0.00    -0.206 F 
ATOM     75  C   UNL A   1      38.499  35.049  41.387  1.00  0.00     0.006 A 
ENDBRANCH  54  68
BRANCH  55  76
ATOM     76  C   UNL A   1      44.263  35.344  29.978  1.00  0.00     0.057 A 
ATOM     77  C   UNL A   1      44.154  36.459  29.139  1.00  0.00     0.134 A 
ATOM     78  C   UNL A   1      44.997  34.250  29.506  1.00  0.00     0.134 A 
ATOM     79  F   UNL A   1      43.442  37.528  29.527  1.00  0.00    -0.206 F 
ATOM     80  C   UNL A   1      44.734  36.479  27.870  1.00  0.00     0.040 A 
ATOM     81  C   UNL A   1      45.603  34.265  28.249  1.00  0.00     0.040 A 
ATOM     82  F   UNL A   1      45.138  33.151  30.262  1.00  0.00    -0.206 F 
ATOM     83  C   UNL A   1      45.464  35.379  27.423  1.00  0.00     0.006 A 
ENDBRANCH  55  76
BRANCH  67  84
ATOM     84  C   UNL A   1      46.439  36.770  36.430  1.00  0.00     0.057 A 
ATOM     85  C   UNL A   1      47.424  35.845  36.800  1.00  0.00     0.134 A 
ATOM     86  C   UNL A   1      46.750  38.131  36.554  1.00  0.00     0.134 A 
ATOM     87  F   UNL A   1      47.187  34.528  36.716  1.00  0.00    -0.206 F 
ATOM     88  C   UNL A   1      48.661  36.260  37.297  1.00  0.00     0.040 A 
ATOM     89  C   UNL A   1      47.991  38.557  37.026  1.00  0.00     0.040 A 
ATOM     90  F   UNL A   1      45.853  39.067  36.208  1.00  0.00    -0.206 F 
ATOM     91  C   UNL A   1      48.949  37.619  37.406  1.00  0.00     0.006 A 
ENDBRANCH  67  84
ENDBRANCH  41  42
ENDBRANCH  34  36
ENDBRANCH  33  34
ENDBRANCH  32  33
ENDBRANCH  31  32
ENDBRANCH  30  31
ENDBRANCH  29  30
ENDBRANCH  28  29
ENDBRANCH  27  28
ENDBRANCH   1  27
TORSDOF 26
ENDMDL
