MODEL 1
REMARK VINA RESULT:     -10.1      0.000      0.000
REMARK SMILES NC(=O)CC[C@H](NC(=O)N[C@H]1CCOC1)C(=O)OCCOCCOCCOCCOC(=O)c1ccc(-c2c3nc(c(-c4c(F)cccc4F)c4ccc([nH]4)c(-c4c(F)cccc4F)c4nc(c(-c5c(F)cccc5F)c5ccc2[nH]5)C=C4)C=C3)cc1
REMARK SMILES IDX 23 1 22 2 21 3 20 4 19 5 18 6 16 7 17 8 6 9 5 10 4 11 2 12
REMARK SMILES IDX 1 13 3 16 7 17 8 18 9 20 10 21 11 23 12 24 15 25 13 26 14 27
REMARK SMILES IDX 24 28 25 29 26 30 27 31 28 32 29 33 30 34 31 35 32 36 33 37
REMARK SMILES IDX 34 38 86 39 35 40 85 41 36 42 37 43 38 44 79 45 39 46 84 47
REMARK SMILES IDX 78 48 80 49 40 50 83 51 77 52 76 53 41 55 67 56 50 57 66 58
REMARK SMILES IDX 51 59 54 60 65 61 81 62 52 63 53 64 64 66 82 67 55 68 42 69
REMARK SMILES IDX 43 70 48 71 44 72 45 73 47 74 49 75 46 76 68 77 69 78 74 79
REMARK SMILES IDX 70 80 71 81 73 82 75 83 72 84 56 85 57 86 62 87 58 88 59 89
REMARK SMILES IDX 61 90 63 91 60 92
REMARK H PARENT 1 14 1 15 7 19 10 22 80 54 54 65
REMARK Flexibility Score: inf
ROOT
ATOM      1  C   UNL A   1      34.127  33.944  29.119  1.00  0.00     0.188 C 
ENDROOT
BRANCH   1   2
ATOM      2  C   UNL A   1      34.104  32.421  28.886  1.00  0.00     0.188 C 
BRANCH   2   3
ATOM      3  O   UNL A   1      33.938  31.896  27.575  1.00  0.00    -0.376 OA
BRANCH   3   4
ATOM      4  C   UNL A   1      32.822  31.064  27.277  1.00  0.00     0.202 C 
BRANCH   4   5
ATOM      5  C   UNL A   1      33.024  29.808  26.423  1.00  0.00     0.261 C 
BRANCH   5   6
ATOM      6  O   UNL A   1      32.149  29.736  25.284  1.00  0.00    -0.462 OA
BRANCH   6   7
ATOM      7  C   UNL A   1      32.591  29.086  24.181  1.00  0.00     0.328 C 
ATOM      8  O   UNL A   1      33.731  28.652  24.055  1.00  0.00    -0.250 OA
BRANCH   7   9
ATOM      9  C   UNL A   1      31.476  28.836  23.138  1.00  0.00     0.194 C 
BRANCH   9  10
ATOM     10  C   UNL A   1      30.083  29.062  23.731  1.00  0.00     0.047 C 
BRANCH  10  11
ATOM     11  C   UNL A   1      29.448  30.431  23.483  1.00  0.00     0.102 C 
BRANCH  11  12
ATOM     12  C   UNL A   1      27.966  30.399  23.198  1.00  0.00     0.217 C 
ATOM     13  N   UNL A   1      27.583  29.510  22.235  1.00  0.00    -0.370 N 
ATOM     14  H   UNL A   1      26.633  29.428  21.991  1.00  0.00     0.159 HD
ATOM     15  H   UNL A   1      28.257  28.952  21.785  1.00  0.00     0.159 HD
ATOM     16  O   UNL A   1      27.150  31.091  23.794  1.00  0.00    -0.275 OA
ENDBRANCH  11  12
ENDBRANCH  10  11
ENDBRANCH   9  10
BRANCH   9  17
ATOM     17  N   UNL A   1      31.594  27.725  22.182  1.00  0.00    -0.325 N 
ATOM     18  C   UNL A   1      31.382  26.438  22.002  1.00  0.00     0.315 C 
ATOM     19  H   UNL A   1      31.986  28.083  21.353  1.00  0.00     0.166 HD
ATOM     20  O   UNL A   1      31.463  26.063  20.822  1.00  0.00    -0.249 OA
ATOM     21  N   UNL A   1      31.074  25.506  22.880  1.00  0.00    -0.333 N 
ATOM     22  H   UNL A   1      30.775  24.697  22.406  1.00  0.00     0.165 HD
BRANCH  21  23
ATOM     23  C   UNL A   1      31.027  25.268  24.311  1.00  0.00     0.112 C 
ATOM     24  C   UNL A   1      32.344  25.288  25.035  1.00  0.00     0.056 C 
ATOM     25  C   UNL A   1      30.065  26.100  25.132  1.00  0.00     0.185 C 
ATOM     26  C   UNL A   1      32.154  26.284  26.155  1.00  0.00     0.162 C 
ATOM     27  O   UNL A   1      30.758  26.537  26.307  1.00  0.00    -0.379 OA
ENDBRANCH  21  23
ENDBRANCH   9  17
ENDBRANCH   7   9
ENDBRANCH   6   7
ENDBRANCH   5   6
ENDBRANCH   4   5
ENDBRANCH   3   4
ENDBRANCH   2   3
ENDBRANCH   1   2
BRANCH   1  28
ATOM     28  O   UNL A   1      32.874  34.523  29.426  1.00  0.00    -0.377 OA
BRANCH  28  29
ATOM     29  C   UNL A   1      32.906  35.845  29.956  1.00  0.00     0.188 C 
BRANCH  29  30
ATOM     30  C   UNL A   1      32.845  35.986  31.493  1.00  0.00     0.188 C 
BRANCH  30  31
ATOM     31  O   UNL A   1      34.118  36.001  32.123  1.00  0.00    -0.376 OA
BRANCH  31  32
ATOM     32  C   UNL A   1      34.364  35.173  33.250  1.00  0.00     0.202 C 
BRANCH  32  33
ATOM     33  C   UNL A   1      34.163  33.652  33.125  1.00  0.00     0.261 C 
BRANCH  33  34
ATOM     34  O   UNL A   1      35.198  32.919  32.457  1.00  0.00    -0.460 OA
BRANCH  34  35
ATOM     35  C   UNL A   1      36.214  32.457  33.209  1.00  0.00     0.338 C 
ATOM     36  O   UNL A   1      36.373  32.613  34.411  1.00  0.00    -0.246 OA
BRANCH  35  37
ATOM     37  C   UNL A   1      37.021  31.546  32.377  1.00  0.00     0.060 A 
ATOM     38  C   UNL A   1      37.948  30.706  33.007  1.00  0.00     0.016 A 
ATOM     39  C   UNL A   1      36.894  31.549  30.985  1.00  0.00     0.016 A 
ATOM     40  C   UNL A   1      38.809  29.925  32.244  1.00  0.00     0.010 A 
ATOM     41  C   UNL A   1      37.776  30.786  30.218  1.00  0.00     0.010 A 
ATOM     42  C   UNL A   1      38.776  30.022  30.848  1.00  0.00    -0.014 A 
BRANCH  42  43
ATOM     43  C   UNL A   1      39.960  29.571  30.081  1.00  0.00     0.031 A 
ATOM     44  C   UNL A   1      41.080  30.557  29.882  1.00  0.00     0.074 A 
ATOM     45  C   UNL A   1      40.074  28.309  29.636  1.00  0.00     0.049 A 
ATOM     46  N   UNL A   1      42.212  30.416  29.241  1.00  0.00    -0.248 NA
ATOM     47  C   UNL A   1      40.894  31.886  30.489  1.00  0.00     0.031 C 
ATOM     48  C   UNL A   1      39.084  27.251  29.821  1.00  0.00     0.029 A 
ATOM     49  N   UNL A   1      41.086  27.708  28.932  1.00  0.00    -0.354 N 
ATOM     50  C   UNL A   1      42.863  31.638  29.362  1.00  0.00     0.074 A 
ATOM     51  C   UNL A   1      41.989  32.519  30.102  1.00  0.00     0.031 C 
ATOM     52  C   UNL A   1      39.534  26.128  29.234  1.00  0.00     0.029 A 
ATOM     53  C   UNL A   1      40.827  26.401  28.608  1.00  0.00     0.049 A 
ATOM     54  H   UNL A   1      41.919  28.171  28.683  1.00  0.00     0.167 HD
ATOM     55  C   UNL A   1      44.088  31.992  28.906  1.00  0.00     0.037 A 
ATOM     56  C   UNL A   1      41.548  25.533  27.872  1.00  0.00     0.037 A 
ATOM     57  C   UNL A   1      44.953  31.112  28.168  1.00  0.00     0.049 A 
ATOM     58  C   UNL A   1      42.876  25.974  27.308  1.00  0.00     0.074 A 
ATOM     59  C   UNL A   1      46.212  31.369  27.656  1.00  0.00     0.029 A 
ATOM     60  N   UNL A   1      44.641  29.803  27.829  1.00  0.00    -0.354 N 
ATOM     61  N   UNL A   1      43.491  27.127  27.431  1.00  0.00    -0.248 NA
ATOM     62  C   UNL A   1      43.616  24.985  26.513  1.00  0.00     0.031 C 
ATOM     63  C   UNL A   1      46.639  30.234  26.960  1.00  0.00     0.029 A 
ATOM     64  C   UNL A   1      45.677  29.245  27.100  1.00  0.00     0.049 A 
ATOM     65  H   UNL A   1      43.807  29.340  28.073  1.00  0.00     0.167 HD
ATOM     66  C   UNL A   1      44.706  26.986  26.771  1.00  0.00     0.074 A 
ATOM     67  C   UNL A   1      44.743  25.634  26.255  1.00  0.00     0.031 C 
ATOM     68  C   UNL A   1      45.705  27.890  26.610  1.00  0.00     0.037 A 
BRANCH  55  69
ATOM     69  C   UNL A   1      44.540  33.402  29.164  1.00  0.00     0.057 A 
ATOM     70  C   UNL A   1      44.261  34.449  28.276  1.00  0.00     0.134 A 
ATOM     71  C   UNL A   1      45.255  33.716  30.326  1.00  0.00     0.134 A 
ATOM     72  F   UNL A   1      43.598  34.214  27.133  1.00  0.00    -0.206 F 
ATOM     73  C   UNL A   1      44.702  35.751  28.521  1.00  0.00     0.040 A 
ATOM     74  C   UNL A   1      45.673  35.019  30.598  1.00  0.00     0.040 A 
ATOM     75  F   UNL A   1      45.556  32.761  31.219  1.00  0.00    -0.206 F 
ATOM     76  C   UNL A   1      45.404  36.040  29.690  1.00  0.00     0.006 A 
ENDBRANCH  55  69
BRANCH  56  77
ATOM     77  C   UNL A   1      41.035  24.164  27.613  1.00  0.00     0.057 A 
ATOM     78  C   UNL A   1      41.554  23.052  28.288  1.00  0.00     0.134 A 
ATOM     79  C   UNL A   1      40.039  23.929  26.658  1.00  0.00     0.134 A 
ATOM     80  F   UNL A   1      42.526  23.208  29.199  1.00  0.00    -0.206 F 
ATOM     81  C   UNL A   1      41.121  21.755  28.005  1.00  0.00     0.040 A 
ATOM     82  C   UNL A   1      39.574  22.641  26.385  1.00  0.00     0.040 A 
ATOM     83  F   UNL A   1      39.498  24.949  25.977  1.00  0.00    -0.206 F 
ATOM     84  C   UNL A   1      40.124  21.549  27.053  1.00  0.00     0.006 A 
ENDBRANCH  56  77
BRANCH  68  85
ATOM     85  C   UNL A   1      46.953  27.424  25.914  1.00  0.00     0.057 A 
ATOM     86  C   UNL A   1      47.146  27.576  24.534  1.00  0.00     0.134 A 
ATOM     87  C   UNL A   1      47.990  26.832  26.647  1.00  0.00     0.134 A 
ATOM     88  F   UNL A   1      46.192  28.128  23.770  1.00  0.00    -0.206 F 
ATOM     89  C   UNL A   1      48.308  27.121  23.906  1.00  0.00     0.040 A 
ATOM     90  C   UNL A   1      49.169  26.405  26.036  1.00  0.00     0.040 A 
ATOM     91  F   UNL A   1      47.880  26.668  27.975  1.00  0.00    -0.206 F 
ATOM     92  C   UNL A   1      49.326  26.538  24.659  1.00  0.00     0.006 A 
ENDBRANCH  68  85
ENDBRANCH  42  43
ENDBRANCH  35  37
ENDBRANCH  34  35
ENDBRANCH  33  34
ENDBRANCH  32  33
ENDBRANCH  31  32
ENDBRANCH  30  31
ENDBRANCH  29  30
ENDBRANCH  28  29
ENDBRANCH   1  28
TORSDOF 25
ENDMDL
MODEL 2
REMARK VINA RESULT:      -9.9      1.400      2.258
REMARK SMILES NC(=O)CC[C@H](NC(=O)N[C@H]1CCOC1)C(=O)OCCOCCOCCOCCOC(=O)c1ccc(-c2c3nc(c(-c4c(F)cccc4F)c4ccc([nH]4)c(-c4c(F)cccc4F)c4nc(c(-c5c(F)cccc5F)c5ccc2[nH]5)C=C4)C=C3)cc1
REMARK SMILES IDX 23 1 22 2 21 3 20 4 19 5 18 6 16 7 17 8 6 9 5 10 4 11 2 12
REMARK SMILES IDX 1 13 3 16 7 17 8 18 9 20 10 21 11 23 12 24 15 25 13 26 14 27
REMARK SMILES IDX 24 28 25 29 26 30 27 31 28 32 29 33 30 34 31 35 32 36 33 37
REMARK SMILES IDX 34 38 86 39 35 40 85 41 36 42 37 43 38 44 79 45 39 46 84 47
REMARK SMILES IDX 78 48 80 49 40 50 83 51 77 52 76 53 41 55 67 56 50 57 66 58
REMARK SMILES IDX 51 59 54 60 65 61 81 62 52 63 53 64 64 66 82 67 55 68 42 69
REMARK SMILES IDX 43 70 48 71 44 72 45 73 47 74 49 75 46 76 68 77 69 78 74 79
REMARK SMILES IDX 70 80 71 81 73 82 75 83 72 84 56 85 57 86 62 87 58 88 59 89
REMARK SMILES IDX 61 90 63 91 60 92
REMARK H PARENT 1 14 1 15 7 19 10 22 80 54 54 65
REMARK Flexibility Score: inf
ROOT
ATOM      1  C   UNL A   1      34.520  32.489  28.912  1.00  0.00     0.188 C 
ENDROOT
BRANCH   1   2
ATOM      2  C   UNL A   1      34.228  31.493  27.772  1.00  0.00     0.188 C 
BRANCH   2   3
ATOM      3  O   UNL A   1      35.082  30.376  27.556  1.00  0.00    -0.376 OA
BRANCH   3   4
ATOM      4  C   UNL A   1      34.525  29.079  27.369  1.00  0.00     0.202 C 
BRANCH   4   5
ATOM      5  C   UNL A   1      33.201  28.928  26.613  1.00  0.00     0.261 C 
BRANCH   5   6
ATOM      6  O   UNL A   1      32.897  27.571  26.245  1.00  0.00    -0.462 OA
BRANCH   6   7
ATOM      7  C   UNL A   1      31.756  27.022  26.724  1.00  0.00     0.328 C 
ATOM      8  O   UNL A   1      31.118  27.484  27.665  1.00  0.00    -0.250 OA
BRANCH   7   9
ATOM      9  C   UNL A   1      31.265  25.818  25.886  1.00  0.00     0.194 C 
BRANCH   9  10
ATOM     10  C   UNL A   1      30.837  26.242  24.479  1.00  0.00     0.047 C 
BRANCH  10  11
ATOM     11  C   UNL A   1      30.373  27.689  24.312  1.00  0.00     0.102 C 
BRANCH  11  12
ATOM     12  C   UNL A   1      29.660  27.979  23.013  1.00  0.00     0.217 C 
ATOM     13  N   UNL A   1      28.299  28.044  23.104  1.00  0.00    -0.370 N 
ATOM     14  H   UNL A   1      27.761  28.229  22.300  1.00  0.00     0.159 HD
ATOM     15  H   UNL A   1      27.858  27.905  23.972  1.00  0.00     0.159 HD
ATOM     16  O   UNL A   1      30.243  28.169  21.953  1.00  0.00    -0.275 OA
ENDBRANCH  11  12
ENDBRANCH  10  11
ENDBRANCH   9  10
BRANCH   9  17
ATOM     17  N   UNL A   1      30.456  24.762  26.513  1.00  0.00    -0.325 N 
ATOM     18  C   UNL A   1      30.404  23.478  26.800  1.00  0.00     0.315 C 
ATOM     19  H   UNL A   1      29.630  25.178  26.851  1.00  0.00     0.166 HD
ATOM     20  O   UNL A   1      29.518  23.167  27.611  1.00  0.00    -0.249 OA
ATOM     21  N   UNL A   1      31.163  22.491  26.373  1.00  0.00    -0.333 N 
ATOM     22  H   UNL A   1      31.007  21.694  26.929  1.00  0.00     0.165 HD
BRANCH  21  23
ATOM     23  C   UNL A   1      32.154  22.180  25.359  1.00  0.00     0.112 C 
ATOM     24  C   UNL A   1      31.796  22.536  23.943  1.00  0.00     0.056 C 
ATOM     25  C   UNL A   1      33.570  22.665  25.585  1.00  0.00     0.185 C 
ATOM     26  C   UNL A   1      32.948  23.381  23.454  1.00  0.00     0.162 C 
ATOM     27  O   UNL A   1      34.044  23.222  24.354  1.00  0.00    -0.379 OA
ENDBRANCH  21  23
ENDBRANCH   9  17
ENDBRANCH   7   9
ENDBRANCH   6   7
ENDBRANCH   5   6
ENDBRANCH   4   5
ENDBRANCH   3   4
ENDBRANCH   2   3
ENDBRANCH   1   2
BRANCH   1  28
ATOM     28  O   UNL A   1      34.512  33.851  28.535  1.00  0.00    -0.377 OA
BRANCH  28  29
ATOM     29  C   UNL A   1      33.267  34.532  28.668  1.00  0.00     0.188 C 
BRANCH  29  30
ATOM     30  C   UNL A   1      33.134  35.529  29.839  1.00  0.00     0.188 C 
BRANCH  30  31
ATOM     31  O   UNL A   1      32.863  34.917  31.092  1.00  0.00    -0.376 OA
BRANCH  31  32
ATOM     32  C   UNL A   1      33.746  35.114  32.187  1.00  0.00     0.202 C 
BRANCH  32  33
ATOM     33  C   UNL A   1      35.155  34.495  32.139  1.00  0.00     0.261 C 
BRANCH  33  34
ATOM     34  O   UNL A   1      35.238  33.072  32.290  1.00  0.00    -0.460 OA
BRANCH  34  35
ATOM     35  C   UNL A   1      36.193  32.590  33.105  1.00  0.00     0.338 C 
ATOM     36  O   UNL A   1      36.282  32.750  34.314  1.00  0.00    -0.246 OA
BRANCH  35  37
ATOM     37  C   UNL A   1      37.026  31.653  32.329  1.00  0.00     0.060 A 
ATOM     38  C   UNL A   1      38.020  30.927  32.997  1.00  0.00     0.016 A 
ATOM     39  C   UNL A   1      36.855  31.521  30.948  1.00  0.00     0.016 A 
ATOM     40  C   UNL A   1      38.902  30.129  32.276  1.00  0.00     0.010 A 
ATOM     41  C   UNL A   1      37.757  30.741  30.221  1.00  0.00     0.010 A 
ATOM     42  C   UNL A   1      38.819  30.095  30.880  1.00  0.00    -0.014 A 
BRANCH  42  43
ATOM     43  C   UNL A   1      40.002  29.643  30.113  1.00  0.00     0.031 A 
ATOM     44  C   UNL A   1      41.126  30.626  29.919  1.00  0.00     0.074 A 
ATOM     45  C   UNL A   1      40.113  28.382  29.665  1.00  0.00     0.049 A 
ATOM     46  N   UNL A   1      42.259  30.484  29.280  1.00  0.00    -0.248 NA
ATOM     47  C   UNL A   1      40.944  31.954  30.530  1.00  0.00     0.031 C 
ATOM     48  C   UNL A   1      39.119  27.327  29.844  1.00  0.00     0.029 A 
ATOM     49  N   UNL A   1      41.125  27.780  28.960  1.00  0.00    -0.354 N 
ATOM     50  C   UNL A   1      42.914  31.703  29.406  1.00  0.00     0.074 A 
ATOM     51  C   UNL A   1      42.042  32.585  30.147  1.00  0.00     0.031 C 
ATOM     52  C   UNL A   1      39.567  26.204  29.254  1.00  0.00     0.029 A 
ATOM     53  C   UNL A   1      40.862  26.474  28.632  1.00  0.00     0.049 A 
ATOM     54  H   UNL A   1      41.959  28.241  28.714  1.00  0.00     0.167 HD
ATOM     55  C   UNL A   1      44.141  32.054  28.953  1.00  0.00     0.037 A 
ATOM     56  C   UNL A   1      41.582  25.607  27.894  1.00  0.00     0.037 A 
ATOM     57  C   UNL A   1      45.004  31.174  28.214  1.00  0.00     0.049 A 
ATOM     58  C   UNL A   1      42.912  26.045  27.334  1.00  0.00     0.074 A 
ATOM     59  C   UNL A   1      46.265  31.428  27.705  1.00  0.00     0.029 A 
ATOM     60  N   UNL A   1      44.688  29.867  27.870  1.00  0.00    -0.354 N 
ATOM     61  N   UNL A   1      43.530  27.196  27.462  1.00  0.00    -0.248 NA
ATOM     62  C   UNL A   1      43.650  25.056  26.537  1.00  0.00     0.031 C 
ATOM     63  C   UNL A   1      46.690  30.294  27.006  1.00  0.00     0.029 A 
ATOM     64  C   UNL A   1      45.724  29.308  27.141  1.00  0.00     0.049 A 
ATOM     65  H   UNL A   1      43.852  29.406  28.111  1.00  0.00     0.167 HD
ATOM     66  C   UNL A   1      44.746  27.053  26.803  1.00  0.00     0.074 A 
ATOM     67  C   UNL A   1      44.779  25.702  26.283  1.00  0.00     0.031 C 
ATOM     68  C   UNL A   1      45.748  27.954  26.647  1.00  0.00     0.037 A 
BRANCH  55  69
ATOM     69  C   UNL A   1      44.597  33.461  29.216  1.00  0.00     0.057 A 
ATOM     70  C   UNL A   1      45.451  33.782  30.279  1.00  0.00     0.134 A 
ATOM     71  C   UNL A   1      44.181  34.509  28.385  1.00  0.00     0.134 A 
ATOM     72  F   UNL A   1      45.871  32.831  31.127  1.00  0.00    -0.206 F 
ATOM     73  C   UNL A   1      45.852  35.097  30.522  1.00  0.00     0.040 A 
ATOM     74  C   UNL A   1      44.601  35.822  28.597  1.00  0.00     0.040 A 
ATOM     75  F   UNL A   1      43.362  34.272  27.349  1.00  0.00    -0.206 F 
ATOM     76  C   UNL A   1      45.433  36.121  29.674  1.00  0.00     0.006 A 
ENDBRANCH  55  69
BRANCH  56  77
ATOM     77  C   UNL A   1      41.064  24.240  27.630  1.00  0.00     0.057 A 
ATOM     78  C   UNL A   1      41.586  23.123  28.294  1.00  0.00     0.134 A 
ATOM     79  C   UNL A   1      40.061  24.013  26.681  1.00  0.00     0.134 A 
ATOM     80  F   UNL A   1      42.565  23.272  29.199  1.00  0.00    -0.206 F 
ATOM     81  C   UNL A   1      41.149  21.829  28.005  1.00  0.00     0.040 A 
ATOM     82  C   UNL A   1      39.592  22.727  26.403  1.00  0.00     0.040 A 
ATOM     83  F   UNL A   1      39.517  25.039  26.010  1.00  0.00    -0.206 F 
ATOM     84  C   UNL A   1      40.145  21.630  27.060  1.00  0.00     0.006 A 
ENDBRANCH  56  77
BRANCH  68  85
ATOM     85  C   UNL A   1      46.996  27.486  25.951  1.00  0.00     0.057 A 
ATOM     86  C   UNL A   1      47.178  27.612  24.568  1.00  0.00     0.134 A 
ATOM     87  C   UNL A   1      48.044  26.919  26.689  1.00  0.00     0.134 A 
ATOM     88  F   UNL A   1      46.213  28.139  23.800  1.00  0.00    -0.206 F 
ATOM     89  C   UNL A   1      48.340  27.156  23.940  1.00  0.00     0.040 A 
ATOM     90  C   UNL A   1      49.223  26.491  26.078  1.00  0.00     0.040 A 
ATOM     91  F   UNL A   1      47.945  26.782  28.020  1.00  0.00    -0.206 F 
ATOM     92  C   UNL A   1      49.368  26.598  24.698  1.00  0.00     0.006 A 
ENDBRANCH  68  85
ENDBRANCH  42  43
ENDBRANCH  35  37
ENDBRANCH  34  35
ENDBRANCH  33  34
ENDBRANCH  32  33
ENDBRANCH  31  32
ENDBRANCH  30  31
ENDBRANCH  29  30
ENDBRANCH  28  29
ENDBRANCH   1  28
TORSDOF 25
ENDMDL
MODEL 3
REMARK VINA RESULT:      -9.5      1.228      2.631
REMARK SMILES NC(=O)CC[C@H](NC(=O)N[C@H]1CCOC1)C(=O)OCCOCCOCCOCCOC(=O)c1ccc(-c2c3nc(c(-c4c(F)cccc4F)c4ccc([nH]4)c(-c4c(F)cccc4F)c4nc(c(-c5c(F)cccc5F)c5ccc2[nH]5)C=C4)C=C3)cc1
REMARK SMILES IDX 23 1 22 2 21 3 20 4 19 5 18 6 16 7 17 8 6 9 5 10 4 11 2 12
REMARK SMILES IDX 1 13 3 16 7 17 8 18 9 20 10 21 11 23 12 24 15 25 13 26 14 27
REMARK SMILES IDX 24 28 25 29 26 30 27 31 28 32 29 33 30 34 31 35 32 36 33 37
REMARK SMILES IDX 34 38 86 39 35 40 85 41 36 42 37 43 38 44 79 45 39 46 84 47
REMARK SMILES IDX 78 48 80 49 40 50 83 51 77 52 76 53 41 55 67 56 50 57 66 58
REMARK SMILES IDX 51 59 54 60 65 61 81 62 52 63 53 64 64 66 82 67 55 68 42 69
REMARK SMILES IDX 43 70 48 71 44 72 45 73 47 74 49 75 46 76 68 77 69 78 74 79
REMARK SMILES IDX 70 80 71 81 73 82 75 83 72 84 56 85 57 86 62 87 58 88 59 89
REMARK SMILES IDX 61 90 63 91 60 92
REMARK H PARENT 1 14 1 15 7 19 10 22 80 54 54 65
REMARK Flexibility Score: inf
ROOT
ATOM      1  C   UNL A   1      34.118  33.868  28.979  1.00  0.00     0.188 C 
ENDROOT
BRANCH   1   2
ATOM      2  C   UNL A   1      34.020  32.352  28.719  1.00  0.00     0.188 C 
BRANCH   2   3
ATOM      3  O   UNL A   1      34.091  31.843  27.393  1.00  0.00    -0.376 OA
BRANCH   3   4
ATOM      4  C   UNL A   1      33.106  30.926  26.928  1.00  0.00     0.202 C 
BRANCH   4   5
ATOM      5  C   UNL A   1      32.901  29.600  27.669  1.00  0.00     0.261 C 
BRANCH   5   6
ATOM      6  O   UNL A   1      32.407  28.540  26.831  1.00  0.00    -0.462 OA
BRANCH   6   7
ATOM      7  C   UNL A   1      33.310  27.708  26.258  1.00  0.00     0.328 C 
ATOM      8  O   UNL A   1      34.429  28.058  25.899  1.00  0.00    -0.250 OA
BRANCH   7   9
ATOM      9  C   UNL A   1      32.833  26.237  26.214  1.00  0.00     0.194 C 
BRANCH   9  10
ATOM     10  C   UNL A   1      33.490  25.461  25.071  1.00  0.00     0.047 C 
BRANCH  10  11
ATOM     11  C   UNL A   1      34.618  24.503  25.454  1.00  0.00     0.102 C 
BRANCH  11  12
ATOM     12  C   UNL A   1      34.292  23.039  25.278  1.00  0.00     0.217 C 
ATOM     13  N   UNL A   1      33.233  22.779  24.456  1.00  0.00    -0.370 N 
ATOM     14  H   UNL A   1      32.957  21.849  24.289  1.00  0.00     0.159 HD
ATOM     15  H   UNL A   1      32.747  23.521  24.031  1.00  0.00     0.159 HD
ATOM     16  O   UNL A   1      34.933  22.138  25.804  1.00  0.00    -0.275 OA
ENDBRANCH  11  12
ENDBRANCH  10  11
ENDBRANCH   9  10
BRANCH   9  17
ATOM     17  N   UNL A   1      31.426  25.909  26.489  1.00  0.00    -0.325 N 
ATOM     18  C   UNL A   1      30.235  25.755  25.949  1.00  0.00     0.315 C 
ATOM     19  H   UNL A   1      31.341  25.736  27.455  1.00  0.00     0.166 HD
ATOM     20  O   UNL A   1      29.404  25.200  26.684  1.00  0.00    -0.249 OA
ATOM     21  N   UNL A   1      29.811  26.078  24.745  1.00  0.00    -0.333 N 
ATOM     22  H   UNL A   1      28.943  25.645  24.577  1.00  0.00     0.165 HD
BRANCH  21  23
ATOM     23  C   UNL A   1      30.190  26.859  23.582  1.00  0.00     0.112 C 
ATOM     24  C   UNL A   1      30.563  28.293  23.832  1.00  0.00     0.056 C 
ATOM     25  C   UNL A   1      31.249  26.286  22.664  1.00  0.00     0.185 C 
ATOM     26  C   UNL A   1      31.926  28.453  23.201  1.00  0.00     0.162 C 
ATOM     27  O   UNL A   1      32.163  27.340  22.341  1.00  0.00    -0.379 OA
ENDBRANCH  21  23
ENDBRANCH   9  17
ENDBRANCH   7   9
ENDBRANCH   6   7
ENDBRANCH   5   6
ENDBRANCH   4   5
ENDBRANCH   3   4
ENDBRANCH   2   3
ENDBRANCH   1   2
BRANCH   1  28
ATOM     28  O   UNL A   1      32.892  34.505  29.277  1.00  0.00    -0.377 OA
BRANCH  28  29
ATOM     29  C   UNL A   1      32.983  35.758  29.950  1.00  0.00     0.188 C 
BRANCH  29  30
ATOM     30  C   UNL A   1      32.908  35.734  31.492  1.00  0.00     0.188 C 
BRANCH  30  31
ATOM     31  O   UNL A   1      34.174  35.790  32.133  1.00  0.00    -0.376 OA
BRANCH  31  32
ATOM     32  C   UNL A   1      34.445  34.954  33.248  1.00  0.00     0.202 C 
BRANCH  32  33
ATOM     33  C   UNL A   1      34.123  33.451  33.159  1.00  0.00     0.261 C 
BRANCH  33  34
ATOM     34  O   UNL A   1      35.100  32.622  32.516  1.00  0.00    -0.460 OA
BRANCH  34  35
ATOM     35  C   UNL A   1      36.196  32.294  33.223  1.00  0.00     0.338 C 
ATOM     36  O   UNL A   1      36.426  32.558  34.394  1.00  0.00    -0.246 OA
BRANCH  35  37
ATOM     37  C   UNL A   1      37.009  31.375  32.405  1.00  0.00     0.060 A 
ATOM     38  C   UNL A   1      37.980  30.591  33.042  1.00  0.00     0.016 A 
ATOM     39  C   UNL A   1      36.844  31.317  31.018  1.00  0.00     0.016 A 
ATOM     40  C   UNL A   1      38.845  29.807  32.286  1.00  0.00     0.010 A 
ATOM     41  C   UNL A   1      37.730  30.550  30.258  1.00  0.00     0.010 A 
ATOM     42  C   UNL A   1      38.771  29.845  30.889  1.00  0.00    -0.014 A 
BRANCH  42  43
ATOM     43  C   UNL A   1      39.947  29.400  30.107  1.00  0.00     0.031 A 
ATOM     44  C   UNL A   1      41.071  30.383  29.916  1.00  0.00     0.074 A 
ATOM     45  C   UNL A   1      40.051  28.144  29.642  1.00  0.00     0.049 A 
ATOM     46  N   UNL A   1      42.198  30.247  29.266  1.00  0.00    -0.248 NA
ATOM     47  C   UNL A   1      40.896  31.704  30.546  1.00  0.00     0.031 C 
ATOM     48  C   UNL A   1      39.057  27.089  29.817  1.00  0.00     0.029 A 
ATOM     49  N   UNL A   1      41.056  27.550  28.921  1.00  0.00    -0.354 N 
ATOM     50  C   UNL A   1      42.857  31.463  29.402  1.00  0.00     0.074 A 
ATOM     51  C   UNL A   1      41.992  32.337  30.161  1.00  0.00     0.031 C 
ATOM     52  C   UNL A   1      39.498  25.973  29.209  1.00  0.00     0.029 A 
ATOM     53  C   UNL A   1      40.788  26.249  28.578  1.00  0.00     0.049 A 
ATOM     54  H   UNL A   1      41.889  28.012  28.675  1.00  0.00     0.167 HD
ATOM     55  C   UNL A   1      44.080  31.818  28.943  1.00  0.00     0.037 A 
ATOM     56  C   UNL A   1      41.500  25.390  27.824  1.00  0.00     0.037 A 
ATOM     57  C   UNL A   1      44.936  30.946  28.186  1.00  0.00     0.049 A 
ATOM     58  C   UNL A   1      42.826  25.833  27.258  1.00  0.00     0.074 A 
ATOM     59  C   UNL A   1      46.192  31.204  27.670  1.00  0.00     0.029 A 
ATOM     60  N   UNL A   1      44.614  29.644  27.828  1.00  0.00    -0.354 N 
ATOM     61  N   UNL A   1      43.447  26.980  27.396  1.00  0.00    -0.248 NA
ATOM     62  C   UNL A   1      43.556  24.853  26.443  1.00  0.00     0.031 C 
ATOM     63  C   UNL A   1      46.609  30.078  26.953  1.00  0.00     0.029 A 
ATOM     64  C   UNL A   1      45.643  29.092  27.084  1.00  0.00     0.049 A 
ATOM     65  H   UNL A   1      43.780  29.181  28.070  1.00  0.00     0.167 HD
ATOM     66  C   UNL A   1      44.658  26.844  26.725  1.00  0.00     0.074 A 
ATOM     67  C   UNL A   1      44.684  25.500  26.188  1.00  0.00     0.031 C 
ATOM     68  C   UNL A   1      45.660  27.745  26.572  1.00  0.00     0.037 A 
BRANCH  55  69
ATOM     69  C   UNL A   1      44.541  33.221  29.220  1.00  0.00     0.057 A 
ATOM     70  C   UNL A   1      44.316  34.272  28.321  1.00  0.00     0.134 A 
ATOM     71  C   UNL A   1      45.210  33.525  30.412  1.00  0.00     0.134 A 
ATOM     72  F   UNL A   1      43.700  34.046  27.151  1.00  0.00    -0.206 F 
ATOM     73  C   UNL A   1      44.765  35.567  28.585  1.00  0.00     0.040 A 
ATOM     74  C   UNL A   1      45.635  34.822  30.702  1.00  0.00     0.040 A 
ATOM     75  F   UNL A   1      45.459  32.567  31.317  1.00  0.00    -0.206 F 
ATOM     76  C   UNL A   1      45.420  35.847  29.783  1.00  0.00     0.006 A 
ENDBRANCH  55  69
BRANCH  56  77
ATOM     77  C   UNL A   1      40.978  24.027  27.547  1.00  0.00     0.057 A 
ATOM     78  C   UNL A   1      41.504  22.900  28.191  1.00  0.00     0.134 A 
ATOM     79  C   UNL A   1      39.964  23.814  26.605  1.00  0.00     0.134 A 
ATOM     80  F   UNL A   1      42.492  23.036  29.088  1.00  0.00    -0.206 F 
ATOM     81  C   UNL A   1      41.062  21.611  27.889  1.00  0.00     0.040 A 
ATOM     82  C   UNL A   1      39.491  22.533  26.315  1.00  0.00     0.040 A 
ATOM     83  F   UNL A   1      39.416  24.850  25.954  1.00  0.00    -0.206 F 
ATOM     84  C   UNL A   1      40.048  21.426  26.952  1.00  0.00     0.006 A 
ENDBRANCH  56  77
BRANCH  68  85
ATOM     85  C   UNL A   1      46.901  27.284  25.860  1.00  0.00     0.057 A 
ATOM     86  C   UNL A   1      47.121  27.526  24.498  1.00  0.00     0.134 A 
ATOM     87  C   UNL A   1      47.905  26.603  26.563  1.00  0.00     0.134 A 
ATOM     88  F   UNL A   1      46.199  28.165  23.763  1.00  0.00    -0.206 F 
ATOM     89  C   UNL A   1      48.275  27.074  23.853  1.00  0.00     0.040 A 
ATOM     90  C   UNL A   1      49.077  26.177  25.938  1.00  0.00     0.040 A 
ATOM     91  F   UNL A   1      47.769  26.350  27.873  1.00  0.00    -0.206 F 
ATOM     92  C   UNL A   1      49.259  26.402  24.576  1.00  0.00     0.006 A 
ENDBRANCH  68  85
ENDBRANCH  42  43
ENDBRANCH  35  37
ENDBRANCH  34  35
ENDBRANCH  33  34
ENDBRANCH  32  33
ENDBRANCH  31  32
ENDBRANCH  30  31
ENDBRANCH  29  30
ENDBRANCH  28  29
ENDBRANCH   1  28
TORSDOF 25
ENDMDL
