MODEL 1
REMARK VINA RESULT:      -7.0      0.000      0.000
REMARK SMILES CCC1CN(c2cccc(F)c2C(=O)OCCOCCOCCOCCOC(=O)c2ccc(-c3c4nc(c(-c5c(F)cccc5F)c5ccc([nH]5)c(-c5c(F)cccc5F)c5nc(c(-c6c(F)cccc6F)c6ccc3[nH]6)C=C5)C=C4)cc2)C1
REMARK SMILES IDX 21 1 20 2 19 3 18 4 17 5 16 6 15 7 13 8 14 9 12 10 6 11 7 12
REMARK SMILES IDX 8 13 10 14 9 15 11 16 5 17 3 18 4 19 84 20 2 21 1 22 22 23
REMARK SMILES IDX 23 24 24 25 25 26 26 27 27 28 28 29 29 30 30 31 31 32 83 33
REMARK SMILES IDX 32 34 82 35 33 36 34 37 35 38 76 39 36 40 81 41 75 42 77 43
REMARK SMILES IDX 37 44 80 45 74 46 73 47 38 49 64 50 47 51 63 52 48 53 51 54
REMARK SMILES IDX 62 55 78 56 49 57 50 58 61 60 79 61 52 62 39 63 40 64 45 65
REMARK SMILES IDX 41 66 42 67 44 68 46 69 43 70 65 71 66 72 71 73 67 74 68 75
REMARK SMILES IDX 70 76 72 77 69 78 53 79 54 80 59 81 55 82 56 83 58 84 60 85
REMARK SMILES IDX 57 86
REMARK H PARENT 77 48 51 59
REMARK Flexibility Score: inf
ROOT
ATOM      1  O   UNL A   1      38.369  29.852  28.198  1.00  0.00    -0.377 OA
ENDROOT
BRANCH   1   2
ATOM      2  C   UNL A   1      39.112  28.903  28.958  1.00  0.00     0.188 C 
BRANCH   2   3
ATOM      3  C   UNL A   1      40.406  28.258  28.408  1.00  0.00     0.188 C 
BRANCH   3   4
ATOM      4  O   UNL A   1      40.227  27.383  27.303  1.00  0.00    -0.376 OA
BRANCH   4   5
ATOM      5  C   UNL A   1      39.778  26.067  27.570  1.00  0.00     0.202 C 
BRANCH   5   6
ATOM      6  C   UNL A   1      40.863  25.112  28.077  1.00  0.00     0.261 C 
BRANCH   6   7
ATOM      7  O   UNL A   1      42.074  25.157  27.310  1.00  0.00    -0.460 OA
BRANCH   7   8
ATOM      8  C   UNL A   1      43.241  25.360  27.971  1.00  0.00     0.343 C 
ATOM      9  O   UNL A   1      43.479  25.023  29.117  1.00  0.00    -0.246 OA
BRANCH   8  10
ATOM     10  C   UNL A   1      44.209  25.930  27.001  1.00  0.00     0.119 A 
ATOM     11  C   UNL A   1      44.919  25.118  26.090  1.00  0.00     0.054 A 
ATOM     12  C   UNL A   1      45.804  25.746  25.191  1.00  0.00     0.027 A 
ATOM     13  C   UNL A   1      45.957  27.136  25.169  1.00  0.00     0.005 A 
ATOM     14  C   UNL A   1      44.369  27.323  26.965  1.00  0.00     0.139 A 
ATOM     15  C   UNL A   1      45.226  27.926  26.049  1.00  0.00     0.040 A 
ATOM     16  F   UNL A   1      43.687  28.121  27.799  1.00  0.00    -0.206 F 
BRANCH  11  17
ATOM     17  N   UNL A   1      44.708  23.719  25.998  1.00  0.00    -0.370 N 
ATOM     18  C   UNL A   1      45.055  21.997  24.853  1.00  0.00     0.028 C 
ATOM     19  C   UNL A   1      43.982  23.073  24.937  1.00  0.00     0.122 C 
ATOM     20  C   UNL A   1      45.711  22.689  26.057  1.00  0.00     0.122 C 
BRANCH  18  21
ATOM     21  C   UNL A   1      44.489  20.592  25.033  1.00  0.00     0.004 C 
ATOM     22  C   UNL A   1      45.082  19.638  24.014  1.00  0.00     0.004 C 
ENDBRANCH  18  21
ENDBRANCH  11  17
ENDBRANCH   8  10
ENDBRANCH   7   8
ENDBRANCH   6   7
ENDBRANCH   5   6
ENDBRANCH   4   5
ENDBRANCH   3   4
ENDBRANCH   2   3
ENDBRANCH   1   2
BRANCH   1  23
ATOM     23  C   UNL A   1      38.114  31.108  28.810  1.00  0.00     0.188 C 
BRANCH  23  24
ATOM     24  C   UNL A   1      36.606  31.376  29.004  1.00  0.00     0.188 C 
BRANCH  24  25
ATOM     25  O   UNL A   1      36.334  32.488  29.840  1.00  0.00    -0.376 OA
BRANCH  25  26
ATOM     26  C   UNL A   1      35.067  32.638  30.454  1.00  0.00     0.202 C 
BRANCH  26  27
ATOM     27  C   UNL A   1      34.845  32.730  31.977  1.00  0.00     0.261 C 
BRANCH  27  28
ATOM     28  O   UNL A   1      35.533  31.804  32.823  1.00  0.00    -0.460 OA
BRANCH  28  29
ATOM     29  C   UNL A   1      36.474  32.286  33.655  1.00  0.00     0.338 C 
ATOM     30  O   UNL A   1      36.312  33.051  34.593  1.00  0.00    -0.246 OA
BRANCH  29  31
ATOM     31  C   UNL A   1      37.724  31.554  33.361  1.00  0.00     0.060 A 
ATOM     32  C   UNL A   1      38.920  31.999  33.941  1.00  0.00     0.016 A 
ATOM     33  C   UNL A   1      37.708  30.410  32.559  1.00  0.00     0.016 A 
ATOM     34  C   UNL A   1      40.110  31.323  33.688  1.00  0.00     0.010 A 
ATOM     35  C   UNL A   1      38.906  29.752  32.278  1.00  0.00     0.010 A 
ATOM     36  C   UNL A   1      40.116  30.233  32.809  1.00  0.00    -0.014 A 
BRANCH  36  37
ATOM     37  C   UNL A   1      41.411  29.750  32.282  1.00  0.00     0.031 A 
ATOM     38  C   UNL A   1      42.080  30.559  31.205  1.00  0.00     0.074 A 
ATOM     39  C   UNL A   1      42.011  28.662  32.792  1.00  0.00     0.049 A 
ATOM     40  N   UNL A   1      43.222  30.353  30.601  1.00  0.00    -0.248 NA
ATOM     41  C   UNL A   1      41.367  31.765  30.751  1.00  0.00     0.031 C 
ATOM     42  C   UNL A   1      41.478  27.829  33.868  1.00  0.00     0.029 A 
ATOM     43  N   UNL A   1      43.210  28.077  32.472  1.00  0.00    -0.354 N 
ATOM     44  C   UNL A   1      43.362  31.402  29.701  1.00  0.00     0.074 A 
ATOM     45  C   UNL A   1      42.175  32.220  29.806  1.00  0.00     0.031 C 
ATOM     46  C   UNL A   1      42.351  26.839  34.123  1.00  0.00     0.029 A 
ATOM     47  C   UNL A   1      43.487  26.953  33.209  1.00  0.00     0.049 A 
ATOM     48  H   UNL A   1      43.815  28.431  31.780  1.00  0.00     0.167 HD
ATOM     49  C   UNL A   1      44.398  31.668  28.873  1.00  0.00     0.037 A 
ATOM     50  C   UNL A   1      44.536  26.109  33.142  1.00  0.00     0.037 A 
ATOM     51  C   UNL A   1      45.577  30.849  28.772  1.00  0.00     0.049 A 
ATOM     52  C   UNL A   1      45.642  26.385  32.157  1.00  0.00     0.074 A 
ATOM     53  C   UNL A   1      46.687  31.038  27.969  1.00  0.00     0.029 A 
ATOM     54  N   UNL A   1      45.798  29.687  29.496  1.00  0.00    -0.354 N 
ATOM     55  N   UNL A   1      45.775  27.385  31.320  1.00  0.00    -0.248 NA
ATOM     56  C   UNL A   1      46.747  25.418  32.115  1.00  0.00     0.031 C 
ATOM     57  C   UNL A   1      47.552  29.958  28.162  1.00  0.00     0.029 A 
ATOM     58  C   UNL A   1      47.014  29.132  29.136  1.00  0.00     0.049 A 
ATOM     59  H   UNL A   1      45.181  29.313  30.166  1.00  0.00     0.167 HD
ATOM     60  C   UNL A   1      46.985  27.182  30.668  1.00  0.00     0.074 A 
ATOM     61  C   UNL A   1      47.558  25.974  31.225  1.00  0.00     0.031 C 
ATOM     62  C   UNL A   1      47.569  27.925  29.695  1.00  0.00     0.037 A 
BRANCH  49  63
ATOM     63  C   UNL A   1      44.300  32.883  27.998  1.00  0.00     0.057 A 
ATOM     64  C   UNL A   1      44.538  34.160  28.522  1.00  0.00     0.134 A 
ATOM     65  C   UNL A   1      43.910  32.798  26.655  1.00  0.00     0.134 A 
ATOM     66  F   UNL A   1      44.916  34.312  29.800  1.00  0.00    -0.206 F 
ATOM     67  C   UNL A   1      44.368  35.309  27.749  1.00  0.00     0.040 A 
ATOM     68  C   UNL A   1      43.765  33.939  25.865  1.00  0.00     0.040 A 
ATOM     69  F   UNL A   1      43.687  31.604  26.086  1.00  0.00    -0.206 F 
ATOM     70  C   UNL A   1      43.982  35.201  26.416  1.00  0.00     0.006 A 
ENDBRANCH  49  63
BRANCH  50  71
ATOM     71  C   UNL A   1      44.590  24.928  34.041  1.00  0.00     0.057 A 
ATOM     72  C   UNL A   1      44.242  23.649  33.588  1.00  0.00     0.134 A 
ATOM     73  C   UNL A   1      44.987  25.050  35.377  1.00  0.00     0.134 A 
ATOM     74  F   UNL A   1      43.854  23.463  32.318  1.00  0.00    -0.206 F 
ATOM     75  C   UNL A   1      44.265  22.540  34.435  1.00  0.00     0.040 A 
ATOM     76  C   UNL A   1      45.043  23.946  36.229  1.00  0.00     0.040 A 
ATOM     77  F   UNL A   1      45.358  26.244  35.865  1.00  0.00    -0.206 F 
ATOM     78  C   UNL A   1      44.671  22.687  35.760  1.00  0.00     0.006 A 
ENDBRANCH  50  71
BRANCH  62  79
ATOM     79  C   UNL A   1      48.906  27.467  29.180  1.00  0.00     0.057 A 
ATOM     80  C   UNL A   1      48.991  26.482  28.187  1.00  0.00     0.134 A 
ATOM     81  C   UNL A   1      50.108  27.959  29.703  1.00  0.00     0.134 A 
ATOM     82  F   UNL A   1      47.879  25.953  27.654  1.00  0.00    -0.206 F 
ATOM     83  C   UNL A   1      50.221  26.001  27.737  1.00  0.00     0.040 A 
ATOM     84  C   UNL A   1      51.346  27.512  29.237  1.00  0.00     0.040 A 
ATOM     85  F   UNL A   1      50.100  28.908  30.652  1.00  0.00    -0.206 F 
ATOM     86  C   UNL A   1      51.403  26.523  28.256  1.00  0.00     0.006 A 
ENDBRANCH  62  79
ENDBRANCH  36  37
ENDBRANCH  29  31
ENDBRANCH  28  29
ENDBRANCH  27  28
ENDBRANCH  26  27
ENDBRANCH  25  26
ENDBRANCH  24  25
ENDBRANCH  23  24
ENDBRANCH   1  23
TORSDOF 22
ENDMDL
MODEL 2
REMARK VINA RESULT:      -6.8      1.250      2.359
REMARK SMILES CCC1CN(c2cccc(F)c2C(=O)OCCOCCOCCOCCOC(=O)c2ccc(-c3c4nc(c(-c5c(F)cccc5F)c5ccc([nH]5)c(-c5c(F)cccc5F)c5nc(c(-c6c(F)cccc6F)c6ccc3[nH]6)C=C5)C=C4)cc2)C1
REMARK SMILES IDX 21 1 20 2 19 3 18 4 17 5 16 6 15 7 13 8 14 9 12 10 6 11 7 12
REMARK SMILES IDX 8 13 10 14 9 15 11 16 5 17 3 18 4 19 84 20 2 21 1 22 22 23
REMARK SMILES IDX 23 24 24 25 25 26 26 27 27 28 28 29 29 30 30 31 31 32 83 33
REMARK SMILES IDX 32 34 82 35 33 36 34 37 35 38 76 39 36 40 81 41 75 42 77 43
REMARK SMILES IDX 37 44 80 45 74 46 73 47 38 49 64 50 47 51 63 52 48 53 51 54
REMARK SMILES IDX 62 55 78 56 49 57 50 58 61 60 79 61 52 62 39 63 40 64 45 65
REMARK SMILES IDX 41 66 42 67 44 68 46 69 43 70 65 71 66 72 71 73 67 74 68 75
REMARK SMILES IDX 70 76 72 77 69 78 53 79 54 80 59 81 55 82 56 83 58 84 60 85
REMARK SMILES IDX 57 86
REMARK H PARENT 77 48 51 59
REMARK Flexibility Score: inf
ROOT
ATOM      1  O   UNL A   1      36.606  31.247  28.158  1.00  0.00    -0.377 OA
ENDROOT
BRANCH   1   2
ATOM      2  C   UNL A   1      36.784  29.861  27.877  1.00  0.00     0.188 C 
BRANCH   2   3
ATOM      3  C   UNL A   1      37.733  28.978  28.721  1.00  0.00     0.188 C 
BRANCH   3   4
ATOM      4  O   UNL A   1      38.739  28.294  27.986  1.00  0.00    -0.376 OA
BRANCH   4   5
ATOM      5  C   UNL A   1      40.016  28.901  27.895  1.00  0.00     0.202 C 
BRANCH   5   6
ATOM      6  C   UNL A   1      41.114  28.204  28.704  1.00  0.00     0.261 C 
BRANCH   6   7
ATOM      7  O   UNL A   1      42.311  27.954  27.954  1.00  0.00    -0.460 OA
BRANCH   7   8
ATOM      8  C   UNL A   1      43.170  27.012  28.419  1.00  0.00     0.343 C 
ATOM      9  O   UNL A   1      43.384  26.760  29.591  1.00  0.00    -0.246 OA
BRANCH   8  10
ATOM     10  C   UNL A   1      43.680  26.257  27.247  1.00  0.00     0.119 A 
ATOM     11  C   UNL A   1      42.883  25.315  26.560  1.00  0.00     0.054 A 
ATOM     12  C   UNL A   1      43.442  24.658  25.446  1.00  0.00     0.027 A 
ATOM     13  C   UNL A   1      44.736  24.948  25.003  1.00  0.00     0.005 A 
ATOM     14  C   UNL A   1      44.974  26.540  26.788  1.00  0.00     0.139 A 
ATOM     15  C   UNL A   1      45.498  25.902  25.668  1.00  0.00     0.040 A 
ATOM     16  F   UNL A   1      45.744  27.450  27.404  1.00  0.00    -0.206 F 
BRANCH  11  17
ATOM     17  N   UNL A   1      41.528  25.077  26.903  1.00  0.00    -0.370 N 
ATOM     18  C   UNL A   1      39.718  24.224  26.275  1.00  0.00     0.028 C 
ATOM     19  C   UNL A   1      40.400  25.579  26.164  1.00  0.00     0.122 C 
ATOM     20  C   UNL A   1      40.910  23.799  27.144  1.00  0.00     0.122 C 
BRANCH  18  21
ATOM     21  C   UNL A   1      38.337  24.315  26.918  1.00  0.00     0.004 C 
ATOM     22  C   UNL A   1      37.282  23.702  26.018  1.00  0.00     0.004 C 
ENDBRANCH  18  21
ENDBRANCH  11  17
ENDBRANCH   8  10
ENDBRANCH   7   8
ENDBRANCH   6   7
ENDBRANCH   5   6
ENDBRANCH   4   5
ENDBRANCH   3   4
ENDBRANCH   2   3
ENDBRANCH   1   2
BRANCH   1  23
ATOM     23  C   UNL A   1      37.582  31.866  28.983  1.00  0.00     0.188 C 
BRANCH  23  24
ATOM     24  C   UNL A   1      37.135  33.254  29.488  1.00  0.00     0.188 C 
BRANCH  24  25
ATOM     25  O   UNL A   1      35.730  33.380  29.626  1.00  0.00    -0.376 OA
BRANCH  25  26
ATOM     26  C   UNL A   1      35.154  33.729  30.872  1.00  0.00     0.202 C 
BRANCH  26  27
ATOM     27  C   UNL A   1      34.768  32.712  31.965  1.00  0.00     0.261 C 
BRANCH  27  28
ATOM     28  O   UNL A   1      35.741  31.744  32.369  1.00  0.00    -0.460 OA
BRANCH  28  29
ATOM     29  C   UNL A   1      36.575  32.066  33.372  1.00  0.00     0.338 C 
ATOM     30  O   UNL A   1      36.308  32.688  34.389  1.00  0.00    -0.246 OA
BRANCH  29  31
ATOM     31  C   UNL A   1      37.843  31.347  33.126  1.00  0.00     0.060 A 
ATOM     32  C   UNL A   1      38.996  31.754  33.811  1.00  0.00     0.016 A 
ATOM     33  C   UNL A   1      37.883  30.249  32.262  1.00  0.00     0.016 A 
ATOM     34  C   UNL A   1      40.201  31.089  33.603  1.00  0.00     0.010 A 
ATOM     35  C   UNL A   1      39.098  29.604  32.028  1.00  0.00     0.010 A 
ATOM     36  C   UNL A   1      40.267  30.050  32.668  1.00  0.00    -0.014 A 
BRANCH  36  37
ATOM     37  C   UNL A   1      41.597  29.592  32.205  1.00  0.00     0.031 A 
ATOM     38  C   UNL A   1      42.295  30.404  31.149  1.00  0.00     0.074 A 
ATOM     39  C   UNL A   1      42.198  28.524  32.755  1.00  0.00     0.049 A 
ATOM     40  N   UNL A   1      43.467  30.219  30.600  1.00  0.00    -0.248 NA
ATOM     41  C   UNL A   1      41.574  31.587  30.649  1.00  0.00     0.031 C 
ATOM     42  C   UNL A   1      41.637  27.692  33.816  1.00  0.00     0.029 A 
ATOM     43  N   UNL A   1      43.424  27.965  32.497  1.00  0.00    -0.354 N 
ATOM     44  C   UNL A   1      43.623  31.261  29.694  1.00  0.00     0.074 A 
ATOM     45  C   UNL A   1      42.414  32.052  29.736  1.00  0.00     0.031 C 
ATOM     46  C   UNL A   1      42.520  26.726  34.122  1.00  0.00     0.029 A 
ATOM     47  C   UNL A   1      43.694  26.856  33.259  1.00  0.00     0.049 A 
ATOM     48  H   UNL A   1      44.051  28.326  31.829  1.00  0.00     0.167 HD
ATOM     49  C   UNL A   1      44.689  31.542  28.911  1.00  0.00     0.037 A 
ATOM     50  C   UNL A   1      44.764  26.037  33.250  1.00  0.00     0.037 A 
ATOM     51  C   UNL A   1      45.890  30.751  28.873  1.00  0.00     0.049 A 
ATOM     52  C   UNL A   1      45.906  26.329  32.313  1.00  0.00     0.074 A 
ATOM     53  C   UNL A   1      47.030  30.957  28.118  1.00  0.00     0.029 A 
ATOM     54  N   UNL A   1      46.105  29.603  29.620  1.00  0.00    -0.354 N 
ATOM     55  N   UNL A   1      46.054  27.322  31.470  1.00  0.00    -0.248 NA
ATOM     56  C   UNL A   1      47.035  25.388  32.332  1.00  0.00     0.031 C 
ATOM     57  C   UNL A   1      47.911  29.901  28.363  1.00  0.00     0.029 A 
ATOM     58  C   UNL A   1      47.349  29.073  29.323  1.00  0.00     0.049 A 
ATOM     59  H   UNL A   1      45.467  29.222  30.266  1.00  0.00     0.167 HD
ATOM     60  C   UNL A   1      47.296  27.140  30.876  1.00  0.00     0.074 A 
ATOM     61  C   UNL A   1      47.872  25.953  31.473  1.00  0.00     0.031 C 
ATOM     62  C   UNL A   1      47.907  27.886  29.920  1.00  0.00     0.037 A 
BRANCH  49  63
ATOM     63  C   UNL A   1      44.602  32.744  28.017  1.00  0.00     0.057 A 
ATOM     64  C   UNL A   1      44.168  32.617  26.691  1.00  0.00     0.134 A 
ATOM     65  C   UNL A   1      45.007  34.016  28.445  1.00  0.00     0.134 A 
ATOM     66  F   UNL A   1      43.764  31.428  26.218  1.00  0.00    -0.206 F 
ATOM     67  C   UNL A   1      44.161  33.705  25.818  1.00  0.00     0.040 A 
ATOM     68  C   UNL A   1      44.978  35.117  27.588  1.00  0.00     0.040 A 
ATOM     69  F   UNL A   1      45.415  34.210  29.708  1.00  0.00    -0.206 F 
ATOM     70  C   UNL A   1      44.566  34.960  26.266  1.00  0.00     0.006 A 
ENDBRANCH  49  63
BRANCH  50  71
ATOM     71  C   UNL A   1      44.805  24.868  34.165  1.00  0.00     0.057 A 
ATOM     72  C   UNL A   1      45.287  24.984  35.475  1.00  0.00     0.134 A 
ATOM     73  C   UNL A   1      44.368  23.605  33.752  1.00  0.00     0.134 A 
ATOM     74  F   UNL A   1      45.720  26.167  35.936  1.00  0.00    -0.206 F 
ATOM     75  C   UNL A   1      45.354  23.884  36.332  1.00  0.00     0.040 A 
ATOM     76  C   UNL A   1      44.402  22.502  34.606  1.00  0.00     0.040 A 
ATOM     77  F   UNL A   1      43.871  23.433  32.517  1.00  0.00    -0.206 F 
ATOM     78  C   UNL A   1      44.905  22.638  35.898  1.00  0.00     0.006 A 
ENDBRANCH  50  71
BRANCH  62  79
ATOM     79  C   UNL A   1      49.275  27.455  29.472  1.00  0.00     0.057 A 
ATOM     80  C   UNL A   1      49.430  26.565  28.400  1.00  0.00     0.134 A 
ATOM     81  C   UNL A   1      50.437  27.874  30.133  1.00  0.00     0.134 A 
ATOM     82  F   UNL A   1      48.359  26.109  27.733  1.00  0.00    -0.206 F 
ATOM     83  C   UNL A   1      50.687  26.107  28.006  1.00  0.00     0.040 A 
ATOM     84  C   UNL A   1      51.703  27.450  29.726  1.00  0.00     0.040 A 
ATOM     85  F   UNL A   1      50.362  28.730  31.163  1.00  0.00    -0.206 F 
ATOM     86  C   UNL A   1      51.829  26.557  28.664  1.00  0.00     0.006 A 
ENDBRANCH  62  79
ENDBRANCH  36  37
ENDBRANCH  29  31
ENDBRANCH  28  29
ENDBRANCH  27  28
ENDBRANCH  26  27
ENDBRANCH  25  26
ENDBRANCH  24  25
ENDBRANCH  23  24
ENDBRANCH   1  23
TORSDOF 22
ENDMDL
MODEL 3
REMARK VINA RESULT:      -6.8      1.275      6.353
REMARK SMILES CCC1CN(c2cccc(F)c2C(=O)OCCOCCOCCOCCOC(=O)c2ccc(-c3c4nc(c(-c5c(F)cccc5F)c5ccc([nH]5)c(-c5c(F)cccc5F)c5nc(c(-c6c(F)cccc6F)c6ccc3[nH]6)C=C5)C=C4)cc2)C1
REMARK SMILES IDX 21 1 20 2 19 3 18 4 17 5 16 6 15 7 13 8 14 9 12 10 6 11 7 12
REMARK SMILES IDX 8 13 10 14 9 15 11 16 5 17 3 18 4 19 84 20 2 21 1 22 22 23
REMARK SMILES IDX 23 24 24 25 25 26 26 27 27 28 28 29 29 30 30 31 31 32 83 33
REMARK SMILES IDX 32 34 82 35 33 36 34 37 35 38 76 39 36 40 81 41 75 42 77 43
REMARK SMILES IDX 37 44 80 45 74 46 73 47 38 49 64 50 47 51 63 52 48 53 51 54
REMARK SMILES IDX 62 55 78 56 49 57 50 58 61 60 79 61 52 62 39 63 40 64 45 65
REMARK SMILES IDX 41 66 42 67 44 68 46 69 43 70 65 71 66 72 71 73 67 74 68 75
REMARK SMILES IDX 70 76 72 77 69 78 53 79 54 80 59 81 55 82 56 83 58 84 60 85
REMARK SMILES IDX 57 86
REMARK H PARENT 77 48 51 59
REMARK Flexibility Score: inf
ROOT
ATOM      1  O   UNL A   1      36.950  31.231  28.380  1.00  0.00    -0.377 OA
ENDROOT
BRANCH   1   2
ATOM      2  C   UNL A   1      37.058  29.823  28.186  1.00  0.00     0.188 C 
BRANCH   2   3
ATOM      3  C   UNL A   1      38.176  28.995  28.862  1.00  0.00     0.188 C 
BRANCH   3   4
ATOM      4  O   UNL A   1      38.956  28.195  27.983  1.00  0.00    -0.376 OA
BRANCH   4   5
ATOM      5  C   UNL A   1      40.120  28.775  27.423  1.00  0.00     0.202 C 
BRANCH   5   6
ATOM      6  C   UNL A   1      41.410  28.498  28.200  1.00  0.00     0.261 C 
BRANCH   6   7
ATOM      7  O   UNL A   1      42.520  28.139  27.366  1.00  0.00    -0.460 OA
BRANCH   7   8
ATOM      8  C   UNL A   1      43.667  27.736  27.967  1.00  0.00     0.343 C 
ATOM      9  O   UNL A   1      43.874  27.720  29.167  1.00  0.00    -0.246 OA
BRANCH   8  10
ATOM     10  C   UNL A   1      44.555  27.187  26.912  1.00  0.00     0.119 A 
ATOM     11  C   UNL A   1      44.645  25.801  26.659  1.00  0.00     0.054 A 
ATOM     12  C   UNL A   1      45.499  25.369  25.625  1.00  0.00     0.027 A 
ATOM     13  C   UNL A   1      46.215  26.280  24.841  1.00  0.00     0.005 A 
ATOM     14  C   UNL A   1      45.275  28.089  26.116  1.00  0.00     0.139 A 
ATOM     15  C   UNL A   1      46.091  27.644  25.079  1.00  0.00     0.040 A 
ATOM     16  F   UNL A   1      45.187  29.412  26.315  1.00  0.00    -0.206 F 
BRANCH  11  17
ATOM     17  N   UNL A   1      43.850  24.852  27.349  1.00  0.00    -0.370 N 
ATOM     18  C   UNL A   1      42.802  23.042  27.189  1.00  0.00     0.028 C 
ATOM     19  C   UNL A   1      42.493  24.520  27.002  1.00  0.00     0.122 C 
ATOM     20  C   UNL A   1      44.198  23.488  27.648  1.00  0.00     0.122 C 
BRANCH  18  21
ATOM     21  C   UNL A   1      41.875  22.374  28.200  1.00  0.00     0.004 C 
ATOM     22  C   UNL A   1      41.409  21.023  27.693  1.00  0.00     0.004 C 
ENDBRANCH  18  21
ENDBRANCH  11  17
ENDBRANCH   8  10
ENDBRANCH   7   8
ENDBRANCH   6   7
ENDBRANCH   5   6
ENDBRANCH   4   5
ENDBRANCH   3   4
ENDBRANCH   2   3
ENDBRANCH   1   2
BRANCH   1  23
ATOM     23  C   UNL A   1      38.000  31.864  29.095  1.00  0.00     0.188 C 
BRANCH  23  24
ATOM     24  C   UNL A   1      37.534  33.141  29.825  1.00  0.00     0.188 C 
BRANCH  24  25
ATOM     25  O   UNL A   1      36.128  33.213  29.995  1.00  0.00    -0.376 OA
BRANCH  25  26
ATOM     26  C   UNL A   1      35.569  33.621  31.231  1.00  0.00     0.202 C 
BRANCH  26  27
ATOM     27  C   UNL A   1      34.984  32.654  32.280  1.00  0.00     0.261 C 
BRANCH  27  28
ATOM     28  O   UNL A   1      35.853  31.689  32.878  1.00  0.00    -0.460 OA
BRANCH  28  29
ATOM     29  C   UNL A   1      36.755  32.122  33.778  1.00  0.00     0.338 C 
ATOM     30  O   UNL A   1      36.537  32.748  34.803  1.00  0.00    -0.246 OA
BRANCH  29  31
ATOM     31  C   UNL A   1      38.053  31.517  33.412  1.00  0.00     0.060 A 
ATOM     32  C   UNL A   1      39.214  31.965  34.056  1.00  0.00     0.016 A 
ATOM     33  C   UNL A   1      38.117  30.481  32.475  1.00  0.00     0.016 A 
ATOM     34  C   UNL A   1      40.448  31.408  33.735  1.00  0.00     0.010 A 
ATOM     35  C   UNL A   1      39.359  29.944  32.130  1.00  0.00     0.010 A 
ATOM     36  C   UNL A   1      40.530  30.436  32.730  1.00  0.00    -0.014 A 
BRANCH  36  37
ATOM     37  C   UNL A   1      41.858  30.110  32.163  1.00  0.00     0.031 A 
ATOM     38  C   UNL A   1      42.538  28.854  32.636  1.00  0.00     0.074 A 
ATOM     39  C   UNL A   1      42.414  30.869  31.205  1.00  0.00     0.049 A 
ATOM     40  N   UNL A   1      43.688  28.347  32.275  1.00  0.00    -0.248 NA
ATOM     41  C   UNL A   1      41.821  28.062  33.649  1.00  0.00     0.031 C 
ATOM     42  C   UNL A   1      41.825  32.080  30.638  1.00  0.00     0.029 A 
ATOM     43  N   UNL A   1      43.602  30.722  30.534  1.00  0.00    -0.354 N 
ATOM     44  C   UNL A   1      43.829  27.179  33.015  1.00  0.00     0.074 A 
ATOM     45  C   UNL A   1      42.671  27.071  33.873  1.00  0.00     0.031 C 
ATOM     46  C   UNL A   1      42.655  32.567  29.699  1.00  0.00     0.029 A 
ATOM     47  C   UNL A   1      43.844  31.718  29.621  1.00  0.00     0.049 A 
ATOM     48  H   UNL A   1      44.222  29.974  30.692  1.00  0.00     0.167 HD
ATOM     49  C   UNL A   1      44.829  26.269  32.967  1.00  0.00     0.037 A 
ATOM     50  C   UNL A   1      44.910  31.923  28.824  1.00  0.00     0.037 A 
ATOM     51  C   UNL A   1      45.980  26.383  32.112  1.00  0.00     0.049 A 
ATOM     52  C   UNL A   1      46.047  30.934  28.846  1.00  0.00     0.074 A 
ATOM     53  C   UNL A   1      47.044  25.509  31.985  1.00  0.00     0.029 A 
ATOM     54  N   UNL A   1      46.217  27.434  31.239  1.00  0.00    -0.354 N 
ATOM     55  N   UNL A   1      46.168  29.826  29.536  1.00  0.00    -0.248 NA
ATOM     56  C   UNL A   1      47.192  31.222  27.970  1.00  0.00     0.031 C 
ATOM     57  C   UNL A   1      47.955  26.061  31.080  1.00  0.00     0.029 A 
ATOM     58  C   UNL A   1      47.425  27.246  30.591  1.00  0.00     0.049 A 
ATOM     59  H   UNL A   1      45.614  28.201  31.102  1.00  0.00     0.167 HD
ATOM     60  C   UNL A   1      47.387  29.274  29.164  1.00  0.00     0.074 A 
ATOM     61  C   UNL A   1      47.958  30.159  28.169  1.00  0.00     0.031 C 
ATOM     62  C   UNL A   1      47.984  28.138  29.607  1.00  0.00     0.037 A 
BRANCH  49  63
ATOM     63  C   UNL A   1      44.734  25.079  33.877  1.00  0.00     0.057 A 
ATOM     64  C   UNL A   1      44.213  23.866  33.410  1.00  0.00     0.134 A 
ATOM     65  C   UNL A   1      45.098  25.149  35.228  1.00  0.00     0.134 A 
ATOM     66  F   UNL A   1      43.848  23.730  32.127  1.00  0.00    -0.206 F 
ATOM     67  C   UNL A   1      44.036  22.773  34.260  1.00  0.00     0.040 A 
ATOM     68  C   UNL A   1      44.952  24.054  36.080  1.00  0.00     0.040 A 
ATOM     69  F   UNL A   1      45.622  26.277  35.734  1.00  0.00    -0.206 F 
ATOM     70  C   UNL A   1      44.407  22.865  35.599  1.00  0.00     0.006 A 
ENDBRANCH  49  63
BRANCH  50  71
ATOM     71  C   UNL A   1      44.947  33.110  27.932  1.00  0.00     0.057 A 
ATOM     72  C   UNL A   1      45.524  34.317  28.347  1.00  0.00     0.134 A 
ATOM     73  C   UNL A   1      44.401  33.069  26.644  1.00  0.00     0.134 A 
ATOM     74  F   UNL A   1      46.066  34.424  29.569  1.00  0.00    -0.206 F 
ATOM     75  C   UNL A   1      45.538  35.444  27.523  1.00  0.00     0.040 A 
ATOM     76  C   UNL A   1      44.433  34.179  25.799  1.00  0.00     0.040 A 
ATOM     77  F   UNL A   1      43.857  31.934  26.177  1.00  0.00    -0.206 F 
ATOM     78  C   UNL A   1      44.994  35.375  26.243  1.00  0.00     0.006 A 
ENDBRANCH  50  71
BRANCH  62  79
ATOM     79  C   UNL A   1      49.314  27.774  29.008  1.00  0.00     0.057 A 
ATOM     80  C   UNL A   1      50.506  28.265  29.559  1.00  0.00     0.134 A 
ATOM     81  C   UNL A   1      49.415  26.984  27.855  1.00  0.00     0.134 A 
ATOM     82  F   UNL A   1      50.482  29.041  30.652  1.00  0.00    -0.206 F 
ATOM     83  C   UNL A   1      51.746  27.987  28.984  1.00  0.00     0.040 A 
ATOM     84  C   UNL A   1      50.652  26.670  27.291  1.00  0.00     0.040 A 
ATOM     85  F   UNL A   1      48.314  26.477  27.280  1.00  0.00    -0.206 F 
ATOM     86  C   UNL A   1      51.822  27.180  27.852  1.00  0.00     0.006 A 
ENDBRANCH  62  79
ENDBRANCH  36  37
ENDBRANCH  29  31
ENDBRANCH  28  29
ENDBRANCH  27  28
ENDBRANCH  26  27
ENDBRANCH  25  26
ENDBRANCH  24  25
ENDBRANCH  23  24
ENDBRANCH   1  23
TORSDOF 22
ENDMDL
