MODEL 1
REMARK VINA RESULT:      -9.6      0.000      0.000
REMARK SMILES CC(C)(C)OC(=O)N1CCC[C@H]1C(=O)N1CCC[C@H]1C(=O)N1CCC[C@@H]1C(=O)OCCOCCOCCOCCOC(=O)c1ccc(-c2c3nc(c(-c4c(F)cccc4F)c4ccc([nH]4)c(-c4c(F)cccc4F)c4nc(c(-c5c(F)cccc5F)c5ccc2[nH]5)C=C4)C=C3)cc1
REMARK SMILES IDX 33 1 32 2 31 3 30 4 29 5 27 6 28 7 26 8 22 9 23 10 24 11
REMARK SMILES IDX 25 12 20 13 21 14 19 15 15 16 16 17 17 18 18 19 13 20 14 21
REMARK SMILES IDX 12 22 8 23 9 24 10 25 11 26 6 27 7 28 5 29 2 30 1 31 3 32
REMARK SMILES IDX 4 33 34 34 35 35 36 36 37 37 38 38 39 39 40 40 41 41 42 42
REMARK SMILES IDX 43 43 44 44 45 45 97 46 46 47 96 48 47 49 48 50 49 51 90 52
REMARK SMILES IDX 50 53 95 54 89 55 91 56 51 57 94 58 88 59 87 60 52 62 78 63
REMARK SMILES IDX 61 64 77 65 62 66 65 67 76 68 92 69 63 70 64 71 75 73 93 74
REMARK SMILES IDX 66 75 53 76 54 77 59 78 55 79 56 80 58 81 60 82 57 83 79 84
REMARK SMILES IDX 80 85 85 86 81 87 82 88 84 89 86 90 83 91 67 92 68 93 73 94
REMARK SMILES IDX 69 95 70 96 72 97 74 98 71 99
REMARK H PARENT 91 61 65 72
REMARK Flexibility Score: inf
ROOT
ATOM      1  C   UNL A   1      34.028  32.835  28.577  1.00  0.00     0.188 C 
ENDROOT
BRANCH   1   2
ATOM      2  O   UNL A   1      34.158  31.684  27.757  1.00  0.00    -0.376 OA
BRANCH   2   3
ATOM      3  C   UNL A   1      35.202  30.737  27.908  1.00  0.00     0.202 C 
BRANCH   3   4
ATOM      4  C   UNL A   1      35.155  29.329  27.296  1.00  0.00     0.261 C 
BRANCH   4   5
ATOM      5  O   UNL A   1      34.329  29.162  26.136  1.00  0.00    -0.462 OA
BRANCH   5   6
ATOM      6  C   UNL A   1      33.323  28.267  26.280  1.00  0.00     0.328 C 
ATOM      7  O   UNL A   1      33.516  27.075  26.497  1.00  0.00    -0.250 OA
BRANCH   6   8
ATOM      8  C   UNL A   1      31.914  28.854  26.019  1.00  0.00     0.195 C 
ATOM      9  N   UNL A   1      31.759  29.201  24.627  1.00  0.00    -0.327 N 
ATOM     10  C   UNL A   1      30.771  30.224  24.435  1.00  0.00     0.120 C 
ATOM     11  C   UNL A   1      31.026  31.124  25.620  1.00  0.00     0.024 C 
ATOM     12  C   UNL A   1      31.485  30.160  26.723  1.00  0.00     0.039 C 
BRANCH   9  13
ATOM     13  C   UNL A   1      32.400  28.496  23.649  1.00  0.00     0.246 C 
ATOM     14  O   UNL A   1      33.447  28.895  23.150  1.00  0.00    -0.272 OA
BRANCH  13  15
ATOM     15  C   UNL A   1      31.606  27.276  23.130  1.00  0.00     0.174 C 
ATOM     16  N   UNL A   1      31.948  26.038  23.785  1.00  0.00    -0.329 N 
ATOM     17  C   UNL A   1      30.888  25.556  24.651  1.00  0.00     0.120 C 
ATOM     18  C   UNL A   1      29.626  26.298  24.224  1.00  0.00     0.024 C 
ATOM     19  C   UNL A   1      30.073  27.353  23.210  1.00  0.00     0.037 C 
BRANCH  16  20
ATOM     20  C   UNL A   1      33.105  25.425  23.385  1.00  0.00     0.246 C 
ATOM     21  O   UNL A   1      33.567  25.667  22.268  1.00  0.00    -0.272 OA
BRANCH  20  22
ATOM     22  C   UNL A   1      33.725  24.341  24.289  1.00  0.00     0.178 C 
ATOM     23  N   UNL A   1      34.050  23.089  23.574  1.00  0.00    -0.296 N 
ATOM     24  C   UNL A   1      35.472  22.948  23.367  1.00  0.00     0.124 C 
ATOM     25  C   UNL A   1      36.070  23.679  24.550  1.00  0.00     0.024 C 
ATOM     26  C   UNL A   1      35.099  24.828  24.804  1.00  0.00     0.037 C 
BRANCH  23  27
ATOM     27  C   UNL A   1      33.098  22.136  23.306  1.00  0.00     0.410 C 
ATOM     28  O   UNL A   1      32.098  22.369  22.669  1.00  0.00    -0.224 OA
BRANCH  27  29
ATOM     29  O   UNL A   1      33.330  20.921  23.874  1.00  0.00    -0.444 OA
BRANCH  29  30
ATOM     30  C   UNL A   1      32.877  20.715  25.249  1.00  0.00     0.106 C 
ATOM     31  C   UNL A   1      32.587  19.214  25.363  1.00  0.00     0.056 C 
ATOM     32  C   UNL A   1      31.585  21.510  25.465  1.00  0.00     0.056 C 
ATOM     33  C   UNL A   1      33.919  21.052  26.340  1.00  0.00     0.056 C 
ENDBRANCH  29  30
ENDBRANCH  27  29
ENDBRANCH  23  27
ENDBRANCH  20  22
ENDBRANCH  16  20
ENDBRANCH  13  15
ENDBRANCH   9  13
ENDBRANCH   6   8
ENDBRANCH   5   6
ENDBRANCH   4   5
ENDBRANCH   3   4
ENDBRANCH   2   3
ENDBRANCH   1   2
BRANCH   1  34
ATOM     34  C   UNL A   1      33.279  34.090  28.105  1.00  0.00     0.188 C 
BRANCH  34  35
ATOM     35  O   UNL A   1      32.578  34.789  29.113  1.00  0.00    -0.377 OA
BRANCH  35  36
ATOM     36  C   UNL A   1      33.282  35.788  29.837  1.00  0.00     0.188 C 
BRANCH  36  37
ATOM     37  C   UNL A   1      33.476  35.595  31.352  1.00  0.00     0.188 C 
BRANCH  37  38
ATOM     38  O   UNL A   1      33.504  34.235  31.765  1.00  0.00    -0.376 OA
BRANCH  38  39
ATOM     39  C   UNL A   1      34.655  33.754  32.445  1.00  0.00     0.202 C 
BRANCH  39  40
ATOM     40  C   UNL A   1      35.115  32.320  32.121  1.00  0.00     0.261 C 
BRANCH  40  41
ATOM     41  O   UNL A   1      36.531  32.122  31.971  1.00  0.00    -0.460 OA
BRANCH  41  42
ATOM     42  C   UNL A   1      37.105  32.536  30.823  1.00  0.00     0.338 C 
ATOM     43  O   UNL A   1      36.948  33.605  30.264  1.00  0.00    -0.246 OA
BRANCH  42  44
ATOM     44  C   UNL A   1      38.130  31.548  30.430  1.00  0.00     0.060 A 
ATOM     45  C   UNL A   1      39.046  31.124  31.402  1.00  0.00     0.016 A 
ATOM     46  C   UNL A   1      38.233  31.096  29.112  1.00  0.00     0.016 A 
ATOM     47  C   UNL A   1      40.122  30.321  31.039  1.00  0.00     0.010 A 
ATOM     48  C   UNL A   1      39.326  30.305  28.743  1.00  0.00     0.010 A 
ATOM     49  C   UNL A   1      40.307  29.973  29.695  1.00  0.00    -0.014 A 
BRANCH  49  50
ATOM     50  C   UNL A   1      41.658  29.537  29.264  1.00  0.00     0.031 A 
ATOM     51  C   UNL A   1      41.829  28.102  28.835  1.00  0.00     0.074 A 
ATOM     52  C   UNL A   1      42.684  30.400  29.165  1.00  0.00     0.049 A 
ATOM     53  N   UNL A   1      42.889  27.489  28.376  1.00  0.00    -0.248 NA
ATOM     54  C   UNL A   1      40.637  27.243  28.936  1.00  0.00     0.031 C 
ATOM     55  C   UNL A   1      42.633  31.821  29.500  1.00  0.00     0.029 A 
ATOM     56  N   UNL A   1      43.973  30.196  28.741  1.00  0.00    -0.354 N 
ATOM     57  C   UNL A   1      42.492  26.178  28.136  1.00  0.00     0.074 A 
ATOM     58  C   UNL A   1      41.108  26.072  28.539  1.00  0.00     0.031 C 
ATOM     59  C   UNL A   1      43.842  32.363  29.269  1.00  0.00     0.029 A 
ATOM     60  C   UNL A   1      44.753  31.325  28.791  1.00  0.00     0.049 A 
ATOM     61  H   UNL A   1      44.307  29.324  28.429  1.00  0.00     0.167 HD
ATOM     62  C   UNL A   1      43.206  25.156  27.611  1.00  0.00     0.037 A 
ATOM     63  C   UNL A   1      46.056  31.492  28.491  1.00  0.00     0.037 A 
ATOM     64  C   UNL A   1      44.584  25.259  27.208  1.00  0.00     0.049 A 
ATOM     65  C   UNL A   1      46.852  30.322  27.971  1.00  0.00     0.074 A 
ATOM     66  C   UNL A   1      45.400  24.283  26.667  1.00  0.00     0.029 A 
ATOM     67  N   UNL A   1      45.348  26.410  27.311  1.00  0.00    -0.354 N 
ATOM     68  N   UNL A   1      46.461  29.092  27.729  1.00  0.00    -0.248 NA
ATOM     69  C   UNL A   1      48.269  30.568  27.668  1.00  0.00     0.031 C 
ATOM     70  C   UNL A   1      46.674  24.831  26.487  1.00  0.00     0.029 A 
ATOM     71  C   UNL A   1      46.634  26.165  26.859  1.00  0.00     0.049 A 
ATOM     72  H   UNL A   1      45.026  27.276  27.654  1.00  0.00     0.167 HD
ATOM     73  C   UNL A   1      47.571  28.434  27.210  1.00  0.00     0.074 A 
ATOM     74  C   UNL A   1      48.645  29.402  27.163  1.00  0.00     0.031 C 
ATOM     75  C   UNL A   1      47.689  27.145  26.804  1.00  0.00     0.037 A 
BRANCH  62  76
ATOM     76  C   UNL A   1      42.514  23.833  27.471  1.00  0.00     0.057 A 
ATOM     77  C   UNL A   1      42.426  22.923  28.533  1.00  0.00     0.134 A 
ATOM     78  C   UNL A   1      41.918  23.466  26.258  1.00  0.00     0.134 A 
ATOM     79  F   UNL A   1      42.993  23.203  29.717  1.00  0.00    -0.206 F 
ATOM     80  C   UNL A   1      41.794  21.687  28.387  1.00  0.00     0.040 A 
ATOM     81  C   UNL A   1      41.259  22.245  26.107  1.00  0.00     0.040 A 
ATOM     82  F   UNL A   1      41.965  24.289  25.199  1.00  0.00    -0.206 F 
ATOM     83  C   UNL A   1      41.202  21.349  27.172  1.00  0.00     0.006 A 
ENDBRANCH  62  76
BRANCH  63  84
ATOM     84  C   UNL A   1      46.700  32.819  28.671  1.00  0.00     0.057 A 
ATOM     85  C   UNL A   1      46.767  33.746  27.623  1.00  0.00     0.134 A 
ATOM     86  C   UNL A   1      47.300  33.175  29.885  1.00  0.00     0.134 A 
ATOM     87  F   UNL A   1      46.233  33.453  26.428  1.00  0.00    -0.206 F 
ATOM     88  C   UNL A   1      47.428  34.967  27.769  1.00  0.00     0.040 A 
ATOM     89  C   UNL A   1      47.939  34.405  30.052  1.00  0.00     0.040 A 
ATOM     90  F   UNL A   1      47.270  32.333  30.928  1.00  0.00    -0.206 F 
ATOM     91  C   UNL A   1      48.013  35.300  28.988  1.00  0.00     0.006 A 
ENDBRANCH  63  84
BRANCH  75  92
ATOM     92  C   UNL A   1      49.006  26.723  26.216  1.00  0.00     0.057 A 
ATOM     93  C   UNL A   1      49.288  26.843  24.851  1.00  0.00     0.134 A 
ATOM     94  C   UNL A   1      50.018  26.216  27.043  1.00  0.00     0.134 A 
ATOM     95  F   UNL A   1      48.360  27.313  24.003  1.00  0.00    -0.206 F 
ATOM     96  C   UNL A   1      50.516  26.442  24.321  1.00  0.00     0.040 A 
ATOM     97  C   UNL A   1      51.261  25.841  26.530  1.00  0.00     0.040 A 
ATOM     98  F   UNL A   1      49.821  26.087  28.364  1.00  0.00    -0.206 F 
ATOM     99  C   UNL A   1      51.509  25.945  25.164  1.00  0.00     0.006 A 
ENDBRANCH  75  92
ENDBRANCH  49  50
ENDBRANCH  42  44
ENDBRANCH  41  42
ENDBRANCH  40  41
ENDBRANCH  39  40
ENDBRANCH  38  39
ENDBRANCH  37  38
ENDBRANCH  36  37
ENDBRANCH  35  36
ENDBRANCH  34  35
ENDBRANCH   1  34
TORSDOF 27
ENDMDL
MODEL 2
REMARK VINA RESULT:      -9.6      1.471      5.995
REMARK SMILES CC(C)(C)OC(=O)N1CCC[C@H]1C(=O)N1CCC[C@H]1C(=O)N1CCC[C@@H]1C(=O)OCCOCCOCCOCCOC(=O)c1ccc(-c2c3nc(c(-c4c(F)cccc4F)c4ccc([nH]4)c(-c4c(F)cccc4F)c4nc(c(-c5c(F)cccc5F)c5ccc2[nH]5)C=C4)C=C3)cc1
REMARK SMILES IDX 33 1 32 2 31 3 30 4 29 5 27 6 28 7 26 8 22 9 23 10 24 11
REMARK SMILES IDX 25 12 20 13 21 14 19 15 15 16 16 17 17 18 18 19 13 20 14 21
REMARK SMILES IDX 12 22 8 23 9 24 10 25 11 26 6 27 7 28 5 29 2 30 1 31 3 32
REMARK SMILES IDX 4 33 34 34 35 35 36 36 37 37 38 38 39 39 40 40 41 41 42 42
REMARK SMILES IDX 43 43 44 44 45 45 97 46 46 47 96 48 47 49 48 50 49 51 90 52
REMARK SMILES IDX 50 53 95 54 89 55 91 56 51 57 94 58 88 59 87 60 52 62 78 63
REMARK SMILES IDX 61 64 77 65 62 66 65 67 76 68 92 69 63 70 64 71 75 73 93 74
REMARK SMILES IDX 66 75 53 76 54 77 59 78 55 79 56 80 58 81 60 82 57 83 79 84
REMARK SMILES IDX 80 85 85 86 81 87 82 88 84 89 86 90 83 91 67 92 68 93 73 94
REMARK SMILES IDX 69 95 70 96 72 97 74 98 71 99
REMARK H PARENT 91 61 65 72
REMARK Flexibility Score: inf
ROOT
ATOM      1  C   UNL A   1      34.505  33.480  28.682  1.00  0.00     0.188 C 
ENDROOT
BRANCH   1   2
ATOM      2  O   UNL A   1      34.719  32.333  27.875  1.00  0.00    -0.376 OA
BRANCH   2   3
ATOM      3  C   UNL A   1      35.024  31.055  28.407  1.00  0.00     0.202 C 
BRANCH   3   4
ATOM      4  C   UNL A   1      35.345  29.835  27.531  1.00  0.00     0.261 C 
BRANCH   4   5
ATOM      5  O   UNL A   1      34.572  29.685  26.332  1.00  0.00    -0.462 OA
BRANCH   5   6
ATOM      6  C   UNL A   1      33.675  28.672  26.359  1.00  0.00     0.328 C 
ATOM      7  O   UNL A   1      34.004  27.490  26.393  1.00  0.00    -0.250 OA
BRANCH   6   8
ATOM      8  C   UNL A   1      32.202  29.128  26.213  1.00  0.00     0.195 C 
ATOM      9  N   UNL A   1      31.899  29.427  24.833  1.00  0.00    -0.327 N 
ATOM     10  C   UNL A   1      30.812  30.356  24.713  1.00  0.00     0.120 C 
ATOM     11  C   UNL A   1      31.087  31.303  25.856  1.00  0.00     0.024 C 
ATOM     12  C   UNL A   1      31.721  30.408  26.930  1.00  0.00     0.039 C 
BRANCH   9  13
ATOM     13  C   UNL A   1      32.514  28.757  23.815  1.00  0.00     0.246 C 
ATOM     14  O   UNL A   1      33.623  29.086  23.407  1.00  0.00    -0.272 OA
BRANCH  13  15
ATOM     15  C   UNL A   1      31.624  27.692  23.136  1.00  0.00     0.174 C 
ATOM     16  N   UNL A   1      31.220  26.624  24.016  1.00  0.00    -0.329 N 
ATOM     17  C   UNL A   1      29.807  26.678  24.342  1.00  0.00     0.120 C 
ATOM     18  C   UNL A   1      29.168  27.581  23.293  1.00  0.00     0.024 C 
ATOM     19  C   UNL A   1      30.320  28.180  22.486  1.00  0.00     0.037 C 
BRANCH  16  20
ATOM     20  C   UNL A   1      32.147  25.651  24.276  1.00  0.00     0.246 C 
ATOM     21  O   UNL A   1      33.345  25.894  24.117  1.00  0.00    -0.272 OA
BRANCH  20  22
ATOM     22  C   UNL A   1      31.659  24.231  24.627  1.00  0.00     0.178 C 
ATOM     23  N   UNL A   1      32.719  23.360  25.177  1.00  0.00    -0.296 N 
ATOM     24  C   UNL A   1      32.565  23.167  26.600  1.00  0.00     0.124 C 
ATOM     25  C   UNL A   1      31.068  23.276  26.805  1.00  0.00     0.024 C 
ATOM     26  C   UNL A   1      30.628  24.314  25.777  1.00  0.00     0.037 C 
BRANCH  23  27
ATOM     27  C   UNL A   1      33.618  22.709  24.368  1.00  0.00     0.410 C 
ATOM     28  O   UNL A   1      33.374  21.655  23.831  1.00  0.00    -0.224 OA
BRANCH  27  29
ATOM     29  O   UNL A   1      34.837  23.307  24.273  1.00  0.00    -0.444 OA
BRANCH  29  30
ATOM     30  C   UNL A   1      35.961  22.674  24.962  1.00  0.00     0.106 C 
ATOM     31  C   UNL A   1      36.668  23.807  25.715  1.00  0.00     0.056 C 
ATOM     32  C   UNL A   1      36.908  22.079  23.914  1.00  0.00     0.056 C 
ATOM     33  C   UNL A   1      35.570  21.613  26.015  1.00  0.00     0.056 C 
ENDBRANCH  29  30
ENDBRANCH  27  29
ENDBRANCH  23  27
ENDBRANCH  20  22
ENDBRANCH  16  20
ENDBRANCH  13  15
ENDBRANCH   9  13
ENDBRANCH   6   8
ENDBRANCH   5   6
ENDBRANCH   4   5
ENDBRANCH   3   4
ENDBRANCH   2   3
ENDBRANCH   1   2
BRANCH   1  34
ATOM     34  C   UNL A   1      34.274  34.872  28.075  1.00  0.00     0.188 C 
BRANCH  34  35
ATOM     35  O   UNL A   1      33.779  35.846  28.970  1.00  0.00    -0.377 OA
BRANCH  35  36
ATOM     36  C   UNL A   1      32.994  35.398  30.067  1.00  0.00     0.188 C 
BRANCH  36  37
ATOM     37  C   UNL A   1      32.917  36.286  31.322  1.00  0.00     0.188 C 
BRANCH  37  38
ATOM     38  O   UNL A   1      33.723  35.834  32.403  1.00  0.00    -0.376 OA
BRANCH  38  39
ATOM     39  C   UNL A   1      35.134  35.805  32.233  1.00  0.00     0.202 C 
BRANCH  39  40
ATOM     40  C   UNL A   1      35.933  34.857  33.147  1.00  0.00     0.261 C 
BRANCH  40  41
ATOM     41  O   UNL A   1      36.457  33.668  32.532  1.00  0.00    -0.460 OA
BRANCH  41  42
ATOM     42  C   UNL A   1      36.880  32.676  33.342  1.00  0.00     0.338 C 
ATOM     43  O   UNL A   1      36.577  32.497  34.507  1.00  0.00    -0.246 OA
BRANCH  42  44
ATOM     44  C   UNL A   1      37.636  31.700  32.532  1.00  0.00     0.060 A 
ATOM     45  C   UNL A   1      38.750  31.081  33.113  1.00  0.00     0.016 A 
ATOM     46  C   UNL A   1      37.294  31.444  31.202  1.00  0.00     0.016 A 
ATOM     47  C   UNL A   1      39.582  30.278  32.339  1.00  0.00     0.010 A 
ATOM     48  C   UNL A   1      38.141  30.653  30.418  1.00  0.00     0.010 A 
ATOM     49  C   UNL A   1      39.322  30.124  30.971  1.00  0.00    -0.014 A 
BRANCH  49  50
ATOM     50  C   UNL A   1      40.431  29.679  30.093  1.00  0.00     0.031 A 
ATOM     51  C   UNL A   1      41.544  30.657  29.817  1.00  0.00     0.074 A 
ATOM     52  C   UNL A   1      40.505  28.421  29.626  1.00  0.00     0.049 A 
ATOM     53  N   UNL A   1      42.642  30.500  29.124  1.00  0.00    -0.248 NA
ATOM     54  C   UNL A   1      41.397  31.999  30.409  1.00  0.00     0.031 C 
ATOM     55  C   UNL A   1      39.521  27.368  29.864  1.00  0.00     0.029 A 
ATOM     56  N   UNL A   1      41.468  27.819  28.856  1.00  0.00    -0.354 N 
ATOM     57  C   UNL A   1      43.311  31.716  29.196  1.00  0.00     0.074 A 
ATOM     58  C   UNL A   1      42.479  32.615  29.963  1.00  0.00     0.031 C 
ATOM     59  C   UNL A   1      39.932  26.245  29.249  1.00  0.00     0.029 A 
ATOM     60  C   UNL A   1      41.194  26.507  28.559  1.00  0.00     0.049 A 
ATOM     61  H   UNL A   1      42.279  28.283  28.546  1.00  0.00     0.167 HD
ATOM     62  C   UNL A   1      44.518  32.054  28.687  1.00  0.00     0.037 A 
ATOM     63  C   UNL A   1      41.883  25.625  27.808  1.00  0.00     0.037 A 
ATOM     64  C   UNL A   1      45.349  31.160  27.924  1.00  0.00     0.049 A 
ATOM     65  C   UNL A   1      43.195  26.043  27.193  1.00  0.00     0.074 A 
ATOM     66  C   UNL A   1      46.588  31.404  27.361  1.00  0.00     0.029 A 
ATOM     67  N   UNL A   1      45.017  29.851  27.613  1.00  0.00    -0.354 N 
ATOM     68  N   UNL A   1      43.828  27.190  27.284  1.00  0.00    -0.248 NA
ATOM     69  C   UNL A   1      43.896  25.038  26.381  1.00  0.00     0.031 C 
ATOM     70  C   UNL A   1      46.985  30.256  26.667  1.00  0.00     0.029 A 
ATOM     71  C   UNL A   1      46.020  29.278  26.850  1.00  0.00     0.049 A 
ATOM     72  H   UNL A   1      44.190  29.395  27.894  1.00  0.00     0.167 HD
ATOM     73  C   UNL A   1      45.014  27.028  26.577  1.00  0.00     0.074 A 
ATOM     74  C   UNL A   1      45.017  25.672  26.072  1.00  0.00     0.031 C 
ATOM     75  C   UNL A   1      46.015  27.920  26.368  1.00  0.00     0.037 A 
BRANCH  62  76
ATOM     76  C   UNL A   1      44.995  33.458  28.917  1.00  0.00     0.057 A 
ATOM     77  C   UNL A   1      44.654  34.509  28.055  1.00  0.00     0.134 A 
ATOM     78  C   UNL A   1      45.799  33.764  30.021  1.00  0.00     0.134 A 
ATOM     79  F   UNL A   1      43.904  34.281  26.967  1.00  0.00    -0.206 F 
ATOM     80  C   UNL A   1      45.117  35.809  28.270  1.00  0.00     0.040 A 
ATOM     81  C   UNL A   1      46.245  35.064  30.263  1.00  0.00     0.040 A 
ATOM     82  F   UNL A   1      46.163  32.805  30.886  1.00  0.00    -0.206 F 
ATOM     83  C   UNL A   1      45.909  36.090  29.381  1.00  0.00     0.006 A 
ENDBRANCH  62  76
BRANCH  63  84
ATOM     84  C   UNL A   1      41.355  24.254  27.592  1.00  0.00     0.057 A 
ATOM     85  C   UNL A   1      40.340  24.001  26.661  1.00  0.00     0.134 A 
ATOM     86  C   UNL A   1      41.826  23.169  28.341  1.00  0.00     0.134 A 
ATOM     87  F   UNL A   1      39.830  25.003  25.930  1.00  0.00    -0.206 F 
ATOM     88  C   UNL A   1      39.796  22.725  26.501  1.00  0.00     0.040 A 
ATOM     89  C   UNL A   1      41.310  21.883  28.171  1.00  0.00     0.040 A 
ATOM     90  F   UNL A   1      42.797  23.343  29.250  1.00  0.00    -0.206 F 
ATOM     91  C   UNL A   1      40.285  21.661  27.255  1.00  0.00     0.006 A 
ENDBRANCH  63  84
BRANCH  75  92
ATOM     92  C   UNL A   1      47.223  27.441  25.613  1.00  0.00     0.057 A 
ATOM     93  C   UNL A   1      47.360  27.619  24.232  1.00  0.00     0.134 A 
ATOM     94  C   UNL A   1      48.278  26.817  26.292  1.00  0.00     0.134 A 
ATOM     95  F   UNL A   1      46.383  28.203  23.521  1.00  0.00    -0.206 F 
ATOM     96  C   UNL A   1      48.487  27.164  23.546  1.00  0.00     0.040 A 
ATOM     97  C   UNL A   1      49.424  26.385  25.622  1.00  0.00     0.040 A 
ATOM     98  F   UNL A   1      48.219  26.626  27.619  1.00  0.00    -0.206 F 
ATOM     99  C   UNL A   1      49.526  26.549  24.243  1.00  0.00     0.006 A 
ENDBRANCH  75  92
ENDBRANCH  49  50
ENDBRANCH  42  44
ENDBRANCH  41  42
ENDBRANCH  40  41
ENDBRANCH  39  40
ENDBRANCH  38  39
ENDBRANCH  37  38
ENDBRANCH  36  37
ENDBRANCH  35  36
ENDBRANCH  34  35
ENDBRANCH   1  34
TORSDOF 27
ENDMDL
MODEL 3
REMARK VINA RESULT:      -9.0      3.606      9.332
REMARK SMILES CC(C)(C)OC(=O)N1CCC[C@H]1C(=O)N1CCC[C@H]1C(=O)N1CCC[C@@H]1C(=O)OCCOCCOCCOCCOC(=O)c1ccc(-c2c3nc(c(-c4c(F)cccc4F)c4ccc([nH]4)c(-c4c(F)cccc4F)c4nc(c(-c5c(F)cccc5F)c5ccc2[nH]5)C=C4)C=C3)cc1
REMARK SMILES IDX 33 1 32 2 31 3 30 4 29 5 27 6 28 7 26 8 22 9 23 10 24 11
REMARK SMILES IDX 25 12 20 13 21 14 19 15 15 16 16 17 17 18 18 19 13 20 14 21
REMARK SMILES IDX 12 22 8 23 9 24 10 25 11 26 6 27 7 28 5 29 2 30 1 31 3 32
REMARK SMILES IDX 4 33 34 34 35 35 36 36 37 37 38 38 39 39 40 40 41 41 42 42
REMARK SMILES IDX 43 43 44 44 45 45 97 46 46 47 96 48 47 49 48 50 49 51 90 52
REMARK SMILES IDX 50 53 95 54 89 55 91 56 51 57 94 58 88 59 87 60 52 62 78 63
REMARK SMILES IDX 61 64 77 65 62 66 65 67 76 68 92 69 63 70 64 71 75 73 93 74
REMARK SMILES IDX 66 75 53 76 54 77 59 78 55 79 56 80 58 81 60 82 57 83 79 84
REMARK SMILES IDX 80 85 85 86 81 87 82 88 84 89 86 90 83 91 67 92 68 93 73 94
REMARK SMILES IDX 69 95 70 96 72 97 74 98 71 99
REMARK H PARENT 91 61 65 72
REMARK Flexibility Score: inf
ROOT
ATOM      1  C   UNL A   1      34.956  16.456  25.021  1.00  0.00     0.188 C 
ENDROOT
BRANCH   1   2
ATOM      2  O   UNL A   1      33.605  16.256  25.405  1.00  0.00    -0.376 OA
BRANCH   2   3
ATOM      3  C   UNL A   1      32.698  17.320  25.639  1.00  0.00     0.202 C 
BRANCH   3   4
ATOM      4  C   UNL A   1      32.206  18.263  24.531  1.00  0.00     0.261 C 
BRANCH   4   5
ATOM      5  O   UNL A   1      31.816  19.582  24.938  1.00  0.00    -0.462 OA
BRANCH   5   6
ATOM      6  C   UNL A   1      32.821  20.489  24.959  1.00  0.00     0.328 C 
ATOM      7  O   UNL A   1      33.717  20.511  24.120  1.00  0.00    -0.250 OA
BRANCH   6   8
ATOM      8  C   UNL A   1      32.814  21.412  26.202  1.00  0.00     0.195 C 
ATOM      9  N   UNL A   1      32.670  22.794  25.807  1.00  0.00    -0.327 N 
ATOM     10  C   UNL A   1      33.214  23.691  26.786  1.00  0.00     0.120 C 
ATOM     11  C   UNL A   1      34.452  22.949  27.231  1.00  0.00     0.024 C 
ATOM     12  C   UNL A   1      34.054  21.471  27.120  1.00  0.00     0.039 C 
BRANCH   9  13
ATOM     13  C   UNL A   1      31.961  23.138  24.693  1.00  0.00     0.246 C 
ATOM     14  O   UNL A   1      30.795  22.789  24.540  1.00  0.00    -0.272 OA
BRANCH  13  15
ATOM     15  C   UNL A   1      32.804  23.839  23.603  1.00  0.00     0.174 C 
ATOM     16  N   UNL A   1      32.768  25.278  23.675  1.00  0.00    -0.329 N 
ATOM     17  C   UNL A   1      34.030  25.844  24.116  1.00  0.00     0.120 C 
ATOM     18  C   UNL A   1      35.072  24.747  23.925  1.00  0.00     0.024 C 
ATOM     19  C   UNL A   1      34.298  23.486  23.539  1.00  0.00     0.037 C 
BRANCH  16  20
ATOM     20  C   UNL A   1      31.652  25.896  23.177  1.00  0.00     0.246 C 
ATOM     21  O   UNL A   1      31.554  26.085  21.963  1.00  0.00    -0.272 OA
BRANCH  20  22
ATOM     22  C   UNL A   1      30.612  26.465  24.162  1.00  0.00     0.178 C 
ATOM     23  N   UNL A   1      30.286  27.887  23.922  1.00  0.00    -0.296 N 
ATOM     24  C   UNL A   1      28.983  28.040  23.319  1.00  0.00     0.124 C 
ATOM     25  C   UNL A   1      28.212  26.850  23.849  1.00  0.00     0.024 C 
ATOM     26  C   UNL A   1      29.260  25.745  23.951  1.00  0.00     0.037 C 
BRANCH  23  27
ATOM     27  C   UNL A   1      31.085  28.904  24.383  1.00  0.00     0.410 C 
ATOM     28  O   UNL A   1      30.854  30.070  24.165  1.00  0.00    -0.224 OA
BRANCH  27  29
ATOM     29  O   UNL A   1      32.202  28.498  25.046  1.00  0.00    -0.444 OA
BRANCH  29  30
ATOM     30  C   UNL A   1      32.329  28.867  26.455  1.00  0.00     0.106 C 
ATOM     31  C   UNL A   1      33.832  28.821  26.755  1.00  0.00     0.056 C 
ATOM     32  C   UNL A   1      31.600  27.821  27.304  1.00  0.00     0.056 C 
ATOM     33  C   UNL A   1      31.847  30.292  26.805  1.00  0.00     0.056 C 
ENDBRANCH  29  30
ENDBRANCH  27  29
ENDBRANCH  23  27
ENDBRANCH  20  22
ENDBRANCH  16  20
ENDBRANCH  13  15
ENDBRANCH   9  13
ENDBRANCH   6   8
ENDBRANCH   5   6
ENDBRANCH   4   5
ENDBRANCH   3   4
ENDBRANCH   2   3
ENDBRANCH   1   2
BRANCH   1  34
ATOM     34  C   UNL A   1      35.434  17.767  24.378  1.00  0.00     0.188 C 
BRANCH  34  35
ATOM     35  O   UNL A   1      36.398  18.486  25.118  1.00  0.00    -0.377 OA
BRANCH  35  36
ATOM     36  C   UNL A   1      36.973  19.635  24.514  1.00  0.00     0.188 C 
BRANCH  36  37
ATOM     37  C   UNL A   1      37.544  20.735  25.427  1.00  0.00     0.188 C 
BRANCH  37  38
ATOM     38  O   UNL A   1      38.963  20.733  25.523  1.00  0.00    -0.376 OA
BRANCH  38  39
ATOM     39  C   UNL A   1      39.586  21.646  26.416  1.00  0.00     0.202 C 
BRANCH  39  40
ATOM     40  C   UNL A   1      41.105  21.849  26.267  1.00  0.00     0.261 C 
BRANCH  40  41
ATOM     41  O   UNL A   1      41.604  23.168  26.547  1.00  0.00    -0.460 OA
BRANCH  41  42
ATOM     42  C   UNL A   1      42.596  23.284  27.454  1.00  0.00     0.338 C 
ATOM     43  O   UNL A   1      43.061  22.405  28.154  1.00  0.00    -0.246 OA
BRANCH  42  44
ATOM     44  C   UNL A   1      43.186  24.633  27.331  1.00  0.00     0.060 A 
ATOM     45  C   UNL A   1      43.417  25.139  26.046  1.00  0.00     0.016 A 
ATOM     46  C   UNL A   1      43.567  25.361  28.461  1.00  0.00     0.016 A 
ATOM     47  C   UNL A   1      44.115  26.332  25.883  1.00  0.00     0.010 A 
ATOM     48  C   UNL A   1      44.285  26.551  28.297  1.00  0.00     0.010 A 
ATOM     49  C   UNL A   1      44.617  27.001  27.007  1.00  0.00    -0.014 A 
BRANCH  49  50
ATOM     50  C   UNL A   1      45.721  27.972  26.808  1.00  0.00     0.031 A 
ATOM     51  C   UNL A   1      45.378  29.440  26.841  1.00  0.00     0.074 A 
ATOM     52  C   UNL A   1      47.000  27.578  26.692  1.00  0.00     0.049 A 
ATOM     53  N   UNL A   1      46.161  30.483  26.740  1.00  0.00    -0.248 NA
ATOM     54  C   UNL A   1      43.955  29.776  27.018  1.00  0.00     0.031 C 
ATOM     55  C   UNL A   1      47.466  26.194  26.695  1.00  0.00     0.029 A 
ATOM     56  N   UNL A   1      48.145  28.322  26.556  1.00  0.00    -0.354 N 
ATOM     57  C   UNL A   1      45.328  31.591  26.839  1.00  0.00     0.074 A 
ATOM     58  C   UNL A   1      43.976  31.097  26.966  1.00  0.00     0.031 C 
ATOM     59  C   UNL A   1      48.804  26.187  26.566  1.00  0.00     0.029 A 
ATOM     60  C   UNL A   1      49.284  27.563  26.450  1.00  0.00     0.049 A 
ATOM     61  H   UNL A   1      48.150  29.306  26.538  1.00  0.00     0.167 HD
ATOM     62  C   UNL A   1      45.656  32.903  26.842  1.00  0.00     0.037 A 
ATOM     63  C   UNL A   1      50.565  27.941  26.273  1.00  0.00     0.037 A 
ATOM     64  C   UNL A   1      47.002  33.397  26.717  1.00  0.00     0.049 A 
ATOM     65  C   UNL A   1      50.901  29.411  26.211  1.00  0.00     0.074 A 
ATOM     66  C   UNL A   1      47.442  34.709  26.707  1.00  0.00     0.029 A 
ATOM     67  N   UNL A   1      48.123  32.596  26.574  1.00  0.00    -0.354 N 
ATOM     68  N   UNL A   1      50.108  30.450  26.326  1.00  0.00    -0.248 NA
ATOM     69  C   UNL A   1      52.315  29.759  26.010  1.00  0.00     0.031 C 
ATOM     70  C   UNL A   1      48.827  34.701  26.508  1.00  0.00     0.029 A 
ATOM     71  C   UNL A   1      49.255  33.385  26.456  1.00  0.00     0.049 A 
ATOM     72  H   UNL A   1      48.117  31.611  26.558  1.00  0.00     0.167 HD
ATOM     73  C   UNL A   1      50.931  31.569  26.251  1.00  0.00     0.074 A 
ATOM     74  C   UNL A   1      52.284  31.080  26.091  1.00  0.00     0.031 C 
ATOM     75  C   UNL A   1      50.598  32.882  26.314  1.00  0.00     0.037 A 
BRANCH  62  76
ATOM     76  C   UNL A   1      44.535  33.893  26.958  1.00  0.00     0.057 A 
ATOM     77  C   UNL A   1      44.094  34.376  28.197  1.00  0.00     0.134 A 
ATOM     78  C   UNL A   1      43.892  34.377  25.812  1.00  0.00     0.134 A 
ATOM     79  F   UNL A   1      44.653  33.938  29.336  1.00  0.00    -0.206 F 
ATOM     80  C   UNL A   1      43.038  35.285  28.293  1.00  0.00     0.040 A 
ATOM     81  C   UNL A   1      42.854  35.306  25.893  1.00  0.00     0.040 A 
ATOM     82  F   UNL A   1      44.263  33.955  24.593  1.00  0.00    -0.206 F 
ATOM     83  C   UNL A   1      42.420  35.757  27.138  1.00  0.00     0.006 A 
ENDBRANCH  62  76
BRANCH  63  84
ATOM     84  C   UNL A   1      51.635  26.920  26.140  1.00  0.00     0.057 A 
ATOM     85  C   UNL A   1      52.382  26.497  27.247  1.00  0.00     0.134 A 
ATOM     86  C   UNL A   1      51.964  26.371  24.895  1.00  0.00     0.134 A 
ATOM     87  F   UNL A   1      52.133  27.004  28.463  1.00  0.00    -0.206 F 
ATOM     88  C   UNL A   1      53.431  25.585  27.115  1.00  0.00     0.040 A 
ATOM     89  C   UNL A   1      52.992  25.437  24.754  1.00  0.00     0.040 A 
ATOM     90  F   UNL A   1      51.286  26.733  23.795  1.00  0.00    -0.206 F 
ATOM     91  C   UNL A   1      53.736  25.050  25.866  1.00  0.00     0.006 A 
ENDBRANCH  63  84
BRANCH  75  92
ATOM     92  C   UNL A   1      51.719  33.882  26.272  1.00  0.00     0.057 A 
ATOM     93  C   UNL A   1      52.189  34.429  25.072  1.00  0.00     0.134 A 
ATOM     94  C   UNL A   1      52.314  34.326  27.461  1.00  0.00     0.134 A 
ATOM     95  F   UNL A   1      51.667  34.041  23.898  1.00  0.00    -0.206 F 
ATOM     96  C   UNL A   1      53.234  35.354  25.052  1.00  0.00     0.040 A 
ATOM     97  C   UNL A   1      53.339  35.274  27.455  1.00  0.00     0.040 A 
ATOM     98  F   UNL A   1      51.904  33.855  28.648  1.00  0.00    -0.206 F 
ATOM     99  C   UNL A   1      53.808  35.783  26.247  1.00  0.00     0.006 A 
ENDBRANCH  75  92
ENDBRANCH  49  50
ENDBRANCH  42  44
ENDBRANCH  41  42
ENDBRANCH  40  41
ENDBRANCH  39  40
ENDBRANCH  38  39
ENDBRANCH  37  38
ENDBRANCH  36  37
ENDBRANCH  35  36
ENDBRANCH  34  35
ENDBRANCH   1  34
TORSDOF 27
ENDMDL
