MODEL 1
REMARK VINA RESULT:     -10.3      0.000      0.000
REMARK SMILES O=C(OCCOCCOCCOCCOC(=O)[C@@H]1CC2(CC[NH2+]CC2)C[N@@H+]1Cc1cccc2nonc12)c1ccc(-c2c3nc(c(-c4c(F)cccc4F)c4ccc([nH]4)c(-c4c(F)cccc4F)c4nc(c(-c5c(F)cccc5F)c5ccc2[nH]5)C=C4)C=C3)cc1
REMARK SMILES IDX 9 1 8 2 7 3 6 4 5 5 4 6 3 7 2 8 1 9 38 10 39 11 91 12 40 13
REMARK SMILES IDX 90 14 41 15 42 16 43 17 84 18 44 19 89 20 83 21 85 22 45 23
REMARK SMILES IDX 88 24 82 25 81 26 46 28 72 29 55 30 71 31 56 32 59 33 70 34
REMARK SMILES IDX 86 35 57 36 58 37 69 39 87 40 60 41 47 42 48 43 53 44 49 45
REMARK SMILES IDX 50 46 52 47 54 48 51 49 73 50 74 51 79 52 75 53 76 54 78 55
REMARK SMILES IDX 80 56 77 57 61 58 62 59 67 60 63 61 64 62 66 63 68 64 65 65
REMARK SMILES IDX 10 66 11 67 12 68 13 69 14 70 15 71 16 72 17 73 18 74 19 75
REMARK SMILES IDX 27 76 20 77 26 78 21 80 25 81 22 82 24 83 23 84 28 87 29 88
REMARK SMILES IDX 30 89 37 90 31 91 33 92 36 93 32 94 34 95 35 96
REMARK H PARENT 85 27 59 38 27 79 23 85 23 86
REMARK Flexibility Score: inf
ROOT
ATOM      1  O   UNL A   1      42.322  21.287  27.577  1.00  0.00    -0.377 OA
ENDROOT
BRANCH   1   2
ATOM      2  C   UNL A   1      43.263  22.162  26.952  1.00  0.00     0.188 C 
BRANCH   2   3
ATOM      3  C   UNL A   1      43.533  21.940  25.460  1.00  0.00     0.188 C 
BRANCH   3   4
ATOM      4  O   UNL A   1      43.134  23.087  24.721  1.00  0.00    -0.376 OA
BRANCH   4   5
ATOM      5  C   UNL A   1      43.538  24.349  25.249  1.00  0.00     0.202 C 
BRANCH   5   6
ATOM      6  C   UNL A   1      42.491  25.427  25.012  1.00  0.00     0.261 C 
BRANCH   6   7
ATOM      7  O   UNL A   1      42.624  26.401  26.056  1.00  0.00    -0.460 OA
BRANCH   7   8
ATOM      8  C   UNL A   1      42.246  27.653  25.691  1.00  0.00     0.338 C 
ATOM      9  O   UNL A   1      42.447  28.178  24.608  1.00  0.00    -0.246 OA
BRANCH   8  10
ATOM     10  C   UNL A   1      41.632  28.343  26.848  1.00  0.00     0.060 A 
ATOM     11  C   UNL A   1      40.245  28.489  26.919  1.00  0.00     0.016 A 
ATOM     12  C   UNL A   1      42.438  28.943  27.814  1.00  0.00     0.016 A 
ATOM     13  C   UNL A   1      39.672  29.185  27.992  1.00  0.00     0.010 A 
ATOM     14  C   UNL A   1      41.870  29.670  28.848  1.00  0.00     0.010 A 
ATOM     15  C   UNL A   1      40.481  29.772  28.979  1.00  0.00    -0.014 A 
BRANCH  15  16
ATOM     16  C   UNL A   1      39.900  30.292  30.240  1.00  0.00     0.031 A 
ATOM     17  C   UNL A   1      40.173  29.471  31.471  1.00  0.00     0.074 A 
ATOM     18  C   UNL A   1      39.594  31.586  30.450  1.00  0.00     0.049 A 
ATOM     19  N   UNL A   1      41.241  29.605  32.207  1.00  0.00    -0.248 NA
ATOM     20  C   UNL A   1      39.414  28.248  31.742  1.00  0.00     0.031 C 
ATOM     21  C   UNL A   1      40.459  32.701  30.054  1.00  0.00     0.029 A 
ATOM     22  N   UNL A   1      38.670  32.147  31.301  1.00  0.00    -0.354 N 
ATOM     23  C   UNL A   1      41.338  28.467  32.993  1.00  0.00     0.074 A 
ATOM     24  C   UNL A   1      40.176  27.662  32.678  1.00  0.00     0.031 C 
ATOM     25  C   UNL A   1      40.130  33.776  30.800  1.00  0.00     0.029 A 
ATOM     26  C   UNL A   1      38.946  33.475  31.604  1.00  0.00     0.049 A 
ATOM     27  H   UNL A   1      37.892  31.659  31.658  1.00  0.00     0.167 HD
ATOM     28  C   UNL A   1      42.366  28.219  33.847  1.00  0.00     0.037 A 
ATOM     29  C   UNL A   1      38.620  34.080  32.777  1.00  0.00     0.037 A 
ATOM     30  C   UNL A   1      43.365  29.239  33.955  1.00  0.00     0.049 A 
ATOM     31  C   UNL A   1      39.621  33.479  33.720  1.00  0.00     0.074 A 
ATOM     32  C   UNL A   1      44.601  29.536  33.418  1.00  0.00     0.029 A 
ATOM     33  N   UNL A   1      43.101  30.291  34.801  1.00  0.00    -0.354 N 
ATOM     34  N   UNL A   1      40.841  33.893  33.908  1.00  0.00    -0.248 NA
ATOM     35  C   UNL A   1      39.335  32.151  34.270  1.00  0.00     0.031 C 
ATOM     36  C   UNL A   1      44.774  30.948  33.606  1.00  0.00     0.029 A 
ATOM     37  C   UNL A   1      43.606  31.415  34.201  1.00  0.00     0.049 A 
ATOM     38  H   UNL A   1      42.639  30.245  35.669  1.00  0.00     0.167 HD
ATOM     39  C   UNL A   1      41.546  32.764  34.327  1.00  0.00     0.074 A 
ATOM     40  C   UNL A   1      40.554  31.747  34.602  1.00  0.00     0.031 C 
ATOM     41  C   UNL A   1      42.901  32.666  34.215  1.00  0.00     0.037 A 
BRANCH  28  42
ATOM     42  C   UNL A   1      42.396  27.081  34.787  1.00  0.00     0.057 A 
ATOM     43  C   UNL A   1      43.125  25.916  34.553  1.00  0.00     0.134 A 
ATOM     44  C   UNL A   1      41.820  27.249  36.054  1.00  0.00     0.134 A 
ATOM     45  F   UNL A   1      43.702  25.699  33.362  1.00  0.00    -0.206 F 
ATOM     46  C   UNL A   1      43.308  24.967  35.563  1.00  0.00     0.040 A 
ATOM     47  C   UNL A   1      42.001  26.316  37.072  1.00  0.00     0.040 A 
ATOM     48  F   UNL A   1      41.109  28.356  36.330  1.00  0.00    -0.206 F 
ATOM     49  C   UNL A   1      42.760  25.175  36.831  1.00  0.00     0.006 A 
ENDBRANCH  28  42
BRANCH  29  50
ATOM     50  C   UNL A   1      37.171  34.184  33.120  1.00  0.00     0.057 A 
ATOM     51  C   UNL A   1      36.650  34.241  34.418  1.00  0.00     0.134 A 
ATOM     52  C   UNL A   1      36.230  34.285  32.077  1.00  0.00     0.134 A 
ATOM     53  F   UNL A   1      37.450  34.278  35.491  1.00  0.00    -0.206 F 
ATOM     54  C   UNL A   1      35.273  34.261  34.668  1.00  0.00     0.040 A 
ATOM     55  C   UNL A   1      34.854  34.328  32.311  1.00  0.00     0.040 A 
ATOM     56  F   UNL A   1      36.635  34.356  30.798  1.00  0.00    -0.206 F 
ATOM     57  C   UNL A   1      34.369  34.288  33.612  1.00  0.00     0.006 A 
ENDBRANCH  29  50
BRANCH  41  58
ATOM     58  C   UNL A   1      43.539  33.927  33.769  1.00  0.00     0.057 A 
ATOM     59  C   UNL A   1      44.025  34.863  34.689  1.00  0.00     0.134 A 
ATOM     60  C   UNL A   1      43.805  34.133  32.414  1.00  0.00     0.134 A 
ATOM     61  F   UNL A   1      43.770  34.736  36.000  1.00  0.00    -0.206 F 
ATOM     62  C   UNL A   1      44.784  35.957  34.270  1.00  0.00     0.040 A 
ATOM     63  C   UNL A   1      44.537  35.238  31.981  1.00  0.00     0.040 A 
ATOM     64  F   UNL A   1      43.372  33.254  31.496  1.00  0.00    -0.206 F 
ATOM     65  C   UNL A   1      45.035  36.150  32.912  1.00  0.00     0.006 A 
ENDBRANCH  41  58
ENDBRANCH  15  16
ENDBRANCH   8  10
ENDBRANCH   7   8
ENDBRANCH   6   7
ENDBRANCH   5   6
ENDBRANCH   4   5
ENDBRANCH   3   4
ENDBRANCH   2   3
ENDBRANCH   1   2
BRANCH   1  66
ATOM     66  C   UNL A   1      40.965  21.699  27.663  1.00  0.00     0.188 C 
BRANCH  66  67
ATOM     67  C   UNL A   1      40.573  23.180  27.904  1.00  0.00     0.188 C 
BRANCH  67  68
ATOM     68  O   UNL A   1      39.863  23.890  26.917  1.00  0.00    -0.376 OA
BRANCH  68  69
ATOM     69  C   UNL A   1      38.880  23.252  26.112  1.00  0.00     0.202 C 
BRANCH  69  70
ATOM     70  C   UNL A   1      37.381  23.597  26.128  1.00  0.00     0.261 C 
BRANCH  70  71
ATOM     71  O   UNL A   1      36.532  22.696  25.408  1.00  0.00    -0.459 OA
BRANCH  71  72
ATOM     72  C   UNL A   1      35.194  22.819  25.634  1.00  0.00     0.365 C 
ATOM     73  O   UNL A   1      34.736  23.350  26.637  1.00  0.00    -0.245 OA
BRANCH  72  74
ATOM     74  C   UNL A   1      34.369  22.291  24.441  1.00  0.00     0.296 C 
ATOM     75  C   UNL A   1      34.139  23.381  23.390  1.00  0.00     0.091 C 
ATOM     76  N   UNL A   1      32.976  21.924  24.727  1.00  0.00    -0.319 N 
ATOM     77  C   UNL A   1      32.873  24.154  23.829  1.00  0.00     0.036 C 
ATOM     78  C   UNL A   1      32.123  23.108  24.691  1.00  0.00     0.270 C 
ATOM     79  H   UNL A   1      32.643  21.347  23.956  1.00  0.00     0.349 HD
ATOM     80  C   UNL A   1      32.067  24.622  22.598  1.00  0.00     0.074 C 
ATOM     81  C   UNL A   1      33.157  25.448  24.639  1.00  0.00     0.074 C 
ATOM     82  C   UNL A   1      32.791  25.736  21.825  1.00  0.00     0.261 C 
ATOM     83  C   UNL A   1      33.910  26.500  23.831  1.00  0.00     0.261 C 
ATOM     84  N   UNL A   1      33.136  26.893  22.655  1.00  0.00    -0.346 N 
ATOM     85  H   UNL A   1      32.276  27.348  22.962  1.00  0.00     0.346 HD
ATOM     86  H   UNL A   1      33.706  27.529  22.097  1.00  0.00     0.346 HD
BRANCH  76  87
ATOM     87  C   UNL A   1      32.724  20.858  25.695  1.00  0.00     0.302 C 
BRANCH  87  88
ATOM     88  C   UNL A   1      32.631  19.475  25.117  1.00  0.00     0.038 A 
ATOM     89  C   UNL A   1      32.912  18.329  25.906  1.00  0.00     0.012 A 
ATOM     90  C   UNL A   1      32.454  19.182  23.740  1.00  0.00     0.144 A 
ATOM     91  C   UNL A   1      33.171  17.049  25.370  1.00  0.00     0.003 A 
ATOM     92  C   UNL A   1      32.688  17.851  23.195  1.00  0.00     0.135 A 
ATOM     93  N   UNL A   1      32.136  19.995  22.723  1.00  0.00    -0.049 NA
ATOM     94  C   UNL A   1      33.091  16.775  24.001  1.00  0.00     0.034 A 
ATOM     95  N   UNL A   1      32.495  17.895  21.870  1.00  0.00    -0.050 NA
ATOM     96  O   UNL A   1      32.156  19.206  21.585  1.00  0.00    -0.243 OA
ENDBRANCH  87  88
ENDBRANCH  76  87
ENDBRANCH  72  74
ENDBRANCH  71  72
ENDBRANCH  70  71
ENDBRANCH  69  70
ENDBRANCH  68  69
ENDBRANCH  67  68
ENDBRANCH  66  67
ENDBRANCH   1  66
TORSDOF 22
ENDMDL
MODEL 2
REMARK VINA RESULT:     -10.0      6.998     11.374
REMARK SMILES O=C(OCCOCCOCCOCCOC(=O)[C@@H]1CC2(CC[NH2+]CC2)C[N@@H+]1Cc1cccc2nonc12)c1ccc(-c2c3nc(c(-c4c(F)cccc4F)c4ccc([nH]4)c(-c4c(F)cccc4F)c4nc(c(-c5c(F)cccc5F)c5ccc2[nH]5)C=C4)C=C3)cc1
REMARK SMILES IDX 9 1 8 2 7 3 6 4 5 5 4 6 3 7 2 8 1 9 38 10 39 11 91 12 40 13
REMARK SMILES IDX 90 14 41 15 42 16 43 17 84 18 44 19 89 20 83 21 85 22 45 23
REMARK SMILES IDX 88 24 82 25 81 26 46 28 72 29 55 30 71 31 56 32 59 33 70 34
REMARK SMILES IDX 86 35 57 36 58 37 69 39 87 40 60 41 47 42 48 43 53 44 49 45
REMARK SMILES IDX 50 46 52 47 54 48 51 49 73 50 74 51 79 52 75 53 76 54 78 55
REMARK SMILES IDX 80 56 77 57 61 58 62 59 67 60 63 61 64 62 66 63 68 64 65 65
REMARK SMILES IDX 10 66 11 67 12 68 13 69 14 70 15 71 16 72 17 73 18 74 19 75
REMARK SMILES IDX 27 76 20 77 26 78 21 80 25 81 22 82 24 83 23 84 28 87 29 88
REMARK SMILES IDX 30 89 37 90 31 91 33 92 36 93 32 94 34 95 35 96
REMARK H PARENT 85 27 59 38 27 79 23 85 23 86
REMARK Flexibility Score: inf
ROOT
ATOM      1  O   UNL A   1      35.039  32.748  27.616  1.00  0.00    -0.377 OA
ENDROOT
BRANCH   1   2
ATOM      2  C   UNL A   1      35.956  31.789  28.144  1.00  0.00     0.188 C 
BRANCH   2   3
ATOM      3  C   UNL A   1      37.247  32.331  28.767  1.00  0.00     0.188 C 
BRANCH   3   4
ATOM      4  O   UNL A   1      36.988  33.568  29.416  1.00  0.00    -0.376 OA
BRANCH   4   5
ATOM      5  C   UNL A   1      37.939  33.974  30.399  1.00  0.00     0.202 C 
BRANCH   5   6
ATOM      6  C   UNL A   1      39.204  33.129  30.350  1.00  0.00     0.261 C 
BRANCH   6   7
ATOM      7  O   UNL A   1      40.303  33.969  30.729  1.00  0.00    -0.460 OA
BRANCH   7   8
ATOM      8  C   UNL A   1      41.440  33.736  30.024  1.00  0.00     0.338 C 
ATOM      9  O   UNL A   1      42.039  32.676  29.953  1.00  0.00    -0.246 OA
BRANCH   8  10
ATOM     10  C   UNL A   1      41.918  35.002  29.424  1.00  0.00     0.060 A 
ATOM     11  C   UNL A   1      41.288  35.521  28.291  1.00  0.00     0.016 A 
ATOM     12  C   UNL A   1      43.064  35.624  29.919  1.00  0.00     0.016 A 
ATOM     13  C   UNL A   1      41.775  36.694  27.697  1.00  0.00     0.010 A 
ATOM     14  C   UNL A   1      43.570  36.757  29.302  1.00  0.00     0.010 A 
ATOM     15  C   UNL A   1      42.916  37.334  28.209  1.00  0.00    -0.014 A 
BRANCH  15  16
ATOM     16  C   UNL A   1      43.300  38.695  27.760  1.00  0.00     0.031 A 
ATOM     17  C   UNL A   1      43.035  39.803  28.741  1.00  0.00     0.074 A 
ATOM     18  C   UNL A   1      44.241  38.942  26.829  1.00  0.00     0.049 A 
ATOM     19  N   UNL A   1      43.871  40.154  29.678  1.00  0.00    -0.248 NA
ATOM     20  C   UNL A   1      41.687  40.349  28.913  1.00  0.00     0.031 C 
ATOM     21  C   UNL A   1      45.530  38.248  26.771  1.00  0.00     0.029 A 
ATOM     22  N   UNL A   1      44.388  40.021  25.989  1.00  0.00    -0.354 N 
ATOM     23  C   UNL A   1      43.159  40.910  30.596  1.00  0.00     0.074 A 
ATOM     24  C   UNL A   1      41.813  41.014  30.071  1.00  0.00     0.031 C 
ATOM     25  C   UNL A   1      46.394  39.019  26.078  1.00  0.00     0.029 A 
ATOM     26  C   UNL A   1      45.687  40.170  25.517  1.00  0.00     0.049 A 
ATOM     27  H   UNL A   1      43.649  40.626  25.746  1.00  0.00     0.167 HD
ATOM     28  C   UNL A   1      43.686  41.400  31.749  1.00  0.00     0.037 A 
ATOM     29  C   UNL A   1      46.258  41.362  25.198  1.00  0.00     0.037 A 
ATOM     30  C   UNL A   1      45.078  41.145  31.973  1.00  0.00     0.049 A 
ATOM     31  C   UNL A   1      46.500  41.958  26.554  1.00  0.00     0.074 A 
ATOM     32  C   UNL A   1      45.865  40.230  32.641  1.00  0.00     0.029 A 
ATOM     33  N   UNL A   1      45.977  41.990  31.367  1.00  0.00    -0.354 N 
ATOM     34  N   UNL A   1      47.530  41.730  27.317  1.00  0.00    -0.248 NA
ATOM     35  C   UNL A   1      45.377  42.620  27.223  1.00  0.00     0.031 C 
ATOM     36  C   UNL A   1      47.154  40.300  32.012  1.00  0.00     0.029 A 
ATOM     37  C   UNL A   1      47.039  41.218  30.974  1.00  0.00     0.049 A 
ATOM     38  H   UNL A   1      45.878  42.962  31.241  1.00  0.00     0.167 HD
ATOM     39  C   UNL A   1      47.072  41.945  28.618  1.00  0.00     0.074 A 
ATOM     40  C   UNL A   1      45.768  42.561  28.489  1.00  0.00     0.031 C 
ATOM     41  C   UNL A   1      47.690  41.409  29.708  1.00  0.00     0.037 A 
BRANCH  28  42
ATOM     42  C   UNL A   1      42.971  42.324  32.651  1.00  0.00     0.057 A 
ATOM     43  C   UNL A   1      42.678  42.019  33.980  1.00  0.00     0.134 A 
ATOM     44  C   UNL A   1      42.740  43.636  32.214  1.00  0.00     0.134 A 
ATOM     45  F   UNL A   1      42.880  40.783  34.458  1.00  0.00    -0.206 F 
ATOM     46  C   UNL A   1      42.207  43.002  34.856  1.00  0.00     0.040 A 
ATOM     47  C   UNL A   1      42.279  44.626  33.078  1.00  0.00     0.040 A 
ATOM     48  F   UNL A   1      43.007  43.979  30.942  1.00  0.00    -0.206 F 
ATOM     49  C   UNL A   1      42.023  44.313  34.409  1.00  0.00     0.006 A 
ENDBRANCH  28  42
BRANCH  29  50
ATOM     50  C   UNL A   1      45.642  42.145  24.086  1.00  0.00     0.057 A 
ATOM     51  C   UNL A   1      44.343  42.667  24.089  1.00  0.00     0.134 A 
ATOM     52  C   UNL A   1      46.419  42.443  22.951  1.00  0.00     0.134 A 
ATOM     53  F   UNL A   1      43.548  42.558  25.162  1.00  0.00    -0.206 F 
ATOM     54  C   UNL A   1      43.802  43.328  22.980  1.00  0.00     0.040 A 
ATOM     55  C   UNL A   1      45.901  43.121  21.845  1.00  0.00     0.040 A 
ATOM     56  F   UNL A   1      47.713  42.087  22.898  1.00  0.00    -0.206 F 
ATOM     57  C   UNL A   1      44.577  43.543  21.846  1.00  0.00     0.006 A 
ENDBRANCH  29  50
BRANCH  41  58
ATOM     58  C   UNL A   1      48.968  40.736  29.377  1.00  0.00     0.057 A 
ATOM     59  C   UNL A   1      49.000  39.405  28.945  1.00  0.00     0.134 A 
ATOM     60  C   UNL A   1      50.154  41.470  29.341  1.00  0.00     0.134 A 
ATOM     61  F   UNL A   1      47.898  38.640  28.990  1.00  0.00    -0.206 F 
ATOM     62  C   UNL A   1      50.177  38.833  28.461  1.00  0.00     0.040 A 
ATOM     63  C   UNL A   1      51.343  40.901  28.887  1.00  0.00     0.040 A 
ATOM     64  F   UNL A   1      50.170  42.755  29.730  1.00  0.00    -0.206 F 
ATOM     65  C   UNL A   1      51.354  39.579  28.439  1.00  0.00     0.006 A 
ENDBRANCH  41  58
ENDBRANCH  15  16
ENDBRANCH   8  10
ENDBRANCH   7   8
ENDBRANCH   6   7
ENDBRANCH   5   6
ENDBRANCH   4   5
ENDBRANCH   3   4
ENDBRANCH   2   3
ENDBRANCH   1   2
BRANCH   1  66
ATOM     66  C   UNL A   1      33.682  32.696  28.036  1.00  0.00     0.188 C 
BRANCH  66  67
ATOM     67  C   UNL A   1      32.650  31.760  27.353  1.00  0.00     0.188 C 
BRANCH  67  68
ATOM     68  O   UNL A   1      33.091  30.728  26.503  1.00  0.00    -0.376 OA
BRANCH  68  69
ATOM     69  C   UNL A   1      33.089  29.370  26.927  1.00  0.00     0.202 C 
BRANCH  69  70
ATOM     70  C   UNL A   1      32.274  28.249  26.261  1.00  0.00     0.261 C 
BRANCH  70  71
ATOM     71  O   UNL A   1      32.828  26.933  26.373  1.00  0.00    -0.459 OA
BRANCH  71  72
ATOM     72  C   UNL A   1      33.057  26.275  25.202  1.00  0.00     0.365 C 
ATOM     73  O   UNL A   1      34.141  26.291  24.633  1.00  0.00    -0.245 OA
BRANCH  72  74
ATOM     74  C   UNL A   1      31.823  25.462  24.759  1.00  0.00     0.296 C 
ATOM     75  C   UNL A   1      32.010  23.965  25.024  1.00  0.00     0.091 C 
ATOM     76  N   UNL A   1      31.551  25.427  23.317  1.00  0.00    -0.319 N 
ATOM     77  C   UNL A   1      32.741  23.389  23.788  1.00  0.00     0.036 C 
ATOM     78  C   UNL A   1      32.362  24.397  22.674  1.00  0.00     0.270 C 
ATOM     79  H   UNL A   1      30.590  25.112  23.189  1.00  0.00     0.349 HD
ATOM     80  C   UNL A   1      32.265  21.949  23.497  1.00  0.00     0.074 C 
ATOM     81  C   UNL A   1      34.282  23.281  23.943  1.00  0.00     0.074 C 
ATOM     82  C   UNL A   1      32.750  20.956  24.565  1.00  0.00     0.261 C 
ATOM     83  C   UNL A   1      34.700  22.309  25.043  1.00  0.00     0.261 C 
ATOM     84  N   UNL A   1      34.203  20.966  24.754  1.00  0.00    -0.346 N 
ATOM     85  H   UNL A   1      34.650  20.623  23.903  1.00  0.00     0.346 HD
ATOM     86  H   UNL A   1      34.425  20.366  25.549  1.00  0.00     0.346 HD
BRANCH  76  87
ATOM     87  C   UNL A   1      31.277  26.689  22.631  1.00  0.00     0.302 C 
BRANCH  87  88
ATOM     88  C   UNL A   1      29.980  27.352  22.999  1.00  0.00     0.038 A 
ATOM     89  C   UNL A   1      29.017  26.686  23.802  1.00  0.00     0.012 A 
ATOM     90  C   UNL A   1      29.512  28.574  22.452  1.00  0.00     0.144 A 
ATOM     91  C   UNL A   1      27.669  27.091  23.911  1.00  0.00     0.003 A 
ATOM     92  C   UNL A   1      28.127  29.007  22.596  1.00  0.00     0.135 A 
ATOM     93  N   UNL A   1      30.150  29.478  21.696  1.00  0.00    -0.049 NA
ATOM     94  C   UNL A   1      27.177  28.246  23.295  1.00  0.00     0.034 A 
ATOM     95  N   UNL A   1      27.972  30.160  21.934  1.00  0.00    -0.050 NA
ATOM     96  O   UNL A   1      29.211  30.447  21.387  1.00  0.00    -0.243 OA
ENDBRANCH  87  88
ENDBRANCH  76  87
ENDBRANCH  72  74
ENDBRANCH  71  72
ENDBRANCH  70  71
ENDBRANCH  69  70
ENDBRANCH  68  69
ENDBRANCH  67  68
ENDBRANCH  66  67
ENDBRANCH   1  66
TORSDOF 22
ENDMDL
MODEL 3
REMARK VINA RESULT:      -9.9      3.450      5.098
REMARK SMILES O=C(OCCOCCOCCOCCOC(=O)[C@@H]1CC2(CC[NH2+]CC2)C[N@@H+]1Cc1cccc2nonc12)c1ccc(-c2c3nc(c(-c4c(F)cccc4F)c4ccc([nH]4)c(-c4c(F)cccc4F)c4nc(c(-c5c(F)cccc5F)c5ccc2[nH]5)C=C4)C=C3)cc1
REMARK SMILES IDX 9 1 8 2 7 3 6 4 5 5 4 6 3 7 2 8 1 9 38 10 39 11 91 12 40 13
REMARK SMILES IDX 90 14 41 15 42 16 43 17 84 18 44 19 89 20 83 21 85 22 45 23
REMARK SMILES IDX 88 24 82 25 81 26 46 28 72 29 55 30 71 31 56 32 59 33 70 34
REMARK SMILES IDX 86 35 57 36 58 37 69 39 87 40 60 41 47 42 48 43 53 44 49 45
REMARK SMILES IDX 50 46 52 47 54 48 51 49 73 50 74 51 79 52 75 53 76 54 78 55
REMARK SMILES IDX 80 56 77 57 61 58 62 59 67 60 63 61 64 62 66 63 68 64 65 65
REMARK SMILES IDX 10 66 11 67 12 68 13 69 14 70 15 71 16 72 17 73 18 74 19 75
REMARK SMILES IDX 27 76 20 77 26 78 21 80 25 81 22 82 24 83 23 84 28 87 29 88
REMARK SMILES IDX 30 89 37 90 31 91 33 92 36 93 32 94 34 95 35 96
REMARK H PARENT 85 27 59 38 27 79 23 85 23 86
REMARK Flexibility Score: inf
ROOT
ATOM      1  O   UNL A   1      41.377  20.511  26.226  1.00  0.00    -0.377 OA
ENDROOT
BRANCH   1   2
ATOM      2  C   UNL A   1      42.410  19.726  26.825  1.00  0.00     0.188 C 
BRANCH   2   3
ATOM      3  C   UNL A   1      42.726  18.377  26.170  1.00  0.00     0.188 C 
BRANCH   3   4
ATOM      4  O   UNL A   1      43.937  18.470  25.432  1.00  0.00    -0.376 OA
BRANCH   4   5
ATOM      5  C   UNL A   1      44.063  19.598  24.568  1.00  0.00     0.202 C 
BRANCH   5   6
ATOM      6  C   UNL A   1      45.519  19.975  24.334  1.00  0.00     0.261 C 
BRANCH   6   7
ATOM      7  O   UNL A   1      45.684  21.342  24.734  1.00  0.00    -0.460 OA
BRANCH   7   8
ATOM      8  C   UNL A   1      44.766  22.186  24.195  1.00  0.00     0.338 C 
ATOM      9  O   UNL A   1      44.403  22.206  23.031  1.00  0.00    -0.246 OA
BRANCH   8  10
ATOM     10  C   UNL A   1      44.334  23.166  25.217  1.00  0.00     0.060 A 
ATOM     11  C   UNL A   1      42.976  23.338  25.490  1.00  0.00     0.016 A 
ATOM     12  C   UNL A   1      45.271  23.996  25.832  1.00  0.00     0.016 A 
ATOM     13  C   UNL A   1      42.569  24.302  26.423  1.00  0.00     0.010 A 
ATOM     14  C   UNL A   1      44.861  24.979  26.719  1.00  0.00     0.010 A 
ATOM     15  C   UNL A   1      43.512  25.124  27.061  1.00  0.00    -0.014 A 
BRANCH  15  16
ATOM     16  C   UNL A   1      43.137  25.968  28.221  1.00  0.00     0.031 A 
ATOM     17  C   UNL A   1      44.132  26.005  29.349  1.00  0.00     0.074 A 
ATOM     18  C   UNL A   1      42.287  27.010  28.149  1.00  0.00     0.049 A 
ATOM     19  N   UNL A   1      45.139  26.831  29.398  1.00  0.00    -0.248 NA
ATOM     20  C   UNL A   1      44.221  24.902  30.308  1.00  0.00     0.031 C 
ATOM     21  C   UNL A   1      42.302  28.000  27.070  1.00  0.00     0.029 A 
ATOM     22  N   UNL A   1      41.495  27.571  29.125  1.00  0.00    -0.354 N 
ATOM     23  C   UNL A   1      46.025  26.335  30.342  1.00  0.00     0.074 A 
ATOM     24  C   UNL A   1      45.406  25.145  30.887  1.00  0.00     0.031 C 
ATOM     25  C   UNL A   1      41.700  29.122  27.516  1.00  0.00     0.029 A 
ATOM     26  C   UNL A   1      41.126  28.880  28.839  1.00  0.00     0.049 A 
ATOM     27  H   UNL A   1      41.218  27.094  29.941  1.00  0.00     0.167 HD
ATOM     28  C   UNL A   1      47.230  26.901  30.623  1.00  0.00     0.037 A 
ATOM     29  C   UNL A   1      40.889  29.834  29.778  1.00  0.00     0.037 A 
ATOM     30  C   UNL A   1      47.547  28.108  29.922  1.00  0.00     0.049 A 
ATOM     31  C   UNL A   1      42.277  30.149  30.253  1.00  0.00     0.074 A 
ATOM     32  C   UNL A   1      48.241  28.495  28.794  1.00  0.00     0.029 A 
ATOM     33  N   UNL A   1      47.037  29.281  30.426  1.00  0.00    -0.354 N 
ATOM     34  N   UNL A   1      43.107  30.982  29.693  1.00  0.00    -0.248 NA
ATOM     35  C   UNL A   1      42.883  29.256  31.244  1.00  0.00     0.031 C 
ATOM     36  C   UNL A   1      47.712  29.781  28.438  1.00  0.00     0.029 A 
ATOM     37  C   UNL A   1      46.699  30.058  29.350  1.00  0.00     0.049 A 
ATOM     38  H   UNL A   1      46.936  29.517  31.377  1.00  0.00     0.167 HD
ATOM     39  C   UNL A   1      44.376  30.517  30.039  1.00  0.00     0.074 A 
ATOM     40  C   UNL A   1      44.172  29.502  31.051  1.00  0.00     0.031 C 
ATOM     41  C   UNL A   1      45.491  30.835  29.322  1.00  0.00     0.037 A 
BRANCH  28  42
ATOM     42  C   UNL A   1      48.106  26.458  31.726  1.00  0.00     0.057 A 
ATOM     43  C   UNL A   1      47.854  26.752  33.065  1.00  0.00     0.134 A 
ATOM     44  C   UNL A   1      49.130  25.546  31.437  1.00  0.00     0.134 A 
ATOM     45  F   UNL A   1      46.885  27.614  33.405  1.00  0.00    -0.206 F 
ATOM     46  C   UNL A   1      48.575  26.127  34.087  1.00  0.00     0.040 A 
ATOM     47  C   UNL A   1      49.851  24.909  32.445  1.00  0.00     0.040 A 
ATOM     48  F   UNL A   1      49.410  25.229  30.161  1.00  0.00    -0.206 F 
ATOM     49  C   UNL A   1      49.564  25.190  33.777  1.00  0.00     0.006 A 
ENDBRANCH  28  42
BRANCH  29  50
ATOM     50  C   UNL A   1      39.760  29.601  30.728  1.00  0.00     0.057 A 
ATOM     51  C   UNL A   1      39.715  30.048  32.054  1.00  0.00     0.134 A 
ATOM     52  C   UNL A   1      38.613  28.926  30.269  1.00  0.00     0.134 A 
ATOM     53  F   UNL A   1      40.691  30.808  32.569  1.00  0.00    -0.206 F 
ATOM     54  C   UNL A   1      38.657  29.728  32.913  1.00  0.00     0.040 A 
ATOM     55  C   UNL A   1      37.539  28.618  31.108  1.00  0.00     0.040 A 
ATOM     56  F   UNL A   1      38.508  28.557  28.982  1.00  0.00    -0.206 F 
ATOM     57  C   UNL A   1      37.572  28.997  32.445  1.00  0.00     0.006 A 
ENDBRANCH  29  50
BRANCH  41  58
ATOM     58  C   UNL A   1      45.233  31.843  28.267  1.00  0.00     0.057 A 
ATOM     59  C   UNL A   1      45.441  33.208  28.496  1.00  0.00     0.134 A 
ATOM     60  C   UNL A   1      44.925  31.430  26.970  1.00  0.00     0.134 A 
ATOM     61  F   UNL A   1      45.705  33.666  29.730  1.00  0.00    -0.206 F 
ATOM     62  C   UNL A   1      45.374  34.132  27.453  1.00  0.00     0.040 A 
ATOM     63  C   UNL A   1      44.827  32.348  25.924  1.00  0.00     0.040 A 
ATOM     64  F   UNL A   1      44.733  30.130  26.698  1.00  0.00    -0.206 F 
ATOM     65  C   UNL A   1      45.059  33.703  26.164  1.00  0.00     0.006 A 
ENDBRANCH  41  58
ENDBRANCH  15  16
ENDBRANCH   8  10
ENDBRANCH   7   8
ENDBRANCH   6   7
ENDBRANCH   5   6
ENDBRANCH   4   5
ENDBRANCH   3   4
ENDBRANCH   2   3
ENDBRANCH   1   2
BRANCH   1  66
ATOM     66  C   UNL A   1      40.453  21.180  27.073  1.00  0.00     0.188 C 
BRANCH  66  67
ATOM     67  C   UNL A   1      39.362  22.127  26.507  1.00  0.00     0.188 C 
BRANCH  67  68
ATOM     68  O   UNL A   1      38.703  21.802  25.306  1.00  0.00    -0.376 OA
BRANCH  68  69
ATOM     69  C   UNL A   1      37.756  20.743  25.246  1.00  0.00     0.202 C 
BRANCH  69  70
ATOM     70  C   UNL A   1      36.230  20.935  25.264  1.00  0.00     0.261 C 
BRANCH  70  71
ATOM     71  O   UNL A   1      35.746  21.957  26.144  1.00  0.00    -0.459 OA
BRANCH  71  72
ATOM     72  C   UNL A   1      34.969  22.921  25.576  1.00  0.00     0.365 C 
ATOM     73  O   UNL A   1      34.953  24.080  25.970  1.00  0.00    -0.245 OA
BRANCH  72  74
ATOM     74  C   UNL A   1      34.204  22.380  24.349  1.00  0.00     0.296 C 
ATOM     75  C   UNL A   1      34.025  23.459  23.277  1.00  0.00     0.091 C 
ATOM     76  N   UNL A   1      32.800  22.013  24.569  1.00  0.00    -0.319 N 
ATOM     77  C   UNL A   1      32.739  24.235  23.645  1.00  0.00     0.036 C 
ATOM     78  C   UNL A   1      31.948  23.196  24.480  1.00  0.00     0.270 C 
ATOM     79  H   UNL A   1      32.505  21.428  23.788  1.00  0.00     0.349 HD
ATOM     80  C   UNL A   1      31.994  24.689  22.371  1.00  0.00     0.074 C 
ATOM     81  C   UNL A   1      32.981  25.537  24.456  1.00  0.00     0.074 C 
ATOM     82  C   UNL A   1      32.754  25.797  21.624  1.00  0.00     0.261 C 
ATOM     83  C   UNL A   1      33.771  26.582  23.675  1.00  0.00     0.261 C 
ATOM     84  N   UNL A   1      33.056  26.962  22.459  1.00  0.00    -0.346 N 
ATOM     85  H   UNL A   1      32.182  27.419  22.718  1.00  0.00     0.346 HD
ATOM     86  H   UNL A   1      33.652  27.593  21.923  1.00  0.00     0.346 HD
BRANCH  76  87
ATOM     87  C   UNL A   1      32.501  20.956  25.534  1.00  0.00     0.302 C 
BRANCH  87  88
ATOM     88  C   UNL A   1      32.508  19.561  24.980  1.00  0.00     0.038 A 
ATOM     89  C   UNL A   1      32.840  18.448  25.796  1.00  0.00     0.012 A 
ATOM     90  C   UNL A   1      32.384  19.234  23.605  1.00  0.00     0.144 A 
ATOM     91  C   UNL A   1      33.192  17.178  25.290  1.00  0.00     0.003 A 
ATOM     92  C   UNL A   1      32.715  17.911  23.090  1.00  0.00     0.135 A 
ATOM     93  N   UNL A   1      32.042  20.008  22.565  1.00  0.00    -0.049 NA
ATOM     94  C   UNL A   1      33.163  16.876  23.925  1.00  0.00     0.034 A 
ATOM     95  N   UNL A   1      32.553  17.920  21.761  1.00  0.00    -0.050 NA
ATOM     96  O   UNL A   1      32.140  19.202  21.443  1.00  0.00    -0.243 OA
ENDBRANCH  87  88
ENDBRANCH  76  87
ENDBRANCH  72  74
ENDBRANCH  71  72
ENDBRANCH  70  71
ENDBRANCH  69  70
ENDBRANCH  68  69
ENDBRANCH  67  68
ENDBRANCH  66  67
ENDBRANCH   1  66
TORSDOF 22
ENDMDL
