MODEL 1
REMARK VINA RESULT:      -9.9      0.000      0.000
REMARK SMILES C[C@@H](C(=O)OCCOCCOCCOCCOC(=O)c1ccc(-c2c3nc(c(-c4c(F)cccc4F)c4ccc([nH]4)c(-c4c(F)cccc4F)c4nc(c(-c5c(F)cccc5F)c5ccc2[nH]5)C=C4)C=C3)cc1)c1ccc(C[C@@H]2CCC[C@@H]2O)cc1Br
REMARK SMILES IDX 10 1 9 2 8 3 7 4 6 5 5 6 3 7 4 8 2 9 1 10 74 11 75 12 86 13
REMARK SMILES IDX 76 14 85 15 87 16 77 17 78 18 79 19 80 20 83 21 81 22 82 23
REMARK SMILES IDX 84 24 11 26 12 27 13 28 14 29 15 30 16 31 17 32 18 33 19 34
REMARK SMILES IDX 20 35 21 36 73 37 22 38 72 39 23 40 24 41 25 42 66 43 26 44
REMARK SMILES IDX 71 45 65 46 67 47 27 48 70 49 64 50 63 51 28 53 54 54 37 55
REMARK SMILES IDX 53 56 38 57 41 58 52 59 68 60 39 61 40 62 51 64 69 65 42 66
REMARK SMILES IDX 29 67 30 68 35 69 31 70 32 71 34 72 36 73 33 74 55 75 56 76
REMARK SMILES IDX 61 77 57 78 58 79 60 80 62 81 59 82 43 83 44 84 49 85 45 86
REMARK SMILES IDX 46 87 48 88 50 89 47 90
REMARK H PARENT 84 25 67 52 41 63
REMARK Flexibility Score: inf
ROOT
ATOM      1  C   UNL A   1      43.459  18.800  25.953  1.00  0.00     0.188 C 
ENDROOT
BRANCH   1   2
ATOM      2  C   UNL A   1      41.937  18.852  26.159  1.00  0.00     0.188 C 
BRANCH   2   3
ATOM      3  O   UNL A   1      41.374  20.109  25.830  1.00  0.00    -0.376 OA
BRANCH   3   4
ATOM      4  C   UNL A   1      40.886  20.930  26.880  1.00  0.00     0.202 C 
BRANCH   4   5
ATOM      5  C   UNL A   1      39.999  22.152  26.574  1.00  0.00     0.261 C 
BRANCH   5   6
ATOM      6  O   UNL A   1      38.761  21.889  25.892  1.00  0.00    -0.463 OA
BRANCH   6   7
ATOM      7  C   UNL A   1      37.816  22.857  25.940  1.00  0.00     0.313 C 
ATOM      8  O   UNL A   1      38.112  24.030  26.125  1.00  0.00    -0.252 OA
BRANCH   7   9
ATOM      9  C   UNL A   1      36.379  22.317  25.718  1.00  0.00     0.127 C 
ATOM     10  C   UNL A   1      36.343  21.251  24.595  1.00  0.00     0.025 C 
BRANCH   9  11
ATOM     11  C   UNL A   1      35.304  23.423  25.617  1.00  0.00    -0.020 A 
ATOM     12  C   UNL A   1      35.340  24.399  24.597  1.00  0.00     0.006 A 
ATOM     13  C   UNL A   1      34.200  23.503  26.488  1.00  0.00     0.022 A 
ATOM     14  C   UNL A   1      34.391  25.436  24.512  1.00  0.00     0.004 A 
ATOM     15  C   UNL A   1      33.318  24.600  26.461  1.00  0.00     0.019 A 
ATOM     16  Br  UNL A   1      33.636  22.078  27.619  1.00  0.00    -0.050 Br
ATOM     17  C   UNL A   1      33.405  25.594  25.482  1.00  0.00    -0.047 A 
BRANCH  17  18
ATOM     18  C   UNL A   1      32.345  26.673  25.425  1.00  0.00     0.041 C 
BRANCH  18  19
ATOM     19  C   UNL A   1      31.073  26.509  24.565  1.00  0.00     0.022 C 
ATOM     20  C   UNL A   1      30.320  25.190  24.747  1.00  0.00     0.007 C 
ATOM     21  C   UNL A   1      31.223  26.614  23.045  1.00  0.00     0.117 C 
ATOM     22  C   UNL A   1      30.657  24.321  23.532  1.00  0.00     0.003 C 
ATOM     23  C   UNL A   1      31.484  25.187  22.588  1.00  0.00     0.032 C 
BRANCH  21  24
ATOM     24  O   UNL A   1      32.215  27.527  22.629  1.00  0.00    -0.393 OA
ATOM     25  H   UNL A   1      32.415  27.381  21.690  1.00  0.00     0.210 HD
ENDBRANCH  21  24
ENDBRANCH  18  19
ENDBRANCH  17  18
ENDBRANCH   9  11
ENDBRANCH   7   9
ENDBRANCH   6   7
ENDBRANCH   5   6
ENDBRANCH   4   5
ENDBRANCH   3   4
ENDBRANCH   2   3
ENDBRANCH   1   2
BRANCH   1  26
ATOM     26  O   UNL A   1      43.907  18.477  24.646  1.00  0.00    -0.377 OA
BRANCH  26  27
ATOM     27  C   UNL A   1      45.062  19.127  24.117  1.00  0.00     0.188 C 
BRANCH  27  28
ATOM     28  C   UNL A   1      45.835  20.212  24.903  1.00  0.00     0.188 C 
BRANCH  28  29
ATOM     29  O   UNL A   1      45.937  21.466  24.250  1.00  0.00    -0.376 OA
BRANCH  29  30
ATOM     30  C   UNL A   1      44.774  21.988  23.628  1.00  0.00     0.202 C 
BRANCH  30  31
ATOM     31  C   UNL A   1      43.830  22.824  24.506  1.00  0.00     0.261 C 
BRANCH  31  32
ATOM     32  O   UNL A   1      44.362  24.058  25.016  1.00  0.00    -0.460 OA
BRANCH  32  33
ATOM     33  C   UNL A   1      44.861  24.061  26.268  1.00  0.00     0.338 C 
ATOM     34  O   UNL A   1      45.884  23.516  26.657  1.00  0.00    -0.246 OA
BRANCH  33  35
ATOM     35  C   UNL A   1      44.062  25.007  27.074  1.00  0.00     0.060 A 
ATOM     36  C   UNL A   1      44.403  26.366  27.066  1.00  0.00     0.016 A 
ATOM     37  C   UNL A   1      42.978  24.554  27.829  1.00  0.00     0.016 A 
ATOM     38  C   UNL A   1      43.686  27.271  27.850  1.00  0.00     0.010 A 
ATOM     39  C   UNL A   1      42.275  25.458  28.630  1.00  0.00     0.010 A 
ATOM     40  C   UNL A   1      42.650  26.813  28.674  1.00  0.00    -0.014 A 
BRANCH  40  41
ATOM     41  C   UNL A   1      42.107  27.698  29.732  1.00  0.00     0.031 A 
ATOM     42  C   UNL A   1      42.769  27.680  31.082  1.00  0.00     0.074 A 
ATOM     43  C   UNL A   1      41.067  28.518  29.502  1.00  0.00     0.049 A 
ATOM     44  N   UNL A   1      42.443  28.310  32.180  1.00  0.00    -0.248 NA
ATOM     45  C   UNL A   1      43.963  26.827  31.210  1.00  0.00     0.031 C 
ATOM     46  C   UNL A   1      40.369  28.664  28.228  1.00  0.00     0.029 A 
ATOM     47  N   UNL A   1      40.409  29.376  30.349  1.00  0.00    -0.354 N 
ATOM     48  C   UNL A   1      43.384  27.927  33.129  1.00  0.00     0.074 A 
ATOM     49  C   UNL A   1      44.271  26.981  32.488  1.00  0.00     0.031 C 
ATOM     50  C   UNL A   1      39.366  29.548  28.380  1.00  0.00     0.029 A 
ATOM     51  C   UNL A   1      39.332  30.001  29.770  1.00  0.00     0.049 A 
ATOM     52  H   UNL A   1      40.684  29.529  31.282  1.00  0.00     0.167 HD
ATOM     53  C   UNL A   1      43.506  28.334  34.414  1.00  0.00     0.037 A 
ATOM     54  C   UNL A   1      38.409  30.821  30.311  1.00  0.00     0.037 A 
ATOM     55  C   UNL A   1      42.616  29.269  35.051  1.00  0.00     0.049 A 
ATOM     56  C   UNL A   1      38.512  31.193  31.768  1.00  0.00     0.074 A 
ATOM     57  C   UNL A   1      42.658  29.750  36.348  1.00  0.00     0.029 A 
ATOM     58  N   UNL A   1      41.518  29.855  34.441  1.00  0.00    -0.354 N 
ATOM     59  N   UNL A   1      39.414  30.841  32.653  1.00  0.00    -0.248 NA
ATOM     60  C   UNL A   1      37.468  32.081  32.302  1.00  0.00     0.031 C 
ATOM     61  C   UNL A   1      41.549  30.582  36.540  1.00  0.00     0.029 A 
ATOM     62  C   UNL A   1      40.857  30.672  35.343  1.00  0.00     0.049 A 
ATOM     63  H   UNL A   1      41.248  29.713  33.505  1.00  0.00     0.167 HD
ATOM     64  C   UNL A   1      39.066  31.488  33.834  1.00  0.00     0.074 A 
ATOM     65  C   UNL A   1      37.878  32.264  33.549  1.00  0.00     0.031 C 
ATOM     66  C   UNL A   1      39.678  31.446  35.044  1.00  0.00     0.037 A 
BRANCH  53  67
ATOM     67  C   UNL A   1      44.624  27.741  35.222  1.00  0.00     0.057 A 
ATOM     68  C   UNL A   1      44.460  26.568  35.971  1.00  0.00     0.134 A 
ATOM     69  C   UNL A   1      45.889  28.343  35.236  1.00  0.00     0.134 A 
ATOM     70  F   UNL A   1      43.270  25.950  36.015  1.00  0.00    -0.206 F 
ATOM     71  C   UNL A   1      45.505  26.032  36.726  1.00  0.00     0.040 A 
ATOM     72  C   UNL A   1      46.949  27.799  35.963  1.00  0.00     0.040 A 
ATOM     73  F   UNL A   1      46.117  29.466  34.539  1.00  0.00    -0.206 F 
ATOM     74  C   UNL A   1      46.756  26.645  36.717  1.00  0.00     0.006 A 
ENDBRANCH  53  67
BRANCH  54  75
ATOM     75  C   UNL A   1      37.289  31.333  29.478  1.00  0.00     0.057 A 
ATOM     76  C   UNL A   1      36.158  30.550  29.214  1.00  0.00     0.134 A 
ATOM     77  C   UNL A   1      37.335  32.609  28.902  1.00  0.00     0.134 A 
ATOM     78  F   UNL A   1      36.064  29.310  29.715  1.00  0.00    -0.206 F 
ATOM     79  C   UNL A   1      35.125  31.008  28.394  1.00  0.00     0.040 A 
ATOM     80  C   UNL A   1      36.297  33.092  28.104  1.00  0.00     0.040 A 
ATOM     81  F   UNL A   1      38.391  33.409  29.113  1.00  0.00    -0.206 F 
ATOM     82  C   UNL A   1      35.191  32.286  27.841  1.00  0.00     0.006 A 
ENDBRANCH  54  75
BRANCH  66  83
ATOM     83  C   UNL A   1      39.102  32.295  36.143  1.00  0.00     0.057 A 
ATOM     84  C   UNL A   1      39.441  33.645  36.299  1.00  0.00     0.134 A 
ATOM     85  C   UNL A   1      38.156  31.762  37.030  1.00  0.00     0.134 A 
ATOM     86  F   UNL A   1      40.347  34.216  35.491  1.00  0.00    -0.206 F 
ATOM     87  C   UNL A   1      38.883  34.425  37.313  1.00  0.00     0.040 A 
ATOM     88  C   UNL A   1      37.568  32.540  38.027  1.00  0.00     0.040 A 
ATOM     89  F   UNL A   1      37.776  30.479  36.931  1.00  0.00    -0.206 F 
ATOM     90  C   UNL A   1      37.937  33.876  38.176  1.00  0.00     0.006 A 
ENDBRANCH  66  83
ENDBRANCH  40  41
ENDBRANCH  33  35
ENDBRANCH  32  33
ENDBRANCH  31  32
ENDBRANCH  30  31
ENDBRANCH  29  30
ENDBRANCH  28  29
ENDBRANCH  27  28
ENDBRANCH  26  27
ENDBRANCH   1  26
TORSDOF 24
ENDMDL
MODEL 2
REMARK VINA RESULT:      -9.4      3.452      8.145
REMARK SMILES C[C@@H](C(=O)OCCOCCOCCOCCOC(=O)c1ccc(-c2c3nc(c(-c4c(F)cccc4F)c4ccc([nH]4)c(-c4c(F)cccc4F)c4nc(c(-c5c(F)cccc5F)c5ccc2[nH]5)C=C4)C=C3)cc1)c1ccc(C[C@@H]2CCC[C@@H]2O)cc1Br
REMARK SMILES IDX 10 1 9 2 8 3 7 4 6 5 5 6 3 7 4 8 2 9 1 10 74 11 75 12 86 13
REMARK SMILES IDX 76 14 85 15 87 16 77 17 78 18 79 19 80 20 83 21 81 22 82 23
REMARK SMILES IDX 84 24 11 26 12 27 13 28 14 29 15 30 16 31 17 32 18 33 19 34
REMARK SMILES IDX 20 35 21 36 73 37 22 38 72 39 23 40 24 41 25 42 66 43 26 44
REMARK SMILES IDX 71 45 65 46 67 47 27 48 70 49 64 50 63 51 28 53 54 54 37 55
REMARK SMILES IDX 53 56 38 57 41 58 52 59 68 60 39 61 40 62 51 64 69 65 42 66
REMARK SMILES IDX 29 67 30 68 35 69 31 70 32 71 34 72 36 73 33 74 55 75 56 76
REMARK SMILES IDX 61 77 57 78 58 79 60 80 62 81 59 82 43 83 44 84 49 85 45 86
REMARK SMILES IDX 46 87 48 88 50 89 47 90
REMARK H PARENT 84 25 67 52 41 63
REMARK Flexibility Score: inf
ROOT
ATOM      1  C   UNL A   1      33.799  25.735  25.870  1.00  0.00     0.188 C 
ENDROOT
BRANCH   1   2
ATOM      2  C   UNL A   1      35.144  25.180  25.374  1.00  0.00     0.188 C 
BRANCH   2   3
ATOM      3  O   UNL A   1      35.023  23.929  24.722  1.00  0.00    -0.376 OA
BRANCH   3   4
ATOM      4  C   UNL A   1      35.691  22.807  25.278  1.00  0.00     0.202 C 
BRANCH   4   5
ATOM      5  C   UNL A   1      35.544  21.411  24.644  1.00  0.00     0.261 C 
BRANCH   5   6
ATOM      6  O   UNL A   1      34.760  20.454  25.378  1.00  0.00    -0.463 OA
BRANCH   6   7
ATOM      7  C   UNL A   1      33.618  20.905  25.948  1.00  0.00     0.313 C 
ATOM      8  O   UNL A   1      33.599  21.326  27.097  1.00  0.00    -0.252 OA
BRANCH   7   9
ATOM      9  C   UNL A   1      32.397  20.843  24.993  1.00  0.00     0.127 C 
ATOM     10  C   UNL A   1      32.527  19.677  23.983  1.00  0.00     0.025 C 
BRANCH   9  11
ATOM     11  C   UNL A   1      32.010  22.209  24.382  1.00  0.00    -0.020 A 
ATOM     12  C   UNL A   1      32.381  22.562  23.066  1.00  0.00     0.006 A 
ATOM     13  C   UNL A   1      31.228  23.162  25.064  1.00  0.00     0.022 A 
ATOM     14  C   UNL A   1      32.070  23.817  22.507  1.00  0.00     0.004 A 
ATOM     15  C   UNL A   1      31.013  24.451  24.539  1.00  0.00     0.019 A 
ATOM     16  Br  UNL A   1      30.199  22.774  26.619  1.00  0.00    -0.050 Br
ATOM     17  C   UNL A   1      31.441  24.807  23.258  1.00  0.00    -0.047 A 
BRANCH  17  18
ATOM     18  C   UNL A   1      31.061  26.162  22.699  1.00  0.00     0.041 C 
BRANCH  18  19
ATOM     19  C   UNL A   1      30.472  27.269  23.600  1.00  0.00     0.022 C 
ATOM     20  C   UNL A   1      28.958  27.462  23.502  1.00  0.00     0.007 C 
ATOM     21  C   UNL A   1      31.013  28.691  23.426  1.00  0.00     0.117 C 
ATOM     22  C   UNL A   1      28.729  28.717  22.653  1.00  0.00     0.003 C 
ATOM     23  C   UNL A   1      30.103  29.321  22.383  1.00  0.00     0.032 C 
BRANCH  21  24
ATOM     24  O   UNL A   1      32.381  28.745  23.083  1.00  0.00    -0.393 OA
ATOM     25  H   UNL A   1      32.867  28.069  23.583  1.00  0.00     0.210 HD
ENDBRANCH  21  24
ENDBRANCH  18  19
ENDBRANCH  17  18
ENDBRANCH   9  11
ENDBRANCH   7   9
ENDBRANCH   6   7
ENDBRANCH   5   6
ENDBRANCH   4   5
ENDBRANCH   3   4
ENDBRANCH   2   3
ENDBRANCH   1   2
BRANCH   1  26
ATOM     26  O   UNL A   1      33.463  27.045  25.443  1.00  0.00    -0.377 OA
BRANCH  26  27
ATOM     27  C   UNL A   1      33.322  28.085  26.410  1.00  0.00     0.188 C 
BRANCH  27  28
ATOM     28  C   UNL A   1      31.946  28.659  26.817  1.00  0.00     0.188 C 
BRANCH  28  29
ATOM     29  O   UNL A   1      31.994  29.890  27.520  1.00  0.00    -0.376 OA
BRANCH  29  30
ATOM     30  C   UNL A   1      32.446  31.037  26.821  1.00  0.00     0.202 C 
BRANCH  30  31
ATOM     31  C   UNL A   1      33.211  32.093  27.634  1.00  0.00     0.261 C 
BRANCH  31  32
ATOM     32  O   UNL A   1      32.814  33.460  27.435  1.00  0.00    -0.460 OA
BRANCH  32  33
ATOM     33  C   UNL A   1      33.148  34.359  28.382  1.00  0.00     0.338 C 
ATOM     34  O   UNL A   1      32.529  35.364  28.700  1.00  0.00    -0.246 OA
BRANCH  33  35
ATOM     35  C   UNL A   1      34.308  33.825  29.126  1.00  0.00     0.060 A 
ATOM     36  C   UNL A   1      35.600  34.082  28.649  1.00  0.00     0.016 A 
ATOM     37  C   UNL A   1      34.120  33.079  30.291  1.00  0.00     0.016 A 
ATOM     38  C   UNL A   1      36.708  33.555  29.314  1.00  0.00     0.010 A 
ATOM     39  C   UNL A   1      35.229  32.534  30.944  1.00  0.00     0.010 A 
ATOM     40  C   UNL A   1      36.525  32.737  30.436  1.00  0.00    -0.014 A 
BRANCH  40  41
ATOM     41  C   UNL A   1      37.656  31.925  30.947  1.00  0.00     0.031 A 
ATOM     42  C   UNL A   1      38.183  32.226  32.323  1.00  0.00     0.074 A 
ATOM     43  C   UNL A   1      38.191  30.927  30.223  1.00  0.00     0.049 A 
ATOM     44  N   UNL A   1      39.196  31.702  32.961  1.00  0.00    -0.248 NA
ATOM     45  C   UNL A   1      37.468  33.268  33.079  1.00  0.00     0.031 C 
ATOM     46  C   UNL A   1      37.741  30.504  28.899  1.00  0.00     0.029 A 
ATOM     47  N   UNL A   1      39.246  30.094  30.504  1.00  0.00    -0.354 N 
ATOM     48  C   UNL A   1      39.245  32.352  34.189  1.00  0.00     0.074 A 
ATOM     49  C   UNL A   1      38.183  33.334  34.191  1.00  0.00     0.031 C 
ATOM     50  C   UNL A   1      38.528  29.500  28.473  1.00  0.00     0.029 A 
ATOM     51  C   UNL A   1      39.556  29.234  29.479  1.00  0.00     0.049 A 
ATOM     52  H   UNL A   1      39.733  30.111  31.359  1.00  0.00     0.167 HD
ATOM     53  C   UNL A   1      40.090  32.143  35.225  1.00  0.00     0.037 A 
ATOM     54  C   UNL A   1      40.571  28.356  29.357  1.00  0.00     0.037 A 
ATOM     55  C   UNL A   1      41.151  31.170  35.217  1.00  0.00     0.049 A 
ATOM     56  C   UNL A   1      41.555  28.201  30.489  1.00  0.00     0.074 A 
ATOM     57  C   UNL A   1      42.059  30.877  36.219  1.00  0.00     0.029 A 
ATOM     58  N   UNL A   1      41.453  30.341  34.147  1.00  0.00    -0.354 N 
ATOM     59  N   UNL A   1      41.584  28.805  31.653  1.00  0.00    -0.248 NA
ATOM     60  C   UNL A   1      42.648  27.236  30.291  1.00  0.00     0.031 C 
ATOM     61  C   UNL A   1      42.948  29.912  35.733  1.00  0.00     0.029 A 
ATOM     62  C   UNL A   1      42.551  29.556  34.454  1.00  0.00     0.049 A 
ATOM     63  H   UNL A   1      40.960  30.314  33.295  1.00  0.00     0.167 HD
ATOM     64  C   UNL A   1      42.672  28.273  32.335  1.00  0.00     0.074 A 
ATOM     65  C   UNL A   1      43.270  27.287  31.461  1.00  0.00     0.031 C 
ATOM     66  C   UNL A   1      43.133  28.571  33.576  1.00  0.00     0.037 A 
BRANCH  53  67
ATOM     67  C   UNL A   1      39.918  33.007  36.441  1.00  0.00     0.057 A 
ATOM     68  C   UNL A   1      39.010  32.688  37.459  1.00  0.00     0.134 A 
ATOM     69  C   UNL A   1      40.686  34.167  36.604  1.00  0.00     0.134 A 
ATOM     70  F   UNL A   1      38.231  31.600  37.358  1.00  0.00    -0.206 F 
ATOM     71  C   UNL A   1      38.852  33.505  38.580  1.00  0.00     0.040 A 
ATOM     72  C   UNL A   1      40.560  34.975  37.735  1.00  0.00     0.040 A 
ATOM     73  F   UNL A   1      41.578  34.532  35.670  1.00  0.00    -0.206 F 
ATOM     74  C   UNL A   1      39.634  34.649  38.723  1.00  0.00     0.006 A 
ENDBRANCH  53  67
BRANCH  54  75
ATOM     75  C   UNL A   1      40.728  27.567  28.107  1.00  0.00     0.057 A 
ATOM     76  C   UNL A   1      40.181  26.285  27.980  1.00  0.00     0.134 A 
ATOM     77  C   UNL A   1      41.456  28.066  27.019  1.00  0.00     0.134 A 
ATOM     78  F   UNL A   1      39.496  25.739  28.996  1.00  0.00    -0.206 F 
ATOM     79  C   UNL A   1      40.367  25.520  26.826  1.00  0.00     0.040 A 
ATOM     80  C   UNL A   1      41.624  27.326  25.848  1.00  0.00     0.040 A 
ATOM     81  F   UNL A   1      42.008  29.287  27.076  1.00  0.00    -0.206 F 
ATOM     82  C   UNL A   1      41.085  26.044  25.753  1.00  0.00     0.006 A 
ENDBRANCH  54  75
BRANCH  66  83
ATOM     83  C   UNL A   1      44.315  27.794  34.083  1.00  0.00     0.057 A 
ATOM     84  C   UNL A   1      45.631  28.247  33.926  1.00  0.00     0.134 A 
ATOM     85  C   UNL A   1      44.128  26.592  34.783  1.00  0.00     0.134 A 
ATOM     86  F   UNL A   1      45.882  29.383  33.258  1.00  0.00    -0.206 F 
ATOM     87  C   UNL A   1      46.717  27.523  34.419  1.00  0.00     0.040 A 
ATOM     88  C   UNL A   1      45.203  25.876  35.309  1.00  0.00     0.040 A 
ATOM     89  F   UNL A   1      42.894  26.105  34.982  1.00  0.00    -0.206 F 
ATOM     90  C   UNL A   1      46.505  26.337  35.121  1.00  0.00     0.006 A 
ENDBRANCH  66  83
ENDBRANCH  40  41
ENDBRANCH  33  35
ENDBRANCH  32  33
ENDBRANCH  31  32
ENDBRANCH  30  31
ENDBRANCH  29  30
ENDBRANCH  28  29
ENDBRANCH  27  28
ENDBRANCH  26  27
ENDBRANCH   1  26
TORSDOF 24
ENDMDL
MODEL 3
REMARK VINA RESULT:      -8.7      4.954      9.916
REMARK SMILES C[C@@H](C(=O)OCCOCCOCCOCCOC(=O)c1ccc(-c2c3nc(c(-c4c(F)cccc4F)c4ccc([nH]4)c(-c4c(F)cccc4F)c4nc(c(-c5c(F)cccc5F)c5ccc2[nH]5)C=C4)C=C3)cc1)c1ccc(C[C@@H]2CCC[C@@H]2O)cc1Br
REMARK SMILES IDX 10 1 9 2 8 3 7 4 6 5 5 6 3 7 4 8 2 9 1 10 74 11 75 12 86 13
REMARK SMILES IDX 76 14 85 15 87 16 77 17 78 18 79 19 80 20 83 21 81 22 82 23
REMARK SMILES IDX 84 24 11 26 12 27 13 28 14 29 15 30 16 31 17 32 18 33 19 34
REMARK SMILES IDX 20 35 21 36 73 37 22 38 72 39 23 40 24 41 25 42 66 43 26 44
REMARK SMILES IDX 71 45 65 46 67 47 27 48 70 49 64 50 63 51 28 53 54 54 37 55
REMARK SMILES IDX 53 56 38 57 41 58 52 59 68 60 39 61 40 62 51 64 69 65 42 66
REMARK SMILES IDX 29 67 30 68 35 69 31 70 32 71 34 72 36 73 33 74 55 75 56 76
REMARK SMILES IDX 61 77 57 78 58 79 60 80 62 81 59 82 43 83 44 84 49 85 45 86
REMARK SMILES IDX 46 87 48 88 50 89 47 90
REMARK H PARENT 84 25 67 52 41 63
REMARK Flexibility Score: inf
ROOT
ATOM      1  C   UNL A   1      34.360  24.827  25.380  1.00  0.00     0.188 C 
ENDROOT
BRANCH   1   2
ATOM      2  C   UNL A   1      35.780  24.424  25.810  1.00  0.00     0.188 C 
BRANCH   2   3
ATOM      3  O   UNL A   1      36.513  23.786  24.780  1.00  0.00    -0.376 OA
BRANCH   3   4
ATOM      4  C   UNL A   1      36.560  22.367  24.760  1.00  0.00     0.202 C 
BRANCH   4   5
ATOM      5  C   UNL A   1      35.361  21.549  24.243  1.00  0.00     0.261 C 
BRANCH   5   6
ATOM      6  O   UNL A   1      34.782  20.611  25.166  1.00  0.00    -0.463 OA
BRANCH   6   7
ATOM      7  C   UNL A   1      33.835  21.085  26.009  1.00  0.00     0.313 C 
ATOM      8  O   UNL A   1      34.122  21.510  27.120  1.00  0.00    -0.252 OA
BRANCH   7   9
ATOM      9  C   UNL A   1      32.407  21.042  25.405  1.00  0.00     0.127 C 
ATOM     10  C   UNL A   1      32.342  20.108  24.171  1.00  0.00     0.025 C 
BRANCH   9  11
ATOM     11  C   UNL A   1      31.766  22.436  25.215  1.00  0.00    -0.020 A 
ATOM     12  C   UNL A   1      31.277  23.181  26.310  1.00  0.00     0.006 A 
ATOM     13  C   UNL A   1      31.676  23.075  23.962  1.00  0.00     0.022 A 
ATOM     14  C   UNL A   1      30.656  24.436  26.151  1.00  0.00     0.004 A 
ATOM     15  C   UNL A   1      30.962  24.278  23.799  1.00  0.00     0.019 A 
ATOM     16  Br  UNL A   1      32.668  22.544  22.425  1.00  0.00    -0.050 Br
ATOM     17  C   UNL A   1      30.427  24.973  24.887  1.00  0.00    -0.047 A 
BRANCH  17  18
ATOM     18  C   UNL A   1      29.790  26.328  24.660  1.00  0.00     0.041 C 
BRANCH  18  19
ATOM     19  C   UNL A   1      29.924  27.066  23.310  1.00  0.00     0.022 C 
ATOM     20  C   UNL A   1      31.220  27.855  23.118  1.00  0.00     0.007 C 
ATOM     21  C   UNL A   1      28.842  28.086  22.946  1.00  0.00     0.117 C 
ATOM     22  C   UNL A   1      30.871  29.332  23.329  1.00  0.00     0.003 C 
ATOM     23  C   UNL A   1      29.357  29.405  23.502  1.00  0.00     0.032 C 
BRANCH  21  24
ATOM     24  O   UNL A   1      27.554  27.746  23.413  1.00  0.00    -0.393 OA
ATOM     25  H   UNL A   1      27.330  26.848  23.119  1.00  0.00     0.210 HD
ENDBRANCH  21  24
ENDBRANCH  18  19
ENDBRANCH  17  18
ENDBRANCH   9  11
ENDBRANCH   7   9
ENDBRANCH   6   7
ENDBRANCH   5   6
ENDBRANCH   4   5
ENDBRANCH   3   4
ENDBRANCH   2   3
ENDBRANCH   1   2
BRANCH   1  26
ATOM     26  O   UNL A   1      34.174  26.185  25.017  1.00  0.00    -0.377 OA
BRANCH  26  27
ATOM     27  C   UNL A   1      33.608  27.093  25.961  1.00  0.00     0.188 C 
BRANCH  27  28
ATOM     28  C   UNL A   1      34.006  28.586  26.017  1.00  0.00     0.188 C 
BRANCH  28  29
ATOM     29  O   UNL A   1      34.026  29.153  27.317  1.00  0.00    -0.376 OA
BRANCH  29  30
ATOM     30  C   UNL A   1      34.124  30.563  27.425  1.00  0.00     0.202 C 
BRANCH  30  31
ATOM     31  C   UNL A   1      34.536  31.130  28.793  1.00  0.00     0.261 C 
BRANCH  31  32
ATOM     32  O   UNL A   1      35.948  31.243  29.036  1.00  0.00    -0.460 OA
BRANCH  32  33
ATOM     33  C   UNL A   1      36.484  30.478  30.008  1.00  0.00     0.338 C 
ATOM     34  O   UNL A   1      35.894  29.924  30.924  1.00  0.00    -0.246 OA
BRANCH  33  35
ATOM     35  C   UNL A   1      37.906  30.252  29.676  1.00  0.00     0.060 A 
ATOM     36  C   UNL A   1      38.286  30.169  28.330  1.00  0.00     0.016 A 
ATOM     37  C   UNL A   1      38.860  30.129  30.688  1.00  0.00     0.016 A 
ATOM     38  C   UNL A   1      39.617  29.918  27.994  1.00  0.00     0.010 A 
ATOM     39  C   UNL A   1      40.188  29.856  30.351  1.00  0.00     0.010 A 
ATOM     40  C   UNL A   1      40.565  29.710  29.003  1.00  0.00    -0.014 A 
BRANCH  40  41
ATOM     41  C   UNL A   1      41.888  29.133  28.663  1.00  0.00     0.031 A 
ATOM     42  C   UNL A   1      43.075  30.057  28.615  1.00  0.00     0.074 A 
ATOM     43  C   UNL A   1      42.046  27.820  28.425  1.00  0.00     0.049 A 
ATOM     44  N   UNL A   1      44.314  29.805  28.284  1.00  0.00    -0.248 NA
ATOM     45  C   UNL A   1      42.823  31.459  28.989  1.00  0.00     0.031 C 
ATOM     46  C   UNL A   1      40.988  26.815  28.487  1.00  0.00     0.029 A 
ATOM     47  N   UNL A   1      43.167  27.110  28.070  1.00  0.00    -0.354 N 
ATOM     48  C   UNL A   1      44.988  31.015  28.403  1.00  0.00     0.074 A 
ATOM     49  C   UNL A   1      44.013  32.006  28.800  1.00  0.00     0.031 C 
ATOM     50  C   UNL A   1      41.506  25.617  28.162  1.00  0.00     0.029 A 
ATOM     51  C   UNL A   1      42.923  25.779  27.836  1.00  0.00     0.049 A 
ATOM     52  H   UNL A   1      44.059  27.518  27.991  1.00  0.00     0.167 HD
ATOM     53  C   UNL A   1      46.303  31.275  28.209  1.00  0.00     0.037 A 
ATOM     54  C   UNL A   1      43.745  24.812  27.383  1.00  0.00     0.037 A 
ATOM     55  C   UNL A   1      47.269  30.288  27.805  1.00  0.00     0.049 A 
ATOM     56  C   UNL A   1      45.186  25.142  27.088  1.00  0.00     0.074 A 
ATOM     57  C   UNL A   1      48.626  30.449  27.587  1.00  0.00     0.029 A 
ATOM     58  N   UNL A   1      46.977  28.957  27.547  1.00  0.00    -0.354 N 
ATOM     59  N   UNL A   1      45.819  26.283  27.220  1.00  0.00    -0.248 NA
ATOM     60  C   UNL A   1      46.029  24.047  26.585  1.00  0.00     0.031 C 
ATOM     61  C   UNL A   1      49.143  29.229  27.139  1.00  0.00     0.029 A 
ATOM     62  C   UNL A   1      48.123  28.292  27.144  1.00  0.00     0.049 A 
ATOM     63  H   UNL A   1      46.087  28.545  27.636  1.00  0.00     0.167 HD
ATOM     64  C   UNL A   1      47.136  26.036  26.849  1.00  0.00     0.074 A 
ATOM     65  C   UNL A   1      47.214  24.633  26.499  1.00  0.00     0.031 C 
ATOM     66  C   UNL A   1      48.188  26.892  26.805  1.00  0.00     0.037 A 
BRANCH  53  67
ATOM     67  C   UNL A   1      46.761  32.692  28.401  1.00  0.00     0.057 A 
ATOM     68  C   UNL A   1      47.238  33.160  29.633  1.00  0.00     0.134 A 
ATOM     69  C   UNL A   1      46.743  33.597  27.332  1.00  0.00     0.134 A 
ATOM     70  F   UNL A   1      47.266  32.350  30.702  1.00  0.00    -0.206 F 
ATOM     71  C   UNL A   1      47.652  34.482  29.801  1.00  0.00     0.040 A 
ATOM     72  C   UNL A   1      47.183  34.913  27.480  1.00  0.00     0.040 A 
ATOM     73  F   UNL A   1      46.302  33.217  26.123  1.00  0.00    -0.206 F 
ATOM     74  C   UNL A   1      47.632  35.361  28.721  1.00  0.00     0.006 A 
ENDBRANCH  53  67
BRANCH  54  75
ATOM     75  C   UNL A   1      43.224  23.438  27.155  1.00  0.00     0.057 A 
ATOM     76  C   UNL A   1      42.850  23.001  25.878  1.00  0.00     0.134 A 
ATOM     77  C   UNL A   1      43.059  22.538  28.216  1.00  0.00     0.134 A 
ATOM     78  F   UNL A   1      42.958  23.824  24.825  1.00  0.00    -0.206 F 
ATOM     79  C   UNL A   1      42.315  21.729  25.667  1.00  0.00     0.040 A 
ATOM     80  C   UNL A   1      42.554  21.253  28.015  1.00  0.00     0.040 A 
ATOM     81  F   UNL A   1      43.395  22.894  29.464  1.00  0.00    -0.206 F 
ATOM     82  C   UNL A   1      42.172  20.848  26.738  1.00  0.00     0.006 A 
ENDBRANCH  54  75
BRANCH  66  83
ATOM     83  C   UNL A   1      49.524  26.331  26.406  1.00  0.00     0.057 A 
ATOM     84  C   UNL A   1      50.032  26.463  25.108  1.00  0.00     0.134 A 
ATOM     85  C   UNL A   1      50.336  25.689  27.353  1.00  0.00     0.134 A 
ATOM     86  F   UNL A   1      49.304  27.057  24.150  1.00  0.00    -0.206 F 
ATOM     87  C   UNL A   1      51.284  25.953  24.758  1.00  0.00     0.040 A 
ATOM     88  C   UNL A   1      51.602  25.204  27.023  1.00  0.00     0.040 A 
ATOM     89  F   UNL A   1      49.918  25.539  28.619  1.00  0.00    -0.206 F 
ATOM     90  C   UNL A   1      52.076  25.328  25.719  1.00  0.00     0.006 A 
ENDBRANCH  66  83
ENDBRANCH  40  41
ENDBRANCH  33  35
ENDBRANCH  32  33
ENDBRANCH  31  32
ENDBRANCH  30  31
ENDBRANCH  29  30
ENDBRANCH  28  29
ENDBRANCH  27  28
ENDBRANCH  26  27
ENDBRANCH   1  26
TORSDOF 24
ENDMDL
