MODEL 1
REMARK VINA RESULT:      -9.7      0.000      0.000
REMARK SMILES CC(C)[C@@H](NC(=O)[C@H]1CC[C@@H](C(C)C)CC1)C(=O)OCCOCCOCCOCCOC(=O)c1ccc(-c2c3nc(c(-c4c(F)cccc4F)c4ccc([nH]4)c(-c4c(F)cccc4F)c4nc(c(-c5c(F)cccc5F)c5ccc2[nH]5)C=C4)C=C3)cc1
REMARK SMILES IDX 24 1 23 2 22 3 21 4 20 5 19 6 17 7 18 8 4 9 5 10 6 11 7 12
REMARK SMILES IDX 8 14 11 15 15 16 10 17 16 18 9 19 12 20 13 21 14 22 2 23
REMARK SMILES IDX 1 24 3 25 25 26 26 27 27 28 28 29 29 30 30 31 31 32 32 33
REMARK SMILES IDX 33 34 34 35 35 36 87 37 36 38 86 39 37 40 38 41 39 42 80 43
REMARK SMILES IDX 40 44 85 45 79 46 81 47 41 48 84 49 78 50 77 51 42 53 68 54
REMARK SMILES IDX 51 55 67 56 52 57 55 58 66 59 82 60 53 61 54 62 65 64 83 65
REMARK SMILES IDX 56 66 43 67 44 68 49 69 45 70 46 71 48 72 50 73 47 74 69 75
REMARK SMILES IDX 70 76 75 77 71 78 72 79 74 80 76 81 73 82 57 83 58 84 63 85
REMARK SMILES IDX 59 86 60 87 62 88 64 89 61 90
REMARK H PARENT 5 13 81 52 55 63
REMARK Flexibility Score: inf
ROOT
ATOM      1  C   UNL A   1      39.728  22.516  26.918  1.00  0.00     0.188 C 
ENDROOT
BRANCH   1   2
ATOM      2  C   UNL A   1      39.038  23.819  26.477  1.00  0.00     0.188 C 
BRANCH   2   3
ATOM      3  O   UNL A   1      37.875  23.620  25.688  1.00  0.00    -0.376 OA
BRANCH   3   4
ATOM      4  C   UNL A   1      36.611  23.954  26.232  1.00  0.00     0.202 C 
BRANCH   4   5
ATOM      5  C   UNL A   1      35.520  24.485  25.286  1.00  0.00     0.261 C 
BRANCH   5   6
ATOM      6  O   UNL A   1      34.373  25.132  25.866  1.00  0.00    -0.462 OA
BRANCH   6   7
ATOM      7  C   UNL A   1      33.150  24.832  25.364  1.00  0.00     0.328 C 
ATOM      8  O   UNL A   1      32.860  24.997  24.186  1.00  0.00    -0.250 OA
BRANCH   7   9
ATOM      9  C   UNL A   1      32.163  24.318  26.460  1.00  0.00     0.194 C 
BRANCH   9  10
ATOM     10  N   UNL A   1      32.684  23.156  27.177  1.00  0.00    -0.342 N 
ATOM     11  C   UNL A   1      33.259  22.020  26.720  1.00  0.00     0.223 C 
ATOM     12  O   UNL A   1      33.741  21.272  27.580  1.00  0.00    -0.275 OA
ATOM     13  H   UNL A   1      32.603  23.210  28.157  1.00  0.00     0.164 HD
BRANCH  11  14
ATOM     14  C   UNL A   1      33.293  21.593  25.241  1.00  0.00     0.078 C 
ATOM     15  C   UNL A   1      33.858  18.755  24.265  1.00  0.00    -0.009 C 
ATOM     16  C   UNL A   1      32.410  19.213  24.537  1.00  0.00     0.004 C 
ATOM     17  C   UNL A   1      34.958  19.679  24.829  1.00  0.00     0.004 C 
ATOM     18  C   UNL A   1      32.172  20.724  24.670  1.00  0.00     0.014 C 
ATOM     19  C   UNL A   1      34.674  21.172  24.759  1.00  0.00     0.014 C 
BRANCH  15  20
ATOM     20  C   UNL A   1      34.153  17.252  24.643  1.00  0.00    -0.014 C 
ATOM     21  C   UNL A   1      33.185  16.565  25.603  1.00  0.00     0.007 C 
ATOM     22  C   UNL A   1      34.189  16.358  23.408  1.00  0.00     0.007 C 
ENDBRANCH  15  20
ENDBRANCH  11  14
ENDBRANCH   9  10
BRANCH   9  23
ATOM     23  C   UNL A   1      30.676  24.080  26.037  1.00  0.00     0.017 C 
ATOM     24  C   UNL A   1      29.978  23.093  26.989  1.00  0.00     0.010 C 
ATOM     25  C   UNL A   1      29.811  25.340  25.960  1.00  0.00     0.010 C 
ENDBRANCH   9  23
ENDBRANCH   7   9
ENDBRANCH   6   7
ENDBRANCH   5   6
ENDBRANCH   4   5
ENDBRANCH   3   4
ENDBRANCH   2   3
ENDBRANCH   1   2
BRANCH   1  26
ATOM     26  O   UNL A   1      40.712  22.569  27.930  1.00  0.00    -0.377 OA
BRANCH  26  27
ATOM     27  C   UNL A   1      41.635  21.496  28.036  1.00  0.00     0.188 C 
BRANCH  27  28
ATOM     28  C   UNL A   1      43.020  21.604  27.365  1.00  0.00     0.188 C 
BRANCH  28  29
ATOM     29  O   UNL A   1      43.013  21.570  25.948  1.00  0.00    -0.376 OA
BRANCH  29  30
ATOM     30  C   UNL A   1      44.216  21.861  25.257  1.00  0.00     0.202 C 
BRANCH  30  31
ATOM     31  C   UNL A   1      44.188  22.969  24.193  1.00  0.00     0.261 C 
BRANCH  31  32
ATOM     32  O   UNL A   1      43.670  24.246  24.603  1.00  0.00    -0.460 OA
BRANCH  32  33
ATOM     33  C   UNL A   1      44.503  25.118  25.205  1.00  0.00     0.338 C 
ATOM     34  O   UNL A   1      45.648  25.392  24.887  1.00  0.00    -0.246 OA
BRANCH  33  35
ATOM     35  C   UNL A   1      43.715  25.870  26.204  1.00  0.00     0.060 A 
ATOM     36  C   UNL A   1      43.949  27.244  26.364  1.00  0.00     0.016 A 
ATOM     37  C   UNL A   1      42.721  25.229  26.946  1.00  0.00     0.016 A 
ATOM     38  C   UNL A   1      43.218  27.973  27.299  1.00  0.00     0.010 A 
ATOM     39  C   UNL A   1      42.019  25.951  27.912  1.00  0.00     0.010 A 
ATOM     40  C   UNL A   1      42.297  27.314  28.121  1.00  0.00    -0.014 A 
BRANCH  40  41
ATOM     41  C   UNL A   1      41.846  27.972  29.367  1.00  0.00     0.031 A 
ATOM     42  C   UNL A   1      40.591  28.799  29.301  1.00  0.00     0.074 A 
ATOM     43  C   UNL A   1      42.503  27.825  30.529  1.00  0.00     0.049 A 
ATOM     44  N   UNL A   1      40.017  29.519  30.228  1.00  0.00    -0.248 NA
ATOM     45  C   UNL A   1      39.894  28.816  28.004  1.00  0.00     0.031 C 
ATOM     46  C   UNL A   1      43.697  27.008  30.731  1.00  0.00     0.029 A 
ATOM     47  N   UNL A   1      42.254  28.377  31.761  1.00  0.00    -0.354 N 
ATOM     48  C   UNL A   1      38.898  30.080  29.623  1.00  0.00     0.074 A 
ATOM     49  C   UNL A   1      38.892  29.645  28.245  1.00  0.00     0.031 C 
ATOM     50  C   UNL A   1      44.090  27.129  32.013  1.00  0.00     0.029 A 
ATOM     51  C   UNL A   1      43.194  28.055  32.706  1.00  0.00     0.049 A 
ATOM     52  H   UNL A   1      41.475  28.949  31.947  1.00  0.00     0.167 HD
ATOM     53  C   UNL A   1      37.956  30.883  30.170  1.00  0.00     0.037 A 
ATOM     54  C   UNL A   1      43.328  28.485  33.976  1.00  0.00     0.037 A 
ATOM     55  C   UNL A   1      37.972  31.324  31.537  1.00  0.00     0.049 A 
ATOM     56  C   UNL A   1      42.315  29.448  34.542  1.00  0.00     0.074 A 
ATOM     57  C   UNL A   1      37.061  32.132  32.194  1.00  0.00     0.029 A 
ATOM     58  N   UNL A   1      38.962  31.005  32.455  1.00  0.00    -0.354 N 
ATOM     59  N   UNL A   1      41.249  29.959  33.974  1.00  0.00    -0.248 NA
ATOM     60  C   UNL A   1      42.525  29.892  35.927  1.00  0.00     0.031 C 
ATOM     61  C   UNL A   1      37.530  32.348  33.494  1.00  0.00     0.029 A 
ATOM     62  C   UNL A   1      38.699  31.624  33.667  1.00  0.00     0.049 A 
ATOM     63  H   UNL A   1      39.736  30.425  32.274  1.00  0.00     0.167 HD
ATOM     64  C   UNL A   1      40.646  30.759  34.939  1.00  0.00     0.074 A 
ATOM     65  C   UNL A   1      41.460  30.656  36.132  1.00  0.00     0.031 C 
ATOM     66  C   UNL A   1      39.518  31.507  34.847  1.00  0.00     0.037 A 
BRANCH  53  67
ATOM     67  C   UNL A   1      36.858  31.362  29.266  1.00  0.00     0.057 A 
ATOM     68  C   UNL A   1      36.844  32.659  28.735  1.00  0.00     0.134 A 
ATOM     69  C   UNL A   1      35.797  30.514  28.926  1.00  0.00     0.134 A 
ATOM     70  F   UNL A   1      37.819  33.530  29.037  1.00  0.00    -0.206 F 
ATOM     71  C   UNL A   1      35.798  33.105  27.923  1.00  0.00     0.040 A 
ATOM     72  C   UNL A   1      34.762  30.938  28.090  1.00  0.00     0.040 A 
ATOM     73  F   UNL A   1      35.748  29.260  29.400  1.00  0.00    -0.206 F 
ATOM     74  C   UNL A   1      34.756  32.240  27.594  1.00  0.00     0.006 A 
ENDBRANCH  53  67
BRANCH  54  75
ATOM     75  C   UNL A   1      44.475  28.022  34.798  1.00  0.00     0.057 A 
ATOM     76  C   UNL A   1      45.690  28.714  34.808  1.00  0.00     0.134 A 
ATOM     77  C   UNL A   1      44.386  26.866  35.586  1.00  0.00     0.134 A 
ATOM     78  F   UNL A   1      45.847  29.812  34.054  1.00  0.00    -0.206 F 
ATOM     79  C   UNL A   1      46.781  28.269  35.559  1.00  0.00     0.040 A 
ATOM     80  C   UNL A   1      45.459  26.425  36.362  1.00  0.00     0.040 A 
ATOM     81  F   UNL A   1      43.249  26.155  35.619  1.00  0.00    -0.206 F 
ATOM     82  C   UNL A   1      46.664  27.125  36.345  1.00  0.00     0.006 A 
ENDBRANCH  54  75
BRANCH  66  83
ATOM     83  C   UNL A   1      39.071  32.241  36.080  1.00  0.00     0.057 A 
ATOM     84  C   UNL A   1      38.215  31.658  37.022  1.00  0.00     0.134 A 
ATOM     85  C   UNL A   1      39.548  33.530  36.351  1.00  0.00     0.134 A 
ATOM     86  F   UNL A   1      37.714  30.431  36.820  1.00  0.00    -0.206 F 
ATOM     87  C   UNL A   1      37.829  32.342  38.178  1.00  0.00     0.040 A 
ATOM     88  C   UNL A   1      39.195  34.210  37.517  1.00  0.00     0.040 A 
ATOM     89  F   UNL A   1      40.382  34.142  35.497  1.00  0.00    -0.206 F 
ATOM     90  C   UNL A   1      38.327  33.619  38.431  1.00  0.00     0.006 A 
ENDBRANCH  66  83
ENDBRANCH  40  41
ENDBRANCH  33  35
ENDBRANCH  32  33
ENDBRANCH  31  32
ENDBRANCH  30  31
ENDBRANCH  29  30
ENDBRANCH  28  29
ENDBRANCH  27  28
ENDBRANCH  26  27
ENDBRANCH   1  26
TORSDOF 24
ENDMDL
MODEL 2
REMARK VINA RESULT:      -9.6      1.804      6.965
REMARK SMILES CC(C)[C@@H](NC(=O)[C@H]1CC[C@@H](C(C)C)CC1)C(=O)OCCOCCOCCOCCOC(=O)c1ccc(-c2c3nc(c(-c4c(F)cccc4F)c4ccc([nH]4)c(-c4c(F)cccc4F)c4nc(c(-c5c(F)cccc5F)c5ccc2[nH]5)C=C4)C=C3)cc1
REMARK SMILES IDX 24 1 23 2 22 3 21 4 20 5 19 6 17 7 18 8 4 9 5 10 6 11 7 12
REMARK SMILES IDX 8 14 11 15 15 16 10 17 16 18 9 19 12 20 13 21 14 22 2 23
REMARK SMILES IDX 1 24 3 25 25 26 26 27 27 28 28 29 29 30 30 31 31 32 32 33
REMARK SMILES IDX 33 34 34 35 35 36 87 37 36 38 86 39 37 40 38 41 39 42 80 43
REMARK SMILES IDX 40 44 85 45 79 46 81 47 41 48 84 49 78 50 77 51 42 53 68 54
REMARK SMILES IDX 51 55 67 56 52 57 55 58 66 59 82 60 53 61 54 62 65 64 83 65
REMARK SMILES IDX 56 66 43 67 44 68 49 69 45 70 46 71 48 72 50 73 47 74 69 75
REMARK SMILES IDX 70 76 75 77 71 78 72 79 74 80 76 81 73 82 57 83 58 84 63 85
REMARK SMILES IDX 59 86 60 87 62 88 64 89 61 90
REMARK H PARENT 5 13 81 52 55 63
REMARK Flexibility Score: inf
ROOT
ATOM      1  C   UNL A   1      40.481  22.271  27.352  1.00  0.00     0.188 C 
ENDROOT
BRANCH   1   2
ATOM      2  C   UNL A   1      39.139  22.988  27.118  1.00  0.00     0.188 C 
BRANCH   2   3
ATOM      3  O   UNL A   1      38.515  22.660  25.885  1.00  0.00    -0.376 OA
BRANCH   3   4
ATOM      4  C   UNL A   1      37.638  23.599  25.289  1.00  0.00     0.202 C 
BRANCH   4   5
ATOM      5  C   UNL A   1      36.247  23.806  25.914  1.00  0.00     0.261 C 
BRANCH   5   6
ATOM      6  O   UNL A   1      35.198  24.327  25.079  1.00  0.00    -0.462 OA
BRANCH   6   7
ATOM      7  C   UNL A   1      34.087  23.570  24.902  1.00  0.00     0.328 C 
ATOM      8  O   UNL A   1      34.090  22.536  24.247  1.00  0.00    -0.250 OA
BRANCH   7   9
ATOM      9  C   UNL A   1      32.823  24.196  25.572  1.00  0.00     0.194 C 
BRANCH   9  10
ATOM     10  N   UNL A   1      32.985  25.624  25.839  1.00  0.00    -0.342 N 
ATOM     11  C   UNL A   1      32.586  26.707  25.134  1.00  0.00     0.223 C 
ATOM     12  O   UNL A   1      32.736  27.802  25.689  1.00  0.00    -0.275 OA
ATOM     13  H   UNL A   1      33.466  25.832  26.673  1.00  0.00     0.164 HD
BRANCH  11  14
ATOM     14  C   UNL A   1      32.027  26.656  23.699  1.00  0.00     0.078 C 
ATOM     15  C   UNL A   1      29.696  28.346  22.682  1.00  0.00    -0.009 C 
ATOM     16  C   UNL A   1      31.145  28.857  22.551  1.00  0.00     0.004 C 
ATOM     17  C   UNL A   1      29.505  27.144  23.630  1.00  0.00     0.004 C 
ATOM     18  C   UNL A   1      32.266  27.825  22.743  1.00  0.00     0.014 C 
ATOM     19  C   UNL A   1      30.612  26.101  23.615  1.00  0.00     0.014 C 
BRANCH  15  20
ATOM     20  C   UNL A   1      28.631  29.467  22.993  1.00  0.00    -0.014 C 
ATOM     21  C   UNL A   1      28.548  30.647  22.027  1.00  0.00     0.007 C 
ATOM     22  C   UNL A   1      27.216  28.900  23.048  1.00  0.00     0.007 C 
ENDBRANCH  15  20
ENDBRANCH  11  14
ENDBRANCH   9  10
BRANCH   9  23
ATOM     23  C   UNL A   1      32.235  23.467  26.825  1.00  0.00     0.017 C 
ATOM     24  C   UNL A   1      30.996  22.634  26.453  1.00  0.00     0.010 C 
ATOM     25  C   UNL A   1      33.211  22.545  27.560  1.00  0.00     0.010 C 
ENDBRANCH   9  23
ENDBRANCH   7   9
ENDBRANCH   6   7
ENDBRANCH   5   6
ENDBRANCH   4   5
ENDBRANCH   3   4
ENDBRANCH   2   3
ENDBRANCH   1   2
BRANCH   1  26
ATOM     26  O   UNL A   1      40.499  20.861  27.434  1.00  0.00    -0.377 OA
BRANCH  26  27
ATOM     27  C   UNL A   1      41.754  20.201  27.487  1.00  0.00     0.188 C 
BRANCH  27  28
ATOM     28  C   UNL A   1      42.202  19.302  26.315  1.00  0.00     0.188 C 
BRANCH  28  29
ATOM     29  O   UNL A   1      43.154  19.878  25.438  1.00  0.00    -0.376 OA
BRANCH  29  30
ATOM     30  C   UNL A   1      43.203  21.291  25.325  1.00  0.00     0.202 C 
BRANCH  30  31
ATOM     31  C   UNL A   1      44.583  21.968  25.337  1.00  0.00     0.261 C 
BRANCH  31  32
ATOM     32  O   UNL A   1      44.751  23.076  26.237  1.00  0.00    -0.460 OA
BRANCH  32  33
ATOM     33  C   UNL A   1      44.842  24.318  25.722  1.00  0.00     0.338 C 
ATOM     34  O   UNL A   1      45.377  24.653  24.678  1.00  0.00    -0.246 OA
BRANCH  33  35
ATOM     35  C   UNL A   1      43.978  25.201  26.534  1.00  0.00     0.060 A 
ATOM     36  C   UNL A   1      44.156  26.591  26.455  1.00  0.00     0.016 A 
ATOM     37  C   UNL A   1      42.971  24.660  27.335  1.00  0.00     0.016 A 
ATOM     38  C   UNL A   1      43.354  27.442  27.210  1.00  0.00     0.010 A 
ATOM     39  C   UNL A   1      42.196  25.511  28.124  1.00  0.00     0.010 A 
ATOM     40  C   UNL A   1      42.415  26.900  28.096  1.00  0.00    -0.014 A 
BRANCH  40  41
ATOM     41  C   UNL A   1      41.879  27.749  29.182  1.00  0.00     0.031 A 
ATOM     42  C   UNL A   1      42.585  27.705  30.510  1.00  0.00     0.074 A 
ATOM     43  C   UNL A   1      40.821  28.556  29.002  1.00  0.00     0.049 A 
ATOM     44  N   UNL A   1      42.288  28.303  31.634  1.00  0.00    -0.248 NA
ATOM     45  C   UNL A   1      43.792  26.863  30.575  1.00  0.00     0.031 C 
ATOM     46  C   UNL A   1      40.087  28.726  27.751  1.00  0.00     0.029 A 
ATOM     47  N   UNL A   1      40.175  29.378  29.891  1.00  0.00    -0.354 N 
ATOM     48  C   UNL A   1      43.265  27.903  32.538  1.00  0.00     0.074 A 
ATOM     49  C   UNL A   1      44.142  26.987  31.844  1.00  0.00     0.031 C 
ATOM     50  C   UNL A   1      39.074  29.588  27.958  1.00  0.00     0.029 A 
ATOM     51  C   UNL A   1      39.073  30.000  29.361  1.00  0.00     0.049 A 
ATOM     52  H   UNL A   1      40.474  29.509  30.820  1.00  0.00     0.167 HD
ATOM     53  C   UNL A   1      43.420  28.269  33.831  1.00  0.00     0.037 A 
ATOM     54  C   UNL A   1      38.155  30.789  29.954  1.00  0.00     0.037 A 
ATOM     55  C   UNL A   1      42.538  29.169  34.522  1.00  0.00     0.049 A 
ATOM     56  C   UNL A   1      38.296  31.117  31.419  1.00  0.00     0.074 A 
ATOM     57  C   UNL A   1      42.610  29.614  35.829  1.00  0.00     0.029 A 
ATOM     58  N   UNL A   1      41.411  29.752  33.961  1.00  0.00    -0.354 N 
ATOM     59  N   UNL A   1      39.231  30.753  32.264  1.00  0.00    -0.248 NA
ATOM     60  C   UNL A   1      37.254  31.968  32.011  1.00  0.00     0.031 C 
ATOM     61  C   UNL A   1      41.494  30.420  36.077  1.00  0.00     0.029 A 
ATOM     62  C   UNL A   1      40.762  30.530  34.905  1.00  0.00     0.049 A 
ATOM     63  H   UNL A   1      41.116  29.631  33.029  1.00  0.00     0.167 HD
ATOM     64  C   UNL A   1      38.908  31.353  33.476  1.00  0.00     0.074 A 
ATOM     65  C   UNL A   1      37.696  32.114  33.253  1.00  0.00     0.031 C 
ATOM     66  C   UNL A   1      39.558  31.285  34.666  1.00  0.00     0.037 A 
BRANCH  53  67
ATOM     67  C   UNL A   1      44.565  27.657  34.583  1.00  0.00     0.057 A 
ATOM     68  C   UNL A   1      45.809  28.293  34.694  1.00  0.00     0.134 A 
ATOM     69  C   UNL A   1      44.422  26.409  35.202  1.00  0.00     0.134 A 
ATOM     70  F   UNL A   1      46.021  29.482  34.106  1.00  0.00    -0.206 F 
ATOM     71  C   UNL A   1      46.878  27.697  35.366  1.00  0.00     0.040 A 
ATOM     72  C   UNL A   1      45.473  25.817  35.903  1.00  0.00     0.040 A 
ATOM     73  F   UNL A   1      43.259  25.744  35.135  1.00  0.00    -0.206 F 
ATOM     74  C   UNL A   1      46.709  26.457  35.978  1.00  0.00     0.006 A 
ENDBRANCH  53  67
BRANCH  54  75
ATOM     75  C   UNL A   1      37.008  31.311  29.169  1.00  0.00     0.057 A 
ATOM     76  C   UNL A   1      36.992  32.625  28.690  1.00  0.00     0.134 A 
ATOM     77  C   UNL A   1      35.893  30.510  28.889  1.00  0.00     0.134 A 
ATOM     78  F   UNL A   1      38.018  33.450  28.947  1.00  0.00    -0.206 F 
ATOM     79  C   UNL A   1      35.905  33.130  27.972  1.00  0.00     0.040 A 
ATOM     80  C   UNL A   1      34.811  30.994  28.151  1.00  0.00     0.040 A 
ATOM     81  F   UNL A   1      35.844  29.242  29.322  1.00  0.00    -0.206 F 
ATOM     82  C   UNL A   1      34.813  32.310  27.695  1.00  0.00     0.006 A 
ENDBRANCH  54  75
BRANCH  66  83
ATOM     83  C   UNL A   1      38.999  32.085  35.808  1.00  0.00     0.057 A 
ATOM     84  C   UNL A   1      38.203  31.505  36.803  1.00  0.00     0.134 A 
ATOM     85  C   UNL A   1      39.306  33.446  35.938  1.00  0.00     0.134 A 
ATOM     86  F   UNL A   1      37.863  30.209  36.734  1.00  0.00    -0.206 F 
ATOM     87  C   UNL A   1      37.713  32.255  37.875  1.00  0.00     0.040 A 
ATOM     88  C   UNL A   1      38.848  34.199  37.020  1.00  0.00     0.040 A 
ATOM     89  F   UNL A   1      40.074  34.062  35.027  1.00  0.00    -0.206 F 
ATOM     90  C   UNL A   1      38.043  33.605  37.989  1.00  0.00     0.006 A 
ENDBRANCH  66  83
ENDBRANCH  40  41
ENDBRANCH  33  35
ENDBRANCH  32  33
ENDBRANCH  31  32
ENDBRANCH  30  31
ENDBRANCH  29  30
ENDBRANCH  28  29
ENDBRANCH  27  28
ENDBRANCH  26  27
ENDBRANCH   1  26
TORSDOF 24
ENDMDL
MODEL 3
REMARK VINA RESULT:      -9.3      1.453      6.980
REMARK SMILES CC(C)[C@@H](NC(=O)[C@H]1CC[C@@H](C(C)C)CC1)C(=O)OCCOCCOCCOCCOC(=O)c1ccc(-c2c3nc(c(-c4c(F)cccc4F)c4ccc([nH]4)c(-c4c(F)cccc4F)c4nc(c(-c5c(F)cccc5F)c5ccc2[nH]5)C=C4)C=C3)cc1
REMARK SMILES IDX 24 1 23 2 22 3 21 4 20 5 19 6 17 7 18 8 4 9 5 10 6 11 7 12
REMARK SMILES IDX 8 14 11 15 15 16 10 17 16 18 9 19 12 20 13 21 14 22 2 23
REMARK SMILES IDX 1 24 3 25 25 26 26 27 27 28 28 29 29 30 30 31 31 32 32 33
REMARK SMILES IDX 33 34 34 35 35 36 87 37 36 38 86 39 37 40 38 41 39 42 80 43
REMARK SMILES IDX 40 44 85 45 79 46 81 47 41 48 84 49 78 50 77 51 42 53 68 54
REMARK SMILES IDX 51 55 67 56 52 57 55 58 66 59 82 60 53 61 54 62 65 64 83 65
REMARK SMILES IDX 56 66 43 67 44 68 49 69 45 70 46 71 48 72 50 73 47 74 69 75
REMARK SMILES IDX 70 76 75 77 71 78 72 79 74 80 76 81 73 82 57 83 58 84 63 85
REMARK SMILES IDX 59 86 60 87 62 88 64 89 61 90
REMARK H PARENT 5 13 81 52 55 63
REMARK Flexibility Score: inf
ROOT
ATOM      1  C   UNL A   1      41.321  20.241  27.357  1.00  0.00     0.188 C 
ENDROOT
BRANCH   1   2
ATOM      2  C   UNL A   1      40.673  20.966  26.165  1.00  0.00     0.188 C 
BRANCH   2   3
ATOM      3  O   UNL A   1      39.386  21.500  26.443  1.00  0.00    -0.376 OA
BRANCH   3   4
ATOM      4  C   UNL A   1      38.322  21.221  25.551  1.00  0.00     0.202 C 
BRANCH   4   5
ATOM      5  C   UNL A   1      37.248  22.302  25.327  1.00  0.00     0.261 C 
BRANCH   5   6
ATOM      6  O   UNL A   1      35.877  21.883  25.208  1.00  0.00    -0.462 OA
BRANCH   6   7
ATOM      7  C   UNL A   1      35.165  22.326  24.143  1.00  0.00     0.328 C 
ATOM      8  O   UNL A   1      35.663  22.996  23.247  1.00  0.00    -0.250 OA
BRANCH   7   9
ATOM      9  C   UNL A   1      33.655  21.935  24.228  1.00  0.00     0.194 C 
BRANCH   9  10
ATOM     10  N   UNL A   1      33.008  22.474  25.421  1.00  0.00    -0.342 N 
ATOM     11  C   UNL A   1      32.455  23.687  25.657  1.00  0.00     0.223 C 
ATOM     12  O   UNL A   1      31.843  23.806  26.725  1.00  0.00    -0.275 OA
ATOM     13  H   UNL A   1      32.966  21.850  26.182  1.00  0.00     0.164 HD
BRANCH  11  14
ATOM     14  C   UNL A   1      32.593  24.905  24.723  1.00  0.00     0.078 C 
ATOM     15  C   UNL A   1      32.543  27.815  25.647  1.00  0.00    -0.009 C 
ATOM     16  C   UNL A   1      33.880  27.053  25.544  1.00  0.00     0.004 C 
ATOM     17  C   UNL A   1      31.276  26.935  25.588  1.00  0.00     0.004 C 
ATOM     18  C   UNL A   1      33.873  25.742  24.743  1.00  0.00     0.014 C 
ATOM     19  C   UNL A   1      31.332  25.751  24.634  1.00  0.00     0.014 C 
BRANCH  15  20
ATOM     20  C   UNL A   1      32.455  28.826  26.854  1.00  0.00    -0.014 C 
ATOM     21  C   UNL A   1      32.123  30.281  26.531  1.00  0.00     0.007 C 
ATOM     22  C   UNL A   1      31.405  28.397  27.873  1.00  0.00     0.007 C 
ENDBRANCH  15  20
ENDBRANCH  11  14
ENDBRANCH   9  10
BRANCH   9  23
ATOM     23  C   UNL A   1      33.290  20.425  24.040  1.00  0.00     0.017 C 
ATOM     24  C   UNL A   1      32.914  19.773  25.382  1.00  0.00     0.010 C 
ATOM     25  C   UNL A   1      32.153  20.148  23.054  1.00  0.00     0.010 C 
ENDBRANCH   9  23
ENDBRANCH   7   9
ENDBRANCH   6   7
ENDBRANCH   5   6
ENDBRANCH   4   5
ENDBRANCH   3   4
ENDBRANCH   2   3
ENDBRANCH   1   2
BRANCH   1  26
ATOM     26  O   UNL A   1      42.389  19.348  27.118  1.00  0.00    -0.377 OA
BRANCH  26  27
ATOM     27  C   UNL A   1      42.671  18.971  25.779  1.00  0.00     0.188 C 
BRANCH  27  28
ATOM     28  C   UNL A   1      43.783  19.696  24.993  1.00  0.00     0.188 C 
BRANCH  28  29
ATOM     29  O   UNL A   1      44.676  20.468  25.778  1.00  0.00    -0.376 OA
BRANCH  29  30
ATOM     30  C   UNL A   1      44.543  21.879  25.763  1.00  0.00     0.202 C 
BRANCH  30  31
ATOM     31  C   UNL A   1      43.460  22.492  24.862  1.00  0.00     0.261 C 
BRANCH  31  32
ATOM     32  O   UNL A   1      43.130  23.872  25.095  1.00  0.00    -0.460 OA
BRANCH  32  33
ATOM     33  C   UNL A   1      44.130  24.746  25.322  1.00  0.00     0.338 C 
ATOM     34  O   UNL A   1      45.039  25.047  24.566  1.00  0.00    -0.246 OA
BRANCH  33  35
ATOM     35  C   UNL A   1      43.819  25.463  26.577  1.00  0.00     0.060 A 
ATOM     36  C   UNL A   1      42.871  24.919  27.456  1.00  0.00     0.016 A 
ATOM     37  C   UNL A   1      44.493  26.642  26.902  1.00  0.00     0.016 A 
ATOM     38  C   UNL A   1      42.561  25.576  28.644  1.00  0.00     0.010 A 
ATOM     39  C   UNL A   1      44.152  27.321  28.073  1.00  0.00     0.010 A 
ATOM     40  C   UNL A   1      43.155  26.812  28.924  1.00  0.00    -0.014 A 
BRANCH  40  41
ATOM     41  C   UNL A   1      42.533  27.695  29.934  1.00  0.00     0.031 A 
ATOM     42  C   UNL A   1      43.179  27.759  31.292  1.00  0.00     0.074 A 
ATOM     43  C   UNL A   1      41.450  28.441  29.661  1.00  0.00     0.049 A 
ATOM     44  N   UNL A   1      42.804  28.406  32.364  1.00  0.00    -0.248 NA
ATOM     45  C   UNL A   1      44.417  26.979  31.458  1.00  0.00     0.031 C 
ATOM     46  C   UNL A   1      40.767  28.505  28.371  1.00  0.00     0.029 A 
ATOM     47  N   UNL A   1      40.728  29.281  30.472  1.00  0.00    -0.354 N 
ATOM     48  C   UNL A   1      43.755  28.104  33.332  1.00  0.00     0.074 A 
ATOM     49  C   UNL A   1      44.703  27.192  32.731  1.00  0.00     0.031 C 
ATOM     50  C   UNL A   1      39.709  29.329  28.483  1.00  0.00     0.029 A 
ATOM     51  C   UNL A   1      39.625  29.820  29.859  1.00  0.00     0.049 A 
ATOM     52  H   UNL A   1      40.978  29.478  31.403  1.00  0.00     0.167 HD
ATOM     53  C   UNL A   1      43.835  28.550  34.607  1.00  0.00     0.037 A 
ATOM     54  C   UNL A   1      38.647  30.597  30.364  1.00  0.00     0.037 A 
ATOM     55  C   UNL A   1      42.884  29.446  35.204  1.00  0.00     0.049 A 
ATOM     56  C   UNL A   1      38.707  31.015  31.812  1.00  0.00     0.074 A 
ATOM     57  C   UNL A   1      42.876  29.967  36.485  1.00  0.00     0.029 A 
ATOM     58  N   UNL A   1      41.759  29.942  34.561  1.00  0.00    -0.354 N 
ATOM     59  N   UNL A   1      39.617  30.743  32.716  1.00  0.00    -0.248 NA
ATOM     60  C   UNL A   1      37.603  31.849  32.307  1.00  0.00     0.031 C 
ATOM     61  C   UNL A   1      41.716  30.733  36.636  1.00  0.00     0.029 A 
ATOM     62  C   UNL A   1      41.033  30.742  35.430  1.00  0.00     0.049 A 
ATOM     63  H   UNL A   1      41.513  29.755  33.627  1.00  0.00     0.167 HD
ATOM     64  C   UNL A   1      39.213  31.396  33.876  1.00  0.00     0.074 A 
ATOM     65  C   UNL A   1      37.980  32.085  33.556  1.00  0.00     0.031 C 
ATOM     66  C   UNL A   1      39.810  31.426  35.094  1.00  0.00     0.037 A 
BRANCH  53  67
ATOM     67  C   UNL A   1      44.971  28.035  35.442  1.00  0.00     0.057 A 
ATOM     68  C   UNL A   1      44.829  26.928  36.289  1.00  0.00     0.134 A 
ATOM     69  C   UNL A   1      46.223  28.660  35.400  1.00  0.00     0.134 A 
ATOM     70  F   UNL A   1      43.650  26.295  36.392  1.00  0.00    -0.206 F 
ATOM     71  C   UNL A   1      45.883  26.480  37.088  1.00  0.00     0.040 A 
ATOM     72  C   UNL A   1      47.293  28.202  36.170  1.00  0.00     0.040 A 
ATOM     73  F   UNL A   1      46.427  29.726  34.611  1.00  0.00    -0.206 F 
ATOM     74  C   UNL A   1      47.122  27.115  37.025  1.00  0.00     0.006 A 
ENDBRANCH  53  67
BRANCH  54  75
ATOM     75  C   UNL A   1      37.516  31.020  29.500  1.00  0.00     0.057 A 
ATOM     76  C   UNL A   1      37.492  32.283  28.898  1.00  0.00     0.134 A 
ATOM     77  C   UNL A   1      36.423  30.175  29.266  1.00  0.00     0.134 A 
ATOM     78  F   UNL A   1      38.496  33.148  29.105  1.00  0.00    -0.206 F 
ATOM     79  C   UNL A   1      36.418  32.696  28.106  1.00  0.00     0.040 A 
ATOM     80  C   UNL A   1      35.357  30.565  28.456  1.00  0.00     0.040 A 
ATOM     81  F   UNL A   1      36.384  28.952  29.817  1.00  0.00    -0.206 F 
ATOM     82  C   UNL A   1      35.350  31.832  27.877  1.00  0.00     0.006 A 
ENDBRANCH  54  75
BRANCH  66  83
ATOM     83  C   UNL A   1      39.165  32.263  36.162  1.00  0.00     0.057 A 
ATOM     84  C   UNL A   1      39.498  33.609  36.355  1.00  0.00     0.134 A 
ATOM     85  C   UNL A   1      38.156  31.725  36.973  1.00  0.00     0.134 A 
ATOM     86  F   UNL A   1      40.462  34.184  35.620  1.00  0.00    -0.206 F 
ATOM     87  C   UNL A   1      38.870  34.383  37.334  1.00  0.00     0.040 A 
ATOM     88  C   UNL A   1      37.500  32.496  37.933  1.00  0.00     0.040 A 
ATOM     89  F   UNL A   1      37.778  30.445  36.832  1.00  0.00    -0.206 F 
ATOM     90  C   UNL A   1      37.862  33.828  38.120  1.00  0.00     0.006 A 
ENDBRANCH  66  83
ENDBRANCH  40  41
ENDBRANCH  33  35
ENDBRANCH  32  33
ENDBRANCH  31  32
ENDBRANCH  30  31
ENDBRANCH  29  30
ENDBRANCH  28  29
ENDBRANCH  27  28
ENDBRANCH  26  27
ENDBRANCH   1  26
TORSDOF 24
ENDMDL
