MODEL 1
REMARK VINA RESULT:     -11.0      0.000      0.000
REMARK SMILES O=C(OCCOCCOCCOCCOC(=O)[C@H]1CC=CC[C@H]1C(=O)N[C@@H]1CCN(c2cccc(Cl)c2)C1)c1ccc(-c2c3nc(c(-c4c(F)cccc4F)c4ccc([nH]4)c(-c4c(F)cccc4F)c4nc(c(-c5c(F)cccc5F)c5ccc2[nH]5)C=C4)C=C3)cc1
REMARK SMILES IDX 10 1 9 2 8 3 7 4 6 5 5 6 4 7 3 8 2 9 1 10 39 11 40 12 92 13
REMARK SMILES IDX 41 14 91 15 42 16 43 17 44 18 85 19 45 20 90 21 84 22 86 23
REMARK SMILES IDX 46 24 89 25 83 26 82 27 47 29 73 30 56 31 72 32 57 33 60 34
REMARK SMILES IDX 71 35 87 36 58 37 59 38 70 40 88 41 61 42 48 43 49 44 54 45
REMARK SMILES IDX 50 46 51 47 53 48 55 49 52 50 74 51 75 52 80 53 76 54 77 55
REMARK SMILES IDX 79 56 81 57 78 58 62 59 63 60 68 61 64 62 65 63 67 64 69 65
REMARK SMILES IDX 66 66 11 67 12 68 13 69 14 70 15 71 16 72 17 73 18 74 19 75
REMARK SMILES IDX 23 76 20 77 22 78 21 79 24 80 25 81 26 82 27 84 28 85 38 86
REMARK SMILES IDX 29 87 30 88 31 89 32 90 37 91 33 92 35 93 34 94 36 95
REMARK H PARENT 86 28 60 39 26 83
REMARK Flexibility Score: inf
ROOT
ATOM      1  C   UNL A   1      32.404  30.622  26.362  1.00  0.00     0.188 C 
ENDROOT
BRANCH   1   2
ATOM      2  O   UNL A   1      32.861  31.337  27.501  1.00  0.00    -0.377 OA
BRANCH   2   3
ATOM      3  C   UNL A   1      34.267  31.507  27.622  1.00  0.00     0.188 C 
BRANCH   3   4
ATOM      4  C   UNL A   1      34.704  32.140  28.926  1.00  0.00     0.188 C 
BRANCH   4   5
ATOM      5  O   UNL A   1      33.790  33.123  29.394  1.00  0.00    -0.376 OA
BRANCH   5   6
ATOM      6  C   UNL A   1      34.337  34.219  30.105  1.00  0.00     0.202 C 
BRANCH   6   7
ATOM      7  C   UNL A   1      34.525  34.042  31.610  1.00  0.00     0.261 C 
BRANCH   7   8
ATOM      8  O   UNL A   1      35.080  32.831  32.166  1.00  0.00    -0.460 OA
BRANCH   8   9
ATOM      9  C   UNL A   1      36.241  32.485  32.748  1.00  0.00     0.338 C 
ATOM     10  O   UNL A   1      36.396  32.756  33.939  1.00  0.00    -0.246 OA
BRANCH   9  11
ATOM     11  C   UNL A   1      37.299  31.682  32.075  1.00  0.00     0.060 A 
ATOM     12  C   UNL A   1      38.076  30.694  32.674  1.00  0.00     0.016 A 
ATOM     13  C   UNL A   1      37.472  31.922  30.700  1.00  0.00     0.016 A 
ATOM     14  C   UNL A   1      38.999  29.955  31.943  1.00  0.00     0.010 A 
ATOM     15  C   UNL A   1      38.407  31.200  29.958  1.00  0.00     0.010 A 
ATOM     16  C   UNL A   1      39.191  30.227  30.591  1.00  0.00    -0.014 A 
BRANCH  16  17
ATOM     17  C   UNL A   1      40.389  29.681  29.930  1.00  0.00     0.031 A 
ATOM     18  C   UNL A   1      41.557  30.599  29.803  1.00  0.00     0.074 A 
ATOM     19  C   UNL A   1      40.464  28.391  29.559  1.00  0.00     0.049 A 
ATOM     20  N   UNL A   1      42.685  30.417  29.182  1.00  0.00    -0.248 NA
ATOM     21  C   UNL A   1      41.441  31.905  30.483  1.00  0.00     0.031 C 
ATOM     22  C   UNL A   1      39.423  27.405  29.803  1.00  0.00     0.029 A 
ATOM     23  N   UNL A   1      41.441  27.680  28.918  1.00  0.00    -0.354 N 
ATOM     24  C   UNL A   1      43.395  31.593  29.364  1.00  0.00     0.074 A 
ATOM     25  C   UNL A   1      42.572  32.492  30.135  1.00  0.00     0.031 C 
ATOM     26  C   UNL A   1      39.791  26.218  29.299  1.00  0.00     0.029 A 
ATOM     27  C   UNL A   1      41.080  26.379  28.647  1.00  0.00     0.049 A 
ATOM     28  H   UNL A   1      42.316  28.060  28.674  1.00  0.00     0.167 HD
ATOM     29  C   UNL A   1      44.636  31.879  28.921  1.00  0.00     0.037 A 
ATOM     30  C   UNL A   1      41.714  25.447  27.912  1.00  0.00     0.037 A 
ATOM     31  C   UNL A   1      45.427  30.944  28.175  1.00  0.00     0.049 A 
ATOM     32  C   UNL A   1      43.045  25.837  27.326  1.00  0.00     0.074 A 
ATOM     33  C   UNL A   1      46.688  31.112  27.642  1.00  0.00     0.029 A 
ATOM     34  N   UNL A   1      45.016  29.653  27.858  1.00  0.00    -0.354 N 
ATOM     35  N   UNL A   1      43.709  26.960  27.475  1.00  0.00    -0.248 NA
ATOM     36  C   UNL A   1      43.718  24.846  26.480  1.00  0.00     0.031 C 
ATOM     37  C   UNL A   1      47.017  29.943  26.950  1.00  0.00     0.029 A 
ATOM     38  C   UNL A   1      45.986  29.024  27.102  1.00  0.00     0.049 A 
ATOM     39  H   UNL A   1      44.162  29.249  28.132  1.00  0.00     0.167 HD
ATOM     40  C   UNL A   1      44.889  26.804  26.767  1.00  0.00     0.074 A 
ATOM     41  C   UNL A   1      44.859  25.464  26.209  1.00  0.00     0.031 C 
ATOM     42  C   UNL A   1      45.905  27.681  26.583  1.00  0.00     0.037 A 
BRANCH  29  43
ATOM     43  C   UNL A   1      45.139  33.264  29.170  1.00  0.00     0.057 A 
ATOM     44  C   UNL A   1      44.812  34.344  28.337  1.00  0.00     0.134 A 
ATOM     45  C   UNL A   1      46.019  33.506  30.230  1.00  0.00     0.134 A 
ATOM     46  F   UNL A   1      44.011  34.166  27.276  1.00  0.00    -0.206 F 
ATOM     47  C   UNL A   1      45.362  35.610  28.539  1.00  0.00     0.040 A 
ATOM     48  C   UNL A   1      46.555  34.773  30.458  1.00  0.00     0.040 A 
ATOM     49  F   UNL A   1      46.389  32.510  31.048  1.00  0.00    -0.206 F 
ATOM     50  C   UNL A   1      46.232  35.828  29.607  1.00  0.00     0.006 A 
ENDBRANCH  29  43
BRANCH  30  51
ATOM     51  C   UNL A   1      41.103  24.118  27.636  1.00  0.00     0.057 A 
ATOM     52  C   UNL A   1      41.572  22.952  28.254  1.00  0.00     0.134 A 
ATOM     53  C   UNL A   1      40.078  23.965  26.691  1.00  0.00     0.134 A 
ATOM     54  F   UNL A   1      42.557  23.019  29.162  1.00  0.00    -0.206 F 
ATOM     55  C   UNL A   1      41.086  21.687  27.909  1.00  0.00     0.040 A 
ATOM     56  C   UNL A   1      39.559  22.710  26.360  1.00  0.00     0.040 A 
ATOM     57  F   UNL A   1      39.573  25.033  26.056  1.00  0.00    -0.206 F 
ATOM     58  C   UNL A   1      40.076  21.563  26.957  1.00  0.00     0.006 A 
ENDBRANCH  30  51
BRANCH  42  59
ATOM     59  C   UNL A   1      47.064  27.202  25.768  1.00  0.00     0.057 A 
ATOM     60  C   UNL A   1      47.158  27.471  24.397  1.00  0.00     0.134 A 
ATOM     61  C   UNL A   1      48.127  26.526  26.379  1.00  0.00     0.134 A 
ATOM     62  F   UNL A   1      46.161  28.101  23.757  1.00  0.00    -0.206 F 
ATOM     63  C   UNL A   1      48.267  27.068  23.657  1.00  0.00     0.040 A 
ATOM     64  C   UNL A   1      49.256  26.149  25.655  1.00  0.00     0.040 A 
ATOM     65  F   UNL A   1      48.095  26.250  27.691  1.00  0.00    -0.206 F 
ATOM     66  C   UNL A   1      49.325  26.417  24.290  1.00  0.00     0.006 A 
ENDBRANCH  42  59
ENDBRANCH  16  17
ENDBRANCH   9  11
ENDBRANCH   8   9
ENDBRANCH   7   8
ENDBRANCH   6   7
ENDBRANCH   5   6
ENDBRANCH   4   5
ENDBRANCH   3   4
ENDBRANCH   2   3
ENDBRANCH   1   2
BRANCH   1  67
ATOM     67  C   UNL A   1      31.792  29.235  26.572  1.00  0.00     0.188 C 
BRANCH  67  68
ATOM     68  O   UNL A   1      31.036  28.623  25.538  1.00  0.00    -0.376 OA
BRANCH  68  69
ATOM     69  C   UNL A   1      30.798  29.230  24.279  1.00  0.00     0.202 C 
BRANCH  69  70
ATOM     70  C   UNL A   1      30.071  28.390  23.236  1.00  0.00     0.261 C 
BRANCH  70  71
ATOM     71  O   UNL A   1      31.001  27.624  22.451  1.00  0.00    -0.463 OA
BRANCH  71  72
ATOM     72  C   UNL A   1      31.174  26.413  23.017  1.00  0.00     0.310 C 
ATOM     73  O   UNL A   1      30.320  25.920  23.708  1.00  0.00    -0.252 OA
BRANCH  72  74
ATOM     74  C   UNL A   1      32.399  25.616  22.698  1.00  0.00     0.115 C 
ATOM     75  C   UNL A   1      33.170  26.274  21.551  1.00  0.00     0.043 C 
ATOM     76  C   UNL A   1      33.223  25.566  24.017  1.00  0.00     0.096 C 
ATOM     77  C   UNL A   1      33.739  27.593  21.980  1.00  0.00    -0.030 C 
ATOM     78  C   UNL A   1      33.695  26.965  24.437  1.00  0.00     0.041 C 
ATOM     79  C   UNL A   1      33.945  27.905  23.270  1.00  0.00    -0.030 C 
BRANCH  76  80
ATOM     80  C   UNL A   1      32.747  24.616  25.181  1.00  0.00     0.224 C 
ATOM     81  O   UNL A   1      32.670  25.137  26.310  1.00  0.00    -0.275 OA
ATOM     82  N   UNL A   1      32.321  23.312  25.167  1.00  0.00    -0.351 N 
ATOM     83  H   UNL A   1      31.512  23.173  25.709  1.00  0.00     0.163 HD
BRANCH  82  84
ATOM     84  C   UNL A   1      32.798  22.056  24.522  1.00  0.00     0.103 C 
ATOM     85  C   UNL A   1      32.306  21.768  23.089  1.00  0.00     0.048 C 
ATOM     86  C   UNL A   1      32.319  20.773  25.263  1.00  0.00     0.141 C 
ATOM     87  C   UNL A   1      32.212  20.225  22.968  1.00  0.00     0.119 C 
ATOM     88  N   UNL A   1      32.548  19.713  24.288  1.00  0.00    -0.369 N 
BRANCH  88  89
ATOM     89  C   UNL A   1      33.139  18.504  24.573  1.00  0.00     0.038 A 
ATOM     90  C   UNL A   1      34.519  18.295  24.420  1.00  0.00     0.026 A 
ATOM     91  C   UNL A   1      32.407  17.405  25.048  1.00  0.00     0.046 A 
ATOM     92  C   UNL A   1      35.133  17.059  24.686  1.00  0.00     0.004 A 
ATOM     93  C   UNL A   1      33.009  16.157  25.286  1.00  0.00     0.043 A 
ATOM     94  C   UNL A   1      34.370  15.977  25.097  1.00  0.00     0.020 A 
ATOM     95  Cl  UNL A   1      32.070  14.816  25.809  1.00  0.00    -0.084 Cl
ENDBRANCH  88  89
ENDBRANCH  82  84
ENDBRANCH  76  80
ENDBRANCH  72  74
ENDBRANCH  71  72
ENDBRANCH  70  71
ENDBRANCH  69  70
ENDBRANCH  68  69
ENDBRANCH  67  68
ENDBRANCH   1  67
TORSDOF 23
ENDMDL
MODEL 2
REMARK VINA RESULT:     -11.0      1.686      6.388
REMARK SMILES O=C(OCCOCCOCCOCCOC(=O)[C@H]1CC=CC[C@H]1C(=O)N[C@@H]1CCN(c2cccc(Cl)c2)C1)c1ccc(-c2c3nc(c(-c4c(F)cccc4F)c4ccc([nH]4)c(-c4c(F)cccc4F)c4nc(c(-c5c(F)cccc5F)c5ccc2[nH]5)C=C4)C=C3)cc1
REMARK SMILES IDX 10 1 9 2 8 3 7 4 6 5 5 6 4 7 3 8 2 9 1 10 39 11 40 12 92 13
REMARK SMILES IDX 41 14 91 15 42 16 43 17 44 18 85 19 45 20 90 21 84 22 86 23
REMARK SMILES IDX 46 24 89 25 83 26 82 27 47 29 73 30 56 31 72 32 57 33 60 34
REMARK SMILES IDX 71 35 87 36 58 37 59 38 70 40 88 41 61 42 48 43 49 44 54 45
REMARK SMILES IDX 50 46 51 47 53 48 55 49 52 50 74 51 75 52 80 53 76 54 77 55
REMARK SMILES IDX 79 56 81 57 78 58 62 59 63 60 68 61 64 62 65 63 67 64 69 65
REMARK SMILES IDX 66 66 11 67 12 68 13 69 14 70 15 71 16 72 17 73 18 74 19 75
REMARK SMILES IDX 23 76 20 77 22 78 21 79 24 80 25 81 26 82 27 84 28 85 38 86
REMARK SMILES IDX 29 87 30 88 31 89 32 90 37 91 33 92 35 93 34 94 36 95
REMARK H PARENT 86 28 60 39 26 83
REMARK Flexibility Score: inf
ROOT
ATOM      1  C   UNL A   1      34.861  31.689  27.913  1.00  0.00     0.188 C 
ENDROOT
BRANCH   1   2
ATOM      2  O   UNL A   1      33.687  32.407  28.265  1.00  0.00    -0.377 OA
BRANCH   2   3
ATOM      3  C   UNL A   1      33.727  33.817  28.088  1.00  0.00     0.188 C 
BRANCH   3   4
ATOM      4  C   UNL A   1      33.880  34.599  29.375  1.00  0.00     0.188 C 
BRANCH   4   5
ATOM      5  O   UNL A   1      34.101  33.763  30.504  1.00  0.00    -0.376 OA
BRANCH   5   6
ATOM      6  C   UNL A   1      35.069  34.197  31.441  1.00  0.00     0.202 C 
BRANCH   6   7
ATOM      7  C   UNL A   1      36.248  33.261  31.702  1.00  0.00     0.261 C 
BRANCH   7   8
ATOM      8  O   UNL A   1      36.455  32.067  30.915  1.00  0.00    -0.460 OA
BRANCH   8   9
ATOM      9  C   UNL A   1      36.841  30.805  31.169  1.00  0.00     0.338 C 
ATOM     10  O   UNL A   1      36.061  30.072  31.776  1.00  0.00    -0.246 OA
BRANCH   9  11
ATOM     11  C   UNL A   1      38.099  30.203  30.648  1.00  0.00     0.060 A 
ATOM     12  C   UNL A   1      39.073  29.566  31.412  1.00  0.00     0.016 A 
ATOM     13  C   UNL A   1      38.268  30.242  29.253  1.00  0.00     0.016 A 
ATOM     14  C   UNL A   1      40.188  28.979  30.823  1.00  0.00     0.010 A 
ATOM     15  C   UNL A   1      39.390  29.673  28.649  1.00  0.00     0.010 A 
ATOM     16  C   UNL A   1      40.366  29.059  29.445  1.00  0.00    -0.014 A 
BRANCH  16  17
ATOM     17  C   UNL A   1      41.693  28.738  28.890  1.00  0.00     0.031 A 
ATOM     18  C   UNL A   1      41.895  27.340  28.411  1.00  0.00     0.074 A 
ATOM     19  C   UNL A   1      42.636  29.682  28.724  1.00  0.00     0.049 A 
ATOM     20  N   UNL A   1      42.979  26.765  27.980  1.00  0.00    -0.248 NA
ATOM     21  C   UNL A   1      40.702  26.470  28.407  1.00  0.00     0.031 C 
ATOM     22  C   UNL A   1      42.443  31.094  29.018  1.00  0.00     0.029 A 
ATOM     23  N   UNL A   1      43.923  29.618  28.265  1.00  0.00    -0.354 N 
ATOM     24  C   UNL A   1      42.609  25.462  27.689  1.00  0.00     0.074 A 
ATOM     25  C   UNL A   1      41.210  25.318  28.008  1.00  0.00     0.031 C 
ATOM     26  C   UNL A   1      43.573  31.771  28.764  1.00  0.00     0.029 A 
ATOM     27  C   UNL A   1      44.587  30.822  28.336  1.00  0.00     0.049 A 
ATOM     28  H   UNL A   1      44.333  28.793  27.919  1.00  0.00     0.167 HD
ATOM     29  C   UNL A   1      43.388  24.480  27.192  1.00  0.00     0.037 A 
ATOM     30  C   UNL A   1      45.885  31.100  28.118  1.00  0.00     0.037 A 
ATOM     31  C   UNL A   1      44.771  24.675  26.870  1.00  0.00     0.049 A 
ATOM     32  C   UNL A   1      46.759  29.955  27.680  1.00  0.00     0.074 A 
ATOM     33  C   UNL A   1      45.682  23.761  26.385  1.00  0.00     0.029 A 
ATOM     34  N   UNL A   1      45.440  25.887  27.009  1.00  0.00    -0.354 N 
ATOM     35  N   UNL A   1      46.417  28.712  27.428  1.00  0.00    -0.248 NA
ATOM     36  C   UNL A   1      48.186  30.237  27.491  1.00  0.00     0.031 C 
ATOM     37  C   UNL A   1      46.920  24.404  26.286  1.00  0.00     0.029 A 
ATOM     38  C   UNL A   1      46.766  25.735  26.653  1.00  0.00     0.049 A 
ATOM     39  H   UNL A   1      45.029  26.728  27.314  1.00  0.00     0.167 HD
ATOM     40  C   UNL A   1      47.576  28.070  27.026  1.00  0.00     0.074 A 
ATOM     41  C   UNL A   1      48.627  29.070  27.042  1.00  0.00     0.031 C 
ATOM     42  C   UNL A   1      47.766  26.773  26.679  1.00  0.00     0.037 A 
BRANCH  29  43
ATOM     43  C   UNL A   1      42.765  23.127  27.061  1.00  0.00     0.057 A 
ATOM     44  C   UNL A   1      42.534  22.295  28.165  1.00  0.00     0.134 A 
ATOM     45  C   UNL A   1      42.452  22.625  25.793  1.00  0.00     0.134 A 
ATOM     46  F   UNL A   1      42.858  22.702  29.402  1.00  0.00    -0.206 F 
ATOM     47  C   UNL A   1      42.031  21.003  28.009  1.00  0.00     0.040 A 
ATOM     48  C   UNL A   1      41.924  21.344  25.626  1.00  0.00     0.040 A 
ATOM     49  F   UNL A   1      42.672  23.362  24.695  1.00  0.00    -0.206 F 
ATOM     50  C   UNL A   1      41.720  20.527  26.736  1.00  0.00     0.006 A 
ENDBRANCH  29  43
BRANCH  30  51
ATOM     51  C   UNL A   1      46.447  32.458  28.358  1.00  0.00     0.057 A 
ATOM     52  C   UNL A   1      46.510  33.417  27.339  1.00  0.00     0.134 A 
ATOM     53  C   UNL A   1      47.003  32.811  29.595  1.00  0.00     0.134 A 
ATOM     54  F   UNL A   1      46.008  33.146  26.125  1.00  0.00    -0.206 F 
ATOM     55  C   UNL A   1      47.146  34.649  27.524  1.00  0.00     0.040 A 
ATOM     56  C   UNL A   1      47.613  34.052  29.805  1.00  0.00     0.040 A 
ATOM     57  F   UNL A   1      46.980  31.949  30.623  1.00  0.00    -0.206 F 
ATOM     58  C   UNL A   1      47.702  34.969  28.760  1.00  0.00     0.006 A 
ENDBRANCH  30  51
BRANCH  42  59
ATOM     59  C   UNL A   1      49.152  26.385  26.271  1.00  0.00     0.057 A 
ATOM     60  C   UNL A   1      49.637  26.645  24.984  1.00  0.00     0.134 A 
ATOM     61  C   UNL A   1      50.027  25.808  27.199  1.00  0.00     0.134 A 
ATOM     62  F   UNL A   1      48.836  27.181  24.050  1.00  0.00    -0.206 F 
ATOM     63  C   UNL A   1      50.946  26.330  24.629  1.00  0.00     0.040 A 
ATOM     64  C   UNL A   1      51.348  25.521  26.865  1.00  0.00     0.040 A 
ATOM     65  F   UNL A   1      49.620  25.546  28.450  1.00  0.00    -0.206 F 
ATOM     66  C   UNL A   1      51.809  25.778  25.575  1.00  0.00     0.006 A 
ENDBRANCH  42  59
ENDBRANCH  16  17
ENDBRANCH   9  11
ENDBRANCH   8   9
ENDBRANCH   7   8
ENDBRANCH   6   7
ENDBRANCH   5   6
ENDBRANCH   4   5
ENDBRANCH   3   4
ENDBRANCH   2   3
ENDBRANCH   1   2
BRANCH   1  67
ATOM     67  C   UNL A   1      34.810  30.160  27.927  1.00  0.00     0.188 C 
BRANCH  67  68
ATOM     68  O   UNL A   1      34.892  29.430  26.711  1.00  0.00    -0.376 OA
BRANCH  68  69
ATOM     69  C   UNL A   1      34.160  28.241  26.462  1.00  0.00     0.202 C 
BRANCH  69  70
ATOM     70  C   UNL A   1      33.223  28.249  25.261  1.00  0.00     0.261 C 
BRANCH  70  71
ATOM     71  O   UNL A   1      32.679  26.939  25.022  1.00  0.00    -0.463 OA
BRANCH  71  72
ATOM     72  C   UNL A   1      31.339  27.023  24.912  1.00  0.00     0.310 C 
ATOM     73  O   UNL A   1      30.706  27.796  25.585  1.00  0.00    -0.252 OA
BRANCH  72  74
ATOM     74  C   UNL A   1      30.631  26.224  23.865  1.00  0.00     0.115 C 
ATOM     75  C   UNL A   1      29.189  26.716  23.715  1.00  0.00     0.043 C 
ATOM     76  C   UNL A   1      31.461  26.408  22.562  1.00  0.00     0.096 C 
ATOM     77  C   UNL A   1      29.156  28.103  23.147  1.00  0.00    -0.030 C 
ATOM     78  C   UNL A   1      31.452  27.871  22.093  1.00  0.00     0.041 C 
ATOM     79  C   UNL A   1      30.181  28.621  22.448  1.00  0.00    -0.030 C 
BRANCH  76  80
ATOM     80  C   UNL A   1      32.829  25.640  22.412  1.00  0.00     0.224 C 
ATOM     81  O   UNL A   1      33.655  26.149  21.629  1.00  0.00    -0.275 OA
ATOM     82  N   UNL A   1      33.320  24.532  23.054  1.00  0.00    -0.351 N 
ATOM     83  H   UNL A   1      34.254  24.645  23.342  1.00  0.00     0.163 HD
BRANCH  82  84
ATOM     84  C   UNL A   1      32.767  23.197  23.419  1.00  0.00     0.103 C 
ATOM     85  C   UNL A   1      32.000  23.090  24.751  1.00  0.00     0.048 C 
ATOM     86  C   UNL A   1      33.872  22.118  23.625  1.00  0.00     0.141 C 
ATOM     87  C   UNL A   1      32.252  21.653  25.280  1.00  0.00     0.119 C 
ATOM     88  N   UNL A   1      33.175  21.049  24.330  1.00  0.00    -0.369 N 
BRANCH  88  89
ATOM     89  C   UNL A   1      33.269  19.714  24.014  1.00  0.00     0.038 A 
ATOM     90  C   UNL A   1      32.453  19.119  23.039  1.00  0.00     0.026 A 
ATOM     91  C   UNL A   1      34.195  18.861  24.634  1.00  0.00     0.046 A 
ATOM     92  C   UNL A   1      32.523  17.752  22.722  1.00  0.00     0.004 A 
ATOM     93  C   UNL A   1      34.249  17.486  24.345  1.00  0.00     0.043 A 
ATOM     94  C   UNL A   1      33.409  16.925  23.397  1.00  0.00     0.020 A 
ATOM     95  Cl  UNL A   1      35.355  16.460  25.169  1.00  0.00    -0.084 Cl
ENDBRANCH  88  89
ENDBRANCH  82  84
ENDBRANCH  76  80
ENDBRANCH  72  74
ENDBRANCH  71  72
ENDBRANCH  70  71
ENDBRANCH  69  70
ENDBRANCH  68  69
ENDBRANCH  67  68
ENDBRANCH   1  67
TORSDOF 23
ENDMDL
MODEL 3
REMARK VINA RESULT:     -10.8      1.285      2.169
REMARK SMILES O=C(OCCOCCOCCOCCOC(=O)[C@H]1CC=CC[C@H]1C(=O)N[C@@H]1CCN(c2cccc(Cl)c2)C1)c1ccc(-c2c3nc(c(-c4c(F)cccc4F)c4ccc([nH]4)c(-c4c(F)cccc4F)c4nc(c(-c5c(F)cccc5F)c5ccc2[nH]5)C=C4)C=C3)cc1
REMARK SMILES IDX 10 1 9 2 8 3 7 4 6 5 5 6 4 7 3 8 2 9 1 10 39 11 40 12 92 13
REMARK SMILES IDX 41 14 91 15 42 16 43 17 44 18 85 19 45 20 90 21 84 22 86 23
REMARK SMILES IDX 46 24 89 25 83 26 82 27 47 29 73 30 56 31 72 32 57 33 60 34
REMARK SMILES IDX 71 35 87 36 58 37 59 38 70 40 88 41 61 42 48 43 49 44 54 45
REMARK SMILES IDX 50 46 51 47 53 48 55 49 52 50 74 51 75 52 80 53 76 54 77 55
REMARK SMILES IDX 79 56 81 57 78 58 62 59 63 60 68 61 64 62 65 63 67 64 69 65
REMARK SMILES IDX 66 66 11 67 12 68 13 69 14 70 15 71 16 72 17 73 18 74 19 75
REMARK SMILES IDX 23 76 20 77 22 78 21 79 24 80 25 81 26 82 27 84 28 85 38 86
REMARK SMILES IDX 29 87 30 88 31 89 32 90 37 91 33 92 35 93 34 94 36 95
REMARK H PARENT 86 28 60 39 26 83
REMARK Flexibility Score: inf
ROOT
ATOM      1  C   UNL A   1      34.523  31.886  28.048  1.00  0.00     0.188 C 
ENDROOT
BRANCH   1   2
ATOM      2  O   UNL A   1      33.769  32.907  28.683  1.00  0.00    -0.377 OA
BRANCH   2   3
ATOM      3  C   UNL A   1      34.233  34.240  28.514  1.00  0.00     0.188 C 
BRANCH   3   4
ATOM      4  C   UNL A   1      33.345  35.291  29.144  1.00  0.00     0.188 C 
BRANCH   4   5
ATOM      5  O   UNL A   1      32.894  34.924  30.442  1.00  0.00    -0.376 OA
BRANCH   5   6
ATOM      6  C   UNL A   1      33.622  35.440  31.541  1.00  0.00     0.202 C 
BRANCH   6   7
ATOM      7  C   UNL A   1      34.556  34.474  32.266  1.00  0.00     0.261 C 
BRANCH   7   8
ATOM      8  O   UNL A   1      35.247  33.418  31.564  1.00  0.00    -0.460 OA
BRANCH   8   9
ATOM      9  C   UNL A   1      35.979  32.348  31.918  1.00  0.00     0.338 C 
ATOM     10  O   UNL A   1      35.527  31.597  32.784  1.00  0.00    -0.246 OA
BRANCH   9  11
ATOM     11  C   UNL A   1      37.240  31.944  31.239  1.00  0.00     0.060 A 
ATOM     12  C   UNL A   1      37.491  32.026  29.872  1.00  0.00     0.016 A 
ATOM     13  C   UNL A   1      38.276  31.498  32.080  1.00  0.00     0.016 A 
ATOM     14  C   UNL A   1      38.728  31.679  29.340  1.00  0.00     0.010 A 
ATOM     15  C   UNL A   1      39.516  31.130  31.558  1.00  0.00     0.010 A 
ATOM     16  C   UNL A   1      39.733  31.201  30.176  1.00  0.00    -0.014 A 
BRANCH  16  17
ATOM     17  C   UNL A   1      40.894  30.530  29.563  1.00  0.00     0.031 A 
ATOM     18  C   UNL A   1      42.117  31.361  29.371  1.00  0.00     0.074 A 
ATOM     19  C   UNL A   1      40.887  29.213  29.293  1.00  0.00     0.049 A 
ATOM     20  N   UNL A   1      43.231  31.061  28.770  1.00  0.00    -0.248 NA
ATOM     21  C   UNL A   1      42.084  32.720  29.947  1.00  0.00     0.031 C 
ATOM     22  C   UNL A   1      39.786  28.317  29.610  1.00  0.00     0.029 A 
ATOM     23  N   UNL A   1      41.817  28.395  28.713  1.00  0.00    -0.354 N 
ATOM     24  C   UNL A   1      44.014  32.200  28.864  1.00  0.00     0.074 A 
ATOM     25  C   UNL A   1      43.250  33.206  29.559  1.00  0.00     0.031 C 
ATOM     26  C   UNL A   1      40.077  27.074  29.200  1.00  0.00     0.029 A 
ATOM     27  C   UNL A   1      41.373  27.102  28.542  1.00  0.00     0.049 A 
ATOM     28  H   UNL A   1      42.713  28.699  28.445  1.00  0.00     0.167 HD
ATOM     29  C   UNL A   1      45.270  32.371  28.404  1.00  0.00     0.037 A 
ATOM     30  C   UNL A   1      41.947  26.078  27.884  1.00  0.00     0.037 A 
ATOM     31  C   UNL A   1      46.000  31.334  27.736  1.00  0.00     0.049 A 
ATOM     32  C   UNL A   1      43.299  26.336  27.276  1.00  0.00     0.074 A 
ATOM     33  C   UNL A   1      47.268  31.380  27.197  1.00  0.00     0.029 A 
ATOM     34  N   UNL A   1      45.508  30.051  27.518  1.00  0.00    -0.354 N 
ATOM     35  N   UNL A   1      44.033  27.424  27.340  1.00  0.00    -0.248 NA
ATOM     36  C   UNL A   1      43.908  25.243  26.511  1.00  0.00     0.031 C 
ATOM     37  C   UNL A   1      47.523  30.143  26.599  1.00  0.00     0.029 A 
ATOM     38  C   UNL A   1      46.435  29.305  26.817  1.00  0.00     0.049 A 
ATOM     39  H   UNL A   1      44.630  29.724  27.819  1.00  0.00     0.167 HD
ATOM     40  C   UNL A   1      45.200  27.139  26.650  1.00  0.00     0.074 A 
ATOM     41  C   UNL A   1      45.085  25.765  26.198  1.00  0.00     0.031 C 
ATOM     42  C   UNL A   1      46.269  27.934  26.403  1.00  0.00     0.037 A 
BRANCH  29  43
ATOM     43  C   UNL A   1      45.859  33.738  28.547  1.00  0.00     0.057 A 
ATOM     44  C   UNL A   1      46.446  34.182  29.741  1.00  0.00     0.134 A 
ATOM     45  C   UNL A   1      45.779  34.647  27.487  1.00  0.00     0.134 A 
ATOM     46  F   UNL A   1      46.509  33.373  30.810  1.00  0.00    -0.206 F 
ATOM     47  C   UNL A   1      46.912  35.490  29.879  1.00  0.00     0.040 A 
ATOM     48  C   UNL A   1      46.266  35.949  27.604  1.00  0.00     0.040 A 
ATOM     49  F   UNL A   1      45.208  34.290  26.327  1.00  0.00    -0.206 F 
ATOM     50  C   UNL A   1      46.828  36.375  28.805  1.00  0.00     0.006 A 
ENDBRANCH  29  43
BRANCH  30  51
ATOM     51  C   UNL A   1      41.253  24.772  27.710  1.00  0.00     0.057 A 
ATOM     52  C   UNL A   1      41.678  23.620  28.382  1.00  0.00     0.134 A 
ATOM     53  C   UNL A   1      40.188  24.624  26.810  1.00  0.00     0.134 A 
ATOM     54  F   UNL A   1      42.698  23.683  29.251  1.00  0.00    -0.206 F 
ATOM     55  C   UNL A   1      41.110  22.367  28.131  1.00  0.00     0.040 A 
ATOM     56  C   UNL A   1      39.588  23.384  26.572  1.00  0.00     0.040 A 
ATOM     57  F   UNL A   1      39.721  25.681  26.128  1.00  0.00    -0.206 F 
ATOM     58  C   UNL A   1      40.061  22.246  27.221  1.00  0.00     0.006 A 
ENDBRANCH  30  51
BRANCH  42  59
ATOM     59  C   UNL A   1      47.395  27.321  25.632  1.00  0.00     0.057 A 
ATOM     60  C   UNL A   1      47.512  27.487  24.247  1.00  0.00     0.134 A 
ATOM     61  C   UNL A   1      48.407  26.617  26.297  1.00  0.00     0.134 A 
ATOM     62  F   UNL A   1      46.562  28.138  23.557  1.00  0.00    -0.206 F 
ATOM     63  C   UNL A   1      48.592  26.959  23.545  1.00  0.00     0.040 A 
ATOM     64  C   UNL A   1      49.509  26.115  25.610  1.00  0.00     0.040 A 
ATOM     65  F   UNL A   1      48.352  26.436  27.625  1.00  0.00    -0.206 F 
ATOM     66  C   UNL A   1      49.601  26.282  24.230  1.00  0.00     0.006 A 
ENDBRANCH  42  59
ENDBRANCH  16  17
ENDBRANCH   9  11
ENDBRANCH   8   9
ENDBRANCH   7   8
ENDBRANCH   6   7
ENDBRANCH   5   6
ENDBRANCH   4   5
ENDBRANCH   3   4
ENDBRANCH   2   3
ENDBRANCH   1   2
BRANCH   1  67
ATOM     67  C   UNL A   1      33.776  30.842  27.215  1.00  0.00     0.188 C 
BRANCH  67  68
ATOM     68  O   UNL A   1      32.361  30.751  27.283  1.00  0.00    -0.376 OA
BRANCH  68  69
ATOM     69  C   UNL A   1      31.516  30.835  26.147  1.00  0.00     0.202 C 
BRANCH  69  70
ATOM     70  C   UNL A   1      31.704  29.775  25.070  1.00  0.00     0.261 C 
BRANCH  70  71
ATOM     71  O   UNL A   1      31.378  28.467  25.571  1.00  0.00    -0.463 OA
BRANCH  71  72
ATOM     72  C   UNL A   1      32.010  27.533  24.832  1.00  0.00     0.310 C 
ATOM     73  O   UNL A   1      33.203  27.566  24.675  1.00  0.00    -0.252 OA
BRANCH  72  74
ATOM     74  C   UNL A   1      31.238  26.375  24.286  1.00  0.00     0.115 C 
ATOM     75  C   UNL A   1      29.735  26.638  24.413  1.00  0.00     0.043 C 
ATOM     76  C   UNL A   1      31.693  26.225  22.806  1.00  0.00     0.096 C 
ATOM     77  C   UNL A   1      29.315  27.764  23.516  1.00  0.00    -0.030 C 
ATOM     78  C   UNL A   1      31.305  27.456  21.973  1.00  0.00     0.041 C 
ATOM     79  C   UNL A   1      30.035  28.141  22.446  1.00  0.00    -0.030 C 
BRANCH  76  80
ATOM     80  C   UNL A   1      33.106  25.598  22.500  1.00  0.00     0.224 C 
ATOM     81  O   UNL A   1      33.649  25.974  21.443  1.00  0.00    -0.275 OA
ATOM     82  N   UNL A   1      33.899  24.754  23.234  1.00  0.00    -0.351 N 
ATOM     83  H   UNL A   1      34.841  25.038  23.249  1.00  0.00     0.163 HD
BRANCH  82  84
ATOM     84  C   UNL A   1      33.667  23.506  24.015  1.00  0.00     0.103 C 
ATOM     85  C   UNL A   1      33.553  23.643  25.546  1.00  0.00     0.048 C 
ATOM     86  C   UNL A   1      34.839  22.487  23.895  1.00  0.00     0.141 C 
ATOM     87  C   UNL A   1      34.123  22.329  26.140  1.00  0.00     0.119 C 
ATOM     88  N   UNL A   1      34.600  21.564  24.997  1.00  0.00    -0.369 N 
BRANCH  88  89
ATOM     89  C   UNL A   1      34.661  20.194  24.895  1.00  0.00     0.038 A 
ATOM     90  C   UNL A   1      35.879  19.511  24.745  1.00  0.00     0.026 A 
ATOM     91  C   UNL A   1      33.515  19.386  24.949  1.00  0.00     0.046 A 
ATOM     92  C   UNL A   1      35.955  18.114  24.616  1.00  0.00     0.004 A 
ATOM     93  C   UNL A   1      33.580  17.991  24.790  1.00  0.00     0.043 A 
ATOM     94  C   UNL A   1      34.796  17.351  24.614  1.00  0.00     0.020 A 
ATOM     95  Cl  UNL A   1      32.148  17.039  24.800  1.00  0.00    -0.084 Cl
ENDBRANCH  88  89
ENDBRANCH  82  84
ENDBRANCH  76  80
ENDBRANCH  72  74
ENDBRANCH  71  72
ENDBRANCH  70  71
ENDBRANCH  69  70
ENDBRANCH  68  69
ENDBRANCH  67  68
ENDBRANCH   1  67
TORSDOF 23
ENDMDL
