MODEL 1
REMARK VINA RESULT:      -9.4      0.000      0.000
REMARK SMILES Cc1ccccc1C(=O)Nc1cc(C(=O)OCCOCCOCCOCCOC(=O)c2ccc(-c3c4nc(c(-c5c(F)cccc5F)c5ccc([nH]5)c(-c5c(F)cccc5F)c5nc(c(-c6c(F)cccc6F)c6ccc3[nH]6)C=C5)C=C4)cc2)ccc1N1CC[NH+](CC(=O)Nc2ccc(F)cc2)CC1
REMARK SMILES IDX 21 1 20 2 19 3 18 4 17 5 16 6 14 7 15 8 13 9 11 10 12 11
REMARK SMILES IDX 87 12 86 13 85 14 10 15 8 16 9 17 7 19 1 20 2 21 3 22 4 23
REMARK SMILES IDX 6 24 5 25 88 26 89 27 104 28 90 29 103 30 91 31 92 33 93 34
REMARK SMILES IDX 94 35 95 36 96 38 97 39 102 40 98 41 101 42 99 43 100 44
REMARK SMILES IDX 22 45 23 46 24 47 25 48 26 49 27 50 28 51 29 52 30 53 31 54
REMARK SMILES IDX 32 55 84 56 33 57 83 58 34 59 35 60 36 61 77 62 37 63 82 64
REMARK SMILES IDX 76 65 78 66 38 67 81 68 75 69 74 70 39 72 65 73 48 74 64 75
REMARK SMILES IDX 49 76 52 77 63 78 79 79 50 80 51 81 62 83 80 84 53 85 40 86
REMARK SMILES IDX 41 87 46 88 42 89 43 90 45 91 47 92 44 93 66 94 67 95 72 96
REMARK SMILES IDX 68 97 69 98 71 99 73 100 70 101 54 102 55 103 60 104 56 105
REMARK SMILES IDX 57 106 59 107 61 108 58 109
REMARK H PARENT 10 18 91 32 95 37 78 71 52 82
REMARK Flexibility Score: inf
ROOT
ATOM      1  C   UNL A   1      44.555  23.549  29.421  1.00  0.00     0.188 C 
ENDROOT
BRANCH   1   2
ATOM      2  C   UNL A   1      43.942  24.940  29.522  1.00  0.00     0.188 C 
BRANCH   2   3
ATOM      3  O   UNL A   1      44.169  25.789  30.640  1.00  0.00    -0.376 OA
BRANCH   3   4
ATOM      4  C   UNL A   1      45.457  25.622  31.249  1.00  0.00     0.202 C 
BRANCH   4   5
ATOM      5  C   UNL A   1      46.188  26.889  31.741  1.00  0.00     0.261 C 
BRANCH   5   6
ATOM      6  O   UNL A   1      45.839  27.251  33.077  1.00  0.00    -0.460 OA
BRANCH   6   7
ATOM      7  C   UNL A   1      45.621  28.562  33.284  1.00  0.00     0.338 C 
ATOM      8  O   UNL A   1      46.329  29.493  32.983  1.00  0.00    -0.246 OA
BRANCH   7   9
ATOM      9  C   UNL A   1      44.174  28.665  33.577  1.00  0.00     0.062 A 
ATOM     10  C   UNL A   1      42.025  27.783  34.219  1.00  0.00     0.065 A 
ATOM     11  C   UNL A   1      43.380  27.588  34.011  1.00  0.00     0.044 A 
ATOM     12  C   UNL A   1      41.407  29.006  33.778  1.00  0.00     0.061 A 
ATOM     13  C   UNL A   1      42.219  29.965  33.145  1.00  0.00     0.029 A 
ATOM     14  C   UNL A   1      43.592  29.841  33.130  1.00  0.00     0.018 A 
BRANCH  10  15
ATOM     15  N   UNL A   1      41.237  26.821  34.878  1.00  0.00    -0.320 N 
ATOM     16  C   UNL A   1      41.467  25.780  35.763  1.00  0.00     0.255 C 
ATOM     17  O   UNL A   1      40.441  25.402  36.357  1.00  0.00    -0.269 OA
ATOM     18  H   UNL A   1      40.283  26.909  34.654  1.00  0.00     0.170 HD
BRANCH  16  19
ATOM     19  C   UNL A   1      42.744  25.065  36.128  1.00  0.00     0.043 A 
ATOM     20  C   UNL A   1      43.408  23.796  33.959  1.00  0.00     0.045 C 
ATOM     21  C   UNL A   1      43.513  24.130  35.415  1.00  0.00    -0.038 A 
ATOM     22  C   UNL A   1      44.594  23.481  36.059  1.00  0.00     0.004 A 
ATOM     23  C   UNL A   1      45.056  23.880  37.304  1.00  0.00     0.000 A 
ATOM     24  C   UNL A   1      43.283  25.496  37.371  1.00  0.00     0.014 A 
ATOM     25  C   UNL A   1      44.434  24.937  37.937  1.00  0.00     0.001 A 
ENDBRANCH  16  19
ENDBRANCH  10  15
BRANCH  12  26
ATOM     26  N   UNL A   1      40.064  29.362  34.113  1.00  0.00    -0.359 N 
ATOM     27  C   UNL A   1      39.121  29.638  32.972  1.00  0.00     0.178 C 
ATOM     28  C   UNL A   1      40.046  30.459  35.088  1.00  0.00     0.178 C 
ATOM     29  C   UNL A   1      37.792  30.329  33.380  1.00  0.00     0.284 C 
ATOM     30  C   UNL A   1      38.613  30.753  35.536  1.00  0.00     0.284 C 
ATOM     31  N   UNL A   1      37.848  31.331  34.454  1.00  0.00    -0.324 N 
ATOM     32  H   UNL A   1      36.866  31.502  34.669  1.00  0.00     0.348 HD
BRANCH  31  33
ATOM     33  C   UNL A   1      38.196  32.751  34.190  1.00  0.00     0.364 C 
BRANCH  33  34
ATOM     34  C   UNL A   1      37.141  33.789  33.763  1.00  0.00     0.279 C 
ATOM     35  O   UNL A   1      36.686  34.543  34.644  1.00  0.00    -0.268 OA
ATOM     36  N   UNL A   1      36.707  34.093  32.494  1.00  0.00    -0.321 N 
ATOM     37  H   UNL A   1      36.371  35.019  32.495  1.00  0.00     0.170 HD
BRANCH  36  38
ATOM     38  C   UNL A   1      36.560  33.567  31.177  1.00  0.00     0.041 A 
ATOM     39  C   UNL A   1      35.651  32.498  31.045  1.00  0.00     0.029 A 
ATOM     40  C   UNL A   1      37.292  33.865  30.032  1.00  0.00     0.029 A 
ATOM     41  C   UNL A   1      35.486  31.793  29.838  1.00  0.00     0.041 A 
ATOM     42  C   UNL A   1      37.178  33.138  28.832  1.00  0.00     0.041 A 
ATOM     43  C   UNL A   1      36.260  32.115  28.738  1.00  0.00     0.123 A 
ATOM     44  F   UNL A   1      36.126  31.439  27.590  1.00  0.00    -0.207 F 
ENDBRANCH  36  38
ENDBRANCH  33  34
ENDBRANCH  31  33
ENDBRANCH  12  26
ENDBRANCH   7   9
ENDBRANCH   6   7
ENDBRANCH   5   6
ENDBRANCH   4   5
ENDBRANCH   3   4
ENDBRANCH   2   3
ENDBRANCH   1   2
BRANCH   1  45
ATOM     45  O   UNL A   1      43.516  22.579  29.315  1.00  0.00    -0.377 OA
BRANCH  45  46
ATOM     46  C   UNL A   1      42.525  22.923  28.369  1.00  0.00     0.188 C 
BRANCH  46  47
ATOM     47  C   UNL A   1      41.615  21.763  27.969  1.00  0.00     0.188 C 
BRANCH  47  48
ATOM     48  O   UNL A   1      42.020  20.959  26.872  1.00  0.00    -0.376 OA
BRANCH  48  49
ATOM     49  C   UNL A   1      42.187  19.551  27.017  1.00  0.00     0.202 C 
BRANCH  49  50
ATOM     50  C   UNL A   1      43.010  18.838  25.937  1.00  0.00     0.261 C 
BRANCH  50  51
ATOM     51  O   UNL A   1      43.382  19.777  24.910  1.00  0.00    -0.460 OA
BRANCH  51  52
ATOM     52  C   UNL A   1      44.704  20.091  24.841  1.00  0.00     0.338 C 
ATOM     53  O   UNL A   1      45.609  19.444  25.345  1.00  0.00    -0.246 OA
BRANCH  52  54
ATOM     54  C   UNL A   1      44.866  21.500  24.364  1.00  0.00     0.060 A 
ATOM     55  C   UNL A   1      46.160  22.041  24.232  1.00  0.00     0.016 A 
ATOM     56  C   UNL A   1      43.778  22.356  24.489  1.00  0.00     0.016 A 
ATOM     57  C   UNL A   1      46.384  23.413  24.456  1.00  0.00     0.010 A 
ATOM     58  C   UNL A   1      44.025  23.671  24.826  1.00  0.00     0.010 A 
ATOM     59  C   UNL A   1      45.324  24.215  24.877  1.00  0.00    -0.014 A 
BRANCH  59  60
ATOM     60  C   UNL A   1      45.435  25.507  25.611  1.00  0.00     0.031 A 
ATOM     61  C   UNL A   1      44.174  26.322  25.799  1.00  0.00     0.074 A 
ATOM     62  C   UNL A   1      46.519  25.664  26.421  1.00  0.00     0.049 A 
ATOM     63  N   UNL A   1      44.012  27.330  26.588  1.00  0.00    -0.248 NA
ATOM     64  C   UNL A   1      42.940  26.040  25.054  1.00  0.00     0.031 C 
ATOM     65  C   UNL A   1      46.574  26.231  27.764  1.00  0.00     0.029 A 
ATOM     66  N   UNL A   1      47.852  25.319  26.206  1.00  0.00    -0.354 N 
ATOM     67  C   UNL A   1      42.646  27.599  26.706  1.00  0.00     0.074 A 
ATOM     68  C   UNL A   1      42.037  26.808  25.674  1.00  0.00     0.031 C 
ATOM     69  C   UNL A   1      47.826  26.313  28.220  1.00  0.00     0.029 A 
ATOM     70  C   UNL A   1      48.666  26.046  27.101  1.00  0.00     0.049 A 
ATOM     71  H   UNL A   1      48.173  24.671  25.539  1.00  0.00     0.167 HD
ATOM     72  C   UNL A   1      42.193  28.375  27.747  1.00  0.00     0.037 A 
ATOM     73  C   UNL A   1      49.536  26.990  26.642  1.00  0.00     0.037 A 
ATOM     74  C   UNL A   1      43.327  29.038  28.416  1.00  0.00     0.049 A 
ATOM     75  C   UNL A   1      49.050  28.421  26.885  1.00  0.00     0.074 A 
ATOM     76  C   UNL A   1      43.794  29.110  29.717  1.00  0.00     0.029 A 
ATOM     77  N   UNL A   1      44.318  29.630  27.631  1.00  0.00    -0.354 N 
ATOM     78  N   UNL A   1      47.794  28.733  27.147  1.00  0.00    -0.248 NA
ATOM     79  C   UNL A   1      49.917  29.595  26.967  1.00  0.00     0.031 C 
ATOM     80  C   UNL A   1      45.135  29.587  29.675  1.00  0.00     0.029 A 
ATOM     81  C   UNL A   1      45.445  29.917  28.365  1.00  0.00     0.049 A 
ATOM     82  H   UNL A   1      44.221  29.820  26.669  1.00  0.00     0.167 HD
ATOM     83  C   UNL A   1      47.680  30.073  27.430  1.00  0.00     0.074 A 
ATOM     84  C   UNL A   1      49.043  30.561  27.305  1.00  0.00     0.031 C 
ATOM     85  C   UNL A   1      46.512  30.709  27.769  1.00  0.00     0.037 A 
BRANCH  72  86
ATOM     86  C   UNL A   1      40.758  28.424  28.319  1.00  0.00     0.057 A 
ATOM     87  C   UNL A   1      39.701  29.019  27.584  1.00  0.00     0.134 A 
ATOM     88  C   UNL A   1      40.357  28.016  29.611  1.00  0.00     0.134 A 
ATOM     89  F   UNL A   1      39.868  29.431  26.321  1.00  0.00    -0.206 F 
ATOM     90  C   UNL A   1      38.403  29.228  28.097  1.00  0.00     0.040 A 
ATOM     91  C   UNL A   1      39.046  28.168  30.113  1.00  0.00     0.040 A 
ATOM     92  F   UNL A   1      41.208  27.482  30.488  1.00  0.00    -0.206 F 
ATOM     93  C   UNL A   1      38.065  28.793  29.364  1.00  0.00     0.006 A 
ENDBRANCH  72  86
BRANCH  73  94
ATOM     94  C   UNL A   1      50.506  26.317  25.710  1.00  0.00     0.057 A 
ATOM     95  C   UNL A   1      50.419  26.841  24.394  1.00  0.00     0.134 A 
ATOM     96  C   UNL A   1      51.807  26.083  26.185  1.00  0.00     0.134 A 
ATOM     97  F   UNL A   1      49.212  27.046  23.838  1.00  0.00    -0.206 F 
ATOM     98  C   UNL A   1      51.522  27.438  23.763  1.00  0.00     0.040 A 
ATOM     99  C   UNL A   1      52.925  26.653  25.543  1.00  0.00     0.040 A 
ATOM    100  F   UNL A   1      51.994  25.557  27.405  1.00  0.00    -0.206 F 
ATOM    101  C   UNL A   1      52.771  27.401  24.374  1.00  0.00     0.006 A 
ENDBRANCH  73  94
BRANCH  85 102
ATOM    102  C   UNL A   1      46.232  32.203  27.616  1.00  0.00     0.057 A 
ATOM    103  C   UNL A   1      45.575  32.767  26.516  1.00  0.00     0.134 A 
ATOM    104  C   UNL A   1      46.438  33.108  28.694  1.00  0.00     0.134 A 
ATOM    105  F   UNL A   1      45.171  32.025  25.477  1.00  0.00    -0.206 F 
ATOM    106  C   UNL A   1      45.228  34.123  26.452  1.00  0.00     0.040 A 
ATOM    107  C   UNL A   1      46.033  34.445  28.669  1.00  0.00     0.040 A 
ATOM    108  F   UNL A   1      47.005  32.739  29.851  1.00  0.00    -0.206 F 
ATOM    109  C   UNL A   1      45.444  34.966  27.533  1.00  0.00     0.006 A 
ENDBRANCH  85 102
ENDBRANCH  59  60
ENDBRANCH  52  54
ENDBRANCH  51  52
ENDBRANCH  50  51
ENDBRANCH  49  50
ENDBRANCH  48  49
ENDBRANCH  47  48
ENDBRANCH  46  47
ENDBRANCH  45  46
ENDBRANCH   1  45
TORSDOF 26
ENDMDL
MODEL 2
REMARK VINA RESULT:      -9.1      5.653     12.145
REMARK SMILES Cc1ccccc1C(=O)Nc1cc(C(=O)OCCOCCOCCOCCOC(=O)c2ccc(-c3c4nc(c(-c5c(F)cccc5F)c5ccc([nH]5)c(-c5c(F)cccc5F)c5nc(c(-c6c(F)cccc6F)c6ccc3[nH]6)C=C5)C=C4)cc2)ccc1N1CC[NH+](CC(=O)Nc2ccc(F)cc2)CC1
REMARK SMILES IDX 21 1 20 2 19 3 18 4 17 5 16 6 14 7 15 8 13 9 11 10 12 11
REMARK SMILES IDX 87 12 86 13 85 14 10 15 8 16 9 17 7 19 1 20 2 21 3 22 4 23
REMARK SMILES IDX 6 24 5 25 88 26 89 27 104 28 90 29 103 30 91 31 92 33 93 34
REMARK SMILES IDX 94 35 95 36 96 38 97 39 102 40 98 41 101 42 99 43 100 44
REMARK SMILES IDX 22 45 23 46 24 47 25 48 26 49 27 50 28 51 29 52 30 53 31 54
REMARK SMILES IDX 32 55 84 56 33 57 83 58 34 59 35 60 36 61 77 62 37 63 82 64
REMARK SMILES IDX 76 65 78 66 38 67 81 68 75 69 74 70 39 72 65 73 48 74 64 75
REMARK SMILES IDX 49 76 52 77 63 78 79 79 50 80 51 81 62 83 80 84 53 85 40 86
REMARK SMILES IDX 41 87 46 88 42 89 43 90 45 91 47 92 44 93 66 94 67 95 72 96
REMARK SMILES IDX 68 97 69 98 71 99 73 100 70 101 54 102 55 103 60 104 56 105
REMARK SMILES IDX 57 106 59 107 61 108 58 109
REMARK H PARENT 10 18 91 32 95 37 78 71 52 82
REMARK Flexibility Score: inf
ROOT
ATOM      1  C   UNL A   1      36.863  32.296  29.982  1.00  0.00     0.188 C 
ENDROOT
BRANCH   1   2
ATOM      2  C   UNL A   1      36.846  33.209  28.763  1.00  0.00     0.188 C 
BRANCH   2   3
ATOM      3  O   UNL A   1      35.893  33.058  27.718  1.00  0.00    -0.376 OA
BRANCH   3   4
ATOM      4  C   UNL A   1      34.662  32.452  28.131  1.00  0.00     0.202 C 
BRANCH   4   5
ATOM      5  C   UNL A   1      34.546  30.917  28.027  1.00  0.00     0.261 C 
BRANCH   5   6
ATOM      6  O   UNL A   1      34.082  30.477  26.751  1.00  0.00    -0.460 OA
BRANCH   6   7
ATOM      7  C   UNL A   1      32.801  30.069  26.709  1.00  0.00     0.338 C 
ATOM      8  O   UNL A   1      31.801  30.735  26.826  1.00  0.00    -0.246 OA
BRANCH   7   9
ATOM      9  C   UNL A   1      32.851  28.727  26.086  1.00  0.00     0.062 A 
ATOM     10  C   UNL A   1      32.222  27.073  24.449  1.00  0.00     0.065 A 
ATOM     11  C   UNL A   1      32.136  28.370  24.928  1.00  0.00     0.044 A 
ATOM     12  C   UNL A   1      32.848  26.057  25.256  1.00  0.00     0.061 A 
ATOM     13  C   UNL A   1      33.354  26.433  26.513  1.00  0.00     0.029 A 
ATOM     14  C   UNL A   1      33.442  27.758  26.883  1.00  0.00     0.018 A 
BRANCH  10  15
ATOM     15  N   UNL A   1      31.732  26.726  23.177  1.00  0.00    -0.320 N 
ATOM     16  C   UNL A   1      30.781  27.229  22.303  1.00  0.00     0.255 C 
ATOM     17  O   UNL A   1      30.912  26.812  21.138  1.00  0.00    -0.269 OA
ATOM     18  H   UNL A   1      32.176  25.925  22.816  1.00  0.00     0.170 HD
BRANCH  16  19
ATOM     19  C   UNL A   1      29.651  28.200  22.535  1.00  0.00     0.043 A 
ATOM     20  C   UNL A   1      27.875  26.817  23.834  1.00  0.00     0.045 C 
ATOM     21  C   UNL A   1      28.368  28.010  23.076  1.00  0.00    -0.038 A 
ATOM     22  C   UNL A   1      27.428  29.069  23.031  1.00  0.00     0.004 A 
ATOM     23  C   UNL A   1      27.788  30.356  22.660  1.00  0.00     0.000 A 
ATOM     24  C   UNL A   1      30.003  29.543  22.225  1.00  0.00     0.014 A 
ATOM     25  C   UNL A   1      29.100  30.608  22.314  1.00  0.00     0.001 A 
ENDBRANCH  16  19
ENDBRANCH  10  15
BRANCH  12  26
ATOM     26  N   UNL A   1      33.138  24.747  24.766  1.00  0.00    -0.359 N 
ATOM     27  C   UNL A   1      33.586  23.721  25.772  1.00  0.00     0.178 C 
ATOM     28  C   UNL A   1      34.065  24.811  23.630  1.00  0.00     0.178 C 
ATOM     29  C   UNL A   1      34.195  22.431  25.158  1.00  0.00     0.284 C 
ATOM     30  C   UNL A   1      34.275  23.418  23.032  1.00  0.00     0.284 C 
ATOM     31  N   UNL A   1      35.014  22.576  23.946  1.00  0.00    -0.324 N 
ATOM     32  H   UNL A   1      35.142  21.615  23.632  1.00  0.00     0.348 HD
BRANCH  31  33
ATOM     33  C   UNL A   1      36.459  22.911  24.006  1.00  0.00     0.364 C 
BRANCH  33  34
ATOM     34  C   UNL A   1      37.134  23.412  25.298  1.00  0.00     0.279 C 
ATOM     35  O   UNL A   1      36.700  24.464  25.803  1.00  0.00    -0.268 OA
ATOM     36  N   UNL A   1      38.090  22.783  26.060  1.00  0.00    -0.321 N 
ATOM     37  H   UNL A   1      38.021  23.121  26.983  1.00  0.00     0.170 HD
BRANCH  36  38
ATOM     38  C   UNL A   1      39.144  21.824  26.013  1.00  0.00     0.041 A 
ATOM     39  C   UNL A   1      38.762  20.515  25.659  1.00  0.00     0.029 A 
ATOM     40  C   UNL A   1      40.471  21.967  26.405  1.00  0.00     0.029 A 
ATOM     41  C   UNL A   1      39.663  19.433  25.686  1.00  0.00     0.041 A 
ATOM     42  C   UNL A   1      41.372  20.888  26.488  1.00  0.00     0.041 A 
ATOM     43  C   UNL A   1      40.964  19.628  26.111  1.00  0.00     0.123 A 
ATOM     44  F   UNL A   1      41.825  18.603  26.159  1.00  0.00    -0.207 F 
ENDBRANCH  36  38
ENDBRANCH  33  34
ENDBRANCH  31  33
ENDBRANCH  12  26
ENDBRANCH   7   9
ENDBRANCH   6   7
ENDBRANCH   5   6
ENDBRANCH   4   5
ENDBRANCH   3   4
ENDBRANCH   2   3
ENDBRANCH   1   2
BRANCH   1  45
ATOM     45  O   UNL A   1      37.920  32.688  30.855  1.00  0.00    -0.377 OA
BRANCH  45  46
ATOM     46  C   UNL A   1      39.194  32.631  30.249  1.00  0.00     0.188 C 
BRANCH  46  47
ATOM     47  C   UNL A   1      39.959  31.338  30.528  1.00  0.00     0.188 C 
BRANCH  47  48
ATOM     48  O   UNL A   1      39.668  30.213  29.712  1.00  0.00    -0.376 OA
BRANCH  48  49
ATOM     49  C   UNL A   1      39.763  28.888  30.229  1.00  0.00     0.202 C 
BRANCH  49  50
ATOM     50  C   UNL A   1      39.214  27.762  29.345  1.00  0.00     0.261 C 
BRANCH  50  51
ATOM     51  O   UNL A   1      40.164  26.680  29.290  1.00  0.00    -0.460 OA
BRANCH  51  52
ATOM     52  C   UNL A   1      40.070  25.861  28.207  1.00  0.00     0.338 C 
ATOM     53  O   UNL A   1      39.032  25.394  27.765  1.00  0.00    -0.246 OA
BRANCH  52  54
ATOM     54  C   UNL A   1      41.427  25.341  27.847  1.00  0.00     0.060 A 
ATOM     55  C   UNL A   1      41.886  24.144  28.430  1.00  0.00     0.016 A 
ATOM     56  C   UNL A   1      42.347  26.240  27.321  1.00  0.00     0.016 A 
ATOM     57  C   UNL A   1      43.257  23.957  28.689  1.00  0.00     0.010 A 
ATOM     58  C   UNL A   1      43.670  26.102  27.690  1.00  0.00     0.010 A 
ATOM     59  C   UNL A   1      44.146  25.000  28.428  1.00  0.00    -0.014 A 
BRANCH  59  60
ATOM     60  C   UNL A   1      45.484  25.194  29.053  1.00  0.00     0.031 A 
ATOM     61  C   UNL A   1      46.706  24.945  28.197  1.00  0.00     0.074 A 
ATOM     62  C   UNL A   1      45.534  25.977  30.167  1.00  0.00     0.049 A 
ATOM     63  N   UNL A   1      47.924  25.274  28.469  1.00  0.00    -0.248 NA
ATOM     64  C   UNL A   1      46.629  24.256  26.902  1.00  0.00     0.031 C 
ATOM     65  C   UNL A   1      46.512  27.003  30.512  1.00  0.00     0.029 A 
ATOM     66  N   UNL A   1      44.674  26.029  31.262  1.00  0.00    -0.354 N 
ATOM     67  C   UNL A   1      48.695  25.159  27.309  1.00  0.00     0.074 A 
ATOM     68  C   UNL A   1      47.848  24.455  26.387  1.00  0.00     0.031 C 
ATOM     69  C   UNL A   1      46.302  27.504  31.731  1.00  0.00     0.029 A 
ATOM     70  C   UNL A   1      45.340  26.649  32.342  1.00  0.00     0.049 A 
ATOM     71  H   UNL A   1      43.751  25.689  31.279  1.00  0.00     0.167 HD
ATOM     72  C   UNL A   1      49.919  25.782  27.240  1.00  0.00     0.037 A 
ATOM     73  C   UNL A   1      45.646  25.946  33.468  1.00  0.00     0.037 A 
ATOM     74  C   UNL A   1      50.326  26.247  28.579  1.00  0.00     0.049 A 
ATOM     75  C   UNL A   1      47.131  25.582  33.561  1.00  0.00     0.074 A 
ATOM     76  C   UNL A   1      50.718  27.459  29.119  1.00  0.00     0.029 A 
ATOM     77  N   UNL A   1      50.165  25.387  29.667  1.00  0.00    -0.354 N 
ATOM     78  N   UNL A   1      47.953  25.593  32.529  1.00  0.00    -0.248 NA
ATOM     79  C   UNL A   1      47.842  25.289  34.804  1.00  0.00     0.031 C 
ATOM     80  C   UNL A   1      50.619  27.360  30.536  1.00  0.00     0.029 A 
ATOM     81  C   UNL A   1      50.281  26.055  30.864  1.00  0.00     0.049 A 
ATOM     82  H   UNL A   1      49.991  24.422  29.588  1.00  0.00     0.167 HD
ATOM     83  C   UNL A   1      49.240  25.335  32.935  1.00  0.00     0.074 A 
ATOM     84  C   UNL A   1      49.110  25.156  34.371  1.00  0.00     0.031 C 
ATOM     85  C   UNL A   1      50.335  25.301  32.109  1.00  0.00     0.037 A 
BRANCH  72  86
ATOM     86  C   UNL A   1      50.703  26.162  25.964  1.00  0.00     0.057 A 
ATOM     87  C   UNL A   1      50.056  26.801  24.875  1.00  0.00     0.134 A 
ATOM     88  C   UNL A   1      52.049  25.842  25.682  1.00  0.00     0.134 A 
ATOM     89  F   UNL A   1      48.789  27.224  24.961  1.00  0.00    -0.206 F 
ATOM     90  C   UNL A   1      50.668  27.049  23.629  1.00  0.00     0.040 A 
ATOM     91  C   UNL A   1      52.689  26.138  24.458  1.00  0.00     0.040 A 
ATOM     92  F   UNL A   1      52.826  25.190  26.549  1.00  0.00    -0.206 F 
ATOM     93  C   UNL A   1      51.996  26.727  23.417  1.00  0.00     0.006 A 
ENDBRANCH  72  86
BRANCH  73  94
ATOM     94  C   UNL A   1      44.364  25.430  34.061  1.00  0.00     0.057 A 
ATOM     95  C   UNL A   1      44.489  24.083  34.491  1.00  0.00     0.134 A 
ATOM     96  C   UNL A   1      43.661  26.282  34.929  1.00  0.00     0.134 A 
ATOM     97  F   UNL A   1      45.100  23.186  33.698  1.00  0.00    -0.206 F 
ATOM     98  C   UNL A   1      44.277  23.714  35.828  1.00  0.00     0.040 A 
ATOM     99  C   UNL A   1      43.415  25.909  36.266  1.00  0.00     0.040 A 
ATOM    100  F   UNL A   1      43.460  27.565  34.596  1.00  0.00    -0.206 F 
ATOM    101  C   UNL A   1      43.799  24.652  36.737  1.00  0.00     0.006 A 
ENDBRANCH  73  94
BRANCH  85 102
ATOM    102  C   UNL A   1      51.645  24.568  32.390  1.00  0.00     0.057 A 
ATOM    103  C   UNL A   1      52.894  25.197  32.462  1.00  0.00     0.134 A 
ATOM    104  C   UNL A   1      51.657  23.208  32.811  1.00  0.00     0.134 A 
ATOM    105  F   UNL A   1      53.038  26.510  32.244  1.00  0.00    -0.206 F 
ATOM    106  C   UNL A   1      54.064  24.521  32.835  1.00  0.00     0.040 A 
ATOM    107  C   UNL A   1      52.804  22.545  33.252  1.00  0.00     0.040 A 
ATOM    108  F   UNL A   1      50.548  22.457  32.860  1.00  0.00    -0.206 F 
ATOM    109  C   UNL A   1      54.023  23.196  33.243  1.00  0.00     0.006 A 
ENDBRANCH  85 102
ENDBRANCH  59  60
ENDBRANCH  52  54
ENDBRANCH  51  52
ENDBRANCH  50  51
ENDBRANCH  49  50
ENDBRANCH  48  49
ENDBRANCH  47  48
ENDBRANCH  46  47
ENDBRANCH  45  46
ENDBRANCH   1  45
TORSDOF 26
ENDMDL
MODEL 3
REMARK VINA RESULT:      -8.9      5.560     11.809
REMARK SMILES Cc1ccccc1C(=O)Nc1cc(C(=O)OCCOCCOCCOCCOC(=O)c2ccc(-c3c4nc(c(-c5c(F)cccc5F)c5ccc([nH]5)c(-c5c(F)cccc5F)c5nc(c(-c6c(F)cccc6F)c6ccc3[nH]6)C=C5)C=C4)cc2)ccc1N1CC[NH+](CC(=O)Nc2ccc(F)cc2)CC1
REMARK SMILES IDX 21 1 20 2 19 3 18 4 17 5 16 6 14 7 15 8 13 9 11 10 12 11
REMARK SMILES IDX 87 12 86 13 85 14 10 15 8 16 9 17 7 19 1 20 2 21 3 22 4 23
REMARK SMILES IDX 6 24 5 25 88 26 89 27 104 28 90 29 103 30 91 31 92 33 93 34
REMARK SMILES IDX 94 35 95 36 96 38 97 39 102 40 98 41 101 42 99 43 100 44
REMARK SMILES IDX 22 45 23 46 24 47 25 48 26 49 27 50 28 51 29 52 30 53 31 54
REMARK SMILES IDX 32 55 84 56 33 57 83 58 34 59 35 60 36 61 77 62 37 63 82 64
REMARK SMILES IDX 76 65 78 66 38 67 81 68 75 69 74 70 39 72 65 73 48 74 64 75
REMARK SMILES IDX 49 76 52 77 63 78 79 79 50 80 51 81 62 83 80 84 53 85 40 86
REMARK SMILES IDX 41 87 46 88 42 89 43 90 45 91 47 92 44 93 66 94 67 95 72 96
REMARK SMILES IDX 68 97 69 98 71 99 73 100 70 101 54 102 55 103 60 104 56 105
REMARK SMILES IDX 57 106 59 107 61 108 58 109
REMARK H PARENT 10 18 91 32 95 37 78 71 52 82
REMARK Flexibility Score: inf
ROOT
ATOM      1  C   UNL A   1      33.261  29.419  26.763  1.00  0.00     0.188 C 
ENDROOT
BRANCH   1   2
ATOM      2  C   UNL A   1      31.867  29.013  27.222  1.00  0.00     0.188 C 
BRANCH   2   3
ATOM      3  O   UNL A   1      31.534  27.663  27.527  1.00  0.00    -0.376 OA
BRANCH   3   4
ATOM      4  C   UNL A   1      30.928  26.951  26.441  1.00  0.00     0.202 C 
BRANCH   4   5
ATOM      5  C   UNL A   1      31.092  25.417  26.408  1.00  0.00     0.261 C 
BRANCH   5   6
ATOM      6  O   UNL A   1      29.914  24.721  26.818  1.00  0.00    -0.460 OA
BRANCH   6   7
ATOM      7  C   UNL A   1      30.073  23.410  27.068  1.00  0.00     0.338 C 
ATOM      8  O   UNL A   1      29.262  22.630  27.510  1.00  0.00    -0.246 OA
BRANCH   7   9
ATOM      9  C   UNL A   1      31.290  23.024  26.320  1.00  0.00     0.062 A 
ATOM     10  C   UNL A   1      32.570  22.640  24.314  1.00  0.00     0.065 A 
ATOM     11  C   UNL A   1      31.396  23.061  24.918  1.00  0.00     0.044 A 
ATOM     12  C   UNL A   1      33.570  21.964  25.099  1.00  0.00     0.061 A 
ATOM     13  C   UNL A   1      33.309  21.759  26.465  1.00  0.00     0.029 A 
ATOM     14  C   UNL A   1      32.235  22.360  27.087  1.00  0.00     0.018 A 
BRANCH  10  15
ATOM     15  N   UNL A   1      32.821  22.880  22.950  1.00  0.00    -0.320 N 
ATOM     16  C   UNL A   1      32.962  23.997  22.144  1.00  0.00     0.255 C 
ATOM     17  O   UNL A   1      33.517  23.755  21.057  1.00  0.00    -0.269 OA
ATOM     18  H   UNL A   1      32.922  22.043  22.441  1.00  0.00     0.170 HD
BRANCH  16  19
ATOM     19  C   UNL A   1      32.577  25.436  22.383  1.00  0.00     0.043 A 
ATOM     20  C   UNL A   1      30.060  25.327  23.019  1.00  0.00     0.045 C 
ATOM     21  C   UNL A   1      31.327  26.025  22.638  1.00  0.00    -0.038 A 
ATOM     22  C   UNL A   1      31.215  27.437  22.664  1.00  0.00     0.004 A 
ATOM     23  C   UNL A   1      32.327  28.264  22.651  1.00  0.00     0.000 A 
ATOM     24  C   UNL A   1      33.699  26.306  22.441  1.00  0.00     0.014 A 
ATOM     25  C   UNL A   1      33.583  27.691  22.602  1.00  0.00     0.001 A 
ENDBRANCH  16  19
ENDBRANCH  10  15
BRANCH  12  26
ATOM     26  N   UNL A   1      34.875  21.662  24.599  1.00  0.00    -0.359 N 
ATOM     27  C   UNL A   1      35.544  20.424  25.132  1.00  0.00     0.178 C 
ATOM     28  C   UNL A   1      35.757  22.829  24.714  1.00  0.00     0.178 C 
ATOM     29  C   UNL A   1      37.061  20.319  24.817  1.00  0.00     0.284 C 
ATOM     30  C   UNL A   1      37.113  22.540  24.066  1.00  0.00     0.284 C 
ATOM     31  N   UNL A   1      37.847  21.560  24.835  1.00  0.00    -0.324 N 
ATOM     32  H   UNL A   1      38.740  21.281  24.429  1.00  0.00     0.348 HD
BRANCH  31  33
ATOM     33  C   UNL A   1      38.418  22.115  26.089  1.00  0.00     0.364 C 
BRANCH  33  34
ATOM     34  C   UNL A   1      39.936  22.258  26.308  1.00  0.00     0.279 C 
ATOM     35  O   UNL A   1      40.605  21.212  26.401  1.00  0.00    -0.268 OA
ATOM     36  N   UNL A   1      40.696  23.404  26.292  1.00  0.00    -0.321 N 
ATOM     37  H   UNL A   1      41.619  23.159  26.053  1.00  0.00     0.170 HD
BRANCH  36  38
ATOM     38  C   UNL A   1      40.646  24.814  26.495  1.00  0.00     0.041 A 
ATOM     39  C   UNL A   1      41.452  25.583  25.632  1.00  0.00     0.029 A 
ATOM     40  C   UNL A   1      40.024  25.528  27.515  1.00  0.00     0.029 A 
ATOM     41  C   UNL A   1      41.606  26.975  25.783  1.00  0.00     0.041 A 
ATOM     42  C   UNL A   1      40.206  26.910  27.712  1.00  0.00     0.041 A 
ATOM     43  C   UNL A   1      40.985  27.628  26.832  1.00  0.00     0.123 A 
ATOM     44  F   UNL A   1      41.139  28.948  26.997  1.00  0.00    -0.207 F 
ENDBRANCH  36  38
ENDBRANCH  33  34
ENDBRANCH  31  33
ENDBRANCH  12  26
ENDBRANCH   7   9
ENDBRANCH   6   7
ENDBRANCH   5   6
ENDBRANCH   4   5
ENDBRANCH   3   4
ENDBRANCH   2   3
ENDBRANCH   1   2
BRANCH   1  45
ATOM     45  O   UNL A   1      33.347  30.841  26.707  1.00  0.00    -0.377 OA
BRANCH  45  46
ATOM     46  C   UNL A   1      33.316  31.452  27.981  1.00  0.00     0.188 C 
BRANCH  46  47
ATOM     47  C   UNL A   1      33.701  32.931  27.972  1.00  0.00     0.188 C 
BRANCH  47  48
ATOM     48  O   UNL A   1      34.909  33.299  28.620  1.00  0.00    -0.376 OA
BRANCH  48  49
ATOM     49  C   UNL A   1      36.174  32.944  28.069  1.00  0.00     0.202 C 
BRANCH  49  50
ATOM     50  C   UNL A   1      37.241  32.448  29.052  1.00  0.00     0.261 C 
BRANCH  50  51
ATOM     51  O   UNL A   1      36.872  31.149  29.557  1.00  0.00    -0.460 OA
BRANCH  51  52
ATOM     52  C   UNL A   1      37.019  30.968  30.897  1.00  0.00     0.338 C 
ATOM     53  O   UNL A   1      36.385  31.554  31.761  1.00  0.00    -0.246 OA
BRANCH  52  54
ATOM     54  C   UNL A   1      38.284  30.216  31.171  1.00  0.00     0.060 A 
ATOM     55  C   UNL A   1      39.197  30.720  32.118  1.00  0.00     0.016 A 
ATOM     56  C   UNL A   1      38.728  29.321  30.205  1.00  0.00     0.016 A 
ATOM     57  C   UNL A   1      40.579  30.510  31.957  1.00  0.00     0.010 A 
ATOM     58  C   UNL A   1      40.088  29.225  29.988  1.00  0.00     0.010 A 
ATOM     59  C   UNL A   1      41.039  29.859  30.813  1.00  0.00    -0.014 A 
BRANCH  59  60
ATOM     60  C   UNL A   1      42.405  29.964  30.228  1.00  0.00     0.031 A 
ATOM     61  C   UNL A   1      43.131  28.679  29.894  1.00  0.00     0.074 A 
ATOM     62  C   UNL A   1      42.733  31.148  29.640  1.00  0.00     0.049 A 
ATOM     63  N   UNL A   1      44.200  28.555  29.181  1.00  0.00    -0.248 NA
ATOM     64  C   UNL A   1      42.674  27.371  30.381  1.00  0.00     0.031 C 
ATOM     65  C   UNL A   1      43.439  31.373  28.383  1.00  0.00     0.029 A 
ATOM     66  N   UNL A   1      42.476  32.453  30.054  1.00  0.00    -0.354 N 
ATOM     67  C   UNL A   1      44.368  27.208  28.848  1.00  0.00     0.074 A 
ATOM     68  C   UNL A   1      43.427  26.515  29.682  1.00  0.00     0.031 C 
ATOM     69  C   UNL A   1      43.669  32.669  28.164  1.00  0.00     0.029 A 
ATOM     70  C   UNL A   1      43.356  33.332  29.385  1.00  0.00     0.049 A 
ATOM     71  H   UNL A   1      41.790  32.720  30.708  1.00  0.00     0.167 HD
ATOM     72  C   UNL A   1      45.210  26.863  27.817  1.00  0.00     0.037 A 
ATOM     73  C   UNL A   1      44.313  34.016  30.073  1.00  0.00     0.037 A 
ATOM     74  C   UNL A   1      46.028  28.023  27.420  1.00  0.00     0.049 A 
ATOM     75  C   UNL A   1      45.719  33.440  29.876  1.00  0.00     0.074 A 
ATOM     76  C   UNL A   1      46.273  28.692  26.234  1.00  0.00     0.029 A 
ATOM     77  N   UNL A   1      46.613  28.805  28.417  1.00  0.00    -0.354 N 
ATOM     78  N   UNL A   1      45.954  32.222  29.425  1.00  0.00    -0.248 NA
ATOM     79  C   UNL A   1      46.960  34.190  30.053  1.00  0.00     0.031 C 
ATOM     80  C   UNL A   1      46.849  29.954  26.553  1.00  0.00     0.029 A 
ATOM     81  C   UNL A   1      47.065  30.006  27.922  1.00  0.00     0.049 A 
ATOM     82  H   UNL A   1      46.693  28.531  29.359  1.00  0.00     0.167 HD
ATOM     83  C   UNL A   1      47.302  32.027  29.246  1.00  0.00     0.074 A 
ATOM     84  C   UNL A   1      47.882  33.295  29.653  1.00  0.00     0.031 C 
ATOM     85  C   UNL A   1      47.874  30.876  28.765  1.00  0.00     0.037 A 
BRANCH  72  86
ATOM     86  C   UNL A   1      45.202  25.546  27.007  1.00  0.00     0.057 A 
ATOM     87  C   UNL A   1      45.561  24.315  27.614  1.00  0.00     0.134 A 
ATOM     88  C   UNL A   1      44.967  25.417  25.620  1.00  0.00     0.134 A 
ATOM     89  F   UNL A   1      45.780  24.220  28.931  1.00  0.00    -0.206 F 
ATOM     90  C   UNL A   1      45.714  23.103  26.910  1.00  0.00     0.040 A 
ATOM     91  C   UNL A   1      45.062  24.197  24.915  1.00  0.00     0.040 A 
ATOM     92  F   UNL A   1      44.669  26.462  24.845  1.00  0.00    -0.206 F 
ATOM     93  C   UNL A   1      45.455  23.035  25.554  1.00  0.00     0.006 A 
ENDBRANCH  72  86
BRANCH  73  94
ATOM     94  C   UNL A   1      43.628  34.877  31.098  1.00  0.00     0.057 A 
ATOM     95  C   UNL A   1      44.045  34.557  32.416  1.00  0.00     0.134 A 
ATOM     96  C   UNL A   1      43.503  36.247  30.816  1.00  0.00     0.134 A 
ATOM     97  F   UNL A   1      44.140  33.269  32.789  1.00  0.00    -0.206 F 
ATOM     98  C   UNL A   1      44.654  35.510  33.248  1.00  0.00     0.040 A 
ATOM     99  C   UNL A   1      44.084  37.215  31.661  1.00  0.00     0.040 A 
ATOM    100  F   UNL A   1      43.082  36.651  29.609  1.00  0.00    -0.206 F 
ATOM    101  C   UNL A   1      44.733  36.836  32.838  1.00  0.00     0.006 A 
ENDBRANCH  73  94
BRANCH  85 102
ATOM    102  C   UNL A   1      49.316  30.429  28.998  1.00  0.00     0.057 A 
ATOM    103  C   UNL A   1      50.328  30.520  28.035  1.00  0.00     0.134 A 
ATOM    104  C   UNL A   1      49.781  30.078  30.296  1.00  0.00     0.134 A 
ATOM    105  F   UNL A   1      50.090  30.980  26.800  1.00  0.00    -0.206 F 
ATOM    106  C   UNL A   1      51.667  30.211  28.310  1.00  0.00     0.040 A 
ATOM    107  C   UNL A   1      51.124  29.836  30.597  1.00  0.00     0.040 A 
ATOM    108  F   UNL A   1      48.968  29.992  31.357  1.00  0.00    -0.206 F 
ATOM    109  C   UNL A   1      52.073  29.880  29.594  1.00  0.00     0.006 A 
ENDBRANCH  85 102
ENDBRANCH  59  60
ENDBRANCH  52  54
ENDBRANCH  51  52
ENDBRANCH  50  51
ENDBRANCH  49  50
ENDBRANCH  48  49
ENDBRANCH  47  48
ENDBRANCH  46  47
ENDBRANCH  45  46
ENDBRANCH   1  45
TORSDOF 26
ENDMDL
