MODEL 1
REMARK VINA RESULT:     -10.5      0.000      0.000
REMARK SMILES C[C@@H](C(=O)OCCOCCOCCOCCOC(=O)c1ccc(-c2c3nc(c(-c4c(F)cccc4F)c4ccc([nH]4)c(-c4c(F)cccc4F)c4nc(c(-c5c(F)cccc5F)c5ccc2[nH]5)C=C4)C=C3)cc1)c1ccc(C[C@H]2CCCC2=O)cc1I
REMARK SMILES IDX 10 1 9 2 8 3 7 4 6 5 5 6 3 7 4 8 2 9 1 10 74 11 75 12 86 13
REMARK SMILES IDX 76 14 85 15 87 16 77 17 78 18 79 19 80 20 83 21 81 22 82 23
REMARK SMILES IDX 84 24 11 25 12 26 13 27 14 28 15 29 16 30 17 31 18 32 19 33
REMARK SMILES IDX 20 34 21 35 73 36 22 37 72 38 23 39 24 40 25 41 66 42 26 43
REMARK SMILES IDX 71 44 65 45 67 46 27 47 70 48 64 49 63 50 28 52 54 53 37 54
REMARK SMILES IDX 53 55 38 56 41 57 52 58 68 59 39 60 40 61 51 63 69 64 42 65
REMARK SMILES IDX 29 66 30 67 35 68 31 69 32 70 34 71 36 72 33 73 55 74 56 75
REMARK SMILES IDX 61 76 57 77 58 78 60 79 62 80 59 81 43 82 44 83 49 84 45 85
REMARK SMILES IDX 46 86 48 87 50 88 47 89
REMARK H PARENT 67 51 41 62
REMARK Flexibility Score: inf
ROOT
ATOM      1  C   UNL A   1      38.089  22.154  25.634  1.00  0.00     0.188 C 
ENDROOT
BRANCH   1   2
ATOM      2  C   UNL A   1      37.300  20.904  25.228  1.00  0.00     0.188 C 
BRANCH   2   3
ATOM      3  O   UNL A   1      35.936  20.996  25.583  1.00  0.00    -0.376 OA
BRANCH   3   4
ATOM      4  C   UNL A   1      35.039  20.070  25.001  1.00  0.00     0.202 C 
BRANCH   4   5
ATOM      5  C   UNL A   1      33.578  20.428  24.651  1.00  0.00     0.261 C 
BRANCH   5   6
ATOM      6  O   UNL A   1      32.793  21.151  25.617  1.00  0.00    -0.463 OA
BRANCH   6   7
ATOM      7  C   UNL A   1      31.974  22.130  25.167  1.00  0.00     0.313 C 
ATOM      8  O   UNL A   1      31.727  22.296  23.976  1.00  0.00    -0.252 OA
BRANCH   7   9
ATOM      9  C   UNL A   1      31.375  23.011  26.300  1.00  0.00     0.127 C 
ATOM     10  C   UNL A   1      30.017  22.578  26.863  1.00  0.00     0.025 C 
BRANCH   9  11
ATOM     11  C   UNL A   1      31.678  24.500  26.055  1.00  0.00    -0.021 A 
ATOM     12  C   UNL A   1      30.520  25.320  26.102  1.00  0.00     0.006 A 
ATOM     13  C   UNL A   1      32.903  25.175  25.879  1.00  0.00     0.017 A 
ATOM     14  C   UNL A   1      30.565  26.708  25.984  1.00  0.00     0.004 A 
ATOM     15  C   UNL A   1      32.952  26.584  25.888  1.00  0.00     0.018 A 
ATOM     16  I   UNL A   1      34.758  24.389  25.243  1.00  0.00    -0.044 I 
ATOM     17  C   UNL A   1      31.789  27.354  25.867  1.00  0.00    -0.046 A 
BRANCH  17  18
ATOM     18  C   UNL A   1      31.861  28.822  25.540  1.00  0.00     0.047 C 
BRANCH  18  19
ATOM     19  C   UNL A   1      31.838  29.121  24.031  1.00  0.00     0.060 C 
ATOM     20  C   UNL A   1      32.352  28.022  23.091  1.00  0.00     0.012 C 
ATOM     21  C   UNL A   1      30.428  29.329  23.524  1.00  0.00     0.136 C 
ATOM     22  C   UNL A   1      31.130  27.268  22.575  1.00  0.00     0.009 C 
ATOM     23  C   UNL A   1      29.993  28.276  22.540  1.00  0.00     0.076 C 
ATOM     24  O   UNL A   1      29.711  30.261  23.876  1.00  0.00    -0.299 OA
ENDBRANCH  18  19
ENDBRANCH  17  18
ENDBRANCH   9  11
ENDBRANCH   7   9
ENDBRANCH   6   7
ENDBRANCH   5   6
ENDBRANCH   4   5
ENDBRANCH   3   4
ENDBRANCH   2   3
ENDBRANCH   1   2
BRANCH   1  25
ATOM     25  O   UNL A   1      39.360  22.010  26.237  1.00  0.00    -0.377 OA
BRANCH  25  26
ATOM     26  C   UNL A   1      40.037  20.767  26.129  1.00  0.00     0.188 C 
BRANCH  26  27
ATOM     27  C   UNL A   1      41.046  20.292  27.200  1.00  0.00     0.188 C 
BRANCH  27  28
ATOM     28  O   UNL A   1      42.356  20.827  27.103  1.00  0.00    -0.376 OA
BRANCH  28  29
ATOM     29  C   UNL A   1      43.150  20.473  25.982  1.00  0.00     0.202 C 
BRANCH  29  30
ATOM     30  C   UNL A   1      43.843  21.612  25.219  1.00  0.00     0.261 C 
BRANCH  30  31
ATOM     31  O   UNL A   1      43.069  22.808  25.058  1.00  0.00    -0.460 OA
BRANCH  31  32
ATOM     32  C   UNL A   1      43.749  23.971  25.011  1.00  0.00     0.338 C 
ATOM     33  O   UNL A   1      44.652  24.274  24.247  1.00  0.00    -0.246 OA
BRANCH  32  34
ATOM     34  C   UNL A   1      43.081  24.906  25.932  1.00  0.00     0.060 A 
ATOM     35  C   UNL A   1      43.557  26.220  26.023  1.00  0.00     0.016 A 
ATOM     36  C   UNL A   1      41.970  24.493  26.671  1.00  0.00     0.016 A 
ATOM     37  C   UNL A   1      42.929  27.126  26.873  1.00  0.00     0.010 A 
ATOM     38  C   UNL A   1      41.364  25.393  27.549  1.00  0.00     0.010 A 
ATOM     39  C   UNL A   1      41.861  26.701  27.673  1.00  0.00    -0.014 A 
BRANCH  39  40
ATOM     40  C   UNL A   1      41.423  27.555  28.799  1.00  0.00     0.031 A 
ATOM     41  C   UNL A   1      42.192  27.465  30.087  1.00  0.00     0.074 A 
ATOM     42  C   UNL A   1      40.395  28.411  28.672  1.00  0.00     0.049 A 
ATOM     43  N   UNL A   1      41.988  28.076  31.223  1.00  0.00    -0.248 NA
ATOM     44  C   UNL A   1      43.353  26.558  30.088  1.00  0.00     0.031 C 
ATOM     45  C   UNL A   1      39.614  28.621  27.454  1.00  0.00     0.029 A 
ATOM     46  N   UNL A   1      39.832  29.262  29.588  1.00  0.00    -0.354 N 
ATOM     47  C   UNL A   1      42.986  27.621  32.076  1.00  0.00     0.074 A 
ATOM     48  C   UNL A   1      43.777  26.663  31.338  1.00  0.00     0.031 C 
ATOM     49  C   UNL A   1      38.662  29.539  27.704  1.00  0.00     0.029 A 
ATOM     50  C   UNL A   1      38.746  29.948  29.104  1.00  0.00     0.049 A 
ATOM     51  H   UNL A   1      40.174  29.369  30.504  1.00  0.00     0.167 HD
ATOM     52  C   UNL A   1      43.224  27.976  33.360  1.00  0.00     0.037 A 
ATOM     53  C   UNL A   1      37.907  30.792  29.736  1.00  0.00     0.037 A 
ATOM     54  C   UNL A   1      42.425  28.925  34.088  1.00  0.00     0.049 A 
ATOM     55  C   UNL A   1      38.139  31.106  31.192  1.00  0.00     0.074 A 
ATOM     56  C   UNL A   1      42.584  29.367  35.389  1.00  0.00     0.029 A 
ATOM     57  N   UNL A   1      41.307  29.569  33.579  1.00  0.00    -0.354 N 
ATOM     58  N   UNL A   1      39.097  30.691  31.987  1.00  0.00    -0.248 NA
ATOM     59  C   UNL A   1      37.174  32.005  31.839  1.00  0.00     0.031 C 
ATOM     60  C   UNL A   1      41.525  30.229  35.687  1.00  0.00     0.029 A 
ATOM     61  C   UNL A   1      40.746  30.379  34.551  1.00  0.00     0.049 A 
ATOM     62  H   UNL A   1      40.963  29.464  32.662  1.00  0.00     0.167 HD
ATOM     63  C   UNL A   1      38.871  31.305  33.213  1.00  0.00     0.074 A 
ATOM     64  C   UNL A   1      37.691  32.129  33.053  1.00  0.00     0.031 C 
ATOM     65  C   UNL A   1      39.575  31.201  34.368  1.00  0.00     0.037 A 
BRANCH  52  66
ATOM     66  C   UNL A   1      44.366  27.304  34.063  1.00  0.00     0.057 A 
ATOM     67  C   UNL A   1      44.213  26.086  34.740  1.00  0.00     0.134 A 
ATOM     68  C   UNL A   1      45.644  27.878  34.051  1.00  0.00     0.134 A 
ATOM     69  F   UNL A   1      43.012  25.491  34.808  1.00  0.00    -0.206 F 
ATOM     70  C   UNL A   1      45.283  25.477  35.398  1.00  0.00     0.040 A 
ATOM     71  C   UNL A   1      46.727  27.264  34.680  1.00  0.00     0.040 A 
ATOM     72  F   UNL A   1      45.860  29.044  33.423  1.00  0.00    -0.206 F 
ATOM     73  C   UNL A   1      46.547  26.064  35.362  1.00  0.00     0.006 A 
ENDBRANCH  52  66
BRANCH  53  74
ATOM     74  C   UNL A   1      36.758  31.391  29.007  1.00  0.00     0.057 A 
ATOM     75  C   UNL A   1      36.755  32.739  28.633  1.00  0.00     0.134 A 
ATOM     76  C   UNL A   1      35.619  30.636  28.695  1.00  0.00     0.134 A 
ATOM     77  F   UNL A   1      37.805  33.522  28.923  1.00  0.00    -0.206 F 
ATOM     78  C   UNL A   1      35.658  33.322  27.996  1.00  0.00     0.040 A 
ATOM     79  C   UNL A   1      34.526  31.198  28.033  1.00  0.00     0.040 A 
ATOM     80  F   UNL A   1      35.554  29.338  29.027  1.00  0.00    -0.206 F 
ATOM     81  C   UNL A   1      34.540  32.548  27.689  1.00  0.00     0.006 A 
ENDBRANCH  53  74
BRANCH  65  82
ATOM     82  C   UNL A   1      39.121  32.032  35.534  1.00  0.00     0.057 A 
ATOM     83  C   UNL A   1      38.268  31.526  36.523  1.00  0.00     0.134 A 
ATOM     84  C   UNL A   1      39.583  33.346  35.692  1.00  0.00     0.134 A 
ATOM     85  F   UNL A   1      37.780  30.280  36.428  1.00  0.00    -0.206 F 
ATOM     86  C   UNL A   1      37.871  32.305  37.611  1.00  0.00     0.040 A 
ATOM     87  C   UNL A   1      39.220  34.123  36.792  1.00  0.00     0.040 A 
ATOM     88  F   UNL A   1      40.413  33.889  34.788  1.00  0.00    -0.206 F 
ATOM     89  C   UNL A   1      38.354  33.605  37.752  1.00  0.00     0.006 A 
ENDBRANCH  65  82
ENDBRANCH  39  40
ENDBRANCH  32  34
ENDBRANCH  31  32
ENDBRANCH  30  31
ENDBRANCH  29  30
ENDBRANCH  28  29
ENDBRANCH  27  28
ENDBRANCH  26  27
ENDBRANCH  25  26
ENDBRANCH   1  25
TORSDOF 23
ENDMDL
MODEL 2
REMARK VINA RESULT:     -10.4      1.964      4.476
REMARK SMILES C[C@@H](C(=O)OCCOCCOCCOCCOC(=O)c1ccc(-c2c3nc(c(-c4c(F)cccc4F)c4ccc([nH]4)c(-c4c(F)cccc4F)c4nc(c(-c5c(F)cccc5F)c5ccc2[nH]5)C=C4)C=C3)cc1)c1ccc(C[C@H]2CCCC2=O)cc1I
REMARK SMILES IDX 10 1 9 2 8 3 7 4 6 5 5 6 3 7 4 8 2 9 1 10 74 11 75 12 86 13
REMARK SMILES IDX 76 14 85 15 87 16 77 17 78 18 79 19 80 20 83 21 81 22 82 23
REMARK SMILES IDX 84 24 11 25 12 26 13 27 14 28 15 29 16 30 17 31 18 32 19 33
REMARK SMILES IDX 20 34 21 35 73 36 22 37 72 38 23 39 24 40 25 41 66 42 26 43
REMARK SMILES IDX 71 44 65 45 67 46 27 47 70 48 64 49 63 50 28 52 54 53 37 54
REMARK SMILES IDX 53 55 38 56 41 57 52 58 68 59 39 60 40 61 51 63 69 64 42 65
REMARK SMILES IDX 29 66 30 67 35 68 31 69 32 70 34 71 36 72 33 73 55 74 56 75
REMARK SMILES IDX 61 76 57 77 58 78 60 79 62 80 59 81 43 82 44 83 49 84 45 85
REMARK SMILES IDX 46 86 48 87 50 88 47 89
REMARK H PARENT 67 51 41 62
REMARK Flexibility Score: inf
ROOT
ATOM      1  C   UNL A   1      39.137  21.536  25.984  1.00  0.00     0.188 C 
ENDROOT
BRANCH   1   2
ATOM      2  C   UNL A   1      38.043  20.653  25.374  1.00  0.00     0.188 C 
BRANCH   2   3
ATOM      3  O   UNL A   1      37.464  21.239  24.226  1.00  0.00    -0.376 OA
BRANCH   3   4
ATOM      4  C   UNL A   1      36.579  22.326  24.414  1.00  0.00     0.202 C 
BRANCH   4   5
ATOM      5  C   UNL A   1      36.106  23.229  23.254  1.00  0.00     0.261 C 
BRANCH   5   6
ATOM      6  O   UNL A   1      34.816  22.981  22.666  1.00  0.00    -0.463 OA
BRANCH   6   7
ATOM      7  C   UNL A   1      33.873  23.946  22.769  1.00  0.00     0.313 C 
ATOM      8  O   UNL A   1      34.146  25.142  22.810  1.00  0.00    -0.252 OA
BRANCH   7   9
ATOM      9  C   UNL A   1      32.420  23.394  22.822  1.00  0.00     0.127 C 
ATOM     10  C   UNL A   1      31.308  24.410  23.100  1.00  0.00     0.025 C 
BRANCH   9  11
ATOM     11  C   UNL A   1      32.386  22.001  23.477  1.00  0.00    -0.021 A 
ATOM     12  C   UNL A   1      32.068  20.962  22.563  1.00  0.00     0.006 A 
ATOM     13  C   UNL A   1      32.694  21.592  24.791  1.00  0.00     0.017 A 
ATOM     14  C   UNL A   1      32.056  19.614  22.917  1.00  0.00     0.004 A 
ATOM     15  C   UNL A   1      32.802  20.222  25.107  1.00  0.00     0.018 A 
ATOM     16  I   UNL A   1      32.710  22.749  26.558  1.00  0.00    -0.044 I 
ATOM     17  C   UNL A   1      32.417  19.233  24.202  1.00  0.00    -0.046 A 
BRANCH  17  18
ATOM     18  C   UNL A   1      32.223  17.815  24.672  1.00  0.00     0.047 C 
BRANCH  18  19
ATOM     19  C   UNL A   1      33.216  16.817  24.052  1.00  0.00     0.060 C 
ATOM     20  C   UNL A   1      34.547  17.381  23.536  1.00  0.00     0.012 C 
ATOM     21  C   UNL A   1      33.684  15.794  25.063  1.00  0.00     0.136 C 
ATOM     22  C   UNL A   1      35.585  17.151  24.630  1.00  0.00     0.009 C 
ATOM     23  C   UNL A   1      35.156  15.890  25.362  1.00  0.00     0.076 C 
ATOM     24  O   UNL A   1      32.942  14.968  25.585  1.00  0.00    -0.299 OA
ENDBRANCH  18  19
ENDBRANCH  17  18
ENDBRANCH   9  11
ENDBRANCH   7   9
ENDBRANCH   6   7
ENDBRANCH   5   6
ENDBRANCH   4   5
ENDBRANCH   3   4
ENDBRANCH   2   3
ENDBRANCH   1   2
BRANCH   1  25
ATOM     25  O   UNL A   1      40.231  20.930  26.646  1.00  0.00    -0.377 OA
BRANCH  25  26
ATOM     26  C   UNL A   1      40.759  19.716  26.136  1.00  0.00     0.188 C 
BRANCH  26  27
ATOM     27  C   UNL A   1      42.245  19.330  26.322  1.00  0.00     0.188 C 
BRANCH  27  28
ATOM     28  O   UNL A   1      43.158  19.907  25.403  1.00  0.00    -0.376 OA
BRANCH  28  29
ATOM     29  C   UNL A   1      43.366  21.310  25.447  1.00  0.00     0.202 C 
BRANCH  29  30
ATOM     30  C   UNL A   1      44.806  21.803  25.649  1.00  0.00     0.261 C 
BRANCH  30  31
ATOM     31  O   UNL A   1      44.938  23.074  26.299  1.00  0.00    -0.460 OA
BRANCH  31  32
ATOM     32  C   UNL A   1      44.586  24.162  25.585  1.00  0.00     0.338 C 
ATOM     33  O   UNL A   1      44.724  24.340  24.384  1.00  0.00    -0.246 OA
BRANCH  32  34
ATOM     34  C   UNL A   1      43.822  25.046  26.481  1.00  0.00     0.060 A 
ATOM     35  C   UNL A   1      44.145  26.409  26.524  1.00  0.00     0.016 A 
ATOM     36  C   UNL A   1      42.771  24.535  27.245  1.00  0.00     0.016 A 
ATOM     37  C   UNL A   1      43.424  27.266  27.349  1.00  0.00     0.010 A 
ATOM     38  C   UNL A   1      42.072  25.389  28.100  1.00  0.00     0.010 A 
ATOM     39  C   UNL A   1      42.417  26.749  28.175  1.00  0.00    -0.014 A 
BRANCH  39  40
ATOM     40  C   UNL A   1      41.892  27.586  29.276  1.00  0.00     0.031 A 
ATOM     41  C   UNL A   1      42.599  27.524  30.600  1.00  0.00     0.074 A 
ATOM     42  C   UNL A   1      40.841  28.402  29.097  1.00  0.00     0.049 A 
ATOM     43  N   UNL A   1      42.316  28.126  31.724  1.00  0.00    -0.248 NA
ATOM     44  C   UNL A   1      43.792  26.661  30.661  1.00  0.00     0.031 C 
ATOM     45  C   UNL A   1      40.114  28.584  27.842  1.00  0.00     0.029 A 
ATOM     46  N   UNL A   1      40.201  29.231  29.982  1.00  0.00    -0.354 N 
ATOM     47  C   UNL A   1      43.287  27.709  32.627  1.00  0.00     0.074 A 
ATOM     48  C   UNL A   1      44.150  26.782  31.930  1.00  0.00     0.031 C 
ATOM     49  C   UNL A   1      39.116  29.464  28.043  1.00  0.00     0.029 A 
ATOM     50  C   UNL A   1      39.115  29.876  29.444  1.00  0.00     0.049 A 
ATOM     51  H   UNL A   1      40.493  29.351  30.915  1.00  0.00     0.167 HD
ATOM     52  C   UNL A   1      43.448  28.073  33.920  1.00  0.00     0.037 A 
ATOM     53  C   UNL A   1      38.214  30.688  30.032  1.00  0.00     0.037 A 
ATOM     54  C   UNL A   1      42.579  28.990  34.606  1.00  0.00     0.049 A 
ATOM     55  C   UNL A   1      38.363  31.009  31.498  1.00  0.00     0.074 A 
ATOM     56  C   UNL A   1      42.656  29.437  35.912  1.00  0.00     0.029 A 
ATOM     57  N   UNL A   1      41.464  29.592  34.041  1.00  0.00    -0.354 N 
ATOM     58  N   UNL A   1      39.295  30.631  32.340  1.00  0.00    -0.248 NA
ATOM     59  C   UNL A   1      37.333  31.871  32.095  1.00  0.00     0.031 C 
ATOM     60  C   UNL A   1      41.552  30.259  36.156  1.00  0.00     0.029 A 
ATOM     61  C   UNL A   1      40.825  30.380  34.983  1.00  0.00     0.049 A 
ATOM     62  H   UNL A   1      41.169  29.474  33.109  1.00  0.00     0.167 HD
ATOM     63  C   UNL A   1      38.985  31.235  33.553  1.00  0.00     0.074 A 
ATOM     64  C   UNL A   1      37.784  32.014  33.333  1.00  0.00     0.031 C 
ATOM     65  C   UNL A   1      39.634  31.157  34.741  1.00  0.00     0.037 A 
BRANCH  52  66
ATOM     66  C   UNL A   1      44.578  27.444  34.680  1.00  0.00     0.057 A 
ATOM     67  C   UNL A   1      45.843  28.039  34.765  1.00  0.00     0.134 A 
ATOM     68  C   UNL A   1      44.391  26.228  35.352  1.00  0.00     0.134 A 
ATOM     69  F   UNL A   1      46.097  29.193  34.130  1.00  0.00    -0.206 F 
ATOM     70  C   UNL A   1      46.888  27.436  35.469  1.00  0.00     0.040 A 
ATOM     71  C   UNL A   1      45.418  25.631  36.083  1.00  0.00     0.040 A 
ATOM     72  F   UNL A   1      43.204  25.604  35.310  1.00  0.00    -0.206 F 
ATOM     73  C   UNL A   1      46.673  26.231  36.137  1.00  0.00     0.006 A 
ENDBRANCH  52  66
BRANCH  53  74
ATOM     74  C   UNL A   1      37.081  31.243  29.247  1.00  0.00     0.057 A 
ATOM     75  C   UNL A   1      35.957  30.467  28.943  1.00  0.00     0.134 A 
ATOM     76  C   UNL A   1      37.109  32.554  28.752  1.00  0.00     0.134 A 
ATOM     77  F   UNL A   1      35.879  29.197  29.367  1.00  0.00    -0.206 F 
ATOM     78  C   UNL A   1      34.912  30.963  28.161  1.00  0.00     0.040 A 
ATOM     79  C   UNL A   1      36.059  33.073  27.993  1.00  0.00     0.040 A 
ATOM     80  F   UNL A   1      38.157  33.351  29.004  1.00  0.00    -0.206 F 
ATOM     81  C   UNL A   1      34.959  32.273  27.688  1.00  0.00     0.006 A 
ENDBRANCH  53  74
BRANCH  65  82
ATOM     82  C   UNL A   1      39.092  31.970  35.882  1.00  0.00     0.057 A 
ATOM     83  C   UNL A   1      39.444  33.311  36.075  1.00  0.00     0.134 A 
ATOM     84  C   UNL A   1      38.165  31.412  36.773  1.00  0.00     0.134 A 
ATOM     85  F   UNL A   1      40.334  33.904  35.264  1.00  0.00    -0.206 F 
ATOM     86  C   UNL A   1      38.917  34.060  37.128  1.00  0.00     0.040 A 
ATOM     87  C   UNL A   1      37.605  32.160  37.810  1.00  0.00     0.040 A 
ATOM     88  F   UNL A   1      37.773  30.136  36.639  1.00  0.00    -0.206 F 
ATOM     89  C   UNL A   1      37.987  33.486  37.994  1.00  0.00     0.006 A 
ENDBRANCH  65  82
ENDBRANCH  39  40
ENDBRANCH  32  34
ENDBRANCH  31  32
ENDBRANCH  30  31
ENDBRANCH  29  30
ENDBRANCH  28  29
ENDBRANCH  27  28
ENDBRANCH  26  27
ENDBRANCH  25  26
ENDBRANCH   1  25
TORSDOF 23
ENDMDL
MODEL 3
REMARK VINA RESULT:     -10.3      1.391      2.210
REMARK SMILES C[C@@H](C(=O)OCCOCCOCCOCCOC(=O)c1ccc(-c2c3nc(c(-c4c(F)cccc4F)c4ccc([nH]4)c(-c4c(F)cccc4F)c4nc(c(-c5c(F)cccc5F)c5ccc2[nH]5)C=C4)C=C3)cc1)c1ccc(C[C@H]2CCCC2=O)cc1I
REMARK SMILES IDX 10 1 9 2 8 3 7 4 6 5 5 6 3 7 4 8 2 9 1 10 74 11 75 12 86 13
REMARK SMILES IDX 76 14 85 15 87 16 77 17 78 18 79 19 80 20 83 21 81 22 82 23
REMARK SMILES IDX 84 24 11 25 12 26 13 27 14 28 15 29 16 30 17 31 18 32 19 33
REMARK SMILES IDX 20 34 21 35 73 36 22 37 72 38 23 39 24 40 25 41 66 42 26 43
REMARK SMILES IDX 71 44 65 45 67 46 27 47 70 48 64 49 63 50 28 52 54 53 37 54
REMARK SMILES IDX 53 55 38 56 41 57 52 58 68 59 39 60 40 61 51 63 69 64 42 65
REMARK SMILES IDX 29 66 30 67 35 68 31 69 32 70 34 71 36 72 33 73 55 74 56 75
REMARK SMILES IDX 61 76 57 77 58 78 60 79 62 80 59 81 43 82 44 83 49 84 45 85
REMARK SMILES IDX 46 86 48 87 50 88 47 89
REMARK H PARENT 67 51 41 62
REMARK Flexibility Score: inf
ROOT
ATOM      1  C   UNL A   1      37.884  22.083  25.518  1.00  0.00     0.188 C 
ENDROOT
BRANCH   1   2
ATOM      2  C   UNL A   1      36.833  21.034  25.141  1.00  0.00     0.188 C 
BRANCH   2   3
ATOM      3  O   UNL A   1      35.527  21.435  25.499  1.00  0.00    -0.376 OA
BRANCH   3   4
ATOM      4  C   UNL A   1      34.581  21.609  24.462  1.00  0.00     0.202 C 
BRANCH   4   5
ATOM      5  C   UNL A   1      33.590  22.793  24.423  1.00  0.00     0.261 C 
BRANCH   5   6
ATOM      6  O   UNL A   1      33.180  23.392  25.666  1.00  0.00    -0.463 OA
BRANCH   6   7
ATOM      7  C   UNL A   1      33.077  24.740  25.718  1.00  0.00     0.313 C 
ATOM      8  O   UNL A   1      34.030  25.489  25.527  1.00  0.00    -0.252 OA
BRANCH   7   9
ATOM      9  C   UNL A   1      31.640  25.244  26.035  1.00  0.00     0.127 C 
ATOM     10  C   UNL A   1      30.575  24.171  26.287  1.00  0.00     0.025 C 
BRANCH   9  11
ATOM     11  C   UNL A   1      31.303  26.497  25.207  1.00  0.00    -0.021 A 
ATOM     12  C   UNL A   1      30.727  26.194  23.946  1.00  0.00     0.006 A 
ATOM     13  C   UNL A   1      31.395  27.867  25.528  1.00  0.00     0.017 A 
ATOM     14  C   UNL A   1      30.273  27.171  23.062  1.00  0.00     0.004 A 
ATOM     15  C   UNL A   1      30.820  28.840  24.685  1.00  0.00     0.018 A 
ATOM     16  I   UNL A   1      32.605  28.796  26.990  1.00  0.00    -0.044 I 
ATOM     17  C   UNL A   1      30.324  28.510  23.424  1.00  0.00    -0.046 A 
BRANCH  17  18
ATOM     18  C   UNL A   1      30.030  29.595  22.422  1.00  0.00     0.047 C 
BRANCH  18  19
ATOM     19  C   UNL A   1      28.705  30.332  22.679  1.00  0.00     0.060 C 
ATOM     20  C   UNL A   1      28.727  31.481  23.697  1.00  0.00     0.012 C 
ATOM     21  C   UNL A   1      28.202  31.029  21.435  1.00  0.00     0.136 C 
ATOM     22  C   UNL A   1      28.856  32.779  22.904  1.00  0.00     0.009 C 
ATOM     23  C   UNL A   1      28.171  32.528  21.570  1.00  0.00     0.076 C 
ATOM     24  O   UNL A   1      27.853  30.436  20.419  1.00  0.00    -0.299 OA
ENDBRANCH  18  19
ENDBRANCH  17  18
ENDBRANCH   9  11
ENDBRANCH   7   9
ENDBRANCH   6   7
ENDBRANCH   5   6
ENDBRANCH   4   5
ENDBRANCH   3   4
ENDBRANCH   2   3
ENDBRANCH   1   2
BRANCH   1  25
ATOM     25  O   UNL A   1      38.964  21.717  26.356  1.00  0.00    -0.377 OA
BRANCH  25  26
ATOM     26  C   UNL A   1      40.111  21.114  25.777  1.00  0.00     0.188 C 
BRANCH  26  27
ATOM     27  C   UNL A   1      40.854  19.945  26.466  1.00  0.00     0.188 C 
BRANCH  27  28
ATOM     28  O   UNL A   1      42.206  20.187  26.817  1.00  0.00    -0.376 OA
BRANCH  28  29
ATOM     29  C   UNL A   1      43.182  20.192  25.788  1.00  0.00     0.202 C 
BRANCH  29  30
ATOM     30  C   UNL A   1      43.791  21.547  25.400  1.00  0.00     0.261 C 
BRANCH  30  31
ATOM     31  O   UNL A   1      43.240  22.688  26.071  1.00  0.00    -0.460 OA
BRANCH  31  32
ATOM     32  C   UNL A   1      43.694  23.898  25.687  1.00  0.00     0.338 C 
ATOM     33  O   UNL A   1      44.367  24.162  24.703  1.00  0.00    -0.246 OA
BRANCH  32  34
ATOM     34  C   UNL A   1      43.072  24.899  26.570  1.00  0.00     0.060 A 
ATOM     35  C   UNL A   1      43.611  26.191  26.611  1.00  0.00     0.016 A 
ATOM     36  C   UNL A   1      41.943  24.569  27.323  1.00  0.00     0.016 A 
ATOM     37  C   UNL A   1      43.028  27.159  27.425  1.00  0.00     0.010 A 
ATOM     38  C   UNL A   1      41.381  25.530  28.164  1.00  0.00     0.010 A 
ATOM     39  C   UNL A   1      41.940  26.817  28.239  1.00  0.00    -0.014 A 
BRANCH  39  40
ATOM     40  C   UNL A   1      41.544  27.733  29.330  1.00  0.00     0.031 A 
ATOM     41  C   UNL A   1      42.319  27.667  30.616  1.00  0.00     0.074 A 
ATOM     42  C   UNL A   1      40.549  28.623  29.173  1.00  0.00     0.049 A 
ATOM     43  N   UNL A   1      42.147  28.333  31.727  1.00  0.00    -0.248 NA
ATOM     44  C   UNL A   1      43.444  26.716  30.649  1.00  0.00     0.031 C 
ATOM     45  C   UNL A   1      39.768  28.812  27.952  1.00  0.00     0.029 A 
ATOM     46  N   UNL A   1      40.027  29.533  30.055  1.00  0.00    -0.354 N 
ATOM     47  C   UNL A   1      43.133  27.875  32.592  1.00  0.00     0.074 A 
ATOM     48  C   UNL A   1      43.881  26.858  31.890  1.00  0.00     0.031 C 
ATOM     49  C   UNL A   1      38.854  29.775  28.169  1.00  0.00     0.029 A 
ATOM     50  C   UNL A   1      38.964  30.240  29.550  1.00  0.00     0.049 A 
ATOM     51  H   UNL A   1      40.379  29.665  30.965  1.00  0.00     0.167 HD
ATOM     52  C   UNL A   1      43.394  28.275  33.858  1.00  0.00     0.037 A 
ATOM     53  C   UNL A   1      38.163  31.142  30.150  1.00  0.00     0.037 A 
ATOM     54  C   UNL A   1      42.638  29.284  34.551  1.00  0.00     0.049 A 
ATOM     55  C   UNL A   1      38.418  31.507  31.591  1.00  0.00     0.074 A 
ATOM     56  C   UNL A   1      42.824  29.773  35.831  1.00  0.00     0.029 A 
ATOM     57  N   UNL A   1      41.542  29.949  34.022  1.00  0.00    -0.354 N 
ATOM     58  N   UNL A   1      39.365  31.088  32.396  1.00  0.00    -0.248 NA
ATOM     59  C   UNL A   1      37.494  32.469  32.205  1.00  0.00     0.031 C 
ATOM     60  C   UNL A   1      41.801  30.688  36.098  1.00  0.00     0.029 A 
ATOM     61  C   UNL A   1      41.020  30.820  34.962  1.00  0.00     0.049 A 
ATOM     62  H   UNL A   1      41.187  29.819  33.112  1.00  0.00     0.167 HD
ATOM     63  C   UNL A   1      39.172  31.761  33.597  1.00  0.00     0.074 A 
ATOM     64  C   UNL A   1      38.024  32.624  33.409  1.00  0.00     0.031 C 
ATOM     65  C   UNL A   1      39.880  31.678  34.751  1.00  0.00     0.037 A 
BRANCH  52  66
ATOM     66  C   UNL A   1      44.514  27.589  34.583  1.00  0.00     0.057 A 
ATOM     67  C   UNL A   1      44.294  26.500  35.438  1.00  0.00     0.134 A 
ATOM     68  C   UNL A   1      45.838  28.015  34.410  1.00  0.00     0.134 A 
ATOM     69  F   UNL A   1      43.050  26.053  35.664  1.00  0.00    -0.206 F 
ATOM     70  C   UNL A   1      45.346  25.878  36.113  1.00  0.00     0.040 A 
ATOM     71  C   UNL A   1      46.900  27.382  35.056  1.00  0.00     0.040 A 
ATOM     72  F   UNL A   1      46.119  29.052  33.607  1.00  0.00    -0.206 F 
ATOM     73  C   UNL A   1      46.656  26.315  35.916  1.00  0.00     0.006 A 
ENDBRANCH  52  66
BRANCH  53  74
ATOM     74  C   UNL A   1      37.032  31.753  29.403  1.00  0.00     0.057 A 
ATOM     75  C   UNL A   1      35.838  31.055  29.191  1.00  0.00     0.134 A 
ATOM     76  C   UNL A   1      37.131  33.040  28.856  1.00  0.00     0.134 A 
ATOM     77  F   UNL A   1      35.689  29.811  29.669  1.00  0.00    -0.206 F 
ATOM     78  C   UNL A   1      34.792  31.602  28.446  1.00  0.00     0.040 A 
ATOM     79  C   UNL A   1      36.082  33.611  28.133  1.00  0.00     0.040 A 
ATOM     80  F   UNL A   1      38.248  33.763  29.020  1.00  0.00    -0.206 F 
ATOM     81  C   UNL A   1      34.910  32.887  27.919  1.00  0.00     0.006 A 
ENDBRANCH  53  74
BRANCH  65  82
ATOM     82  C   UNL A   1      39.467  32.575  35.883  1.00  0.00     0.057 A 
ATOM     83  C   UNL A   1      40.023  33.847  36.068  1.00  0.00     0.134 A 
ATOM     84  C   UNL A   1      38.463  32.175  36.775  1.00  0.00     0.134 A 
ATOM     85  F   UNL A   1      40.997  34.288  35.257  1.00  0.00    -0.206 F 
ATOM     86  C   UNL A   1      39.615  34.676  37.113  1.00  0.00     0.040 A 
ATOM     87  C   UNL A   1      38.022  33.008  37.804  1.00  0.00     0.040 A 
ATOM     88  F   UNL A   1      37.877  30.974  36.649  1.00  0.00    -0.206 F 
ATOM     89  C   UNL A   1      38.605  34.261  37.980  1.00  0.00     0.006 A 
ENDBRANCH  65  82
ENDBRANCH  39  40
ENDBRANCH  32  34
ENDBRANCH  31  32
ENDBRANCH  30  31
ENDBRANCH  29  30
ENDBRANCH  28  29
ENDBRANCH  27  28
ENDBRANCH  26  27
ENDBRANCH  25  26
ENDBRANCH   1  25
TORSDOF 23
ENDMDL
