MODEL 1
REMARK VINA RESULT:     -10.1      0.000      0.000
REMARK SMILES O=C(OCCOCCOCCOCCOC(=O)[C@@H](Cc1ccccc1)Nc1ccc(Cl)c(Br)c1)c1ccc(-c2c3nc(c(-c4c(F)cccc4F)c4ccc([nH]4)c(-c4c(F)cccc4F)c4nc(c(-c5c(F)cccc5F)c5ccc2[nH]5)C=C4)C=C3)cc1
REMARK SMILES IDX 9 1 8 2 7 3 6 4 5 5 4 6 3 7 2 8 1 9 35 10 36 11 88 12 37 13
REMARK SMILES IDX 87 14 38 15 39 16 40 17 81 18 41 19 86 20 80 21 82 22 42 23
REMARK SMILES IDX 85 24 79 25 78 26 43 28 69 29 52 30 68 31 53 32 56 33 67 34
REMARK SMILES IDX 83 35 54 36 55 37 66 39 84 40 57 41 44 42 45 43 50 44 46 45
REMARK SMILES IDX 47 46 49 47 51 48 48 49 70 50 71 51 76 52 72 53 73 54 75 55
REMARK SMILES IDX 77 56 74 57 58 58 59 59 64 60 60 61 61 62 63 63 65 64 62 65
REMARK SMILES IDX 10 66 11 67 12 68 13 69 14 70 15 71 16 72 17 73 18 74 19 75
REMARK SMILES IDX 20 76 21 77 25 78 22 79 24 80 23 81 26 82 27 84 28 85 34 86
REMARK SMILES IDX 29 87 32 88 30 89 33 90 31 91
REMARK H PARENT 82 27 56 38 26 83
REMARK Flexibility Score: inf
ROOT
ATOM      1  O   UNL A   1      34.654  31.242  28.084  1.00  0.00    -0.377 OA
ENDROOT
BRANCH   1   2
ATOM      2  C   UNL A   1      33.593  32.155  27.807  1.00  0.00     0.188 C 
BRANCH   2   3
ATOM      3  C   UNL A   1      33.884  33.586  28.217  1.00  0.00     0.188 C 
BRANCH   3   4
ATOM      4  O   UNL A   1      34.636  33.601  29.428  1.00  0.00    -0.376 OA
BRANCH   4   5
ATOM      5  C   UNL A   1      34.194  34.579  30.367  1.00  0.00     0.202 C 
BRANCH   5   6
ATOM      6  C   UNL A   1      34.197  34.056  31.803  1.00  0.00     0.261 C 
BRANCH   6   7
ATOM      7  O   UNL A   1      34.620  32.686  31.886  1.00  0.00    -0.460 OA
BRANCH   7   8
ATOM      8  C   UNL A   1      35.719  32.175  32.499  1.00  0.00     0.338 C 
ATOM      9  O   UNL A   1      35.823  32.345  33.714  1.00  0.00    -0.246 OA
BRANCH   8  10
ATOM     10  C   UNL A   1      36.837  31.440  31.810  1.00  0.00     0.060 A 
ATOM     11  C   UNL A   1      37.876  30.747  32.435  1.00  0.00     0.016 A 
ATOM     12  C   UNL A   1      36.800  31.403  30.401  1.00  0.00     0.016 A 
ATOM     13  C   UNL A   1      38.831  30.041  31.719  1.00  0.00     0.010 A 
ATOM     14  C   UNL A   1      37.779  30.728  29.661  1.00  0.00     0.010 A 
ATOM     15  C   UNL A   1      38.808  30.063  30.331  1.00  0.00    -0.014 A 
BRANCH  15  16
ATOM     16  C   UNL A   1      40.030  29.605  29.656  1.00  0.00     0.031 A 
ATOM     17  C   UNL A   1      41.175  30.571  29.599  1.00  0.00     0.074 A 
ATOM     18  C   UNL A   1      40.171  28.315  29.311  1.00  0.00     0.049 A 
ATOM     19  N   UNL A   1      42.362  30.426  29.081  1.00  0.00    -0.248 NA
ATOM     20  C   UNL A   1      40.957  31.877  30.252  1.00  0.00     0.031 C 
ATOM     21  C   UNL A   1      39.163  27.273  29.513  1.00  0.00     0.029 A 
ATOM     22  N   UNL A   1      41.233  27.655  28.756  1.00  0.00    -0.354 N 
ATOM     23  C   UNL A   1      43.022  31.624  29.325  1.00  0.00     0.074 A 
ATOM     24  C   UNL A   1      42.113  32.484  30.045  1.00  0.00     0.031 C 
ATOM     25  C   UNL A   1      39.659  26.099  29.086  1.00  0.00     0.029 A 
ATOM     26  C   UNL A   1      40.990  26.322  28.531  1.00  0.00     0.049 A 
ATOM     27  H   UNL A   1      42.087  28.092  28.539  1.00  0.00     0.167 HD
ATOM     28  C   UNL A   1      44.275  31.973  28.960  1.00  0.00     0.037 A 
ATOM     29  C   UNL A   1      41.758  25.409  27.906  1.00  0.00     0.037 A 
ATOM     30  C   UNL A   1      45.143  31.097  28.226  1.00  0.00     0.049 A 
ATOM     31  C   UNL A   1      43.098  25.859  27.387  1.00  0.00     0.074 A 
ATOM     32  C   UNL A   1      46.393  31.352  27.697  1.00  0.00     0.029 A 
ATOM     33  N   UNL A   1      44.829  29.780  27.913  1.00  0.00    -0.354 N 
ATOM     34  N   UNL A   1      43.687  27.026  27.526  1.00  0.00    -0.248 NA
ATOM     35  C   UNL A   1      43.869  24.886  26.607  1.00  0.00     0.031 C 
ATOM     36  C   UNL A   1      46.816  30.199  27.026  1.00  0.00     0.029 A 
ATOM     37  C   UNL A   1      45.853  29.212  27.181  1.00  0.00     0.049 A 
ATOM     38  H   UNL A   1      44.000  29.320  28.176  1.00  0.00     0.167 HD
ATOM     39  C   UNL A   1      44.902  26.923  26.863  1.00  0.00     0.074 A 
ATOM     40  C   UNL A   1      44.973  25.571  26.340  1.00  0.00     0.031 C 
ATOM     41  C   UNL A   1      45.874  27.855  26.692  1.00  0.00     0.037 A 
BRANCH  28  42
ATOM     42  C   UNL A   1      44.700  33.377  29.267  1.00  0.00     0.057 A 
ATOM     43  C   UNL A   1      44.428  34.449  28.408  1.00  0.00     0.134 A 
ATOM     44  C   UNL A   1      45.465  33.644  30.410  1.00  0.00     0.134 A 
ATOM     45  F   UNL A   1      43.735  34.254  27.275  1.00  0.00    -0.206 F 
ATOM     46  C   UNL A   1      44.928  35.730  28.657  1.00  0.00     0.040 A 
ATOM     47  C   UNL A   1      45.951  34.924  30.682  1.00  0.00     0.040 A 
ATOM     48  F   UNL A   1      45.775  32.660  31.267  1.00  0.00    -0.206 F 
ATOM     49  C   UNL A   1      45.691  35.970  29.799  1.00  0.00     0.006 A 
ENDBRANCH  28  42
BRANCH  29  50
ATOM     50  C   UNL A   1      41.257  24.028  27.678  1.00  0.00     0.057 A 
ATOM     51  C   UNL A   1      41.776  22.930  28.373  1.00  0.00     0.134 A 
ATOM     52  C   UNL A   1      40.251  23.769  26.735  1.00  0.00     0.134 A 
ATOM     53  F   UNL A   1      42.755  23.102  29.274  1.00  0.00    -0.206 F 
ATOM     54  C   UNL A   1      41.327  21.628  28.131  1.00  0.00     0.040 A 
ATOM     55  C   UNL A   1      39.774  22.478  26.502  1.00  0.00     0.040 A 
ATOM     56  F   UNL A   1      39.712  24.772  26.028  1.00  0.00    -0.206 F 
ATOM     57  C   UNL A   1      40.318  21.400  27.197  1.00  0.00     0.006 A 
ENDBRANCH  29  50
BRANCH  41  58
ATOM     58  C   UNL A   1      47.092  27.427  25.936  1.00  0.00     0.057 A 
ATOM     59  C   UNL A   1      48.214  26.901  26.586  1.00  0.00     0.134 A 
ATOM     60  C   UNL A   1      47.112  27.484  24.537  1.00  0.00     0.134 A 
ATOM     61  F   UNL A   1      48.256  26.834  27.925  1.00  0.00    -0.206 F 
ATOM     62  C   UNL A   1      49.327  26.461  25.868  1.00  0.00     0.040 A 
ATOM     63  C   UNL A   1      48.207  27.023  23.809  1.00  0.00     0.040 A 
ATOM     64  F   UNL A   1      46.060  27.967  23.859  1.00  0.00    -0.206 F 
ATOM     65  C   UNL A   1      49.320  26.514  24.475  1.00  0.00     0.006 A 
ENDBRANCH  41  58
ENDBRANCH  15  16
ENDBRANCH   8  10
ENDBRANCH   7   8
ENDBRANCH   6   7
ENDBRANCH   5   6
ENDBRANCH   4   5
ENDBRANCH   3   4
ENDBRANCH   2   3
ENDBRANCH   1   2
BRANCH   1  66
ATOM     66  C   UNL A   1      34.868  30.117  27.242  1.00  0.00     0.188 C 
BRANCH  66  67
ATOM     67  C   UNL A   1      33.834  28.988  27.239  1.00  0.00     0.188 C 
BRANCH  67  68
ATOM     68  O   UNL A   1      32.549  29.414  26.844  1.00  0.00    -0.376 OA
BRANCH  68  69
ATOM     69  C   UNL A   1      31.744  28.468  26.165  1.00  0.00     0.202 C 
BRANCH  69  70
ATOM     70  C   UNL A   1      31.137  27.230  26.874  1.00  0.00     0.261 C 
BRANCH  70  71
ATOM     71  O   UNL A   1      31.912  26.026  27.025  1.00  0.00    -0.462 OA
BRANCH  71  72
ATOM     72  C   UNL A   1      31.380  24.903  26.495  1.00  0.00     0.328 C 
ATOM     73  O   UNL A   1      30.661  24.140  27.146  1.00  0.00    -0.250 OA
BRANCH  72  74
ATOM     74  C   UNL A   1      31.777  24.574  25.030  1.00  0.00     0.194 C 
BRANCH  74  75
ATOM     75  C   UNL A   1      32.593  23.339  24.589  1.00  0.00     0.072 C 
BRANCH  75  76
ATOM     76  C   UNL A   1      34.101  23.293  24.540  1.00  0.00    -0.045 A 
ATOM     77  C   UNL A   1      34.716  22.991  23.308  1.00  0.00     0.004 A 
ATOM     78  C   UNL A   1      34.915  23.474  25.657  1.00  0.00     0.004 A 
ATOM     79  C   UNL A   1      36.104  22.953  23.178  1.00  0.00     0.000 A 
ATOM     80  C   UNL A   1      36.308  23.425  25.530  1.00  0.00     0.000 A 
ATOM     81  C   UNL A   1      36.901  23.180  24.292  1.00  0.00     0.000 A 
ENDBRANCH  75  76
ENDBRANCH  74  75
BRANCH  74  82
ATOM     82  N   UNL A   1      30.601  24.764  24.153  1.00  0.00    -0.372 N 
ATOM     83  H   UNL A   1      30.047  23.987  23.910  1.00  0.00     0.161 HD
BRANCH  82  84
ATOM     84  C   UNL A   1      30.267  26.019  23.666  1.00  0.00     0.036 A 
ATOM     85  C   UNL A   1      31.231  26.752  22.971  1.00  0.00     0.027 A 
ATOM     86  C   UNL A   1      28.989  26.578  23.807  1.00  0.00     0.043 A 
ATOM     87  C   UNL A   1      30.931  28.001  22.418  1.00  0.00     0.024 A 
ATOM     88  C   UNL A   1      28.679  27.829  23.258  1.00  0.00     0.038 A 
ATOM     89  C   UNL A   1      29.654  28.543  22.560  1.00  0.00     0.055 A 
ATOM     90  Br  UNL A   1      26.909  28.478  23.504  1.00  0.00    -0.049 Br
ATOM     91  Cl  UNL A   1      29.357  30.091  21.854  1.00  0.00    -0.083 Cl
ENDBRANCH  82  84
ENDBRANCH  74  82
ENDBRANCH  72  74
ENDBRANCH  71  72
ENDBRANCH  70  71
ENDBRANCH  69  70
ENDBRANCH  68  69
ENDBRANCH  67  68
ENDBRANCH  66  67
ENDBRANCH   1  66
TORSDOF 24
ENDMDL
MODEL 2
REMARK VINA RESULT:      -9.8      2.091      3.658
REMARK SMILES O=C(OCCOCCOCCOCCOC(=O)[C@@H](Cc1ccccc1)Nc1ccc(Cl)c(Br)c1)c1ccc(-c2c3nc(c(-c4c(F)cccc4F)c4ccc([nH]4)c(-c4c(F)cccc4F)c4nc(c(-c5c(F)cccc5F)c5ccc2[nH]5)C=C4)C=C3)cc1
REMARK SMILES IDX 9 1 8 2 7 3 6 4 5 5 4 6 3 7 2 8 1 9 35 10 36 11 88 12 37 13
REMARK SMILES IDX 87 14 38 15 39 16 40 17 81 18 41 19 86 20 80 21 82 22 42 23
REMARK SMILES IDX 85 24 79 25 78 26 43 28 69 29 52 30 68 31 53 32 56 33 67 34
REMARK SMILES IDX 83 35 54 36 55 37 66 39 84 40 57 41 44 42 45 43 50 44 46 45
REMARK SMILES IDX 47 46 49 47 51 48 48 49 70 50 71 51 76 52 72 53 73 54 75 55
REMARK SMILES IDX 77 56 74 57 58 58 59 59 64 60 60 61 61 62 63 63 65 64 62 65
REMARK SMILES IDX 10 66 11 67 12 68 13 69 14 70 15 71 16 72 17 73 18 74 19 75
REMARK SMILES IDX 20 76 21 77 25 78 22 79 24 80 23 81 26 82 27 84 28 85 34 86
REMARK SMILES IDX 29 87 32 88 30 89 33 90 31 91
REMARK H PARENT 82 27 56 38 26 83
REMARK Flexibility Score: inf
ROOT
ATOM      1  O   UNL A   1      34.900  32.205  27.346  1.00  0.00    -0.377 OA
ENDROOT
BRANCH   1   2
ATOM      2  C   UNL A   1      35.786  33.058  28.069  1.00  0.00     0.188 C 
BRANCH   2   3
ATOM      3  C   UNL A   1      35.116  34.276  28.676  1.00  0.00     0.188 C 
BRANCH   3   4
ATOM      4  O   UNL A   1      35.427  34.361  30.065  1.00  0.00    -0.376 OA
BRANCH   4   5
ATOM      5  C   UNL A   1      34.388  33.883  30.917  1.00  0.00     0.202 C 
BRANCH   5   6
ATOM      6  C   UNL A   1      34.707  32.515  31.518  1.00  0.00     0.261 C 
BRANCH   6   7
ATOM      7  O   UNL A   1      35.353  32.615  32.797  1.00  0.00    -0.460 OA
BRANCH   7   8
ATOM      8  C   UNL A   1      36.667  32.453  33.097  1.00  0.00     0.338 C 
ATOM      9  O   UNL A   1      37.086  32.986  34.125  1.00  0.00    -0.246 OA
BRANCH   8  10
ATOM     10  C   UNL A   1      37.663  31.694  32.262  1.00  0.00     0.060 A 
ATOM     11  C   UNL A   1      38.487  30.657  32.703  1.00  0.00     0.016 A 
ATOM     12  C   UNL A   1      37.732  32.029  30.894  1.00  0.00     0.016 A 
ATOM     13  C   UNL A   1      39.333  29.968  31.846  1.00  0.00     0.010 A 
ATOM     14  C   UNL A   1      38.609  31.371  30.023  1.00  0.00     0.010 A 
ATOM     15  C   UNL A   1      39.425  30.350  30.514  1.00  0.00    -0.014 A 
BRANCH  15  16
ATOM     16  C   UNL A   1      40.579  29.827  29.769  1.00  0.00     0.031 A 
ATOM     17  C   UNL A   1      41.792  30.704  29.696  1.00  0.00     0.074 A 
ATOM     18  C   UNL A   1      40.604  28.544  29.372  1.00  0.00     0.049 A 
ATOM     19  N   UNL A   1      42.941  30.488  29.121  1.00  0.00    -0.248 NA
ATOM     20  C   UNL A   1      41.704  31.995  30.404  1.00  0.00     0.031 C 
ATOM     21  C   UNL A   1      39.527  27.575  29.581  1.00  0.00     0.029 A 
ATOM     22  N   UNL A   1      41.587  27.827  28.747  1.00  0.00    -0.354 N 
ATOM     23  C   UNL A   1      43.702  31.622  29.378  1.00  0.00     0.074 A 
ATOM     24  C   UNL A   1      42.894  32.520  30.168  1.00  0.00     0.031 C 
ATOM     25  C   UNL A   1      39.911  26.384  29.090  1.00  0.00     0.029 A 
ATOM     26  C   UNL A   1      41.231  26.526  28.485  1.00  0.00     0.049 A 
ATOM     27  H   UNL A   1      42.463  28.206  28.508  1.00  0.00     0.167 HD
ATOM     28  C   UNL A   1      44.963  31.888  28.970  1.00  0.00     0.037 A 
ATOM     29  C   UNL A   1      41.899  25.583  27.794  1.00  0.00     0.037 A 
ATOM     30  C   UNL A   1      45.728  30.978  28.166  1.00  0.00     0.049 A 
ATOM     31  C   UNL A   1      43.247  25.949  27.232  1.00  0.00     0.074 A 
ATOM     32  C   UNL A   1      46.971  31.157  27.592  1.00  0.00     0.029 A 
ATOM     33  N   UNL A   1      45.299  29.702  27.821  1.00  0.00    -0.354 N 
ATOM     34  N   UNL A   1      43.931  27.061  27.386  1.00  0.00    -0.248 NA
ATOM     35  C   UNL A   1      43.906  24.951  26.383  1.00  0.00     0.031 C 
ATOM     36  C   UNL A   1      47.274  30.002  26.861  1.00  0.00     0.029 A 
ATOM     37  C   UNL A   1      46.245  29.087  27.023  1.00  0.00     0.049 A 
ATOM     38  H   UNL A   1      44.448  29.296  28.104  1.00  0.00     0.167 HD
ATOM     39  C   UNL A   1      45.105  26.891  26.667  1.00  0.00     0.074 A 
ATOM     40  C   UNL A   1      45.048  25.559  26.093  1.00  0.00     0.031 C 
ATOM     41  C   UNL A   1      46.139  27.753  26.486  1.00  0.00     0.037 A 
BRANCH  28  42
ATOM     42  C   UNL A   1      45.508  33.242  29.308  1.00  0.00     0.057 A 
ATOM     43  C   UNL A   1      45.310  34.359  28.485  1.00  0.00     0.134 A 
ATOM     44  C   UNL A   1      46.314  33.411  30.441  1.00  0.00     0.134 A 
ATOM     45  F   UNL A   1      44.582  34.256  27.362  1.00  0.00    -0.206 F 
ATOM     46  C   UNL A   1      45.919  35.586  28.761  1.00  0.00     0.040 A 
ATOM     47  C   UNL A   1      46.910  34.638  30.739  1.00  0.00     0.040 A 
ATOM     48  F   UNL A   1      46.557  32.379  31.263  1.00  0.00    -0.206 F 
ATOM     49  C   UNL A   1      46.721  35.727  29.892  1.00  0.00     0.006 A 
ENDBRANCH  28  42
BRANCH  29  50
ATOM     50  C   UNL A   1      41.282  24.254  27.539  1.00  0.00     0.057 A 
ATOM     51  C   UNL A   1      40.241  24.089  26.617  1.00  0.00     0.134 A 
ATOM     52  C   UNL A   1      41.709  23.112  28.232  1.00  0.00     0.134 A 
ATOM     53  F   UNL A   1      39.769  25.142  25.935  1.00  0.00    -0.206 F 
ATOM     54  C   UNL A   1      39.639  22.844  26.405  1.00  0.00     0.040 A 
ATOM     55  C   UNL A   1      41.136  21.858  28.010  1.00  0.00     0.040 A 
ATOM     56  F   UNL A   1      42.697  23.197  29.134  1.00  0.00    -0.206 F 
ATOM     57  C   UNL A   1      40.092  21.723  27.098  1.00  0.00     0.006 A 
ENDBRANCH  29  50
BRANCH  41  58
ATOM     58  C   UNL A   1      47.287  27.262  25.661  1.00  0.00     0.057 A 
ATOM     59  C   UNL A   1      47.374  27.526  24.290  1.00  0.00     0.134 A 
ATOM     60  C   UNL A   1      48.347  26.574  26.265  1.00  0.00     0.134 A 
ATOM     61  F   UNL A   1      46.382  28.170  23.657  1.00  0.00    -0.206 F 
ATOM     62  C   UNL A   1      48.472  27.104  23.540  1.00  0.00     0.040 A 
ATOM     63  C   UNL A   1      49.461  26.172  25.530  1.00  0.00     0.040 A 
ATOM     64  F   UNL A   1      48.325  26.303  27.578  1.00  0.00    -0.206 F 
ATOM     65  C   UNL A   1      49.523  26.433  24.163  1.00  0.00     0.006 A 
ENDBRANCH  41  58
ENDBRANCH  15  16
ENDBRANCH   8  10
ENDBRANCH   7   8
ENDBRANCH   6   7
ENDBRANCH   5   6
ENDBRANCH   4   5
ENDBRANCH   3   4
ENDBRANCH   2   3
ENDBRANCH   1   2
BRANCH   1  66
ATOM     66  C   UNL A   1      34.809  30.825  27.675  1.00  0.00     0.188 C 
BRANCH  66  67
ATOM     67  C   UNL A   1      33.687  29.988  27.054  1.00  0.00     0.188 C 
BRANCH  67  68
ATOM     68  O   UNL A   1      33.504  28.745  27.692  1.00  0.00    -0.376 OA
BRANCH  68  69
ATOM     69  C   UNL A   1      32.244  28.121  27.525  1.00  0.00     0.202 C 
BRANCH  69  70
ATOM     70  C   UNL A   1      31.957  27.121  26.376  1.00  0.00     0.261 C 
BRANCH  70  71
ATOM     71  O   UNL A   1      32.657  25.865  26.312  1.00  0.00    -0.462 OA
BRANCH  71  72
ATOM     72  C   UNL A   1      31.890  24.757  26.218  1.00  0.00     0.328 C 
ATOM     73  O   UNL A   1      31.391  24.212  27.206  1.00  0.00    -0.250 OA
BRANCH  72  74
ATOM     74  C   UNL A   1      31.720  24.151  24.799  1.00  0.00     0.194 C 
BRANCH  74  75
ATOM     75  C   UNL A   1      30.569  24.484  23.824  1.00  0.00     0.072 C 
BRANCH  75  76
ATOM     76  C   UNL A   1      30.113  25.886  23.500  1.00  0.00    -0.045 A 
ATOM     77  C   UNL A   1      31.012  26.736  22.822  1.00  0.00     0.004 A 
ATOM     78  C   UNL A   1      28.878  26.405  23.885  1.00  0.00     0.004 A 
ATOM     79  C   UNL A   1      30.656  28.037  22.467  1.00  0.00     0.000 A 
ATOM     80  C   UNL A   1      28.524  27.715  23.539  1.00  0.00     0.000 A 
ATOM     81  C   UNL A   1      29.405  28.523  22.820  1.00  0.00     0.000 A 
ENDBRANCH  75  76
ENDBRANCH  74  75
BRANCH  74  82
ATOM     82  N   UNL A   1      33.022  24.180  24.098  1.00  0.00    -0.372 N 
ATOM     83  H   UNL A   1      33.233  24.931  23.498  1.00  0.00     0.161 HD
BRANCH  82  84
ATOM     84  C   UNL A   1      33.951  23.165  24.272  1.00  0.00     0.036 A 
ATOM     85  C   UNL A   1      35.299  23.500  24.424  1.00  0.00     0.027 A 
ATOM     86  C   UNL A   1      33.599  21.810  24.339  1.00  0.00     0.043 A 
ATOM     87  C   UNL A   1      36.268  22.519  24.650  1.00  0.00     0.024 A 
ATOM     88  C   UNL A   1      34.562  20.818  24.565  1.00  0.00     0.038 A 
ATOM     89  C   UNL A   1      35.903  21.175  24.722  1.00  0.00     0.055 A 
ATOM     90  Br  UNL A   1      33.962  19.017  24.649  1.00  0.00    -0.049 Br
ATOM     91  Cl  UNL A   1      37.154  20.018  25.002  1.00  0.00    -0.083 Cl
ENDBRANCH  82  84
ENDBRANCH  74  82
ENDBRANCH  72  74
ENDBRANCH  71  72
ENDBRANCH  70  71
ENDBRANCH  69  70
ENDBRANCH  68  69
ENDBRANCH  67  68
ENDBRANCH  66  67
ENDBRANCH   1  66
TORSDOF 24
ENDMDL
MODEL 3
REMARK VINA RESULT:      -9.3      2.962      7.979
REMARK SMILES O=C(OCCOCCOCCOCCOC(=O)[C@@H](Cc1ccccc1)Nc1ccc(Cl)c(Br)c1)c1ccc(-c2c3nc(c(-c4c(F)cccc4F)c4ccc([nH]4)c(-c4c(F)cccc4F)c4nc(c(-c5c(F)cccc5F)c5ccc2[nH]5)C=C4)C=C3)cc1
REMARK SMILES IDX 9 1 8 2 7 3 6 4 5 5 4 6 3 7 2 8 1 9 35 10 36 11 88 12 37 13
REMARK SMILES IDX 87 14 38 15 39 16 40 17 81 18 41 19 86 20 80 21 82 22 42 23
REMARK SMILES IDX 85 24 79 25 78 26 43 28 69 29 52 30 68 31 53 32 56 33 67 34
REMARK SMILES IDX 83 35 54 36 55 37 66 39 84 40 57 41 44 42 45 43 50 44 46 45
REMARK SMILES IDX 47 46 49 47 51 48 48 49 70 50 71 51 76 52 72 53 73 54 75 55
REMARK SMILES IDX 77 56 74 57 58 58 59 59 64 60 60 61 61 62 63 63 65 64 62 65
REMARK SMILES IDX 10 66 11 67 12 68 13 69 14 70 15 71 16 72 17 73 18 74 19 75
REMARK SMILES IDX 20 76 21 77 25 78 22 79 24 80 23 81 26 82 27 84 28 85 34 86
REMARK SMILES IDX 29 87 32 88 30 89 33 90 31 91
REMARK H PARENT 82 27 56 38 26 83
REMARK Flexibility Score: inf
ROOT
ATOM      1  O   UNL A   1      36.291  23.689  24.208  1.00  0.00    -0.377 OA
ENDROOT
BRANCH   1   2
ATOM      2  C   UNL A   1      36.288  23.503  25.623  1.00  0.00     0.188 C 
BRANCH   2   3
ATOM      3  C   UNL A   1      36.420  22.055  26.056  1.00  0.00     0.188 C 
BRANCH   3   4
ATOM      4  O   UNL A   1      37.718  21.565  25.725  1.00  0.00    -0.376 OA
BRANCH   4   5
ATOM      5  C   UNL A   1      37.750  20.167  25.444  1.00  0.00     0.202 C 
BRANCH   5   6
ATOM      6  C   UNL A   1      39.086  19.719  24.853  1.00  0.00     0.261 C 
BRANCH   6   7
ATOM      7  O   UNL A   1      39.942  19.110  25.832  1.00  0.00    -0.460 OA
BRANCH   7   8
ATOM      8  C   UNL A   1      41.258  19.347  26.071  1.00  0.00     0.338 C 
ATOM      9  O   UNL A   1      42.039  18.407  25.928  1.00  0.00    -0.246 OA
BRANCH   8  10
ATOM     10  C   UNL A   1      41.838  20.661  26.522  1.00  0.00     0.060 A 
ATOM     11  C   UNL A   1      41.979  21.088  27.844  1.00  0.00     0.016 A 
ATOM     12  C   UNL A   1      42.333  21.516  25.516  1.00  0.00     0.016 A 
ATOM     13  C   UNL A   1      42.584  22.291  28.172  1.00  0.00     0.010 A 
ATOM     14  C   UNL A   1      42.912  22.753  25.828  1.00  0.00     0.010 A 
ATOM     15  C   UNL A   1      43.017  23.144  27.164  1.00  0.00    -0.014 A 
BRANCH  15  16
ATOM     16  C   UNL A   1      43.311  24.526  27.567  1.00  0.00     0.031 A 
ATOM     17  C   UNL A   1      44.723  24.996  27.391  1.00  0.00     0.074 A 
ATOM     18  C   UNL A   1      42.312  25.372  27.866  1.00  0.00     0.049 A 
ATOM     19  N   UNL A   1      45.251  26.160  27.649  1.00  0.00    -0.248 NA
ATOM     20  C   UNL A   1      45.665  24.022  26.807  1.00  0.00     0.031 C 
ATOM     21  C   UNL A   1      40.888  25.028  27.871  1.00  0.00     0.029 A 
ATOM     22  N   UNL A   1      42.339  26.702  28.183  1.00  0.00    -0.354 N 
ATOM     23  C   UNL A   1      46.586  26.050  27.281  1.00  0.00     0.074 A 
ATOM     24  C   UNL A   1      46.791  24.715  26.773  1.00  0.00     0.031 C 
ATOM     25  C   UNL A   1      40.177  26.126  28.177  1.00  0.00     0.029 A 
ATOM     26  C   UNL A   1      41.097  27.227  28.445  1.00  0.00     0.049 A 
ATOM     27  H   UNL A   1      43.168  27.231  28.221  1.00  0.00     0.167 HD
ATOM     28  C   UNL A   1      47.556  26.986  27.381  1.00  0.00     0.037 A 
ATOM     29  C   UNL A   1      40.766  28.454  28.890  1.00  0.00     0.037 A 
ATOM     30  C   UNL A   1      47.319  28.297  27.912  1.00  0.00     0.049 A 
ATOM     31  C   UNL A   1      41.882  29.438  29.122  1.00  0.00     0.074 A 
ATOM     32  C   UNL A   1      48.223  29.309  28.171  1.00  0.00     0.029 A 
ATOM     33  N   UNL A   1      46.063  28.771  28.274  1.00  0.00    -0.354 N 
ATOM     34  N   UNL A   1      43.165  29.305  28.872  1.00  0.00    -0.248 NA
ATOM     35  C   UNL A   1      41.517  30.728  29.718  1.00  0.00     0.031 C 
ATOM     36  C   UNL A   1      47.517  30.380  28.731  1.00  0.00     0.029 A 
ATOM     37  C   UNL A   1      46.169  30.055  28.774  1.00  0.00     0.049 A 
ATOM     38  H   UNL A   1      45.223  28.266  28.186  1.00  0.00     0.167 HD
ATOM     39  C   UNL A   1      43.759  30.496  29.266  1.00  0.00     0.074 A 
ATOM     40  C   UNL A   1      42.689  31.347  29.753  1.00  0.00     0.031 C 
ATOM     41  C   UNL A   1      45.066  30.860  29.237  1.00  0.00     0.037 A 
BRANCH  28  42
ATOM     42  C   UNL A   1      48.942  26.562  27.001  1.00  0.00     0.057 A 
ATOM     43  C   UNL A   1      49.474  26.784  25.724  1.00  0.00     0.134 A 
ATOM     44  C   UNL A   1      49.731  25.846  27.912  1.00  0.00     0.134 A 
ATOM     45  F   UNL A   1      48.754  27.428  24.792  1.00  0.00    -0.206 F 
ATOM     46  C   UNL A   1      50.725  26.283  25.357  1.00  0.00     0.040 A 
ATOM     47  C   UNL A   1      50.992  25.360  27.563  1.00  0.00     0.040 A 
ATOM     48  F   UNL A   1      49.276  25.584  29.147  1.00  0.00    -0.206 F 
ATOM     49  C   UNL A   1      51.488  25.570  26.279  1.00  0.00     0.006 A 
ENDBRANCH  28  42
BRANCH  29  50
ATOM     50  C   UNL A   1      39.353  28.788  29.208  1.00  0.00     0.057 A 
ATOM     51  C   UNL A   1      38.500  29.367  28.261  1.00  0.00     0.134 A 
ATOM     52  C   UNL A   1      38.823  28.552  30.484  1.00  0.00     0.134 A 
ATOM     53  F   UNL A   1      38.948  29.640  27.027  1.00  0.00    -0.206 F 
ATOM     54  C   UNL A   1      37.181  29.712  28.574  1.00  0.00     0.040 A 
ATOM     55  C   UNL A   1      37.500  28.866  30.803  1.00  0.00     0.040 A 
ATOM     56  F   UNL A   1      39.583  28.004  31.443  1.00  0.00    -0.206 F 
ATOM     57  C   UNL A   1      36.676  29.455  29.847  1.00  0.00     0.006 A 
ENDBRANCH  29  50
BRANCH  41  58
ATOM     58  C   UNL A   1      45.392  32.239  29.720  1.00  0.00     0.057 A 
ATOM     59  C   UNL A   1      45.362  33.345  28.864  1.00  0.00     0.134 A 
ATOM     60  C   UNL A   1      45.675  32.465  31.073  1.00  0.00     0.134 A 
ATOM     61  F   UNL A   1      45.108  33.186  27.556  1.00  0.00    -0.206 F 
ATOM     62  C   UNL A   1      45.621  34.632  29.335  1.00  0.00     0.040 A 
ATOM     63  C   UNL A   1      45.910  33.750  31.559  1.00  0.00     0.040 A 
ATOM     64  F   UNL A   1      45.706  31.444  31.943  1.00  0.00    -0.206 F 
ATOM     65  C   UNL A   1      45.888  34.837  30.688  1.00  0.00     0.006 A 
ENDBRANCH  41  58
ENDBRANCH  15  16
ENDBRANCH   8  10
ENDBRANCH   7   8
ENDBRANCH   6   7
ENDBRANCH   5   6
ENDBRANCH   4   5
ENDBRANCH   3   4
ENDBRANCH   2   3
ENDBRANCH   1   2
BRANCH   1  66
ATOM     66  C   UNL A   1      35.518  22.837  23.373  1.00  0.00     0.188 C 
BRANCH  66  67
ATOM     67  C   UNL A   1      34.190  23.355  22.813  1.00  0.00     0.188 C 
BRANCH  67  68
ATOM     68  O   UNL A   1      33.731  24.519  23.462  1.00  0.00    -0.376 OA
BRANCH  68  69
ATOM     69  C   UNL A   1      34.029  25.756  22.840  1.00  0.00     0.202 C 
BRANCH  69  70
ATOM     70  C   UNL A   1      33.027  26.479  21.904  1.00  0.00     0.261 C 
BRANCH  70  71
ATOM     71  O   UNL A   1      32.512  27.777  22.253  1.00  0.00    -0.462 OA
BRANCH  71  72
ATOM     72  C   UNL A   1      31.817  27.852  23.409  1.00  0.00     0.328 C 
ATOM     73  O   UNL A   1      32.344  28.169  24.479  1.00  0.00    -0.250 OA
BRANCH  72  74
ATOM     74  C   UNL A   1      30.319  27.447  23.345  1.00  0.00     0.194 C 
BRANCH  74  75
ATOM     75  C   UNL A   1      29.757  26.065  23.743  1.00  0.00     0.072 C 
BRANCH  75  76
ATOM     76  C   UNL A   1      30.453  25.104  24.677  1.00  0.00    -0.045 A 
ATOM     77  C   UNL A   1      30.634  23.774  24.245  1.00  0.00     0.004 A 
ATOM     78  C   UNL A   1      30.873  25.444  25.962  1.00  0.00     0.004 A 
ATOM     79  C   UNL A   1      31.288  22.834  25.041  1.00  0.00     0.000 A 
ATOM     80  C   UNL A   1      31.519  24.498  26.766  1.00  0.00     0.000 A 
ATOM     81  C   UNL A   1      31.739  23.201  26.302  1.00  0.00     0.000 A 
ENDBRANCH  75  76
ENDBRANCH  74  75
BRANCH  74  82
ATOM     82  N   UNL A   1      29.496  28.532  23.921  1.00  0.00    -0.372 N 
ATOM     83  H   UNL A   1      29.221  28.482  24.865  1.00  0.00     0.161 HD
BRANCH  82  84
ATOM     84  C   UNL A   1      29.106  29.619  23.153  1.00  0.00     0.036 A 
ATOM     85  C   UNL A   1      28.425  29.389  21.954  1.00  0.00     0.027 A 
ATOM     86  C   UNL A   1      29.329  30.948  23.539  1.00  0.00     0.043 A 
ATOM     87  C   UNL A   1      27.968  30.450  21.167  1.00  0.00     0.024 A 
ATOM     88  C   UNL A   1      28.875  32.018  22.757  1.00  0.00     0.038 A 
ATOM     89  C   UNL A   1      28.190  31.768  21.566  1.00  0.00     0.055 A 
ATOM     90  Br  UNL A   1      29.227  33.775  23.390  1.00  0.00    -0.049 Br
ATOM     91  Cl  UNL A   1      27.599  33.027  20.543  1.00  0.00    -0.083 Cl
ENDBRANCH  82  84
ENDBRANCH  74  82
ENDBRANCH  72  74
ENDBRANCH  71  72
ENDBRANCH  70  71
ENDBRANCH  69  70
ENDBRANCH  68  69
ENDBRANCH  67  68
ENDBRANCH  66  67
ENDBRANCH   1  66
TORSDOF 24
ENDMDL
