MODEL 1
REMARK VINA RESULT:     -10.7      0.000      0.000
REMARK SMILES C[C@@H](c1ccccn1)S(=O)(=O)N1CC[NH2+]C[C@@H]1C(=O)OCCOCCOCCOCCOC(=O)c1ccc(-c2c3nc(c(-c4c(F)cccc4F)c4ccc([nH]4)c(-c4c(F)cccc4F)c4nc(c(-c5c(F)cccc5F)c5ccc2[nH]5)C=C4)C=C3)cc1
REMARK SMILES IDX 25 1 24 2 23 3 22 4 21 5 20 6 18 7 19 8 17 9 12 10 13 11
REMARK SMILES IDX 14 12 16 13 15 14 9 17 10 18 11 19 2 20 1 21 3 22 4 23 8 24
REMARK SMILES IDX 5 25 7 26 6 27 26 28 27 29 28 30 29 31 30 32 31 33 32 34
REMARK SMILES IDX 33 35 34 36 35 37 36 38 88 39 37 40 87 41 38 42 39 43 40 44
REMARK SMILES IDX 81 45 41 46 86 47 80 48 82 49 42 50 85 51 79 52 78 53 43 55
REMARK SMILES IDX 69 56 52 57 68 58 53 59 56 60 67 61 83 62 54 63 55 64 66 66
REMARK SMILES IDX 84 67 57 68 44 69 45 70 50 71 46 72 47 73 49 74 51 75 48 76
REMARK SMILES IDX 70 77 71 78 76 79 72 80 73 81 75 82 77 83 74 84 58 85 59 86
REMARK SMILES IDX 64 87 60 88 61 89 63 90 65 91 62 92
REMARK H PARENT 15 15 15 16 82 54 56 65
REMARK Flexibility Score: inf
ROOT
ATOM      1  C   UNL A   1      40.243  21.789  26.873  1.00  0.00     0.188 C 
ENDROOT
BRANCH   1   2
ATOM      2  C   UNL A   1      39.075  22.518  26.170  1.00  0.00     0.188 C 
BRANCH   2   3
ATOM      3  O   UNL A   1      38.109  21.821  25.390  1.00  0.00    -0.376 OA
BRANCH   3   4
ATOM      4  C   UNL A   1      36.741  22.191  25.336  1.00  0.00     0.202 C 
BRANCH   4   5
ATOM      5  C   UNL A   1      36.276  23.626  25.617  1.00  0.00     0.261 C 
BRANCH   5   6
ATOM      6  O   UNL A   1      35.524  24.236  24.570  1.00  0.00    -0.462 OA
BRANCH   6   7
ATOM      7  C   UNL A   1      34.351  24.825  24.923  1.00  0.00     0.330 C 
ATOM      8  O   UNL A   1      34.147  26.032  24.872  1.00  0.00    -0.250 OA
BRANCH   7   9
ATOM      9  C   UNL A   1      33.295  23.761  25.293  1.00  0.00     0.237 C 
ATOM     10  N   UNL A   1      33.061  22.836  24.139  1.00  0.00    -0.176 NA
ATOM     11  C   UNL A   1      32.407  23.621  23.024  1.00  0.00     0.164 C 
ATOM     12  C   UNL A   1      31.133  24.363  23.501  1.00  0.00     0.277 C 
ATOM     13  C   UNL A   1      31.975  24.424  25.760  1.00  0.00     0.293 C 
ATOM     14  N   UNL A   1      31.295  25.197  24.707  1.00  0.00    -0.343 N 
ATOM     15  H   UNL A   1      30.376  25.490  25.042  1.00  0.00     0.346 HD
ATOM     16  H   UNL A   1      31.854  26.019  24.477  1.00  0.00     0.346 HD
BRANCH  10  17
ATOM     17  S   UNL A   1      32.380  21.311  24.405  1.00  0.00     0.223 S 
ATOM     18  O   UNL A   1      32.166  20.760  23.078  1.00  0.00    -0.211 OA
ATOM     19  O   UNL A   1      31.218  21.489  25.249  1.00  0.00    -0.211 OA
BRANCH  17  20
ATOM     20  C   UNL A   1      33.580  20.212  25.223  1.00  0.00     0.170 C 
ATOM     21  C   UNL A   1      33.676  20.522  26.722  1.00  0.00     0.033 C 
BRANCH  20  22
ATOM     22  C   UNL A   1      33.483  18.719  24.935  1.00  0.00     0.060 A 
ATOM     23  C   UNL A   1      34.334  17.969  24.129  1.00  0.00     0.025 A 
ATOM     24  N   UNL A   1      32.530  18.073  25.667  1.00  0.00    -0.260 NA
ATOM     25  C   UNL A   1      34.153  16.587  24.002  1.00  0.00     0.004 A 
ATOM     26  C   UNL A   1      32.408  16.728  25.582  1.00  0.00     0.111 A 
ATOM     27  C   UNL A   1      33.179  15.948  24.749  1.00  0.00     0.020 A 
ENDBRANCH  20  22
ENDBRANCH  17  20
ENDBRANCH  10  17
ENDBRANCH   7   9
ENDBRANCH   6   7
ENDBRANCH   5   6
ENDBRANCH   4   5
ENDBRANCH   3   4
ENDBRANCH   2   3
ENDBRANCH   1   2
BRANCH   1  28
ATOM     28  O   UNL A   1      41.175  21.194  25.991  1.00  0.00    -0.377 OA
BRANCH  28  29
ATOM     29  C   UNL A   1      41.526  19.845  26.285  1.00  0.00     0.188 C 
BRANCH  29  30
ATOM     30  C   UNL A   1      42.924  19.358  25.844  1.00  0.00     0.188 C 
BRANCH  30  31
ATOM     31  O   UNL A   1      43.479  20.102  24.767  1.00  0.00    -0.376 OA
BRANCH  31  32
ATOM     32  C   UNL A   1      44.540  21.006  25.025  1.00  0.00     0.202 C 
BRANCH  32  33
ATOM     33  C   UNL A   1      44.610  22.274  24.160  1.00  0.00     0.261 C 
BRANCH  33  34
ATOM     34  O   UNL A   1      43.859  23.401  24.633  1.00  0.00    -0.460 OA
BRANCH  34  35
ATOM     35  C   UNL A   1      44.563  24.478  25.033  1.00  0.00     0.338 C 
ATOM     36  O   UNL A   1      45.654  24.836  24.614  1.00  0.00    -0.246 OA
BRANCH  35  37
ATOM     37  C   UNL A   1      43.710  25.290  25.922  1.00  0.00     0.060 A 
ATOM     38  C   UNL A   1      44.072  26.623  26.153  1.00  0.00     0.016 A 
ATOM     39  C   UNL A   1      42.576  24.748  26.533  1.00  0.00     0.016 A 
ATOM     40  C   UNL A   1      43.333  27.401  27.040  1.00  0.00     0.010 A 
ATOM     41  C   UNL A   1      41.847  25.525  27.441  1.00  0.00     0.010 A 
ATOM     42  C   UNL A   1      42.251  26.840  27.731  1.00  0.00    -0.014 A 
BRANCH  42  43
ATOM     43  C   UNL A   1      41.697  27.576  28.893  1.00  0.00     0.031 A 
ATOM     44  C   UNL A   1      42.406  27.464  30.217  1.00  0.00     0.074 A 
ATOM     45  C   UNL A   1      40.648  28.406  28.754  1.00  0.00     0.049 A 
ATOM     46  N   UNL A   1      42.142  28.055  31.354  1.00  0.00    -0.248 NA
ATOM     47  C   UNL A   1      43.576  26.570  30.262  1.00  0.00     0.031 C 
ATOM     48  C   UNL A   1      39.905  28.630  27.515  1.00  0.00     0.029 A 
ATOM     49  N   UNL A   1      40.033  29.223  29.668  1.00  0.00    -0.354 N 
ATOM     50  C   UNL A   1      43.119  27.618  32.241  1.00  0.00     0.074 A 
ATOM     51  C   UNL A   1      43.949  26.674  31.528  1.00  0.00     0.031 C 
ATOM     52  C   UNL A   1      38.929  29.525  27.748  1.00  0.00     0.029 A 
ATOM     53  C   UNL A   1      38.963  29.917  29.157  1.00  0.00     0.049 A 
ATOM     54  H   UNL A   1      40.330  29.305  30.604  1.00  0.00     0.167 HD
ATOM     55  C   UNL A   1      43.322  27.989  33.527  1.00  0.00     0.037 A 
ATOM     56  C   UNL A   1      38.104  30.758  29.763  1.00  0.00     0.037 A 
ATOM     57  C   UNL A   1      42.489  28.919  34.242  1.00  0.00     0.049 A 
ATOM     58  C   UNL A   1      38.302  31.084  31.223  1.00  0.00     0.074 A 
ATOM     59  C   UNL A   1      42.597  29.343  35.555  1.00  0.00     0.029 A 
ATOM     60  N   UNL A   1      41.388  29.567  33.701  1.00  0.00    -0.354 N 
ATOM     61  N   UNL A   1      39.239  30.680  32.045  1.00  0.00    -0.248 NA
ATOM     62  C   UNL A   1      37.325  31.998  31.834  1.00  0.00     0.031 C 
ATOM     63  C   UNL A   1      41.534  30.212  35.823  1.00  0.00     0.029 A 
ATOM     64  C   UNL A   1      40.800  30.376  34.660  1.00  0.00     0.049 A 
ATOM     65  H   UNL A   1      41.072  29.467  32.774  1.00  0.00     0.167 HD
ATOM     66  C   UNL A   1      38.985  31.313  33.256  1.00  0.00     0.074 A 
ATOM     67  C   UNL A   1      37.821  32.150  33.052  1.00  0.00     0.031 C 
ATOM     68  C   UNL A   1      39.647  31.211  34.436  1.00  0.00     0.037 A 
BRANCH  55  69
ATOM     69  C   UNL A   1      44.493  27.382  34.247  1.00  0.00     0.057 A 
ATOM     70  C   UNL A   1      44.388  26.159  34.923  1.00  0.00     0.134 A 
ATOM     71  C   UNL A   1      45.748  28.001  34.225  1.00  0.00     0.134 A 
ATOM     72  F   UNL A   1      43.210  25.522  34.998  1.00  0.00    -0.206 F 
ATOM     73  C   UNL A   1      45.487  25.582  35.563  1.00  0.00     0.040 A 
ATOM     74  C   UNL A   1      46.860  27.421  34.837  1.00  0.00     0.040 A 
ATOM     75  F   UNL A   1      45.919  29.174  33.595  1.00  0.00    -0.206 F 
ATOM     76  C   UNL A   1      46.729  26.209  35.512  1.00  0.00     0.006 A 
ENDBRANCH  55  69
BRANCH  56  77
ATOM     77  C   UNL A   1      36.957  31.338  29.014  1.00  0.00     0.057 A 
ATOM     78  C   UNL A   1      36.958  32.671  28.586  1.00  0.00     0.134 A 
ATOM     79  C   UNL A   1      35.799  30.588  28.771  1.00  0.00     0.134 A 
ATOM     80  F   UNL A   1      38.027  33.452  28.807  1.00  0.00    -0.206 F 
ATOM     81  C   UNL A   1      35.838  33.248  27.980  1.00  0.00     0.040 A 
ATOM     82  C   UNL A   1      34.687  31.141  28.136  1.00  0.00     0.040 A 
ATOM     83  F   UNL A   1      35.732  29.304  29.151  1.00  0.00    -0.206 F 
ATOM     84  C   UNL A   1      34.699  32.480  27.752  1.00  0.00     0.006 A 
ENDBRANCH  56  77
BRANCH  68  85
ATOM     85  C   UNL A   1      39.155  32.060  35.575  1.00  0.00     0.057 A 
ATOM     86  C   UNL A   1      38.307  31.555  36.569  1.00  0.00     0.134 A 
ATOM     87  C   UNL A   1      39.545  33.402  35.682  1.00  0.00     0.134 A 
ATOM     88  F   UNL A   1      37.889  30.280  36.523  1.00  0.00    -0.206 F 
ATOM     89  C   UNL A   1      37.828  32.364  37.600  1.00  0.00     0.040 A 
ATOM     90  C   UNL A   1      39.101  34.211  36.728  1.00  0.00     0.040 A 
ATOM     91  F   UNL A   1      40.369  33.949  34.775  1.00  0.00    -0.206 F 
ATOM     92  C   UNL A   1      38.228  33.696  37.685  1.00  0.00     0.006 A 
ENDBRANCH  68  85
ENDBRANCH  42  43
ENDBRANCH  35  37
ENDBRANCH  34  35
ENDBRANCH  33  34
ENDBRANCH  32  33
ENDBRANCH  31  32
ENDBRANCH  30  31
ENDBRANCH  29  30
ENDBRANCH  28  29
ENDBRANCH   1  28
TORSDOF 23
ENDMDL
MODEL 2
REMARK VINA RESULT:     -10.6      1.352      3.385
REMARK SMILES C[C@@H](c1ccccn1)S(=O)(=O)N1CC[NH2+]C[C@@H]1C(=O)OCCOCCOCCOCCOC(=O)c1ccc(-c2c3nc(c(-c4c(F)cccc4F)c4ccc([nH]4)c(-c4c(F)cccc4F)c4nc(c(-c5c(F)cccc5F)c5ccc2[nH]5)C=C4)C=C3)cc1
REMARK SMILES IDX 25 1 24 2 23 3 22 4 21 5 20 6 18 7 19 8 17 9 12 10 13 11
REMARK SMILES IDX 14 12 16 13 15 14 9 17 10 18 11 19 2 20 1 21 3 22 4 23 8 24
REMARK SMILES IDX 5 25 7 26 6 27 26 28 27 29 28 30 29 31 30 32 31 33 32 34
REMARK SMILES IDX 33 35 34 36 35 37 36 38 88 39 37 40 87 41 38 42 39 43 40 44
REMARK SMILES IDX 81 45 41 46 86 47 80 48 82 49 42 50 85 51 79 52 78 53 43 55
REMARK SMILES IDX 69 56 52 57 68 58 53 59 56 60 67 61 83 62 54 63 55 64 66 66
REMARK SMILES IDX 84 67 57 68 44 69 45 70 50 71 46 72 47 73 49 74 51 75 48 76
REMARK SMILES IDX 70 77 71 78 76 79 72 80 73 81 75 82 77 83 74 84 58 85 59 86
REMARK SMILES IDX 64 87 60 88 61 89 63 90 65 91 62 92
REMARK H PARENT 15 15 15 16 82 54 56 65
REMARK Flexibility Score: inf
ROOT
ATOM      1  C   UNL A   1      40.055  22.291  27.070  1.00  0.00     0.188 C 
ENDROOT
BRANCH   1   2
ATOM      2  C   UNL A   1      39.133  23.496  26.774  1.00  0.00     0.188 C 
BRANCH   2   3
ATOM      3  O   UNL A   1      37.778  23.329  26.371  1.00  0.00    -0.376 OA
BRANCH   3   4
ATOM      4  C   UNL A   1      37.300  23.692  25.086  1.00  0.00     0.202 C 
BRANCH   4   5
ATOM      5  C   UNL A   1      37.044  22.649  23.990  1.00  0.00     0.261 C 
BRANCH   5   6
ATOM      6  O   UNL A   1      35.672  22.333  23.762  1.00  0.00    -0.462 OA
BRANCH   6   7
ATOM      7  C   UNL A   1      35.105  21.428  24.602  1.00  0.00     0.330 C 
ATOM      8  O   UNL A   1      35.716  20.510  25.135  1.00  0.00    -0.250 OA
BRANCH   7   9
ATOM      9  C   UNL A   1      33.625  21.779  24.865  1.00  0.00     0.237 C 
ATOM     10  N   UNL A   1      33.516  23.125  25.512  1.00  0.00    -0.176 NA
ATOM     11  C   UNL A   1      34.118  23.038  26.897  1.00  0.00     0.164 C 
ATOM     12  C   UNL A   1      33.499  21.888  27.732  1.00  0.00     0.277 C 
ATOM     13  C   UNL A   1      32.936  20.686  25.719  1.00  0.00     0.293 C 
ATOM     14  N   UNL A   1      33.483  20.564  27.082  1.00  0.00    -0.343 N 
ATOM     15  H   UNL A   1      32.900  19.927  27.625  1.00  0.00     0.346 HD
ATOM     16  H   UNL A   1      34.434  20.201  27.031  1.00  0.00     0.346 HD
BRANCH  10  17
ATOM     17  S   UNL A   1      32.059  23.979  25.443  1.00  0.00     0.223 S 
ATOM     18  O   UNL A   1      32.214  25.062  26.398  1.00  0.00    -0.211 OA
ATOM     19  O   UNL A   1      30.984  23.037  25.672  1.00  0.00    -0.211 OA
BRANCH  17  20
ATOM     20  C   UNL A   1      31.858  24.765  23.812  1.00  0.00     0.170 C 
ATOM     21  C   UNL A   1      30.450  24.525  23.256  1.00  0.00     0.033 C 
BRANCH  20  22
ATOM     22  C   UNL A   1      32.312  26.212  23.664  1.00  0.00     0.060 A 
ATOM     23  C   UNL A   1      33.623  26.678  23.654  1.00  0.00     0.025 A 
ATOM     24  N   UNL A   1      31.301  27.085  23.384  1.00  0.00    -0.260 NA
ATOM     25  C   UNL A   1      33.890  28.037  23.452  1.00  0.00     0.004 A 
ATOM     26  C   UNL A   1      31.580  28.383  23.128  1.00  0.00     0.111 A 
ATOM     27  C   UNL A   1      32.853  28.909  23.172  1.00  0.00     0.020 A 
ENDBRANCH  20  22
ENDBRANCH  17  20
ENDBRANCH  10  17
ENDBRANCH   7   9
ENDBRANCH   6   7
ENDBRANCH   5   6
ENDBRANCH   4   5
ENDBRANCH   3   4
ENDBRANCH   2   3
ENDBRANCH   1   2
BRANCH   1  28
ATOM     28  O   UNL A   1      40.232  21.409  25.979  1.00  0.00    -0.377 OA
BRANCH  28  29
ATOM     29  C   UNL A   1      40.721  20.113  26.309  1.00  0.00     0.188 C 
BRANCH  29  30
ATOM     30  C   UNL A   1      42.231  19.850  26.120  1.00  0.00     0.188 C 
BRANCH  30  31
ATOM     31  O   UNL A   1      42.863  20.746  25.215  1.00  0.00    -0.376 OA
BRANCH  31  32
ATOM     32  C   UNL A   1      44.249  21.009  25.356  1.00  0.00     0.202 C 
BRANCH  32  33
ATOM     33  C   UNL A   1      44.801  22.265  24.663  1.00  0.00     0.261 C 
BRANCH  33  34
ATOM     34  O   UNL A   1      44.004  23.452  24.785  1.00  0.00    -0.460 OA
BRANCH  34  35
ATOM     35  C   UNL A   1      44.653  24.592  25.089  1.00  0.00     0.338 C 
ATOM     36  O   UNL A   1      45.696  24.996  24.595  1.00  0.00    -0.246 OA
BRANCH  35  37
ATOM     37  C   UNL A   1      43.793  25.397  25.978  1.00  0.00     0.060 A 
ATOM     38  C   UNL A   1      44.154  26.727  26.227  1.00  0.00     0.016 A 
ATOM     39  C   UNL A   1      42.652  24.851  26.572  1.00  0.00     0.016 A 
ATOM     40  C   UNL A   1      43.408  27.497  27.114  1.00  0.00     0.010 A 
ATOM     41  C   UNL A   1      41.914  25.619  27.480  1.00  0.00     0.010 A 
ATOM     42  C   UNL A   1      42.318  26.931  27.788  1.00  0.00    -0.014 A 
BRANCH  42  43
ATOM     43  C   UNL A   1      41.752  27.655  28.952  1.00  0.00     0.031 A 
ATOM     44  C   UNL A   1      42.452  27.535  30.280  1.00  0.00     0.074 A 
ATOM     45  C   UNL A   1      40.701  28.483  28.812  1.00  0.00     0.049 A 
ATOM     46  N   UNL A   1      42.178  28.116  31.420  1.00  0.00    -0.248 NA
ATOM     47  C   UNL A   1      43.625  26.645  30.326  1.00  0.00     0.031 C 
ATOM     48  C   UNL A   1      39.967  28.714  27.569  1.00  0.00     0.029 A 
ATOM     49  N   UNL A   1      40.078  29.291  29.728  1.00  0.00    -0.354 N 
ATOM     50  C   UNL A   1      43.151  27.675  32.311  1.00  0.00     0.074 A 
ATOM     51  C   UNL A   1      43.989  26.739  31.595  1.00  0.00     0.031 C 
ATOM     52  C   UNL A   1      38.986  29.604  27.803  1.00  0.00     0.029 A 
ATOM     53  C   UNL A   1      39.009  29.985  29.215  1.00  0.00     0.049 A 
ATOM     54  H   UNL A   1      40.367  29.366  30.667  1.00  0.00     0.167 HD
ATOM     55  C   UNL A   1      43.343  28.036  33.601  1.00  0.00     0.037 A 
ATOM     56  C   UNL A   1      38.143  30.819  29.821  1.00  0.00     0.037 A 
ATOM     57  C   UNL A   1      42.502  28.958  34.317  1.00  0.00     0.049 A 
ATOM     58  C   UNL A   1      38.329  31.134  31.285  1.00  0.00     0.074 A 
ATOM     59  C   UNL A   1      42.599  29.372  35.634  1.00  0.00     0.029 A 
ATOM     60  N   UNL A   1      41.403  29.607  33.774  1.00  0.00    -0.354 N 
ATOM     61  N   UNL A   1      39.262  30.726  32.111  1.00  0.00    -0.248 NA
ATOM     62  C   UNL A   1      37.345  32.039  31.897  1.00  0.00     0.031 C 
ATOM     63  C   UNL A   1      41.531  30.235  35.901  1.00  0.00     0.029 A 
ATOM     64  C   UNL A   1      40.805  30.406  34.734  1.00  0.00     0.049 A 
ATOM     65  H   UNL A   1      41.093  29.513  32.844  1.00  0.00     0.167 HD
ATOM     66  C   UNL A   1      38.997  31.348  33.326  1.00  0.00     0.074 A 
ATOM     67  C   UNL A   1      37.832  32.183  33.120  1.00  0.00     0.031 C 
ATOM     68  C   UNL A   1      39.651  31.239  34.509  1.00  0.00     0.037 A 
BRANCH  55  69
ATOM     69  C   UNL A   1      44.510  27.427  34.324  1.00  0.00     0.057 A 
ATOM     70  C   UNL A   1      45.764  28.052  34.358  1.00  0.00     0.134 A 
ATOM     71  C   UNL A   1      44.368  26.229  35.034  1.00  0.00     0.134 A 
ATOM     72  F   UNL A   1      45.973  29.194  33.684  1.00  0.00    -0.206 F 
ATOM     73  C   UNL A   1      46.837  27.499  35.059  1.00  0.00     0.040 A 
ATOM     74  C   UNL A   1      45.426  25.681  35.762  1.00  0.00     0.040 A 
ATOM     75  F   UNL A   1      43.194  25.578  35.045  1.00  0.00    -0.206 F 
ATOM     76  C   UNL A   1      46.666  26.315  35.771  1.00  0.00     0.006 A 
ENDBRANCH  55  69
BRANCH  56  77
ATOM     77  C   UNL A   1      36.999  31.401  29.069  1.00  0.00     0.057 A 
ATOM     78  C   UNL A   1      37.007  32.732  28.634  1.00  0.00     0.134 A 
ATOM     79  C   UNL A   1      35.838  30.655  28.828  1.00  0.00     0.134 A 
ATOM     80  F   UNL A   1      38.079  33.508  28.853  1.00  0.00    -0.206 F 
ATOM     81  C   UNL A   1      35.891  33.311  28.026  1.00  0.00     0.040 A 
ATOM     82  C   UNL A   1      34.729  31.210  28.190  1.00  0.00     0.040 A 
ATOM     83  F   UNL A   1      35.765  29.373  29.215  1.00  0.00    -0.206 F 
ATOM     84  C   UNL A   1      34.747  32.548  27.800  1.00  0.00     0.006 A 
ENDBRANCH  56  77
BRANCH  68  85
ATOM     85  C   UNL A   1      39.148  32.077  35.651  1.00  0.00     0.057 A 
ATOM     86  C   UNL A   1      38.260  31.574  36.610  1.00  0.00     0.134 A 
ATOM     87  C   UNL A   1      39.567  33.407  35.797  1.00  0.00     0.134 A 
ATOM     88  F   UNL A   1      37.812  30.311  36.526  1.00  0.00    -0.206 F 
ATOM     89  C   UNL A   1      37.771  32.374  37.644  1.00  0.00     0.040 A 
ATOM     90  C   UNL A   1      39.114  34.205  36.847  1.00  0.00     0.040 A 
ATOM     91  F   UNL A   1      40.430  33.950  34.924  1.00  0.00    -0.206 F 
ATOM     92  C   UNL A   1      38.202  33.693  37.767  1.00  0.00     0.006 A 
ENDBRANCH  68  85
ENDBRANCH  42  43
ENDBRANCH  35  37
ENDBRANCH  34  35
ENDBRANCH  33  34
ENDBRANCH  32  33
ENDBRANCH  31  32
ENDBRANCH  30  31
ENDBRANCH  29  30
ENDBRANCH  28  29
ENDBRANCH   1  28
TORSDOF 23
ENDMDL
MODEL 3
REMARK VINA RESULT:     -10.0      1.954      6.985
REMARK SMILES C[C@@H](c1ccccn1)S(=O)(=O)N1CC[NH2+]C[C@@H]1C(=O)OCCOCCOCCOCCOC(=O)c1ccc(-c2c3nc(c(-c4c(F)cccc4F)c4ccc([nH]4)c(-c4c(F)cccc4F)c4nc(c(-c5c(F)cccc5F)c5ccc2[nH]5)C=C4)C=C3)cc1
REMARK SMILES IDX 25 1 24 2 23 3 22 4 21 5 20 6 18 7 19 8 17 9 12 10 13 11
REMARK SMILES IDX 14 12 16 13 15 14 9 17 10 18 11 19 2 20 1 21 3 22 4 23 8 24
REMARK SMILES IDX 5 25 7 26 6 27 26 28 27 29 28 30 29 31 30 32 31 33 32 34
REMARK SMILES IDX 33 35 34 36 35 37 36 38 88 39 37 40 87 41 38 42 39 43 40 44
REMARK SMILES IDX 81 45 41 46 86 47 80 48 82 49 42 50 85 51 79 52 78 53 43 55
REMARK SMILES IDX 69 56 52 57 68 58 53 59 56 60 67 61 83 62 54 63 55 64 66 66
REMARK SMILES IDX 84 67 57 68 44 69 45 70 50 71 46 72 47 73 49 74 51 75 48 76
REMARK SMILES IDX 70 77 71 78 76 79 72 80 73 81 75 82 77 83 74 84 58 85 59 86
REMARK SMILES IDX 64 87 60 88 61 89 63 90 65 91 62 92
REMARK H PARENT 15 15 15 16 82 54 56 65
REMARK Flexibility Score: inf
ROOT
ATOM      1  C   UNL A   1      40.655  21.306  27.099  1.00  0.00     0.188 C 
ENDROOT
BRANCH   1   2
ATOM      2  C   UNL A   1      39.913  22.635  26.833  1.00  0.00     0.188 C 
BRANCH   2   3
ATOM      3  O   UNL A   1      38.592  22.670  26.300  1.00  0.00    -0.376 OA
BRANCH   3   4
ATOM      4  C   UNL A   1      37.883  21.507  25.905  1.00  0.00     0.202 C 
BRANCH   4   5
ATOM      5  C   UNL A   1      37.253  21.374  24.513  1.00  0.00     0.261 C 
BRANCH   5   6
ATOM      6  O   UNL A   1      36.001  22.036  24.348  1.00  0.00    -0.462 OA
BRANCH   6   7
ATOM      7  C   UNL A   1      35.918  22.946  23.342  1.00  0.00     0.330 C 
ATOM      8  O   UNL A   1      36.883  23.367  22.716  1.00  0.00    -0.250 OA
BRANCH   7   9
ATOM      9  C   UNL A   1      34.444  23.291  23.038  1.00  0.00     0.237 C 
ATOM     10  N   UNL A   1      34.228  24.770  23.119  1.00  0.00    -0.176 NA
ATOM     11  C   UNL A   1      34.409  25.201  24.557  1.00  0.00     0.164 C 
ATOM     12  C   UNL A   1      33.522  24.383  25.529  1.00  0.00     0.277 C 
ATOM     13  C   UNL A   1      33.486  22.528  23.988  1.00  0.00     0.293 C 
ATOM     14  N   UNL A   1      33.620  22.916  25.402  1.00  0.00    -0.343 N 
ATOM     15  H   UNL A   1      32.876  22.479  25.946  1.00  0.00     0.346 HD
ATOM     16  H   UNL A   1      34.527  22.607  25.752  1.00  0.00     0.346 HD
BRANCH  10  17
ATOM     17  S   UNL A   1      32.895  25.470  22.349  1.00  0.00     0.223 S 
ATOM     18  O   UNL A   1      31.797  24.550  22.590  1.00  0.00    -0.211 OA
ATOM     19  O   UNL A   1      33.263  25.724  20.973  1.00  0.00    -0.211 OA
BRANCH  17  20
ATOM     20  C   UNL A   1      32.435  27.031  23.168  1.00  0.00     0.170 C 
ATOM     21  C   UNL A   1      33.412  28.153  22.799  1.00  0.00     0.033 C 
BRANCH  20  22
ATOM     22  C   UNL A   1      30.978  27.469  23.090  1.00  0.00     0.060 A 
ATOM     23  C   UNL A   1      29.897  26.889  23.745  1.00  0.00     0.025 A 
ATOM     24  N   UNL A   1      30.783  28.631  22.399  1.00  0.00    -0.260 NA
ATOM     25  C   UNL A   1      28.616  27.438  23.621  1.00  0.00     0.004 A 
ATOM     26  C   UNL A   1      29.550  29.184  22.342  1.00  0.00     0.111 A 
ATOM     27  C   UNL A   1      28.435  28.614  22.915  1.00  0.00     0.020 A 
ENDBRANCH  20  22
ENDBRANCH  17  20
ENDBRANCH  10  17
ENDBRANCH   7   9
ENDBRANCH   6   7
ENDBRANCH   5   6
ENDBRANCH   4   5
ENDBRANCH   3   4
ENDBRANCH   2   3
ENDBRANCH   1   2
BRANCH   1  28
ATOM     28  O   UNL A   1      41.355  20.794  25.982  1.00  0.00    -0.377 OA
BRANCH  28  29
ATOM     29  C   UNL A   1      41.792  19.444  26.095  1.00  0.00     0.188 C 
BRANCH  29  30
ATOM     30  C   UNL A   1      43.260  19.134  25.728  1.00  0.00     0.188 C 
BRANCH  30  31
ATOM     31  O   UNL A   1      43.764  19.921  24.657  1.00  0.00    -0.376 OA
BRANCH  31  32
ATOM     32  C   UNL A   1      44.538  21.072  24.948  1.00  0.00     0.202 C 
BRANCH  32  33
ATOM     33  C   UNL A   1      43.966  22.433  24.518  1.00  0.00     0.261 C 
BRANCH  33  34
ATOM     34  O   UNL A   1      43.618  23.332  25.580  1.00  0.00    -0.460 OA
BRANCH  34  35
ATOM     35  C   UNL A   1      44.176  24.558  25.547  1.00  0.00     0.338 C 
ATOM     36  O   UNL A   1      45.019  24.958  24.757  1.00  0.00    -0.246 OA
BRANCH  35  37
ATOM     37  C   UNL A   1      43.454  25.426  26.497  1.00  0.00     0.060 A 
ATOM     38  C   UNL A   1      43.796  26.783  26.548  1.00  0.00     0.016 A 
ATOM     39  C   UNL A   1      42.463  24.914  27.338  1.00  0.00     0.016 A 
ATOM     40  C   UNL A   1      43.187  27.620  27.478  1.00  0.00     0.010 A 
ATOM     41  C   UNL A   1      41.868  25.751  28.289  1.00  0.00     0.010 A 
ATOM     42  C   UNL A   1      42.261  27.097  28.391  1.00  0.00    -0.014 A 
BRANCH  42  43
ATOM     43  C   UNL A   1      41.882  27.921  29.564  1.00  0.00     0.031 A 
ATOM     44  C   UNL A   1      40.667  28.805  29.457  1.00  0.00     0.074 A 
ATOM     45  C   UNL A   1      42.540  27.812  30.732  1.00  0.00     0.049 A 
ATOM     46  N   UNL A   1      40.113  29.570  30.363  1.00  0.00    -0.248 NA
ATOM     47  C   UNL A   1      39.981  28.822  28.154  1.00  0.00     0.031 C 
ATOM     48  C   UNL A   1      43.705  26.961  30.971  1.00  0.00     0.029 A 
ATOM     49  N   UNL A   1      42.312  28.418  31.942  1.00  0.00    -0.354 N 
ATOM     50  C   UNL A   1      39.007  30.143  29.745  1.00  0.00     0.074 A 
ATOM     51  C   UNL A   1      38.998  29.681  28.375  1.00  0.00     0.031 C 
ATOM     52  C   UNL A   1      44.092  27.102  32.251  1.00  0.00     0.029 A 
ATOM     53  C   UNL A   1      43.220  28.071  32.912  1.00  0.00     0.049 A 
ATOM     54  H   UNL A   1      41.568  29.044  32.099  1.00  0.00     0.167 HD
ATOM     55  C   UNL A   1      38.069  30.961  30.278  1.00  0.00     0.037 A 
ATOM     56  C   UNL A   1      43.339  28.501  34.183  1.00  0.00     0.037 A 
ATOM     57  C   UNL A   1      38.084  31.431  31.638  1.00  0.00     0.049 A 
ATOM     58  C   UNL A   1      42.329  29.484  34.724  1.00  0.00     0.074 A 
ATOM     59  C   UNL A   1      37.193  32.281  32.268  1.00  0.00     0.029 A 
ATOM     60  N   UNL A   1      39.046  31.092  32.578  1.00  0.00    -0.354 N 
ATOM     61  N   UNL A   1      41.279  30.004  34.137  1.00  0.00    -0.248 NA
ATOM     62  C   UNL A   1      42.518  29.928  36.113  1.00  0.00     0.031 C 
ATOM     63  C   UNL A   1      37.640  32.494  33.575  1.00  0.00     0.029 A 
ATOM     64  C   UNL A   1      38.776  31.728  33.778  1.00  0.00     0.049 A 
ATOM     65  H   UNL A   1      39.807  30.488  32.416  1.00  0.00     0.167 HD
ATOM     66  C   UNL A   1      40.665  30.807  35.092  1.00  0.00     0.074 A 
ATOM     67  C   UNL A   1      41.446  30.683  36.304  1.00  0.00     0.031 C 
ATOM     68  C   UNL A   1      39.559  31.584  34.979  1.00  0.00     0.037 A 
BRANCH  55  69
ATOM     69  C   UNL A   1      36.947  31.404  29.383  1.00  0.00     0.057 A 
ATOM     70  C   UNL A   1      36.917  32.687  28.820  1.00  0.00     0.134 A 
ATOM     71  C   UNL A   1      35.911  30.526  29.042  1.00  0.00     0.134 A 
ATOM     72  F   UNL A   1      37.869  33.584  29.119  1.00  0.00    -0.206 F 
ATOM     73  C   UNL A   1      35.889  33.084  27.963  1.00  0.00     0.040 A 
ATOM     74  C   UNL A   1      34.894  30.901  28.164  1.00  0.00     0.040 A 
ATOM     75  F   UNL A   1      35.880  29.281  29.545  1.00  0.00    -0.206 F 
ATOM     76  C   UNL A   1      34.879  32.186  27.625  1.00  0.00     0.006 A 
ENDBRANCH  55  69
BRANCH  56  77
ATOM     77  C   UNL A   1      44.465  28.037  35.037  1.00  0.00     0.057 A 
ATOM     78  C   UNL A   1      45.723  28.651  34.990  1.00  0.00     0.134 A 
ATOM     79  C   UNL A   1      44.328  26.920  35.871  1.00  0.00     0.134 A 
ATOM     80  F   UNL A   1      45.928  29.712  34.195  1.00  0.00    -0.206 F 
ATOM     81  C   UNL A   1      46.811  28.148  35.708  1.00  0.00     0.040 A 
ATOM     82  C   UNL A   1      45.397  26.428  36.620  1.00  0.00     0.040 A 
ATOM     83  F   UNL A   1      43.150  26.287  35.966  1.00  0.00    -0.206 F 
ATOM     84  C   UNL A   1      46.648  27.034  36.528  1.00  0.00     0.006 A 
ENDBRANCH  56  77
BRANCH  68  85
ATOM     85  C   UNL A   1      39.107  32.317  36.212  1.00  0.00     0.057 A 
ATOM     86  C   UNL A   1      39.543  33.614  36.510  1.00  0.00     0.134 A 
ATOM     87  C   UNL A   1      38.214  31.716  37.110  1.00  0.00     0.134 A 
ATOM     88  F   UNL A   1      40.406  34.245  35.697  1.00  0.00    -0.206 F 
ATOM     89  C   UNL A   1      39.146  34.269  37.677  1.00  0.00     0.040 A 
ATOM     90  C   UNL A   1      37.781  32.374  38.261  1.00  0.00     0.040 A 
ATOM     91  F   UNL A   1      37.742  30.481  36.879  1.00  0.00    -0.206 F 
ATOM     92  C   UNL A   1      38.258  33.650  38.555  1.00  0.00     0.006 A 
ENDBRANCH  68  85
ENDBRANCH  42  43
ENDBRANCH  35  37
ENDBRANCH  34  35
ENDBRANCH  33  34
ENDBRANCH  32  33
ENDBRANCH  31  32
ENDBRANCH  30  31
ENDBRANCH  29  30
ENDBRANCH  28  29
ENDBRANCH   1  28
TORSDOF 23
ENDMDL
