MODEL 1
REMARK VINA RESULT:     -10.6      0.000      0.000
REMARK SMILES CCC(=O)Nc1cc(NC(=O)/C=C/C(=O)OCCOCCOCCOCCOC(=O)c2ccc(-c3c4nc(c(-c5c(F)cccc5F)c5ccc([nH]5)c(-c5c(F)cccc5F)c5nc(c(-c6c(F)cccc6F)c6ccc3[nH]6)C=C5)C=C4)cc2)ccc1C
REMARK SMILES IDX 21 1 20 2 19 3 18 4 17 5 16 6 14 7 15 8 13 9 12 10 10 11
REMARK SMILES IDX 9 12 11 14 8 15 6 16 7 17 87 18 86 19 88 20 85 21 5 22 3 23
REMARK SMILES IDX 4 24 2 26 1 27 22 28 23 29 24 30 25 31 26 32 27 33 28 34
REMARK SMILES IDX 29 35 30 36 31 37 32 38 84 39 33 40 83 41 34 42 35 43 36 44
REMARK SMILES IDX 77 45 37 46 82 47 76 48 78 49 38 50 81 51 75 52 74 53 39 55
REMARK SMILES IDX 65 56 48 57 64 58 49 59 52 60 63 61 79 62 50 63 51 64 62 66
REMARK SMILES IDX 80 67 53 68 40 69 41 70 46 71 42 72 43 73 45 74 47 75 44 76
REMARK SMILES IDX 66 77 67 78 72 79 68 80 69 81 71 82 73 83 70 84 54 85 55 86
REMARK SMILES IDX 60 87 56 88 57 89 59 90 61 91 58 92
REMARK H PARENT 9 13 5 25 78 54 52 65
REMARK Flexibility Score: inf
ROOT
ATOM      1  C   UNL A   1      37.972  21.344  24.945  1.00  0.00     0.188 C 
ENDROOT
BRANCH   1   2
ATOM      2  C   UNL A   1      36.595  20.689  25.143  1.00  0.00     0.188 C 
BRANCH   2   3
ATOM      3  O   UNL A   1      35.756  21.394  26.053  1.00  0.00    -0.376 OA
BRANCH   3   4
ATOM      4  C   UNL A   1      34.392  21.374  25.655  1.00  0.00     0.202 C 
BRANCH   4   5
ATOM      5  C   UNL A   1      33.469  21.737  26.803  1.00  0.00     0.261 C 
BRANCH   5   6
ATOM      6  O   UNL A   1      32.081  21.831  26.448  1.00  0.00    -0.460 OA
BRANCH   6   7
ATOM      7  C   UNL A   1      31.401  22.956  26.386  1.00  0.00     0.331 C 
ATOM      8  O   UNL A   1      30.627  23.365  27.261  1.00  0.00    -0.247 OA
BRANCH   7   9
ATOM      9  C   UNL A   1      31.511  23.592  25.077  1.00  0.00     0.099 C 
ATOM     10  C   UNL A   1      32.475  24.509  25.025  1.00  0.00     0.079 C 
BRANCH  10  11
ATOM     11  C   UNL A   1      33.321  24.677  23.844  1.00  0.00     0.248 C 
ATOM     12  N   UNL A   1      33.628  25.900  23.302  1.00  0.00    -0.322 N 
ATOM     13  H   UNL A   1      34.084  25.808  22.434  1.00  0.00     0.170 HD
ATOM     14  O   UNL A   1      33.720  23.658  23.276  1.00  0.00    -0.270 OA
BRANCH  12  15
ATOM     15  C   UNL A   1      33.458  27.263  23.664  1.00  0.00     0.043 A 
ATOM     16  C   UNL A   1      32.117  29.305  23.716  1.00  0.00     0.046 A 
ATOM     17  C   UNL A   1      32.674  28.213  23.018  1.00  0.00     0.052 A 
ATOM     18  C   UNL A   1      32.526  29.557  25.027  1.00  0.00    -0.027 A 
ATOM     19  C   UNL A   1      33.585  28.798  25.539  1.00  0.00     0.008 A 
ATOM     20  C   UNL A   1      31.793  30.468  25.973  1.00  0.00     0.046 C 
ATOM     21  C   UNL A   1      34.026  27.646  24.876  1.00  0.00     0.026 A 
BRANCH  16  22
ATOM     22  N   UNL A   1      30.810  29.647  23.343  1.00  0.00    -0.326 N 
ATOM     23  C   UNL A   1      29.755  28.917  22.884  1.00  0.00     0.224 C 
ATOM     24  O   UNL A   1      29.041  29.375  21.987  1.00  0.00    -0.275 OA
ATOM     25  H   UNL A   1      30.615  30.608  23.432  1.00  0.00     0.169 HD
BRANCH  23  26
ATOM     26  C   UNL A   1      29.379  27.663  23.604  1.00  0.00     0.097 C 
ATOM     27  C   UNL A   1      27.907  27.380  23.499  1.00  0.00     0.014 C 
ENDBRANCH  23  26
ENDBRANCH  16  22
ENDBRANCH  12  15
ENDBRANCH  10  11
ENDBRANCH   7   9
ENDBRANCH   6   7
ENDBRANCH   5   6
ENDBRANCH   4   5
ENDBRANCH   3   4
ENDBRANCH   2   3
ENDBRANCH   1   2
BRANCH   1  28
ATOM     28  O   UNL A   1      38.729  21.697  26.095  1.00  0.00    -0.377 OA
BRANCH  28  29
ATOM     29  C   UNL A   1      40.050  21.190  26.235  1.00  0.00     0.188 C 
BRANCH  29  30
ATOM     30  C   UNL A   1      40.259  19.685  26.129  1.00  0.00     0.188 C 
BRANCH  30  31
ATOM     31  O   UNL A   1      41.506  19.450  25.482  1.00  0.00    -0.376 OA
BRANCH  31  32
ATOM     32  C   UNL A   1      42.491  18.781  26.264  1.00  0.00     0.202 C 
BRANCH  32  33
ATOM     33  C   UNL A   1      43.818  18.552  25.528  1.00  0.00     0.261 C 
BRANCH  33  34
ATOM     34  O   UNL A   1      44.052  19.648  24.620  1.00  0.00    -0.460 OA
BRANCH  34  35
ATOM     35  C   UNL A   1      44.873  20.624  25.068  1.00  0.00     0.338 C 
ATOM     36  O   UNL A   1      46.002  20.446  25.550  1.00  0.00    -0.246 OA
BRANCH  35  37
ATOM     37  C   UNL A   1      44.122  21.895  25.226  1.00  0.00     0.060 A 
ATOM     38  C   UNL A   1      44.217  22.902  24.249  1.00  0.00     0.016 A 
ATOM     39  C   UNL A   1      43.644  22.209  26.494  1.00  0.00     0.016 A 
ATOM     40  C   UNL A   1      43.987  24.243  24.588  1.00  0.00     0.010 A 
ATOM     41  C   UNL A   1      43.548  23.536  26.850  1.00  0.00     0.010 A 
ATOM     42  C   UNL A   1      43.729  24.571  25.917  1.00  0.00    -0.014 A 
BRANCH  42  43
ATOM     43  C   UNL A   1      43.775  25.929  26.495  1.00  0.00     0.031 A 
ATOM     44  C   UNL A   1      42.471  26.665  26.703  1.00  0.00     0.074 A 
ATOM     45  C   UNL A   1      44.928  26.275  27.124  1.00  0.00     0.049 A 
ATOM     46  N   UNL A   1      42.313  27.834  27.230  1.00  0.00    -0.248 NA
ATOM     47  C   UNL A   1      41.178  26.100  26.310  1.00  0.00     0.031 C 
ATOM     48  C   UNL A   1      45.070  27.174  28.254  1.00  0.00     0.029 A 
ATOM     49  N   UNL A   1      46.226  25.823  26.976  1.00  0.00    -0.354 N 
ATOM     50  C   UNL A   1      40.967  28.002  27.575  1.00  0.00     0.074 A 
ATOM     51  C   UNL A   1      40.304  26.940  26.870  1.00  0.00     0.031 C 
ATOM     52  C   UNL A   1      46.327  27.214  28.721  1.00  0.00     0.029 A 
ATOM     53  C   UNL A   1      47.122  26.652  27.673  1.00  0.00     0.049 A 
ATOM     54  H   UNL A   1      46.488  25.030  26.456  1.00  0.00     0.167 HD
ATOM     55  C   UNL A   1      40.605  28.928  28.528  1.00  0.00     0.037 A 
ATOM     56  C   UNL A   1      47.980  27.446  26.966  1.00  0.00     0.037 A 
ATOM     57  C   UNL A   1      41.787  29.725  28.946  1.00  0.00     0.049 A 
ATOM     58  C   UNL A   1      47.471  28.907  26.926  1.00  0.00     0.074 A 
ATOM     59  C   UNL A   1      42.358  30.058  30.163  1.00  0.00     0.029 A 
ATOM     60  N   UNL A   1      42.713  30.154  27.985  1.00  0.00    -0.354 N 
ATOM     61  N   UNL A   1      46.192  29.240  27.008  1.00  0.00    -0.248 NA
ATOM     62  C   UNL A   1      48.330  30.086  27.079  1.00  0.00     0.031 C 
ATOM     63  C   UNL A   1      43.694  30.504  29.920  1.00  0.00     0.029 A 
ATOM     64  C   UNL A   1      43.910  30.541  28.549  1.00  0.00     0.049 A 
ATOM     65  H   UNL A   1      42.530  30.175  27.017  1.00  0.00     0.167 HD
ATOM     66  C   UNL A   1      46.062  30.568  27.345  1.00  0.00     0.074 A 
ATOM     67  C   UNL A   1      47.432  31.060  27.328  1.00  0.00     0.031 C 
ATOM     68  C   UNL A   1      44.924  31.221  27.754  1.00  0.00     0.037 A 
BRANCH  55  69
ATOM     69  C   UNL A   1      39.239  29.019  29.278  1.00  0.00     0.057 A 
ATOM     70  C   UNL A   1      38.067  29.475  28.621  1.00  0.00     0.134 A 
ATOM     71  C   UNL A   1      39.004  28.752  30.647  1.00  0.00     0.134 A 
ATOM     72  F   UNL A   1      38.049  29.718  27.305  1.00  0.00    -0.206 F 
ATOM     73  C   UNL A   1      36.828  29.700  29.265  1.00  0.00     0.040 A 
ATOM     74  C   UNL A   1      37.760  28.935  31.294  1.00  0.00     0.040 A 
ATOM     75  F   UNL A   1      39.952  28.303  31.469  1.00  0.00    -0.206 F 
ATOM     76  C   UNL A   1      36.668  29.430  30.611  1.00  0.00     0.006 A 
ENDBRANCH  55  69
BRANCH  56  77
ATOM     77  C   UNL A   1      48.826  26.532  26.112  1.00  0.00     0.057 A 
ATOM     78  C   UNL A   1      48.638  26.790  24.725  1.00  0.00     0.134 A 
ATOM     79  C   UNL A   1      50.152  26.255  26.494  1.00  0.00     0.134 A 
ATOM     80  F   UNL A   1      47.403  27.048  24.263  1.00  0.00    -0.206 F 
ATOM     81  C   UNL A   1      49.709  27.100  23.870  1.00  0.00     0.040 A 
ATOM     82  C   UNL A   1      51.234  26.525  25.624  1.00  0.00     0.040 A 
ATOM     83  F   UNL A   1      50.446  25.978  27.772  1.00  0.00    -0.206 F 
ATOM     84  C   UNL A   1      51.015  27.023  24.339  1.00  0.00     0.006 A 
ENDBRANCH  56  77
BRANCH  68  85
ATOM     85  C   UNL A   1      44.629  32.683  27.446  1.00  0.00     0.057 A 
ATOM     86  C   UNL A   1      44.153  33.108  26.202  1.00  0.00     0.134 A 
ATOM     87  C   UNL A   1      44.547  33.660  28.478  1.00  0.00     0.134 A 
ATOM     88  F   UNL A   1      44.090  32.280  25.151  1.00  0.00    -0.206 F 
ATOM     89  C   UNL A   1      43.649  34.398  25.993  1.00  0.00     0.040 A 
ATOM     90  C   UNL A   1      43.994  34.927  28.292  1.00  0.00     0.040 A 
ATOM     91  F   UNL A   1      44.949  33.429  29.734  1.00  0.00    -0.206 F 
ATOM     92  C   UNL A   1      43.546  35.303  27.042  1.00  0.00     0.006 A 
ENDBRANCH  68  85
ENDBRANCH  42  43
ENDBRANCH  35  37
ENDBRANCH  34  35
ENDBRANCH  33  34
ENDBRANCH  32  33
ENDBRANCH  31  32
ENDBRANCH  30  31
ENDBRANCH  29  30
ENDBRANCH  28  29
ENDBRANCH   1  28
TORSDOF 24
ENDMDL
MODEL 2
REMARK VINA RESULT:     -10.5      1.143      2.060
REMARK SMILES CCC(=O)Nc1cc(NC(=O)/C=C/C(=O)OCCOCCOCCOCCOC(=O)c2ccc(-c3c4nc(c(-c5c(F)cccc5F)c5ccc([nH]5)c(-c5c(F)cccc5F)c5nc(c(-c6c(F)cccc6F)c6ccc3[nH]6)C=C5)C=C4)cc2)ccc1C
REMARK SMILES IDX 21 1 20 2 19 3 18 4 17 5 16 6 14 7 15 8 13 9 12 10 10 11
REMARK SMILES IDX 9 12 11 14 8 15 6 16 7 17 87 18 86 19 88 20 85 21 5 22 3 23
REMARK SMILES IDX 4 24 2 26 1 27 22 28 23 29 24 30 25 31 26 32 27 33 28 34
REMARK SMILES IDX 29 35 30 36 31 37 32 38 84 39 33 40 83 41 34 42 35 43 36 44
REMARK SMILES IDX 77 45 37 46 82 47 76 48 78 49 38 50 81 51 75 52 74 53 39 55
REMARK SMILES IDX 65 56 48 57 64 58 49 59 52 60 63 61 79 62 50 63 51 64 62 66
REMARK SMILES IDX 80 67 53 68 40 69 41 70 46 71 42 72 43 73 45 74 47 75 44 76
REMARK SMILES IDX 66 77 67 78 72 79 68 80 69 81 71 82 73 83 70 84 54 85 55 86
REMARK SMILES IDX 60 87 56 88 57 89 59 90 61 91 58 92
REMARK H PARENT 9 13 5 25 78 54 52 65
REMARK Flexibility Score: inf
ROOT
ATOM      1  C   UNL A   1      38.203  22.439  25.582  1.00  0.00     0.188 C 
ENDROOT
BRANCH   1   2
ATOM      2  C   UNL A   1      36.763  21.906  25.645  1.00  0.00     0.188 C 
BRANCH   2   3
ATOM      3  O   UNL A   1      36.601  20.629  25.033  1.00  0.00    -0.376 OA
BRANCH   3   4
ATOM      4  C   UNL A   1      35.240  20.227  24.977  1.00  0.00     0.202 C 
BRANCH   4   5
ATOM      5  C   UNL A   1      34.302  21.420  25.011  1.00  0.00     0.261 C 
BRANCH   5   6
ATOM      6  O   UNL A   1      33.687  21.734  23.752  1.00  0.00    -0.460 OA
BRANCH   6   7
ATOM      7  C   UNL A   1      33.595  22.945  23.247  1.00  0.00     0.331 C 
ATOM      8  O   UNL A   1      34.273  23.373  22.305  1.00  0.00    -0.247 OA
BRANCH   7   9
ATOM      9  C   UNL A   1      32.729  23.807  24.045  1.00  0.00     0.099 C 
ATOM     10  C   UNL A   1      31.475  23.365  24.112  1.00  0.00     0.079 C 
BRANCH  10  11
ATOM     11  C   UNL A   1      30.685  23.461  25.339  1.00  0.00     0.248 C 
ATOM     12  N   UNL A   1      30.161  24.639  25.810  1.00  0.00    -0.322 N 
ATOM     13  H   UNL A   1      29.787  24.534  26.714  1.00  0.00     0.170 HD
ATOM     14  O   UNL A   1      30.543  22.436  26.010  1.00  0.00    -0.270 OA
BRANCH  12  15
ATOM     15  C   UNL A   1      30.019  25.970  25.334  1.00  0.00     0.043 A 
ATOM     16  C   UNL A   1      30.959  28.171  24.842  1.00  0.00     0.046 A 
ATOM     17  C   UNL A   1      30.759  27.083  25.718  1.00  0.00     0.052 A 
ATOM     18  C   UNL A   1      30.231  28.230  23.651  1.00  0.00    -0.027 A 
ATOM     19  C   UNL A   1      29.225  27.278  23.451  1.00  0.00     0.008 A 
ATOM     20  C   UNL A   1      30.575  29.141  22.504  1.00  0.00     0.046 C 
ATOM     21  C   UNL A   1      29.139  26.144  24.269  1.00  0.00     0.026 A 
BRANCH  16  22
ATOM     22  N   UNL A   1      32.241  28.735  24.874  1.00  0.00    -0.326 N 
ATOM     23  C   UNL A   1      33.493  28.201  24.803  1.00  0.00     0.224 C 
ATOM     24  O   UNL A   1      34.389  28.646  25.526  1.00  0.00    -0.275 OA
ATOM     25  H   UNL A   1      32.236  29.715  24.966  1.00  0.00     0.169 HD
BRANCH  23  26
ATOM     26  C   UNL A   1      33.793  27.214  23.722  1.00  0.00     0.097 C 
ATOM     27  C   UNL A   1      33.883  27.874  22.375  1.00  0.00     0.014 C 
ENDBRANCH  23  26
ENDBRANCH  16  22
ENDBRANCH  12  15
ENDBRANCH  10  11
ENDBRANCH   7   9
ENDBRANCH   6   7
ENDBRANCH   5   6
ENDBRANCH   4   5
ENDBRANCH   3   4
ENDBRANCH   2   3
ENDBRANCH   1   2
BRANCH   1  28
ATOM     28  O   UNL A   1      39.177  21.874  26.449  1.00  0.00    -0.377 OA
BRANCH  28  29
ATOM     29  C   UNL A   1      39.893  20.721  26.026  1.00  0.00     0.188 C 
BRANCH  29  30
ATOM     30  C   UNL A   1      41.337  20.563  26.483  1.00  0.00     0.188 C 
BRANCH  30  31
ATOM     31  O   UNL A   1      41.572  19.185  26.761  1.00  0.00    -0.376 OA
BRANCH  31  32
ATOM     32  C   UNL A   1      42.751  18.632  26.185  1.00  0.00     0.202 C 
BRANCH  32  33
ATOM     33  C   UNL A   1      43.424  19.544  25.151  1.00  0.00     0.261 C 
BRANCH  33  34
ATOM     34  O   UNL A   1      44.829  19.653  25.457  1.00  0.00    -0.460 OA
BRANCH  34  35
ATOM     35  C   UNL A   1      45.439  20.787  25.046  1.00  0.00     0.338 C 
ATOM     36  O   UNL A   1      46.637  20.887  24.741  1.00  0.00    -0.246 OA
BRANCH  35  37
ATOM     37  C   UNL A   1      44.580  21.964  25.333  1.00  0.00     0.060 A 
ATOM     38  C   UNL A   1      44.340  22.927  24.335  1.00  0.00     0.016 A 
ATOM     39  C   UNL A   1      44.340  22.280  26.666  1.00  0.00     0.016 A 
ATOM     40  C   UNL A   1      44.015  24.245  24.686  1.00  0.00     0.010 A 
ATOM     41  C   UNL A   1      44.152  23.602  27.004  1.00  0.00     0.010 A 
ATOM     42  C   UNL A   1      44.000  24.604  26.032  1.00  0.00    -0.014 A 
BRANCH  42  43
ATOM     43  C   UNL A   1      43.992  25.985  26.556  1.00  0.00     0.031 A 
ATOM     44  C   UNL A   1      42.659  26.679  26.727  1.00  0.00     0.074 A 
ATOM     45  C   UNL A   1      45.125  26.398  27.179  1.00  0.00     0.049 A 
ATOM     46  N   UNL A   1      42.453  27.861  27.206  1.00  0.00    -0.248 NA
ATOM     47  C   UNL A   1      41.391  26.051  26.347  1.00  0.00     0.031 C 
ATOM     48  C   UNL A   1      45.224  27.344  28.274  1.00  0.00     0.029 A 
ATOM     49  N   UNL A   1      46.441  25.989  27.058  1.00  0.00    -0.354 N 
ATOM     50  C   UNL A   1      41.100  27.991  27.535  1.00  0.00     0.074 A 
ATOM     51  C   UNL A   1      40.482  26.879  26.868  1.00  0.00     0.031 C 
ATOM     52  C   UNL A   1      46.475  27.449  28.747  1.00  0.00     0.029 A 
ATOM     53  C   UNL A   1      47.299  26.878  27.728  1.00  0.00     0.049 A 
ATOM     54  H   UNL A   1      46.736  25.187  26.571  1.00  0.00     0.167 HD
ATOM     55  C   UNL A   1      40.695  28.940  28.448  1.00  0.00     0.037 A 
ATOM     56  C   UNL A   1      48.133  27.675  26.996  1.00  0.00     0.037 A 
ATOM     57  C   UNL A   1      41.843  29.796  28.843  1.00  0.00     0.049 A 
ATOM     58  C   UNL A   1      47.570  29.113  26.895  1.00  0.00     0.074 A 
ATOM     59  C   UNL A   1      42.391  30.197  30.050  1.00  0.00     0.029 A 
ATOM     60  N   UNL A   1      42.761  30.222  27.872  1.00  0.00    -0.354 N 
ATOM     61  N   UNL A   1      46.279  29.401  26.956  1.00  0.00    -0.248 NA
ATOM     62  C   UNL A   1      48.383  30.328  27.008  1.00  0.00     0.031 C 
ATOM     63  C   UNL A   1      43.712  30.683  29.799  1.00  0.00     0.029 A 
ATOM     64  C   UNL A   1      43.938  30.674  28.429  1.00  0.00     0.049 A 
ATOM     65  H   UNL A   1      42.585  30.198  26.903  1.00  0.00     0.167 HD
ATOM     66  C   UNL A   1      46.097  30.736  27.239  1.00  0.00     0.074 A 
ATOM     67  C   UNL A   1      47.448  31.277  27.213  1.00  0.00     0.031 C 
ATOM     68  C   UNL A   1      44.932  31.361  27.615  1.00  0.00     0.037 A 
BRANCH  55  69
ATOM     69  C   UNL A   1      39.321  29.008  29.185  1.00  0.00     0.057 A 
ATOM     70  C   UNL A   1      38.158  29.491  28.531  1.00  0.00     0.134 A 
ATOM     71  C   UNL A   1      39.069  28.694  30.541  1.00  0.00     0.134 A 
ATOM     72  F   UNL A   1      38.156  29.780  27.224  1.00  0.00    -0.206 F 
ATOM     73  C   UNL A   1      36.912  29.698  29.168  1.00  0.00     0.040 A 
ATOM     74  C   UNL A   1      37.818  28.858  31.180  1.00  0.00     0.040 A 
ATOM     75  F   UNL A   1      40.005  28.213  31.358  1.00  0.00    -0.206 F 
ATOM     76  C   UNL A   1      36.735  29.381  30.501  1.00  0.00     0.006 A 
ENDBRANCH  55  69
BRANCH  56  77
ATOM     77  C   UNL A   1      49.020  26.761  26.185  1.00  0.00     0.057 A 
ATOM     78  C   UNL A   1      48.870  26.993  24.788  1.00  0.00     0.134 A 
ATOM     79  C   UNL A   1      50.338  26.512  26.611  1.00  0.00     0.134 A 
ATOM     80  F   UNL A   1      47.646  27.222  24.284  1.00  0.00    -0.206 F 
ATOM     81  C   UNL A   1      49.962  27.306  23.961  1.00  0.00     0.040 A 
ATOM     82  C   UNL A   1      51.441  26.785  25.770  1.00  0.00     0.040 A 
ATOM     83  F   UNL A   1      50.596  26.262  27.902  1.00  0.00    -0.206 F 
ATOM     84  C   UNL A   1      51.254  27.258  24.470  1.00  0.00     0.006 A 
ENDBRANCH  56  77
BRANCH  68  85
ATOM     85  C   UNL A   1      44.586  32.797  27.248  1.00  0.00     0.057 A 
ATOM     86  C   UNL A   1      44.092  33.154  25.988  1.00  0.00     0.134 A 
ATOM     87  C   UNL A   1      44.471  33.813  28.238  1.00  0.00     0.134 A 
ATOM     88  F   UNL A   1      44.057  32.281  24.973  1.00  0.00    -0.206 F 
ATOM     89  C   UNL A   1      43.544  34.416  25.728  1.00  0.00     0.040 A 
ATOM     90  C   UNL A   1      43.874  35.051  28.003  1.00  0.00     0.040 A 
ATOM     91  F   UNL A   1      44.883  33.648  29.502  1.00  0.00    -0.206 F 
ATOM     92  C   UNL A   1      43.411  35.359  26.739  1.00  0.00     0.006 A 
ENDBRANCH  68  85
ENDBRANCH  42  43
ENDBRANCH  35  37
ENDBRANCH  34  35
ENDBRANCH  33  34
ENDBRANCH  32  33
ENDBRANCH  31  32
ENDBRANCH  30  31
ENDBRANCH  29  30
ENDBRANCH  28  29
ENDBRANCH   1  28
TORSDOF 24
ENDMDL
MODEL 3
REMARK VINA RESULT:      -9.7      5.493     11.208
REMARK SMILES CCC(=O)Nc1cc(NC(=O)/C=C/C(=O)OCCOCCOCCOCCOC(=O)c2ccc(-c3c4nc(c(-c5c(F)cccc5F)c5ccc([nH]5)c(-c5c(F)cccc5F)c5nc(c(-c6c(F)cccc6F)c6ccc3[nH]6)C=C5)C=C4)cc2)ccc1C
REMARK SMILES IDX 21 1 20 2 19 3 18 4 17 5 16 6 14 7 15 8 13 9 12 10 10 11
REMARK SMILES IDX 9 12 11 14 8 15 6 16 7 17 87 18 86 19 88 20 85 21 5 22 3 23
REMARK SMILES IDX 4 24 2 26 1 27 22 28 23 29 24 30 25 31 26 32 27 33 28 34
REMARK SMILES IDX 29 35 30 36 31 37 32 38 84 39 33 40 83 41 34 42 35 43 36 44
REMARK SMILES IDX 77 45 37 46 82 47 76 48 78 49 38 50 81 51 75 52 74 53 39 55
REMARK SMILES IDX 65 56 48 57 64 58 49 59 52 60 63 61 79 62 50 63 51 64 62 66
REMARK SMILES IDX 80 67 53 68 40 69 41 70 46 71 42 72 43 73 45 74 47 75 44 76
REMARK SMILES IDX 66 77 67 78 72 79 68 80 69 81 71 82 73 83 70 84 54 85 55 86
REMARK SMILES IDX 60 87 56 88 57 89 59 90 61 91 58 92
REMARK H PARENT 9 13 5 25 78 54 52 65
REMARK Flexibility Score: inf
ROOT
ATOM      1  C   UNL A   1      33.984  34.040  28.537  1.00  0.00     0.188 C 
ENDROOT
BRANCH   1   2
ATOM      2  C   UNL A   1      33.712  32.531  28.644  1.00  0.00     0.188 C 
BRANCH   2   3
ATOM      3  O   UNL A   1      34.896  31.745  28.744  1.00  0.00    -0.376 OA
BRANCH   3   4
ATOM      4  C   UNL A   1      35.010  30.805  27.685  1.00  0.00     0.202 C 
BRANCH   4   5
ATOM      5  C   UNL A   1      33.702  30.652  26.930  1.00  0.00     0.261 C 
BRANCH   5   6
ATOM      6  O   UNL A   1      33.661  29.537  26.026  1.00  0.00    -0.460 OA
BRANCH   6   7
ATOM      7  C   UNL A   1      32.673  28.671  25.954  1.00  0.00     0.331 C 
ATOM      8  O   UNL A   1      32.718  27.509  26.376  1.00  0.00    -0.247 OA
BRANCH   7   9
ATOM      9  C   UNL A   1      31.565  29.170  25.147  1.00  0.00     0.099 C 
ATOM     10  C   UNL A   1      31.801  29.099  23.838  1.00  0.00     0.079 C 
BRANCH  10  11
ATOM     11  C   UNL A   1      30.758  28.731  22.883  1.00  0.00     0.248 C 
ATOM     12  N   UNL A   1      30.239  27.465  22.781  1.00  0.00    -0.322 N 
ATOM     13  H   UNL A   1      29.656  27.373  21.992  1.00  0.00     0.170 HD
ATOM     14  O   UNL A   1      30.378  29.595  22.089  1.00  0.00    -0.270 OA
BRANCH  12  15
ATOM     15  C   UNL A   1      30.323  26.251  23.514  1.00  0.00     0.043 A 
ATOM     16  C   UNL A   1      31.516  24.208  24.128  1.00  0.00     0.046 A 
ATOM     17  C   UNL A   1      31.014  25.098  23.155  1.00  0.00     0.052 A 
ATOM     18  C   UNL A   1      31.136  24.371  25.461  1.00  0.00    -0.027 A 
ATOM     19  C   UNL A   1      30.152  25.325  25.750  1.00  0.00     0.008 A 
ATOM     20  C   UNL A   1      31.835  23.710  26.618  1.00  0.00     0.046 C 
ATOM     21  C   UNL A   1      29.772  26.273  24.792  1.00  0.00     0.026 A 
BRANCH  16  22
ATOM     22  N   UNL A   1      32.781  23.674  23.851  1.00  0.00    -0.326 N 
ATOM     23  C   UNL A   1      33.325  22.436  24.021  1.00  0.00     0.224 C 
ATOM     24  O   UNL A   1      34.490  22.329  24.413  1.00  0.00    -0.275 OA
ATOM     25  H   UNL A   1      33.403  24.325  23.452  1.00  0.00     0.169 HD
BRANCH  23  26
ATOM     26  C   UNL A   1      32.556  21.242  23.554  1.00  0.00     0.097 C 
ATOM     27  C   UNL A   1      32.717  20.076  24.487  1.00  0.00     0.014 C 
ENDBRANCH  23  26
ENDBRANCH  16  22
ENDBRANCH  12  15
ENDBRANCH  10  11
ENDBRANCH   7   9
ENDBRANCH   6   7
ENDBRANCH   5   6
ENDBRANCH   4   5
ENDBRANCH   3   4
ENDBRANCH   2   3
ENDBRANCH   1   2
BRANCH   1  28
ATOM     28  O   UNL A   1      33.118  34.938  29.219  1.00  0.00    -0.377 OA
BRANCH  28  29
ATOM     29  C   UNL A   1      33.024  36.283  28.769  1.00  0.00     0.188 C 
BRANCH  29  30
ATOM     30  C   UNL A   1      33.319  37.397  29.765  1.00  0.00     0.188 C 
BRANCH  30  31
ATOM     31  O   UNL A   1      32.559  37.157  30.946  1.00  0.00    -0.376 OA
BRANCH  31  32
ATOM     32  C   UNL A   1      33.217  37.454  32.174  1.00  0.00     0.202 C 
BRANCH  32  33
ATOM     33  C   UNL A   1      33.883  36.238  32.831  1.00  0.00     0.261 C 
BRANCH  33  34
ATOM     34  O   UNL A   1      33.573  35.055  32.066  1.00  0.00    -0.460 OA
BRANCH  34  35
ATOM     35  C   UNL A   1      33.888  33.875  32.646  1.00  0.00     0.338 C 
ATOM     36  O   UNL A   1      33.091  33.131  33.238  1.00  0.00    -0.246 OA
BRANCH  35  37
ATOM     37  C   UNL A   1      35.361  33.748  32.783  1.00  0.00     0.060 A 
ATOM     38  C   UNL A   1      36.187  33.801  31.645  1.00  0.00     0.016 A 
ATOM     39  C   UNL A   1      35.857  33.215  33.968  1.00  0.00     0.016 A 
ATOM     40  C   UNL A   1      37.443  33.179  31.651  1.00  0.00     0.010 A 
ATOM     41  C   UNL A   1      37.030  32.496  33.925  1.00  0.00     0.010 A 
ATOM     42  C   UNL A   1      37.834  32.452  32.774  1.00  0.00    -0.014 A 
BRANCH  42  43
ATOM     43  C   UNL A   1      38.956  31.493  32.833  1.00  0.00     0.031 A 
ATOM     44  C   UNL A   1      38.879  30.246  31.982  1.00  0.00     0.074 A 
ATOM     45  C   UNL A   1      40.119  31.961  33.355  1.00  0.00     0.049 A 
ATOM     46  N   UNL A   1      39.776  29.323  31.872  1.00  0.00    -0.248 NA
ATOM     47  C   UNL A   1      37.717  29.935  31.145  1.00  0.00     0.031 C 
ATOM     48  C   UNL A   1      41.463  31.552  32.997  1.00  0.00     0.029 A 
ATOM     49  N   UNL A   1      40.379  32.987  34.246  1.00  0.00    -0.354 N 
ATOM     50  C   UNL A   1      39.499  28.549  30.740  1.00  0.00     0.074 A 
ATOM     51  C   UNL A   1      38.148  28.909  30.407  1.00  0.00     0.031 C 
ATOM     52  C   UNL A   1      42.402  32.290  33.609  1.00  0.00     0.029 A 
ATOM     53  C   UNL A   1      41.714  32.939  34.681  1.00  0.00     0.049 A 
ATOM     54  H   UNL A   1      39.720  33.659  34.535  1.00  0.00     0.167 HD
ATOM     55  C   UNL A   1      40.496  27.810  30.143  1.00  0.00     0.037 A 
ATOM     56  C   UNL A   1      41.978  32.587  35.975  1.00  0.00     0.037 A 
ATOM     57  C   UNL A   1      41.741  27.878  30.951  1.00  0.00     0.049 A 
ATOM     58  C   UNL A   1      42.441  31.113  36.060  1.00  0.00     0.074 A 
ATOM     59  C   UNL A   1      43.065  28.179  30.680  1.00  0.00     0.029 A 
ATOM     60  N   UNL A   1      41.668  27.804  32.349  1.00  0.00    -0.354 N 
ATOM     61  N   UNL A   1      42.083  30.181  35.191  1.00  0.00    -0.248 NA
ATOM     62  C   UNL A   1      43.532  30.638  36.918  1.00  0.00     0.031 C 
ATOM     63  C   UNL A   1      43.718  28.468  31.918  1.00  0.00     0.029 A 
ATOM     64  C   UNL A   1      42.823  28.248  32.956  1.00  0.00     0.049 A 
ATOM     65  H   UNL A   1      40.881  27.475  32.841  1.00  0.00     0.167 HD
ATOM     66  C   UNL A   1      42.932  29.100  35.269  1.00  0.00     0.074 A 
ATOM     67  C   UNL A   1      43.790  29.420  36.399  1.00  0.00     0.031 C 
ATOM     68  C   UNL A   1      43.038  28.052  34.384  1.00  0.00     0.037 A 
BRANCH  55  69
ATOM     69  C   UNL A   1      40.471  27.179  28.715  1.00  0.00     0.057 A 
ATOM     70  C   UNL A   1      39.733  25.997  28.446  1.00  0.00     0.134 A 
ATOM     71  C   UNL A   1      41.192  27.618  27.581  1.00  0.00     0.134 A 
ATOM     72  F   UNL A   1      38.924  25.450  29.362  1.00  0.00    -0.206 F 
ATOM     73  C   UNL A   1      39.762  25.301  27.216  1.00  0.00     0.040 A 
ATOM     74  C   UNL A   1      41.198  26.954  26.332  1.00  0.00     0.040 A 
ATOM     75  F   UNL A   1      41.951  28.713  27.586  1.00  0.00    -0.206 F 
ATOM     76  C   UNL A   1      40.498  25.778  26.147  1.00  0.00     0.006 A 
ENDBRANCH  55  69
BRANCH  56  77
ATOM     77  C   UNL A   1      41.281  33.594  36.858  1.00  0.00     0.057 A 
ATOM     78  C   UNL A   1      40.256  32.985  37.636  1.00  0.00     0.134 A 
ATOM     79  C   UNL A   1      42.038  34.572  37.529  1.00  0.00     0.134 A 
ATOM     80  F   UNL A   1      39.469  32.051  37.076  1.00  0.00    -0.206 F 
ATOM     81  C   UNL A   1      40.226  33.078  39.038  1.00  0.00     0.040 A 
ATOM     82  C   UNL A   1      41.983  34.701  38.936  1.00  0.00     0.040 A 
ATOM     83  F   UNL A   1      43.019  35.226  36.891  1.00  0.00    -0.206 F 
ATOM     84  C   UNL A   1      41.133  33.897  39.698  1.00  0.00     0.006 A 
ENDBRANCH  56  77
BRANCH  68  85
ATOM     85  C   UNL A   1      43.402  26.632  34.793  1.00  0.00     0.057 A 
ATOM     86  C   UNL A   1      42.438  25.674  35.124  1.00  0.00     0.134 A 
ATOM     87  C   UNL A   1      44.711  26.110  34.592  1.00  0.00     0.134 A 
ATOM     88  F   UNL A   1      41.145  25.996  35.268  1.00  0.00    -0.206 F 
ATOM     89  C   UNL A   1      42.746  24.314  35.258  1.00  0.00     0.040 A 
ATOM     90  C   UNL A   1      45.015  24.752  34.666  1.00  0.00     0.040 A 
ATOM     91  F   UNL A   1      45.758  26.877  34.262  1.00  0.00    -0.206 F 
ATOM     92  C   UNL A   1      44.030  23.846  35.006  1.00  0.00     0.006 A 
ENDBRANCH  68  85
ENDBRANCH  42  43
ENDBRANCH  35  37
ENDBRANCH  34  35
ENDBRANCH  33  34
ENDBRANCH  32  33
ENDBRANCH  31  32
ENDBRANCH  30  31
ENDBRANCH  29  30
ENDBRANCH  28  29
ENDBRANCH   1  28
TORSDOF 24
ENDMDL
