MODEL 1
REMARK VINA RESULT:      -7.5      0.000      0.000
REMARK SMILES CC[C@@H](C)CN(CC)S(=O)(=O)c1cc(C(=O)OCCOCCOCCOCCOC(=O)c2ccc(-c3c4nc(c(-c5c(F)cccc5F)c5ccc([nH]5)c(-c5c(F)cccc5F)c5nc(c(-c6c(F)cccc6F)c6ccc3[nH]6)C=C5)C=C4)cc2)n(C)c1
REMARK SMILES IDX 21 1 20 2 19 3 18 4 17 5 15 6 16 7 14 8 12 9 13 10 88 11
REMARK SMILES IDX 86 12 87 13 9 14 10 15 11 16 6 17 5 18 3 19 4 20 2 21 1 22
REMARK SMILES IDX 7 23 8 24 22 25 23 26 24 27 25 28 26 29 27 30 28 31 29 32
REMARK SMILES IDX 30 33 31 34 32 35 33 36 85 37 34 38 84 39 35 40 36 41 37 42
REMARK SMILES IDX 78 43 38 44 83 45 77 46 79 47 39 48 82 49 76 50 75 51 40 53
REMARK SMILES IDX 66 54 49 55 65 56 50 57 53 58 64 59 80 60 51 61 52 62 63 64
REMARK SMILES IDX 81 65 54 66 41 67 42 68 47 69 43 70 44 71 46 72 48 73 45 74
REMARK SMILES IDX 67 75 68 76 73 77 69 78 70 79 72 80 74 81 71 82 55 83 56 84
REMARK SMILES IDX 61 85 57 86 58 87 60 88 62 89 59 90
REMARK H PARENT 79 52 53 63
REMARK Flexibility Score: inf
ROOT
ATOM      1  C   UNL A   1      34.437  32.515  28.193  1.00  0.00     0.188 C 
ENDROOT
BRANCH   1   2
ATOM      2  O   UNL A   1      33.236  31.965  27.645  1.00  0.00    -0.376 OA
BRANCH   2   3
ATOM      3  C   UNL A   1      33.340  30.651  27.104  1.00  0.00     0.202 C 
BRANCH   3   4
ATOM      4  C   UNL A   1      31.999  29.985  26.758  1.00  0.00     0.261 C 
BRANCH   4   5
ATOM      5  O   UNL A   1      32.068  29.038  25.683  1.00  0.00    -0.459 OA
BRANCH   5   6
ATOM      6  C   UNL A   1      31.077  29.064  24.763  1.00  0.00     0.355 C 
ATOM      7  O   UNL A   1      30.565  30.082  24.314  1.00  0.00    -0.244 OA
BRANCH   6   8
ATOM      8  C   UNL A   1      30.862  27.728  24.248  1.00  0.00     0.128 A 
ATOM      9  C   UNL A   1      31.186  25.515  23.785  1.00  0.00     0.101 A 
ATOM     10  C   UNL A   1      31.792  26.689  24.283  1.00  0.00     0.057 A 
ATOM     11  C   UNL A   1      29.905  25.879  23.407  1.00  0.00     0.107 A 
ATOM     12  N   UNL A   1      29.707  27.200  23.704  1.00  0.00    -0.344 N 
ATOM     13  C   UNL A   1      28.463  27.890  23.435  1.00  0.00     0.150 C 
BRANCH   9  14
ATOM     14  S   UNL A   1      31.777  23.903  23.567  1.00  0.00     0.244 S 
ATOM     15  O   UNL A   1      32.995  24.130  22.814  1.00  0.00    -0.207 OA
ATOM     16  O   UNL A   1      30.634  23.247  22.962  1.00  0.00    -0.207 OA
BRANCH  14  17
ATOM     17  N   UNL A   1      32.198  22.983  24.938  1.00  0.00    -0.198 NA
BRANCH  17  18
ATOM     18  C   UNL A   1      33.213  23.653  25.841  1.00  0.00     0.105 C 
BRANCH  18  19
ATOM     19  C   UNL A   1      34.629  23.033  25.853  1.00  0.00     0.001 C 
ATOM     20  C   UNL A   1      34.923  22.539  27.282  1.00  0.00     0.009 C 
BRANCH  19  21
ATOM     21  C   UNL A   1      35.720  24.048  25.434  1.00  0.00     0.001 C 
ATOM     22  C   UNL A   1      37.082  23.808  26.075  1.00  0.00     0.004 C 
ENDBRANCH  19  21
ENDBRANCH  18  19
ENDBRANCH  17  18
BRANCH  17  23
ATOM     23  C   UNL A   1      31.127  22.343  25.744  1.00  0.00     0.099 C 
ATOM     24  C   UNL A   1      30.486  23.267  26.762  1.00  0.00     0.022 C 
ENDBRANCH  17  23
ENDBRANCH  14  17
ENDBRANCH   9  14
ENDBRANCH   6   8
ENDBRANCH   5   6
ENDBRANCH   4   5
ENDBRANCH   3   4
ENDBRANCH   2   3
ENDBRANCH   1   2
BRANCH   1  25
ATOM     25  C   UNL A   1      34.457  32.523  29.731  1.00  0.00     0.188 C 
BRANCH  25  26
ATOM     26  O   UNL A   1      35.772  32.508  30.263  1.00  0.00    -0.377 OA
BRANCH  26  27
ATOM     27  C   UNL A   1      35.934  32.929  31.616  1.00  0.00     0.188 C 
BRANCH  27  28
ATOM     28  C   UNL A   1      36.123  31.903  32.754  1.00  0.00     0.188 C 
BRANCH  28  29
ATOM     29  O   UNL A   1      36.118  30.545  32.312  1.00  0.00    -0.376 OA
BRANCH  29  30
ATOM     30  C   UNL A   1      37.310  29.802  32.545  1.00  0.00     0.202 C 
BRANCH  30  31
ATOM     31  C   UNL A   1      37.622  28.801  31.426  1.00  0.00     0.261 C 
BRANCH  31  32
ATOM     32  O   UNL A   1      37.505  29.342  30.100  1.00  0.00    -0.460 OA
BRANCH  32  33
ATOM     33  C   UNL A   1      38.614  29.318  29.332  1.00  0.00     0.338 C 
ATOM     34  O   UNL A   1      38.873  28.548  28.425  1.00  0.00    -0.246 OA
BRANCH  33  35
ATOM     35  C   UNL A   1      39.415  30.511  29.661  1.00  0.00     0.060 A 
ATOM     36  C   UNL A   1      40.775  30.351  29.951  1.00  0.00     0.016 A 
ATOM     37  C   UNL A   1      38.821  31.775  29.694  1.00  0.00     0.016 A 
ATOM     38  C   UNL A   1      41.539  31.458  30.317  1.00  0.00     0.010 A 
ATOM     39  C   UNL A   1      39.582  32.879  30.075  1.00  0.00     0.010 A 
ATOM     40  C   UNL A   1      40.934  32.719  30.420  1.00  0.00    -0.014 A 
BRANCH  40  41
ATOM     41  C   UNL A   1      41.651  33.836  31.073  1.00  0.00     0.031 A 
ATOM     42  C   UNL A   1      41.581  33.948  32.570  1.00  0.00     0.074 A 
ATOM     43  C   UNL A   1      42.329  34.744  30.352  1.00  0.00     0.049 A 
ATOM     44  N   UNL A   1      42.073  34.867  33.358  1.00  0.00    -0.248 NA
ATOM     45  C   UNL A   1      40.851  32.878  33.271  1.00  0.00     0.031 C 
ATOM     46  C   UNL A   1      42.484  34.731  28.900  1.00  0.00     0.029 A 
ATOM     47  N   UNL A   1      43.002  35.870  30.756  1.00  0.00    -0.354 N 
ATOM     48  C   UNL A   1      41.715  34.488  34.645  1.00  0.00     0.074 A 
ATOM     49  C   UNL A   1      40.941  33.271  34.532  1.00  0.00     0.031 C 
ATOM     50  C   UNL A   1      43.195  35.812  28.529  1.00  0.00     0.029 A 
ATOM     51  C   UNL A   1      43.522  36.600  29.717  1.00  0.00     0.049 A 
ATOM     52  H   UNL A   1      43.103  36.128  31.701  1.00  0.00     0.167 HD
ATOM     53  C   UNL A   1      42.009  35.096  35.817  1.00  0.00     0.037 A 
ATOM     54  C   UNL A   1      44.170  37.782  29.728  1.00  0.00     0.037 A 
ATOM     55  C   UNL A   1      42.765  36.312  35.930  1.00  0.00     0.049 A 
ATOM     56  C   UNL A   1      44.428  38.474  31.040  1.00  0.00     0.074 A 
ATOM     57  C   UNL A   1      43.130  36.999  37.074  1.00  0.00     0.029 A 
ATOM     58  N   UNL A   1      43.263  37.030  34.854  1.00  0.00    -0.354 N 
ATOM     59  N   UNL A   1      44.120  38.087  32.254  1.00  0.00    -0.248 NA
ATOM     60  C   UNL A   1      45.125  39.768  30.982  1.00  0.00     0.031 C 
ATOM     61  C   UNL A   1      43.818  38.154  36.687  1.00  0.00     0.029 A 
ATOM     62  C   UNL A   1      43.914  38.165  35.305  1.00  0.00     0.049 A 
ATOM     63  H   UNL A   1      43.167  36.771  33.908  1.00  0.00     0.167 HD
ATOM     64  C   UNL A   1      44.609  39.072  33.104  1.00  0.00     0.074 A 
ATOM     65  C   UNL A   1      45.239  40.072  32.267  1.00  0.00     0.031 C 
ATOM     66  C   UNL A   1      44.546  39.141  34.456  1.00  0.00     0.037 A 
BRANCH  53  67
ATOM     67  C   UNL A   1      41.490  34.455  37.067  1.00  0.00     0.057 A 
ATOM     68  C   UNL A   1      42.230  33.486  37.756  1.00  0.00     0.134 A 
ATOM     69  C   UNL A   1      40.246  34.819  37.594  1.00  0.00     0.134 A 
ATOM     70  F   UNL A   1      43.421  33.081  37.291  1.00  0.00    -0.206 F 
ATOM     71  C   UNL A   1      41.740  32.887  38.918  1.00  0.00     0.040 A 
ATOM     72  C   UNL A   1      39.754  34.243  38.765  1.00  0.00     0.040 A 
ATOM     73  F   UNL A   1      39.489  35.740  36.978  1.00  0.00    -0.206 F 
ATOM     74  C   UNL A   1      40.501  33.269  39.428  1.00  0.00     0.006 A 
ENDBRANCH  53  67
BRANCH  54  75
ATOM     75  C   UNL A   1      44.618  38.395  28.454  1.00  0.00     0.057 A 
ATOM     76  C   UNL A   1      45.919  38.205  27.978  1.00  0.00     0.134 A 
ATOM     77  C   UNL A   1      43.763  39.207  27.697  1.00  0.00     0.134 A 
ATOM     78  F   UNL A   1      46.788  37.458  28.673  1.00  0.00    -0.206 F 
ATOM     79  C   UNL A   1      46.363  38.812  26.802  1.00  0.00     0.040 A 
ATOM     80  C   UNL A   1      44.187  39.804  26.509  1.00  0.00     0.040 A 
ATOM     81  F   UNL A   1      42.505  39.428  28.101  1.00  0.00    -0.206 F 
ATOM     82  C   UNL A   1      45.493  39.612  26.061  1.00  0.00     0.006 A 
ENDBRANCH  54  75
BRANCH  66  83
ATOM     83  C   UNL A   1      45.204  40.313  35.119  1.00  0.00     0.057 A 
ATOM     84  C   UNL A   1      46.560  40.299  35.466  1.00  0.00     0.134 A 
ATOM     85  C   UNL A   1      44.485  41.491  35.358  1.00  0.00     0.134 A 
ATOM     86  F   UNL A   1      47.300  39.197  35.273  1.00  0.00    -0.206 F 
ATOM     87  C   UNL A   1      47.175  41.412  36.041  1.00  0.00     0.040 A 
ATOM     88  C   UNL A   1      45.094  42.617  35.912  1.00  0.00     0.040 A 
ATOM     89  F   UNL A   1      43.184  41.571  35.039  1.00  0.00    -0.206 F 
ATOM     90  C   UNL A   1      46.442  42.578  36.258  1.00  0.00     0.006 A 
ENDBRANCH  66  83
ENDBRANCH  40  41
ENDBRANCH  33  35
ENDBRANCH  32  33
ENDBRANCH  31  32
ENDBRANCH  30  31
ENDBRANCH  29  30
ENDBRANCH  28  29
ENDBRANCH  27  28
ENDBRANCH  26  27
ENDBRANCH  25  26
ENDBRANCH   1  25
TORSDOF 26
ENDMDL
MODEL 2
REMARK VINA RESULT:      -7.5      6.892     10.071
REMARK SMILES CC[C@@H](C)CN(CC)S(=O)(=O)c1cc(C(=O)OCCOCCOCCOCCOC(=O)c2ccc(-c3c4nc(c(-c5c(F)cccc5F)c5ccc([nH]5)c(-c5c(F)cccc5F)c5nc(c(-c6c(F)cccc6F)c6ccc3[nH]6)C=C5)C=C4)cc2)n(C)c1
REMARK SMILES IDX 21 1 20 2 19 3 18 4 17 5 15 6 16 7 14 8 12 9 13 10 88 11
REMARK SMILES IDX 86 12 87 13 9 14 10 15 11 16 6 17 5 18 3 19 4 20 2 21 1 22
REMARK SMILES IDX 7 23 8 24 22 25 23 26 24 27 25 28 26 29 27 30 28 31 29 32
REMARK SMILES IDX 30 33 31 34 32 35 33 36 85 37 34 38 84 39 35 40 36 41 37 42
REMARK SMILES IDX 78 43 38 44 83 45 77 46 79 47 39 48 82 49 76 50 75 51 40 53
REMARK SMILES IDX 66 54 49 55 65 56 50 57 53 58 64 59 80 60 51 61 52 62 63 64
REMARK SMILES IDX 81 65 54 66 41 67 42 68 47 69 43 70 44 71 46 72 48 73 45 74
REMARK SMILES IDX 67 75 68 76 73 77 69 78 70 79 72 80 74 81 71 82 55 83 56 84
REMARK SMILES IDX 61 85 57 86 58 87 60 88 62 89 59 90
REMARK H PARENT 79 52 53 63
REMARK Flexibility Score: inf
ROOT
ATOM      1  C   UNL A   1      37.939  28.458  29.011  1.00  0.00     0.188 C 
ENDROOT
BRANCH   1   2
ATOM      2  O   UNL A   1      37.252  29.485  28.290  1.00  0.00    -0.376 OA
BRANCH   2   3
ATOM      3  C   UNL A   1      35.849  29.580  28.521  1.00  0.00     0.202 C 
BRANCH   3   4
ATOM      4  C   UNL A   1      35.031  30.096  27.327  1.00  0.00     0.261 C 
BRANCH   4   5
ATOM      5  O   UNL A   1      34.669  29.085  26.375  1.00  0.00    -0.459 OA
BRANCH   5   6
ATOM      6  C   UNL A   1      33.408  29.107  25.889  1.00  0.00     0.355 C 
ATOM      7  O   UNL A   1      32.804  30.118  25.554  1.00  0.00    -0.244 OA
BRANCH   6   8
ATOM      8  C   UNL A   1      32.965  27.751  25.637  1.00  0.00     0.128 A 
ATOM      9  C   UNL A   1      32.792  25.478  25.766  1.00  0.00     0.101 A 
ATOM     10  C   UNL A   1      33.565  26.598  26.142  1.00  0.00     0.057 A 
ATOM     11  C   UNL A   1      31.757  25.972  24.992  1.00  0.00     0.107 A 
ATOM     12  N   UNL A   1      31.852  27.336  24.932  1.00  0.00    -0.344 N 
ATOM     13  C   UNL A   1      30.914  28.160  24.199  1.00  0.00     0.150 C 
BRANCH   9  14
ATOM     14  S   UNL A   1      32.976  23.783  26.067  1.00  0.00     0.244 S 
ATOM     15  O   UNL A   1      31.690  23.439  26.640  1.00  0.00    -0.207 OA
ATOM     16  O   UNL A   1      34.185  23.752  26.867  1.00  0.00    -0.207 OA
BRANCH  14  17
ATOM     17  N   UNL A   1      33.237  22.732  24.751  1.00  0.00    -0.198 NA
BRANCH  17  18
ATOM     18  C   UNL A   1      32.348  21.506  24.757  1.00  0.00     0.105 C 
BRANCH  18  19
ATOM     19  C   UNL A   1      32.811  20.323  23.875  1.00  0.00     0.001 C 
ATOM     20  C   UNL A   1      32.069  20.412  22.528  1.00  0.00     0.009 C 
BRANCH  19  21
ATOM     21  C   UNL A   1      32.515  18.951  24.527  1.00  0.00     0.001 C 
ATOM     22  C   UNL A   1      32.796  17.753  23.627  1.00  0.00     0.004 C 
ENDBRANCH  19  21
ENDBRANCH  18  19
ENDBRANCH  17  18
BRANCH  17  23
ATOM     23  C   UNL A   1      33.339  23.293  23.379  1.00  0.00     0.099 C 
ATOM     24  C   UNL A   1      34.762  23.403  22.862  1.00  0.00     0.022 C 
ENDBRANCH  17  23
ENDBRANCH  14  17
ENDBRANCH   9  14
ENDBRANCH   6   8
ENDBRANCH   5   6
ENDBRANCH   4   5
ENDBRANCH   3   4
ENDBRANCH   2   3
ENDBRANCH   1   2
BRANCH   1  25
ATOM     25  C   UNL A   1      39.466  28.502  28.828  1.00  0.00     0.188 C 
BRANCH  25  26
ATOM     26  O   UNL A   1      39.896  27.837  27.652  1.00  0.00    -0.377 OA
BRANCH  26  27
ATOM     27  C   UNL A   1      39.384  26.526  27.418  1.00  0.00     0.188 C 
BRANCH  27  28
ATOM     28  C   UNL A   1      40.315  25.368  27.002  1.00  0.00     0.188 C 
BRANCH  28  29
ATOM     29  O   UNL A   1      40.524  24.398  28.030  1.00  0.00    -0.376 OA
BRANCH  29  30
ATOM     30  C   UNL A   1      40.803  23.071  27.597  1.00  0.00     0.202 C 
BRANCH  30  31
ATOM     31  C   UNL A   1      41.984  22.434  28.337  1.00  0.00     0.261 C 
BRANCH  31  32
ATOM     32  O   UNL A   1      43.130  22.174  27.509  1.00  0.00    -0.460 OA
BRANCH  32  33
ATOM     33  C   UNL A   1      43.111  22.694  26.264  1.00  0.00     0.338 C 
ATOM     34  O   UNL A   1      42.559  22.242  25.277  1.00  0.00    -0.246 OA
BRANCH  33  35
ATOM     35  C   UNL A   1      43.741  24.025  26.324  1.00  0.00     0.060 A 
ATOM     36  C   UNL A   1      43.772  24.809  25.164  1.00  0.00     0.016 A 
ATOM     37  C   UNL A   1      44.307  24.488  27.515  1.00  0.00     0.016 A 
ATOM     38  C   UNL A   1      44.411  26.049  25.184  1.00  0.00     0.010 A 
ATOM     39  C   UNL A   1      44.958  25.720  27.529  1.00  0.00     0.010 A 
ATOM     40  C   UNL A   1      45.041  26.488  26.357  1.00  0.00    -0.014 A 
BRANCH  40  41
ATOM     41  C   UNL A   1      45.955  27.652  26.318  1.00  0.00     0.031 A 
ATOM     42  C   UNL A   1      47.426  27.396  26.153  1.00  0.00     0.074 A 
ATOM     43  C   UNL A   1      45.491  28.906  26.449  1.00  0.00     0.049 A 
ATOM     44  N   UNL A   1      48.421  28.244  26.151  1.00  0.00    -0.248 NA
ATOM     45  C   UNL A   1      47.828  25.991  25.972  1.00  0.00     0.031 C 
ATOM     46  C   UNL A   1      44.086  29.280  26.595  1.00  0.00     0.029 A 
ATOM     47  N   UNL A   1      46.168  30.099  26.496  1.00  0.00    -0.354 N 
ATOM     48  C   UNL A   1      49.564  27.478  25.968  1.00  0.00     0.074 A 
ATOM     49  C   UNL A   1      49.145  26.095  25.891  1.00  0.00     0.031 C 
ATOM     50  C   UNL A   1      44.006  30.616  26.734  1.00  0.00     0.029 A 
ATOM     51  C   UNL A   1      45.353  31.183  26.709  1.00  0.00     0.049 A 
ATOM     52  H   UNL A   1      47.143  30.170  26.388  1.00  0.00     0.167 HD
ATOM     53  C   UNL A   1      50.849  27.889  25.867  1.00  0.00     0.037 A 
ATOM     54  C   UNL A   1      45.669  32.481  26.884  1.00  0.00     0.037 A 
ATOM     55  C   UNL A   1      51.269  29.260  25.957  1.00  0.00     0.049 A 
ATOM     56  C   UNL A   1      47.112  32.907  26.834  1.00  0.00     0.074 A 
ATOM     57  C   UNL A   1      52.547  29.781  25.852  1.00  0.00     0.029 A 
ATOM     58  N   UNL A   1      50.417  30.328  26.187  1.00  0.00    -0.354 N 
ATOM     59  N   UNL A   1      48.182  32.181  26.621  1.00  0.00    -0.248 NA
ATOM     60  C   UNL A   1      47.390  34.335  27.049  1.00  0.00     0.031 C 
ATOM     61  C   UNL A   1      52.471  31.163  26.055  1.00  0.00     0.029 A 
ATOM     62  C   UNL A   1      51.142  31.506  26.249  1.00  0.00     0.049 A 
ATOM     63  H   UNL A   1      49.439  30.260  26.292  1.00  0.00     0.167 HD
ATOM     64  C   UNL A   1      49.255  33.064  26.647  1.00  0.00     0.074 A 
ATOM     65  C   UNL A   1      48.706  34.381  26.892  1.00  0.00     0.031 C 
ATOM     66  C   UNL A   1      50.575  32.809  26.480  1.00  0.00     0.037 A 
BRANCH  53  67
ATOM     67  C   UNL A   1      51.891  26.832  25.665  1.00  0.00     0.057 A 
ATOM     68  C   UNL A   1      52.317  26.457  24.385  1.00  0.00     0.134 A 
ATOM     69  C   UNL A   1      52.481  26.192  26.761  1.00  0.00     0.134 A 
ATOM     70  F   UNL A   1      51.775  27.019  23.295  1.00  0.00    -0.206 F 
ATOM     71  C   UNL A   1      53.284  25.467  24.202  1.00  0.00     0.040 A 
ATOM     72  C   UNL A   1      53.464  25.216  26.591  1.00  0.00     0.040 A 
ATOM     73  F   UNL A   1      52.114  26.506  28.012  1.00  0.00    -0.206 F 
ATOM     74  C   UNL A   1      53.863  24.847  25.307  1.00  0.00     0.006 A 
ENDBRANCH  53  67
BRANCH  54  75
ATOM     75  C   UNL A   1      44.599  33.479  27.130  1.00  0.00     0.057 A 
ATOM     76  C   UNL A   1      44.014  34.187  26.075  1.00  0.00     0.134 A 
ATOM     77  C   UNL A   1      44.156  33.766  28.427  1.00  0.00     0.134 A 
ATOM     78  F   UNL A   1      44.415  33.971  24.815  1.00  0.00    -0.206 F 
ATOM     79  C   UNL A   1      43.036  35.157  26.301  1.00  0.00     0.040 A 
ATOM     80  C   UNL A   1      43.165  34.720  28.666  1.00  0.00     0.040 A 
ATOM     81  F   UNL A   1      44.680  33.122  29.480  1.00  0.00    -0.206 F 
ATOM     82  C   UNL A   1      42.607  35.423  27.600  1.00  0.00     0.006 A 
ENDBRANCH  54  75
BRANCH  66  83
ATOM     83  C   UNL A   1      51.515  33.976  26.517  1.00  0.00     0.057 A 
ATOM     84  C   UNL A   1      51.869  34.676  25.358  1.00  0.00     0.134 A 
ATOM     85  C   UNL A   1      52.023  34.441  27.737  1.00  0.00     0.134 A 
ATOM     86  F   UNL A   1      51.424  34.272  24.158  1.00  0.00    -0.206 F 
ATOM     87  C   UNL A   1      52.708  35.790  25.408  1.00  0.00     0.040 A 
ATOM     88  C   UNL A   1      52.844  35.567  27.803  1.00  0.00     0.040 A 
ATOM     89  F   UNL A   1      51.712  33.820  28.885  1.00  0.00    -0.206 F 
ATOM     90  C   UNL A   1      53.191  36.243  26.635  1.00  0.00     0.006 A 
ENDBRANCH  66  83
ENDBRANCH  40  41
ENDBRANCH  33  35
ENDBRANCH  32  33
ENDBRANCH  31  32
ENDBRANCH  30  31
ENDBRANCH  29  30
ENDBRANCH  28  29
ENDBRANCH  27  28
ENDBRANCH  26  27
ENDBRANCH  25  26
ENDBRANCH   1  25
TORSDOF 26
ENDMDL
MODEL 3
REMARK VINA RESULT:      -7.3      8.556     11.961
REMARK SMILES CC[C@@H](C)CN(CC)S(=O)(=O)c1cc(C(=O)OCCOCCOCCOCCOC(=O)c2ccc(-c3c4nc(c(-c5c(F)cccc5F)c5ccc([nH]5)c(-c5c(F)cccc5F)c5nc(c(-c6c(F)cccc6F)c6ccc3[nH]6)C=C5)C=C4)cc2)n(C)c1
REMARK SMILES IDX 21 1 20 2 19 3 18 4 17 5 15 6 16 7 14 8 12 9 13 10 88 11
REMARK SMILES IDX 86 12 87 13 9 14 10 15 11 16 6 17 5 18 3 19 4 20 2 21 1 22
REMARK SMILES IDX 7 23 8 24 22 25 23 26 24 27 25 28 26 29 27 30 28 31 29 32
REMARK SMILES IDX 30 33 31 34 32 35 33 36 85 37 34 38 84 39 35 40 36 41 37 42
REMARK SMILES IDX 78 43 38 44 83 45 77 46 79 47 39 48 82 49 76 50 75 51 40 53
REMARK SMILES IDX 66 54 49 55 65 56 50 57 53 58 64 59 80 60 51 61 52 62 63 64
REMARK SMILES IDX 81 65 54 66 41 67 42 68 47 69 43 70 44 71 46 72 48 73 45 74
REMARK SMILES IDX 67 75 68 76 73 77 69 78 70 79 72 80 74 81 71 82 55 83 56 84
REMARK SMILES IDX 61 85 57 86 58 87 60 88 62 89 59 90
REMARK H PARENT 79 52 53 63
REMARK Flexibility Score: inf
ROOT
ATOM      1  C   UNL A   1      35.512  31.353  30.095  1.00  0.00     0.188 C 
ENDROOT
BRANCH   1   2
ATOM      2  O   UNL A   1      35.051  32.055  28.937  1.00  0.00    -0.376 OA
BRANCH   2   3
ATOM      3  C   UNL A   1      35.165  31.359  27.698  1.00  0.00     0.202 C 
BRANCH   3   4
ATOM      4  C   UNL A   1      34.706  29.894  27.734  1.00  0.00     0.261 C 
BRANCH   4   5
ATOM      5  O   UNL A   1      34.363  29.348  26.452  1.00  0.00    -0.459 OA
BRANCH   5   6
ATOM      6  C   UNL A   1      33.050  29.261  26.141  1.00  0.00     0.355 C 
ATOM      7  O   UNL A   1      32.271  30.205  26.124  1.00  0.00    -0.244 OA
BRANCH   6   8
ATOM      8  C   UNL A   1      32.761  27.934  25.639  1.00  0.00     0.128 A 
ATOM      9  C   UNL A   1      31.876  25.835  25.470  1.00  0.00     0.101 A 
ATOM     10  C   UNL A   1      32.040  26.952  26.319  1.00  0.00     0.057 A 
ATOM     11  C   UNL A   1      32.548  26.144  24.300  1.00  0.00     0.107 A 
ATOM     12  N   UNL A   1      33.061  27.409  24.396  1.00  0.00    -0.344 N 
ATOM     13  C   UNL A   1      33.819  28.036  23.334  1.00  0.00     0.150 C 
BRANCH   9  14
ATOM     14  S   UNL A   1      31.089  24.310  25.693  1.00  0.00     0.244 S 
ATOM     15  O   UNL A   1      30.543  24.059  24.374  1.00  0.00    -0.207 OA
ATOM     16  O   UNL A   1      30.223  24.584  26.823  1.00  0.00    -0.207 OA
BRANCH  14  17
ATOM     17  N   UNL A   1      32.025  22.949  26.116  1.00  0.00    -0.198 NA
BRANCH  17  18
ATOM     18  C   UNL A   1      32.899  22.431  24.993  1.00  0.00     0.105 C 
BRANCH  18  19
ATOM     19  C   UNL A   1      32.358  21.208  24.216  1.00  0.00     0.001 C 
ATOM     20  C   UNL A   1      33.305  20.021  24.473  1.00  0.00     0.009 C 
BRANCH  19  21
ATOM     21  C   UNL A   1      32.272  21.468  22.693  1.00  0.00     0.001 C 
ATOM     22  C   UNL A   1      32.919  22.772  22.240  1.00  0.00     0.004 C 
ENDBRANCH  19  21
ENDBRANCH  18  19
ENDBRANCH  17  18
BRANCH  17  23
ATOM     23  C   UNL A   1      32.772  22.949  27.399  1.00  0.00     0.099 C 
ATOM     24  C   UNL A   1      33.739  21.790  27.550  1.00  0.00     0.022 C 
ENDBRANCH  17  23
ENDBRANCH  14  17
ENDBRANCH   9  14
ENDBRANCH   6   8
ENDBRANCH   5   6
ENDBRANCH   4   5
ENDBRANCH   3   4
ENDBRANCH   2   3
ENDBRANCH   1   2
BRANCH   1  25
ATOM     25  C   UNL A   1      36.004  32.285  31.216  1.00  0.00     0.188 C 
BRANCH  25  26
ATOM     26  O   UNL A   1      37.005  31.689  32.024  1.00  0.00    -0.377 OA
BRANCH  26  27
ATOM     27  C   UNL A   1      37.090  30.264  32.014  1.00  0.00     0.188 C 
BRANCH  27  28
ATOM     28  C   UNL A   1      38.349  29.543  31.489  1.00  0.00     0.188 C 
BRANCH  28  29
ATOM     29  O   UNL A   1      38.959  30.189  30.371  1.00  0.00    -0.376 OA
BRANCH  29  30
ATOM     30  C   UNL A   1      38.757  29.577  29.101  1.00  0.00     0.202 C 
BRANCH  30  31
ATOM     31  C   UNL A   1      38.801  28.045  29.159  1.00  0.00     0.261 C 
BRANCH  31  32
ATOM     32  O   UNL A   1      39.678  27.443  28.193  1.00  0.00    -0.460 OA
BRANCH  32  33
ATOM     33  C   UNL A   1      40.034  26.160  28.410  1.00  0.00     0.338 C 
ATOM     34  O   UNL A   1      39.360  25.161  28.234  1.00  0.00    -0.246 OA
BRANCH  33  35
ATOM     35  C   UNL A   1      41.470  26.142  28.745  1.00  0.00     0.060 A 
ATOM     36  C   UNL A   1      42.175  24.938  28.626  1.00  0.00     0.016 A 
ATOM     37  C   UNL A   1      42.109  27.305  29.183  1.00  0.00     0.016 A 
ATOM     38  C   UNL A   1      43.520  24.886  28.988  1.00  0.00     0.010 A 
ATOM     39  C   UNL A   1      43.450  27.248  29.559  1.00  0.00     0.010 A 
ATOM     40  C   UNL A   1      44.150  26.032  29.495  1.00  0.00    -0.014 A 
BRANCH  40  41
ATOM     41  C   UNL A   1      45.476  25.926  30.143  1.00  0.00     0.031 A 
ATOM     42  C   UNL A   1      46.694  26.258  29.328  1.00  0.00     0.074 A 
ATOM     43  C   UNL A   1      45.598  25.522  31.418  1.00  0.00     0.049 A 
ATOM     44  N   UNL A   1      47.957  26.183  29.655  1.00  0.00    -0.248 NA
ATOM     45  C   UNL A   1      46.452  26.734  27.956  1.00  0.00     0.031 C 
ATOM     46  C   UNL A   1      44.491  25.192  32.313  1.00  0.00     0.029 A 
ATOM     47  N   UNL A   1      46.723  25.306  32.174  1.00  0.00    -0.354 N 
ATOM     48  C   UNL A   1      48.660  26.601  28.533  1.00  0.00     0.074 A 
ATOM     49  C   UNL A   1      47.686  26.904  27.507  1.00  0.00     0.031 C 
ATOM     50  C   UNL A   1      44.994  24.796  33.497  1.00  0.00     0.029 A 
ATOM     51  C   UNL A   1      46.454  24.825  33.431  1.00  0.00     0.049 A 
ATOM     52  H   UNL A   1      47.634  25.480  31.846  1.00  0.00     0.167 HD
ATOM     53  C   UNL A   1      49.997  26.730  28.372  1.00  0.00     0.037 A 
ATOM     54  C   UNL A   1      47.298  24.434  34.406  1.00  0.00     0.037 A 
ATOM     55  C   UNL A   1      50.966  26.416  29.386  1.00  0.00     0.049 A 
ATOM     56  C   UNL A   1      48.784  24.523  34.181  1.00  0.00     0.074 A 
ATOM     57  C   UNL A   1      52.345  26.527  29.326  1.00  0.00     0.029 A 
ATOM     58  N   UNL A   1      50.657  25.918  30.641  1.00  0.00    -0.354 N 
ATOM     59  N   UNL A   1      49.437  24.957  33.132  1.00  0.00    -0.248 NA
ATOM     60  C   UNL A   1      49.650  24.065  35.279  1.00  0.00     0.031 C 
ATOM     61  C   UNL A   1      52.871  26.060  30.535  1.00  0.00     0.029 A 
ATOM     62  C   UNL A   1      51.819  25.696  31.360  1.00  0.00     0.049 A 
ATOM     63  H   UNL A   1      49.745  25.748  30.973  1.00  0.00     0.167 HD
ATOM     64  C   UNL A   1      50.786  24.854  33.451  1.00  0.00     0.074 A 
ATOM     65  C   UNL A   1      50.858  24.319  34.795  1.00  0.00     0.031 C 
ATOM     66  C   UNL A   1      51.868  25.176  32.701  1.00  0.00     0.037 A 
BRANCH  53  67
ATOM     67  C   UNL A   1      50.482  27.213  27.041  1.00  0.00     0.057 A 
ATOM     68  C   UNL A   1      50.816  26.321  26.014  1.00  0.00     0.134 A 
ATOM     69  C   UNL A   1      50.606  28.582  26.779  1.00  0.00     0.134 A 
ATOM     70  F   UNL A   1      50.738  24.997  26.210  1.00  0.00    -0.206 F 
ATOM     71  C   UNL A   1      51.274  26.776  24.776  1.00  0.00     0.040 A 
ATOM     72  C   UNL A   1      51.043  29.050  25.539  1.00  0.00     0.040 A 
ATOM     73  F   UNL A   1      50.304  29.486  27.723  1.00  0.00    -0.206 F 
ATOM     74  C   UNL A   1      51.384  28.144  24.535  1.00  0.00     0.006 A 
ENDBRANCH  53  67
BRANCH  54  75
ATOM     75  C   UNL A   1      46.761  23.916  35.688  1.00  0.00     0.057 A 
ATOM     76  C   UNL A   1      46.464  22.558  35.851  1.00  0.00     0.134 A 
ATOM     77  C   UNL A   1      46.509  24.768  36.770  1.00  0.00     0.134 A 
ATOM     78  F   UNL A   1      46.661  21.699  34.842  1.00  0.00    -0.206 F 
ATOM     79  C   UNL A   1      45.920  22.068  37.040  1.00  0.00     0.040 A 
ATOM     80  C   UNL A   1      45.984  24.288  37.971  1.00  0.00     0.040 A 
ATOM     81  F   UNL A   1      46.772  26.079  36.674  1.00  0.00    -0.206 F 
ATOM     82  C   UNL A   1      45.683  22.935  38.106  1.00  0.00     0.006 A 
ENDBRANCH  54  75
BRANCH  66  83
ATOM     83  C   UNL A   1      53.219  24.996  33.326  1.00  0.00     0.057 A 
ATOM     84  C   UNL A   1      53.911  23.782  33.249  1.00  0.00     0.134 A 
ATOM     85  C   UNL A   1      53.859  26.069  33.959  1.00  0.00     0.134 A 
ATOM     86  F   UNL A   1      53.347  22.714  32.665  1.00  0.00    -0.206 F 
ATOM     87  C   UNL A   1      55.189  23.637  33.793  1.00  0.00     0.040 A 
ATOM     88  C   UNL A   1      55.143  25.943  34.487  1.00  0.00     0.040 A 
ATOM     89  F   UNL A   1      53.251  27.262  34.056  1.00  0.00    -0.206 F 
ATOM     90  C   UNL A   1      55.811  24.724  34.407  1.00  0.00     0.006 A 
ENDBRANCH  66  83
ENDBRANCH  40  41
ENDBRANCH  33  35
ENDBRANCH  32  33
ENDBRANCH  31  32
ENDBRANCH  30  31
ENDBRANCH  29  30
ENDBRANCH  28  29
ENDBRANCH  27  28
ENDBRANCH  26  27
ENDBRANCH  25  26
ENDBRANCH   1  25
TORSDOF 26
ENDMDL
