MODEL 1
REMARK VINA RESULT:     -10.9      0.000      0.000
REMARK SMILES C[C@H]1[C@@H](C(=O)OCCOCCOCCOCCOC(=O)c2ccc(-c3c4nc(c(-c5c(F)cccc5F)c5ccc([nH]5)c(-c5c(F)cccc5F)c5nc(c(-c6c(F)cccc6F)c6ccc3[nH]6)C=C5)C=C4)cc2)CCN1C(=O)NC1CCCCC1
REMARK SMILES IDX 12 1 11 2 10 3 9 4 8 5 7 6 6 7 4 8 5 9 3 10 1 11 2 12 77 13
REMARK SMILES IDX 75 14 76 15 78 16 79 17 80 18 81 20 82 21 86 22 83 23 85 24
REMARK SMILES IDX 84 25 13 26 14 27 15 28 16 29 17 30 18 31 19 32 20 33 21 34
REMARK SMILES IDX 22 35 74 36 23 37 73 38 24 39 25 40 26 41 67 42 27 43 72 44
REMARK SMILES IDX 66 45 68 46 28 47 71 48 65 49 64 50 29 52 55 53 38 54 54 55
REMARK SMILES IDX 39 56 42 57 53 58 69 59 40 60 41 61 52 63 70 64 43 65 30 66
REMARK SMILES IDX 31 67 36 68 32 69 33 70 35 71 37 72 34 73 56 74 57 75 62 76
REMARK SMILES IDX 58 77 59 78 61 79 63 80 60 81 44 82 45 83 50 84 46 85 47 86
REMARK SMILES IDX 49 87 51 88 48 89
REMARK H PARENT 80 19 68 51 42 62
REMARK Flexibility Score: inf
ROOT
ATOM      1  O   UNL A   1      42.318  20.734  27.044  1.00  0.00    -0.377 OA
ENDROOT
BRANCH   1   2
ATOM      2  C   UNL A   1      41.105  21.213  27.620  1.00  0.00     0.188 C 
BRANCH   2   3
ATOM      3  C   UNL A   1      40.072  22.038  26.821  1.00  0.00     0.188 C 
BRANCH   3   4
ATOM      4  O   UNL A   1      39.208  21.242  26.037  1.00  0.00    -0.376 OA
BRANCH   4   5
ATOM      5  C   UNL A   1      38.131  21.832  25.344  1.00  0.00     0.202 C 
BRANCH   5   6
ATOM      6  C   UNL A   1      36.857  21.005  25.154  1.00  0.00     0.261 C 
BRANCH   6   7
ATOM      7  O   UNL A   1      35.648  21.651  25.553  1.00  0.00    -0.463 OA
BRANCH   7   8
ATOM      8  C   UNL A   1      34.454  21.297  25.048  1.00  0.00     0.311 C 
ATOM      9  O   UNL A   1      34.152  20.151  24.741  1.00  0.00    -0.252 OA
BRANCH   8  10
ATOM     10  C   UNL A   1      33.506  22.483  24.944  1.00  0.00     0.123 C 
ATOM     11  C   UNL A   1      32.963  22.382  27.580  1.00  0.00     0.032 C 
ATOM     12  C   UNL A   1      32.905  23.108  26.221  1.00  0.00     0.098 C 
ATOM     13  N   UNL A   1      31.556  23.556  25.908  1.00  0.00    -0.321 N 
ATOM     14  C   UNL A   1      32.333  22.338  23.976  1.00  0.00     0.039 C 
ATOM     15  C   UNL A   1      31.117  22.979  24.647  1.00  0.00     0.122 C 
BRANCH  13  16
ATOM     16  C   UNL A   1      30.685  24.358  26.589  1.00  0.00     0.317 C 
ATOM     17  O   UNL A   1      29.726  23.851  27.187  1.00  0.00    -0.249 OA
ATOM     18  N   UNL A   1      30.731  25.705  26.655  1.00  0.00    -0.335 N 
ATOM     19  H   UNL A   1      29.941  26.023  27.147  1.00  0.00     0.165 HD
BRANCH  18  20
ATOM     20  C   UNL A   1      31.547  26.885  26.252  1.00  0.00     0.083 C 
ATOM     21  C   UNL A   1      31.057  27.599  25.012  1.00  0.00     0.025 C 
ATOM     22  C   UNL A   1      31.628  27.920  27.395  1.00  0.00     0.025 C 
ATOM     23  C   UNL A   1      31.702  28.894  24.602  1.00  0.00     0.002 C 
ATOM     24  C   UNL A   1      32.332  29.219  26.966  1.00  0.00     0.002 C 
ATOM     25  C   UNL A   1      31.689  29.865  25.743  1.00  0.00     0.000 C 
ENDBRANCH  18  20
ENDBRANCH  13  16
ENDBRANCH   8  10
ENDBRANCH   7   8
ENDBRANCH   6   7
ENDBRANCH   5   6
ENDBRANCH   4   5
ENDBRANCH   3   4
ENDBRANCH   2   3
ENDBRANCH   1   2
BRANCH   1  26
ATOM     26  C   UNL A   1      42.313  19.485  26.374  1.00  0.00     0.188 C 
BRANCH  26  27
ATOM     27  C   UNL A   1      43.436  19.270  25.341  1.00  0.00     0.188 C 
BRANCH  27  28
ATOM     28  O   UNL A   1      43.914  20.471  24.746  1.00  0.00    -0.376 OA
BRANCH  28  29
ATOM     29  C   UNL A   1      45.277  20.812  24.955  1.00  0.00     0.202 C 
BRANCH  29  30
ATOM     30  C   UNL A   1      45.614  22.125  25.692  1.00  0.00     0.261 C 
BRANCH  30  31
ATOM     31  O   UNL A   1      44.537  23.058  25.855  1.00  0.00    -0.460 OA
BRANCH  31  32
ATOM     32  C   UNL A   1      44.775  24.334  25.506  1.00  0.00     0.338 C 
ATOM     33  O   UNL A   1      45.489  24.737  24.597  1.00  0.00    -0.246 OA
BRANCH  32  34
ATOM     34  C   UNL A   1      43.865  25.196  26.279  1.00  0.00     0.060 A 
ATOM     35  C   UNL A   1      44.224  26.535  26.480  1.00  0.00     0.016 A 
ATOM     36  C   UNL A   1      42.680  24.686  26.817  1.00  0.00     0.016 A 
ATOM     37  C   UNL A   1      43.430  27.355  27.271  1.00  0.00     0.010 A 
ATOM     38  C   UNL A   1      41.900  25.501  27.641  1.00  0.00     0.010 A 
ATOM     39  C   UNL A   1      42.306  26.820  27.911  1.00  0.00    -0.014 A 
BRANCH  39  40
ATOM     40  C   UNL A   1      41.749  27.565  29.063  1.00  0.00     0.031 A 
ATOM     41  C   UNL A   1      42.466  27.453  30.381  1.00  0.00     0.074 A 
ATOM     42  C   UNL A   1      40.706  28.400  28.921  1.00  0.00     0.049 A 
ATOM     43  N   UNL A   1      42.224  28.058  31.516  1.00  0.00    -0.248 NA
ATOM     44  C   UNL A   1      43.621  26.539  30.422  1.00  0.00     0.031 C 
ATOM     45  C   UNL A   1      39.968  28.631  27.681  1.00  0.00     0.029 A 
ATOM     46  N   UNL A   1      40.098  29.219  29.837  1.00  0.00    -0.354 N 
ATOM     47  C   UNL A   1      43.194  27.598  32.398  1.00  0.00     0.074 A 
ATOM     48  C   UNL A   1      44.001  26.636  31.684  1.00  0.00     0.031 C 
ATOM     49  C   UNL A   1      39.001  29.536  27.915  1.00  0.00     0.029 A 
ATOM     50  C   UNL A   1      39.040  29.927  29.324  1.00  0.00     0.049 A 
ATOM     51  H   UNL A   1      40.393  29.293  30.774  1.00  0.00     0.167 HD
ATOM     52  C   UNL A   1      43.404  27.958  33.687  1.00  0.00     0.037 A 
ATOM     53  C   UNL A   1      38.199  30.785  29.931  1.00  0.00     0.037 A 
ATOM     54  C   UNL A   1      42.593  28.911  34.396  1.00  0.00     0.049 A 
ATOM     55  C   UNL A   1      38.403  31.108  31.389  1.00  0.00     0.074 A 
ATOM     56  C   UNL A   1      42.719  29.347  35.702  1.00  0.00     0.029 A 
ATOM     57  N   UNL A   1      41.495  29.567  33.858  1.00  0.00    -0.354 N 
ATOM     58  N   UNL A   1      39.335  30.689  32.211  1.00  0.00    -0.248 NA
ATOM     59  C   UNL A   1      37.441  32.037  32.000  1.00  0.00     0.031 C 
ATOM     60  C   UNL A   1      41.662  30.221  35.973  1.00  0.00     0.029 A 
ATOM     61  C   UNL A   1      40.919  30.385  34.815  1.00  0.00     0.049 A 
ATOM     62  H   UNL A   1      41.175  29.466  32.932  1.00  0.00     0.167 HD
ATOM     63  C   UNL A   1      39.095  31.328  33.422  1.00  0.00     0.074 A 
ATOM     64  C   UNL A   1      37.938  32.177  33.221  1.00  0.00     0.031 C 
ATOM     65  C   UNL A   1      39.770  31.227  34.595  1.00  0.00     0.037 A 
BRANCH  52  66
ATOM     66  C   UNL A   1      44.532  27.287  34.414  1.00  0.00     0.057 A 
ATOM     67  C   UNL A   1      44.363  26.076  35.098  1.00  0.00     0.134 A 
ATOM     68  C   UNL A   1      45.812  27.857  34.420  1.00  0.00     0.134 A 
ATOM     69  F   UNL A   1      43.159  25.486  35.150  1.00  0.00    -0.206 F 
ATOM     70  C   UNL A   1      45.419  25.470  35.783  1.00  0.00     0.040 A 
ATOM     71  C   UNL A   1      46.882  27.245  35.073  1.00  0.00     0.040 A 
ATOM     72  F   UNL A   1      46.044  29.016  33.785  1.00  0.00    -0.206 F 
ATOM     73  C   UNL A   1      46.684  26.051  35.765  1.00  0.00     0.006 A 
ENDBRANCH  52  66
BRANCH  53  74
ATOM     74  C   UNL A   1      37.077  31.397  29.171  1.00  0.00     0.057 A 
ATOM     75  C   UNL A   1      37.139  32.718  28.714  1.00  0.00     0.134 A 
ATOM     76  C   UNL A   1      35.900  30.682  28.917  1.00  0.00     0.134 A 
ATOM     77  F   UNL A   1      38.231  33.462  28.946  1.00  0.00    -0.206 F 
ATOM     78  C   UNL A   1      36.063  33.315  28.055  1.00  0.00     0.040 A 
ATOM     79  C   UNL A   1      34.828  31.258  28.233  1.00  0.00     0.040 A 
ATOM     80  F   UNL A   1      35.775  29.412  29.326  1.00  0.00    -0.206 F 
ATOM     81  C   UNL A   1      34.904  32.583  27.809  1.00  0.00     0.006 A 
ENDBRANCH  53  74
BRANCH  65  82
ATOM     82  C   UNL A   1      39.304  32.090  35.735  1.00  0.00     0.057 A 
ATOM     83  C   UNL A   1      39.755  33.404  35.911  1.00  0.00     0.134 A 
ATOM     84  C   UNL A   1      38.370  31.601  36.659  1.00  0.00     0.134 A 
ATOM     85  F   UNL A   1      40.655  33.934  35.068  1.00  0.00    -0.206 F 
ATOM     86  C   UNL A   1      39.327  34.186  36.986  1.00  0.00     0.040 A 
ATOM     87  C   UNL A   1      37.908  32.385  37.718  1.00  0.00     0.040 A 
ATOM     88  F   UNL A   1      37.883  30.356  36.544  1.00  0.00    -0.206 F 
ATOM     89  C   UNL A   1      38.396  33.678  37.890  1.00  0.00     0.006 A 
ENDBRANCH  65  82
ENDBRANCH  39  40
ENDBRANCH  32  34
ENDBRANCH  31  32
ENDBRANCH  30  31
ENDBRANCH  29  30
ENDBRANCH  28  29
ENDBRANCH  27  28
ENDBRANCH  26  27
ENDBRANCH   1  26
TORSDOF 22
ENDMDL
MODEL 2
REMARK VINA RESULT:     -10.2      1.678      2.511
REMARK SMILES C[C@H]1[C@@H](C(=O)OCCOCCOCCOCCOC(=O)c2ccc(-c3c4nc(c(-c5c(F)cccc5F)c5ccc([nH]5)c(-c5c(F)cccc5F)c5nc(c(-c6c(F)cccc6F)c6ccc3[nH]6)C=C5)C=C4)cc2)CCN1C(=O)NC1CCCCC1
REMARK SMILES IDX 12 1 11 2 10 3 9 4 8 5 7 6 6 7 4 8 5 9 3 10 1 11 2 12 77 13
REMARK SMILES IDX 75 14 76 15 78 16 79 17 80 18 81 20 82 21 86 22 83 23 85 24
REMARK SMILES IDX 84 25 13 26 14 27 15 28 16 29 17 30 18 31 19 32 20 33 21 34
REMARK SMILES IDX 22 35 74 36 23 37 73 38 24 39 25 40 26 41 67 42 27 43 72 44
REMARK SMILES IDX 66 45 68 46 28 47 71 48 65 49 64 50 29 52 55 53 38 54 54 55
REMARK SMILES IDX 39 56 42 57 53 58 69 59 40 60 41 61 52 63 70 64 43 65 30 66
REMARK SMILES IDX 31 67 36 68 32 69 33 70 35 71 37 72 34 73 56 74 57 75 62 76
REMARK SMILES IDX 58 77 59 78 61 79 63 80 60 81 44 82 45 83 50 84 46 85 47 86
REMARK SMILES IDX 49 87 51 88 48 89
REMARK H PARENT 80 19 68 51 42 62
REMARK Flexibility Score: inf
ROOT
ATOM      1  O   UNL A   1      39.860  21.808  27.251  1.00  0.00    -0.377 OA
ENDROOT
BRANCH   1   2
ATOM      2  C   UNL A   1      39.133  22.255  26.109  1.00  0.00     0.188 C 
BRANCH   2   3
ATOM      3  C   UNL A   1      37.870  21.532  25.589  1.00  0.00     0.188 C 
BRANCH   3   4
ATOM      4  O   UNL A   1      36.725  22.359  25.564  1.00  0.00    -0.376 OA
BRANCH   4   5
ATOM      5  C   UNL A   1      35.457  21.826  25.874  1.00  0.00     0.202 C 
BRANCH   5   6
ATOM      6  C   UNL A   1      34.220  22.645  25.498  1.00  0.00     0.261 C 
BRANCH   6   7
ATOM      7  O   UNL A   1      33.794  23.587  26.483  1.00  0.00    -0.463 OA
BRANCH   7   8
ATOM      8  C   UNL A   1      32.700  24.349  26.309  1.00  0.00     0.311 C 
ATOM      9  O   UNL A   1      31.755  24.380  27.086  1.00  0.00    -0.252 OA
BRANCH   8  10
ATOM     10  C   UNL A   1      32.795  25.201  25.051  1.00  0.00     0.123 C 
ATOM     11  C   UNL A   1      33.027  27.459  26.500  1.00  0.00     0.032 C 
ATOM     12  C   UNL A   1      33.117  26.706  25.158  1.00  0.00     0.098 C 
ATOM     13  N   UNL A   1      32.387  27.396  24.105  1.00  0.00    -0.321 N 
ATOM     14  C   UNL A   1      31.625  25.108  24.072  1.00  0.00     0.039 C 
ATOM     15  C   UNL A   1      31.370  26.521  23.544  1.00  0.00     0.122 C 
BRANCH  13  16
ATOM     16  C   UNL A   1      32.483  28.668  23.617  1.00  0.00     0.317 C 
ATOM     17  O   UNL A   1      33.586  29.105  23.257  1.00  0.00    -0.249 OA
ATOM     18  N   UNL A   1      31.474  29.558  23.514  1.00  0.00    -0.335 N 
ATOM     19  H   UNL A   1      31.841  30.416  23.202  1.00  0.00     0.165 HD
BRANCH  18  20
ATOM     20  C   UNL A   1      30.003  29.711  23.702  1.00  0.00     0.083 C 
ATOM     21  C   UNL A   1      29.528  31.141  23.834  1.00  0.00     0.025 C 
ATOM     22  C   UNL A   1      29.225  29.057  22.540  1.00  0.00     0.025 C 
ATOM     23  C   UNL A   1      28.053  31.428  23.865  1.00  0.00     0.002 C 
ATOM     24  C   UNL A   1      27.712  29.326  22.618  1.00  0.00     0.002 C 
ATOM     25  C   UNL A   1      27.378  30.814  22.678  1.00  0.00     0.000 C 
ENDBRANCH  18  20
ENDBRANCH  13  16
ENDBRANCH   8  10
ENDBRANCH   7   8
ENDBRANCH   6   7
ENDBRANCH   5   6
ENDBRANCH   4   5
ENDBRANCH   3   4
ENDBRANCH   2   3
ENDBRANCH   1   2
BRANCH   1  26
ATOM     26  C   UNL A   1      41.089  21.129  27.059  1.00  0.00     0.188 C 
BRANCH  26  27
ATOM     27  C   UNL A   1      41.869  21.494  25.782  1.00  0.00     0.188 C 
BRANCH  27  28
ATOM     28  O   UNL A   1      42.810  20.508  25.376  1.00  0.00    -0.376 OA
BRANCH  28  29
ATOM     29  C   UNL A   1      44.169  20.906  25.249  1.00  0.00     0.202 C 
BRANCH  29  30
ATOM     30  C   UNL A   1      44.486  22.356  24.830  1.00  0.00     0.261 C 
BRANCH  30  31
ATOM     31  O   UNL A   1      44.664  23.302  25.894  1.00  0.00    -0.460 OA
BRANCH  31  32
ATOM     32  C   UNL A   1      44.818  24.592  25.547  1.00  0.00     0.338 C 
ATOM     33  O   UNL A   1      45.497  25.040  24.632  1.00  0.00    -0.246 OA
BRANCH  32  34
ATOM     34  C   UNL A   1      43.861  25.392  26.329  1.00  0.00     0.060 A 
ATOM     35  C   UNL A   1      44.082  26.771  26.444  1.00  0.00     0.016 A 
ATOM     36  C   UNL A   1      42.769  24.789  26.959  1.00  0.00     0.016 A 
ATOM     37  C   UNL A   1      43.246  27.543  27.239  1.00  0.00     0.010 A 
ATOM     38  C   UNL A   1      41.950  25.559  27.787  1.00  0.00     0.010 A 
ATOM     39  C   UNL A   1      42.222  26.927  27.969  1.00  0.00    -0.014 A 
BRANCH  39  40
ATOM     40  C   UNL A   1      41.649  27.670  29.114  1.00  0.00     0.031 A 
ATOM     41  C   UNL A   1      42.371  27.589  30.432  1.00  0.00     0.074 A 
ATOM     42  C   UNL A   1      40.585  28.476  28.965  1.00  0.00     0.049 A 
ATOM     43  N   UNL A   1      42.116  28.200  31.561  1.00  0.00    -0.248 NA
ATOM     44  C   UNL A   1      43.549  26.705  30.480  1.00  0.00     0.031 C 
ATOM     45  C   UNL A   1      39.840  28.676  27.725  1.00  0.00     0.029 A 
ATOM     46  N   UNL A   1      39.959  29.290  29.874  1.00  0.00    -0.354 N 
ATOM     47  C   UNL A   1      43.098  27.774  32.446  1.00  0.00     0.074 A 
ATOM     48  C   UNL A   1      43.928  26.825  31.741  1.00  0.00     0.031 C 
ATOM     49  C   UNL A   1      38.851  29.559  27.951  1.00  0.00     0.029 A 
ATOM     50  C   UNL A   1      38.883  29.966  29.356  1.00  0.00     0.049 A 
ATOM     51  H   UNL A   1      40.253  29.381  30.809  1.00  0.00     0.167 HD
ATOM     52  C   UNL A   1      43.301  28.152  33.730  1.00  0.00     0.037 A 
ATOM     53  C   UNL A   1      38.021  30.809  29.955  1.00  0.00     0.037 A 
ATOM     54  C   UNL A   1      42.468  29.092  34.431  1.00  0.00     0.049 A 
ATOM     55  C   UNL A   1      38.219  31.152  31.410  1.00  0.00     0.074 A 
ATOM     56  C   UNL A   1      42.585  29.544  35.732  1.00  0.00     0.029 A 
ATOM     57  N   UNL A   1      41.354  29.715  33.888  1.00  0.00    -0.354 N 
ATOM     58  N   UNL A   1      39.163  30.766  32.234  1.00  0.00    -0.248 NA
ATOM     59  C   UNL A   1      37.236  32.063  32.013  1.00  0.00     0.031 C 
ATOM     60  C   UNL A   1      41.508  30.395  35.996  1.00  0.00     0.029 A 
ATOM     61  C   UNL A   1      40.758  30.528  34.838  1.00  0.00     0.049 A 
ATOM     62  H   UNL A   1      41.034  29.596  32.965  1.00  0.00     0.167 HD
ATOM     63  C   UNL A   1      38.909  31.411  33.439  1.00  0.00     0.074 A 
ATOM     64  C   UNL A   1      37.731  32.228  33.231  1.00  0.00     0.031 C 
ATOM     65  C   UNL A   1      39.588  31.339  34.612  1.00  0.00     0.037 A 
BRANCH  52  66
ATOM     66  C   UNL A   1      44.448  27.518  34.462  1.00  0.00     0.057 A 
ATOM     67  C   UNL A   1      44.308  26.313  35.165  1.00  0.00     0.134 A 
ATOM     68  C   UNL A   1      45.714  28.116  34.454  1.00  0.00     0.134 A 
ATOM     69  F   UNL A   1      43.118  25.697  35.230  1.00  0.00    -0.206 F 
ATOM     70  C   UNL A   1      45.380  25.741  35.853  1.00  0.00     0.040 A 
ATOM     71  C   UNL A   1      46.801  27.537  35.112  1.00  0.00     0.040 A 
ATOM     72  F   UNL A   1      45.918  29.270  33.802  1.00  0.00    -0.206 F 
ATOM     73  C   UNL A   1      46.632  26.350  35.821  1.00  0.00     0.006 A 
ENDBRANCH  52  66
BRANCH  53  74
ATOM     74  C   UNL A   1      36.883  31.384  29.192  1.00  0.00     0.057 A 
ATOM     75  C   UNL A   1      35.761  30.616  28.861  1.00  0.00     0.134 A 
ATOM     76  C   UNL A   1      36.910  32.710  28.742  1.00  0.00     0.134 A 
ATOM     77  F   UNL A   1      35.686  29.332  29.242  1.00  0.00    -0.206 F 
ATOM     78  C   UNL A   1      34.720  31.136  28.091  1.00  0.00     0.040 A 
ATOM     79  C   UNL A   1      35.862  33.252  27.996  1.00  0.00     0.040 A 
ATOM     80  F   UNL A   1      37.955  33.502  29.025  1.00  0.00    -0.206 F 
ATOM     81  C   UNL A   1      34.766  32.460  27.659  1.00  0.00     0.006 A 
ENDBRANCH  53  74
BRANCH  65  82
ATOM     82  C   UNL A   1      39.103  32.202  35.743  1.00  0.00     0.057 A 
ATOM     83  C   UNL A   1      39.496  33.539  35.886  1.00  0.00     0.134 A 
ATOM     84  C   UNL A   1      38.209  31.689  36.694  1.00  0.00     0.134 A 
ATOM     85  F   UNL A   1      40.356  34.092  35.017  1.00  0.00    -0.206 F 
ATOM     86  C   UNL A   1      39.051  34.321  36.954  1.00  0.00     0.040 A 
ATOM     87  C   UNL A   1      37.730  32.471  37.745  1.00  0.00     0.040 A 
ATOM     88  F   UNL A   1      37.777  30.421  36.611  1.00  0.00    -0.206 F 
ATOM     89  C   UNL A   1      38.161  33.788  37.885  1.00  0.00     0.006 A 
ENDBRANCH  65  82
ENDBRANCH  39  40
ENDBRANCH  32  34
ENDBRANCH  31  32
ENDBRANCH  30  31
ENDBRANCH  29  30
ENDBRANCH  28  29
ENDBRANCH  27  28
ENDBRANCH  26  27
ENDBRANCH   1  26
TORSDOF 22
ENDMDL
MODEL 3
REMARK VINA RESULT:     -10.1      2.892      8.937
REMARK SMILES C[C@H]1[C@@H](C(=O)OCCOCCOCCOCCOC(=O)c2ccc(-c3c4nc(c(-c5c(F)cccc5F)c5ccc([nH]5)c(-c5c(F)cccc5F)c5nc(c(-c6c(F)cccc6F)c6ccc3[nH]6)C=C5)C=C4)cc2)CCN1C(=O)NC1CCCCC1
REMARK SMILES IDX 12 1 11 2 10 3 9 4 8 5 7 6 6 7 4 8 5 9 3 10 1 11 2 12 77 13
REMARK SMILES IDX 75 14 76 15 78 16 79 17 80 18 81 20 82 21 86 22 83 23 85 24
REMARK SMILES IDX 84 25 13 26 14 27 15 28 16 29 17 30 18 31 19 32 20 33 21 34
REMARK SMILES IDX 22 35 74 36 23 37 73 38 24 39 25 40 26 41 67 42 27 43 72 44
REMARK SMILES IDX 66 45 68 46 28 47 71 48 65 49 64 50 29 52 55 53 38 54 54 55
REMARK SMILES IDX 39 56 42 57 53 58 69 59 40 60 41 61 52 63 70 64 43 65 30 66
REMARK SMILES IDX 31 67 36 68 32 69 33 70 35 71 37 72 34 73 56 74 57 75 62 76
REMARK SMILES IDX 58 77 59 78 61 79 63 80 60 81 44 82 45 83 50 84 46 85 47 86
REMARK SMILES IDX 49 87 51 88 48 89
REMARK H PARENT 80 19 68 51 42 62
REMARK Flexibility Score: inf
ROOT
ATOM      1  O   UNL A   1      33.196  28.371  26.278  1.00  0.00    -0.377 OA
ENDROOT
BRANCH   1   2
ATOM      2  C   UNL A   1      33.171  28.651  24.880  1.00  0.00     0.188 C 
BRANCH   2   3
ATOM      3  C   UNL A   1      31.896  28.494  24.022  1.00  0.00     0.188 C 
BRANCH   3   4
ATOM      4  O   UNL A   1      31.560  27.146  23.764  1.00  0.00    -0.376 OA
BRANCH   4   5
ATOM      5  C   UNL A   1      30.391  26.587  24.320  1.00  0.00     0.202 C 
BRANCH   5   6
ATOM      6  C   UNL A   1      30.378  26.291  25.821  1.00  0.00     0.261 C 
BRANCH   6   7
ATOM      7  O   UNL A   1      31.316  25.306  26.255  1.00  0.00    -0.463 OA
BRANCH   7   8
ATOM      8  C   UNL A   1      30.958  24.026  26.456  1.00  0.00     0.311 C 
ATOM      9  O   UNL A   1      30.032  23.677  27.175  1.00  0.00    -0.252 OA
BRANCH   8  10
ATOM     10  C   UNL A   1      31.816  23.063  25.646  1.00  0.00     0.123 C 
ATOM     11  C   UNL A   1      33.248  22.382  27.823  1.00  0.00     0.032 C 
ATOM     12  C   UNL A   1      32.829  22.143  26.359  1.00  0.00     0.098 C 
ATOM     13  N   UNL A   1      33.986  21.991  25.488  1.00  0.00    -0.321 N 
ATOM     14  C   UNL A   1      32.575  23.656  24.459  1.00  0.00     0.039 C 
ATOM     15  C   UNL A   1      33.952  22.991  24.432  1.00  0.00     0.122 C 
BRANCH  13  16
ATOM     16  C   UNL A   1      35.044  21.129  25.526  1.00  0.00     0.317 C 
ATOM     17  O   UNL A   1      36.141  21.523  25.947  1.00  0.00    -0.249 OA
ATOM     18  N   UNL A   1      35.041  19.847  25.102  1.00  0.00    -0.335 N 
ATOM     19  H   UNL A   1      35.954  19.489  25.179  1.00  0.00     0.165 HD
BRANCH  18  20
ATOM     20  C   UNL A   1      34.154  18.779  24.562  1.00  0.00     0.083 C 
ATOM     21  C   UNL A   1      34.865  17.499  24.182  1.00  0.00     0.025 C 
ATOM     22  C   UNL A   1      33.039  18.422  25.568  1.00  0.00     0.025 C 
ATOM     23  C   UNL A   1      34.057  16.298  23.777  1.00  0.00     0.002 C 
ATOM     24  C   UNL A   1      32.195  17.218  25.112  1.00  0.00     0.002 C 
ATOM     25  C   UNL A   1      33.039  15.978  24.829  1.00  0.00     0.000 C 
ENDBRANCH  18  20
ENDBRANCH  13  16
ENDBRANCH   8  10
ENDBRANCH   7   8
ENDBRANCH   6   7
ENDBRANCH   5   6
ENDBRANCH   4   5
ENDBRANCH   3   4
ENDBRANCH   2   3
ENDBRANCH   1   2
BRANCH   1  26
ATOM     26  C   UNL A   1      33.051  29.442  27.196  1.00  0.00     0.188 C 
BRANCH  26  27
ATOM     27  C   UNL A   1      31.703  30.185  27.157  1.00  0.00     0.188 C 
BRANCH  27  28
ATOM     28  O   UNL A   1      31.779  31.497  26.612  1.00  0.00    -0.376 OA
BRANCH  28  29
ATOM     29  C   UNL A   1      32.821  32.344  27.078  1.00  0.00     0.202 C 
BRANCH  29  30
ATOM     30  C   UNL A   1      32.482  33.796  27.472  1.00  0.00     0.261 C 
BRANCH  30  31
ATOM     31  O   UNL A   1      32.499  34.096  28.875  1.00  0.00    -0.460 OA
BRANCH  31  32
ATOM     32  C   UNL A   1      33.553  34.790  29.339  1.00  0.00     0.338 C 
ATOM     33  O   UNL A   1      33.556  35.930  29.785  1.00  0.00    -0.246 OA
BRANCH  32  34
ATOM     34  C   UNL A   1      34.702  33.873  29.420  1.00  0.00     0.060 A 
ATOM     35  C   UNL A   1      34.538  32.655  30.091  1.00  0.00     0.016 A 
ATOM     36  C   UNL A   1      35.935  34.218  28.857  1.00  0.00     0.016 A 
ATOM     37  C   UNL A   1      35.622  31.801  30.256  1.00  0.00     0.010 A 
ATOM     38  C   UNL A   1      37.033  33.377  29.054  1.00  0.00     0.010 A 
ATOM     39  C   UNL A   1      36.887  32.195  29.801  1.00  0.00    -0.014 A 
BRANCH  39  40
ATOM     40  C   UNL A   1      38.067  31.500  30.363  1.00  0.00     0.031 A 
ATOM     41  C   UNL A   1      38.438  31.797  31.791  1.00  0.00     0.074 A 
ATOM     42  C   UNL A   1      38.723  30.557  29.667  1.00  0.00     0.049 A 
ATOM     43  N   UNL A   1      39.379  31.272  32.534  1.00  0.00    -0.248 NA
ATOM     44  C   UNL A   1      37.632  32.821  32.477  1.00  0.00     0.031 C 
ATOM     45  C   UNL A   1      38.418  30.147  28.299  1.00  0.00     0.029 A 
ATOM     46  N   UNL A   1      39.780  29.763  30.034  1.00  0.00    -0.354 N 
ATOM     47  C   UNL A   1      39.274  31.900  33.768  1.00  0.00     0.074 A 
ATOM     48  C   UNL A   1      38.211  32.872  33.665  1.00  0.00     0.031 C 
ATOM     49  C   UNL A   1      39.274  29.174  27.937  1.00  0.00     0.029 A 
ATOM     50  C   UNL A   1      40.197  28.912  29.041  1.00  0.00     0.049 A 
ATOM     51  H   UNL A   1      40.199  29.801  30.923  1.00  0.00     0.167 HD
ATOM     52  C   UNL A   1      39.991  31.676  34.895  1.00  0.00     0.037 A 
ATOM     53  C   UNL A   1      41.214  28.030  29.029  1.00  0.00     0.037 A 
ATOM     54  C   UNL A   1      41.054  30.712  34.991  1.00  0.00     0.049 A 
ATOM     55  C   UNL A   1      42.051  27.856  30.271  1.00  0.00     0.074 A 
ATOM     56  C   UNL A   1      41.844  30.405  36.084  1.00  0.00     0.029 A 
ATOM     57  N   UNL A   1      41.484  29.905  33.947  1.00  0.00    -0.354 N 
ATOM     58  N   UNL A   1      41.933  28.435  31.442  1.00  0.00    -0.248 NA
ATOM     59  C   UNL A   1      43.159  26.893  30.191  1.00  0.00     0.031 C 
ATOM     60  C   UNL A   1      42.790  29.457  35.685  1.00  0.00     0.029 A 
ATOM     61  C   UNL A   1      42.546  29.120  34.363  1.00  0.00     0.049 A 
ATOM     62  H   UNL A   1      41.091  29.894  33.044  1.00  0.00     0.167 HD
ATOM     63  C   UNL A   1      42.923  27.883  32.246  1.00  0.00     0.074 A 
ATOM     64  C   UNL A   1      43.622  26.910  31.433  1.00  0.00     0.031 C 
ATOM     65  C   UNL A   1      43.227  28.152  33.541  1.00  0.00     0.037 A 
BRANCH  52  66
ATOM     66  C   UNL A   1      39.668  32.516  36.096  1.00  0.00     0.057 A 
ATOM     67  C   UNL A   1      38.734  32.110  37.059  1.00  0.00     0.134 A 
ATOM     68  C   UNL A   1      40.309  33.745  36.297  1.00  0.00     0.134 A 
ATOM     69  F   UNL A   1      38.068  30.954  36.918  1.00  0.00    -0.206 F 
ATOM     70  C   UNL A   1      38.432  32.909  38.165  1.00  0.00     0.040 A 
ATOM     71  C   UNL A   1      40.040  34.536  37.414  1.00  0.00     0.040 A 
ATOM     72  F   UNL A   1      41.213  34.193  35.413  1.00  0.00    -0.206 F 
ATOM     73  C   UNL A   1      39.092  34.122  38.348  1.00  0.00     0.006 A 
ENDBRANCH  52  66
BRANCH  53  74
ATOM     74  C   UNL A   1      41.511  27.246  27.802  1.00  0.00     0.057 A 
ATOM     75  C   UNL A   1      42.456  27.683  26.867  1.00  0.00     0.134 A 
ATOM     76  C   UNL A   1      40.827  26.058  27.519  1.00  0.00     0.134 A 
ATOM     77  F   UNL A   1      43.129  28.826  27.069  1.00  0.00    -0.206 F 
ATOM     78  C   UNL A   1      42.693  26.981  25.683  1.00  0.00     0.040 A 
ATOM     79  C   UNL A   1      41.075  25.330  26.353  1.00  0.00     0.040 A 
ATOM     80  F   UNL A   1      39.910  25.583  28.373  1.00  0.00    -0.206 F 
ATOM     81  C   UNL A   1      42.003  25.798  25.426  1.00  0.00     0.006 A 
ENDBRANCH  53  74
BRANCH  65  82
ATOM     82  C   UNL A   1      44.331  27.349  34.171  1.00  0.00     0.057 A 
ATOM     83  C   UNL A   1      45.661  27.788  34.185  1.00  0.00     0.134 A 
ATOM     84  C   UNL A   1      44.052  26.124  34.792  1.00  0.00     0.134 A 
ATOM     85  F   UNL A   1      46.001  28.948  33.601  1.00  0.00    -0.206 F 
ATOM     86  C   UNL A   1      46.678  27.021  34.757  1.00  0.00     0.040 A 
ATOM     87  C   UNL A   1      45.053  25.364  35.398  1.00  0.00     0.040 A 
ATOM     88  F   UNL A   1      42.798  25.648  34.830  1.00  0.00    -0.206 F 
ATOM     89  C   UNL A   1      46.374  25.807  35.371  1.00  0.00     0.006 A 
ENDBRANCH  65  82
ENDBRANCH  39  40
ENDBRANCH  32  34
ENDBRANCH  31  32
ENDBRANCH  30  31
ENDBRANCH  29  30
ENDBRANCH  28  29
ENDBRANCH  27  28
ENDBRANCH  26  27
ENDBRANCH   1  26
TORSDOF 22
ENDMDL
