MODEL 1
REMARK VINA RESULT:     -11.4      0.000      0.000
REMARK SMILES Cc1c(C(=O)OCCOCCOCCOCCOC(=O)c2ccc(-c3c4nc(c(-c5c(F)cccc5F)c5ccc([nH]5)c(-c5c(F)cccc5F)c5nc(c(-c6c(F)cccc6F)c6ccc3[nH]6)C=C5)C=C4)cc2)oc2c1/C(=N/NC(=O)C(c1ccccc1)c1ccccc1)CCC2
REMARK SMILES IDX 11 1 10 2 9 3 8 4 7 5 6 6 4 7 5 8 3 9 1 10 2 11 77 12 75 13
REMARK SMILES IDX 76 14 78 15 98 16 79 17 96 18 97 19 80 20 81 21 82 23 83 24
REMARK SMILES IDX 84 25 85 26 89 27 86 28 88 29 87 30 90 31 91 32 95 33 92 34
REMARK SMILES IDX 94 35 93 36 12 37 13 38 14 39 15 40 16 41 17 42 18 43 19 44
REMARK SMILES IDX 20 45 21 46 22 47 74 48 23 49 73 50 24 51 25 52 26 53 67 54
REMARK SMILES IDX 27 55 72 56 66 57 68 58 28 59 71 60 65 61 64 62 29 64 55 65
REMARK SMILES IDX 38 66 54 67 39 68 42 69 53 70 69 71 40 72 41 73 52 75 70 76
REMARK SMILES IDX 43 77 30 78 31 79 36 80 32 81 33 82 35 83 37 84 34 85 56 86
REMARK SMILES IDX 57 87 62 88 58 89 59 90 61 91 63 92 60 93 44 94 45 95 50 96
REMARK SMILES IDX 46 97 47 98 49 99 51 100 48 101
REMARK H PARENT 80 22 68 63 42 74
REMARK Flexibility Score: inf
ROOT
ATOM      1  C   UNL A   1      33.653  31.610  27.697  1.00  0.00     0.188 C 
ENDROOT
BRANCH   1   2
ATOM      2  C   UNL A   1      32.520  30.695  27.185  1.00  0.00     0.188 C 
BRANCH   2   3
ATOM      3  O   UNL A   1      32.403  30.739  25.767  1.00  0.00    -0.376 OA
BRANCH   3   4
ATOM      4  C   UNL A   1      31.130  30.539  25.184  1.00  0.00     0.202 C 
BRANCH   4   5
ATOM      5  C   UNL A   1      31.059  29.236  24.386  1.00  0.00     0.261 C 
BRANCH   5   6
ATOM      6  O   UNL A   1      30.029  29.215  23.400  1.00  0.00    -0.457 OA
BRANCH   6   7
ATOM      7  C   UNL A   1      29.273  28.091  23.289  1.00  0.00     0.374 C 
ATOM      8  O   UNL A   1      28.066  28.066  23.087  1.00  0.00    -0.242 OA
BRANCH   7   9
ATOM      9  C   UNL A   1      30.174  26.977  23.264  1.00  0.00     0.215 A 
ATOM     10  C   UNL A   1      29.781  25.646  25.463  1.00  0.00     0.049 C 
ATOM     11  C   UNL A   1      30.431  25.939  24.157  1.00  0.00     0.012 A 
ATOM     12  C   UNL A   1      31.482  25.198  23.556  1.00  0.00     0.043 A 
ATOM     13  O   UNL A   1      30.888  26.794  22.108  1.00  0.00    -0.453 OA
ATOM     14  C   UNL A   1      31.643  25.705  22.288  1.00  0.00     0.114 A 
ATOM     15  C   UNL A   1      32.384  24.165  24.048  1.00  0.00     0.072 C 
ATOM     16  C   UNL A   1      32.572  25.308  21.210  1.00  0.00     0.076 C 
ATOM     17  N   UNL A   1      31.944  23.586  25.128  1.00  0.00    -0.177 NA
ATOM     18  C   UNL A   1      33.654  24.177  23.188  1.00  0.00     0.059 C 
ATOM     19  C   UNL A   1      33.360  24.089  21.683  1.00  0.00     0.014 C 
BRANCH  17  20
ATOM     20  N   UNL A   1      32.375  22.692  26.069  1.00  0.00    -0.246 N 
ATOM     21  C   UNL A   1      33.339  21.708  26.169  1.00  0.00     0.252 C 
ATOM     22  H   UNL A   1      31.856  22.770  26.901  1.00  0.00     0.193 HD
ATOM     23  O   UNL A   1      33.476  21.125  27.251  1.00  0.00    -0.272 OA
BRANCH  21  24
ATOM     24  C   UNL A   1      34.200  21.342  24.970  1.00  0.00     0.140 C 
BRANCH  24  25
ATOM     25  C   UNL A   1      35.650  21.928  25.237  1.00  0.00    -0.031 A 
ATOM     26  C   UNL A   1      35.844  23.151  25.949  1.00  0.00     0.005 A 
ATOM     27  C   UNL A   1      36.827  21.301  24.807  1.00  0.00     0.005 A 
ATOM     28  C   UNL A   1      37.094  23.642  26.333  1.00  0.00     0.000 A 
ATOM     29  C   UNL A   1      38.097  21.821  25.154  1.00  0.00     0.000 A 
ATOM     30  C   UNL A   1      38.230  22.969  25.939  1.00  0.00     0.000 A 
ENDBRANCH  24  25
BRANCH  24  31
ATOM     31  C   UNL A   1      33.862  19.847  24.568  1.00  0.00    -0.031 A 
ATOM     32  C   UNL A   1      32.610  19.435  24.093  1.00  0.00     0.005 A 
ATOM     33  C   UNL A   1      34.832  18.806  24.686  1.00  0.00     0.005 A 
ATOM     34  C   UNL A   1      32.401  18.105  23.654  1.00  0.00     0.000 A 
ATOM     35  C   UNL A   1      34.652  17.511  24.193  1.00  0.00     0.000 A 
ATOM     36  C   UNL A   1      33.429  17.159  23.664  1.00  0.00     0.000 A 
ENDBRANCH  24  31
ENDBRANCH  21  24
ENDBRANCH  17  20
ENDBRANCH   7   9
ENDBRANCH   6   7
ENDBRANCH   5   6
ENDBRANCH   4   5
ENDBRANCH   3   4
ENDBRANCH   2   3
ENDBRANCH   1   2
BRANCH   1  37
ATOM     37  O   UNL A   1      33.327  32.930  28.122  1.00  0.00    -0.377 OA
BRANCH  37  38
ATOM     38  C   UNL A   1      34.397  33.861  28.150  1.00  0.00     0.188 C 
BRANCH  38  39
ATOM     39  C   UNL A   1      35.227  33.796  29.449  1.00  0.00     0.188 C 
BRANCH  39  40
ATOM     40  O   UNL A   1      34.766  33.047  30.563  1.00  0.00    -0.376 OA
BRANCH  40  41
ATOM     41  C   UNL A   1      35.433  31.953  31.170  1.00  0.00     0.202 C 
BRANCH  41  42
ATOM     42  C   UNL A   1      36.863  31.485  30.925  1.00  0.00     0.261 C 
BRANCH  42  43
ATOM     43  O   UNL A   1      37.032  30.170  30.471  1.00  0.00    -0.460 OA
BRANCH  43  44
ATOM     44  C   UNL A   1      36.828  30.014  29.156  1.00  0.00     0.338 C 
ATOM     45  O   UNL A   1      35.893  30.422  28.492  1.00  0.00    -0.246 OA
BRANCH  44  46
ATOM     46  C   UNL A   1      37.873  29.117  28.666  1.00  0.00     0.060 A 
ATOM     47  C   UNL A   1      38.453  28.289  29.622  1.00  0.00     0.016 A 
ATOM     48  C   UNL A   1      38.459  29.350  27.409  1.00  0.00     0.016 A 
ATOM     49  C   UNL A   1      39.751  27.901  29.416  1.00  0.00     0.010 A 
ATOM     50  C   UNL A   1      39.762  28.967  27.208  1.00  0.00     0.010 A 
ATOM     51  C   UNL A   1      40.413  28.333  28.257  1.00  0.00    -0.014 A 
BRANCH  51  52
ATOM     52  C   UNL A   1      41.824  28.054  28.183  1.00  0.00     0.031 A 
ATOM     53  C   UNL A   1      42.127  26.776  27.521  1.00  0.00     0.074 A 
ATOM     54  C   UNL A   1      42.763  28.880  28.674  1.00  0.00     0.049 A 
ATOM     55  N   UNL A   1      42.582  25.700  28.068  1.00  0.00    -0.248 NA
ATOM     56  C   UNL A   1      41.723  26.630  26.117  1.00  0.00     0.031 C 
ATOM     57  C   UNL A   1      42.625  30.270  29.111  1.00  0.00     0.029 A 
ATOM     58  N   UNL A   1      44.094  28.639  28.806  1.00  0.00    -0.354 N 
ATOM     59  C   UNL A   1      42.709  24.788  27.032  1.00  0.00     0.074 A 
ATOM     60  C   UNL A   1      42.026  25.351  25.896  1.00  0.00     0.031 C 
ATOM     61  C   UNL A   1      43.857  30.809  29.257  1.00  0.00     0.029 A 
ATOM     62  C   UNL A   1      44.853  29.768  29.058  1.00  0.00     0.049 A 
ATOM     63  H   UNL A   1      44.483  27.739  28.728  1.00  0.00     0.167 HD
ATOM     64  C   UNL A   1      43.587  23.756  27.123  1.00  0.00     0.037 A 
ATOM     65  C   UNL A   1      46.205  29.834  29.029  1.00  0.00     0.037 A 
ATOM     66  C   UNL A   1      43.935  23.475  28.494  1.00  0.00     0.049 A 
ATOM     67  C   UNL A   1      46.729  28.455  29.189  1.00  0.00     0.074 A 
ATOM     68  C   UNL A   1      43.228  23.106  29.621  1.00  0.00     0.029 A 
ATOM     69  N   UNL A   1      45.157  23.907  28.946  1.00  0.00    -0.354 N 
ATOM     70  N   UNL A   1      46.658  27.768  30.296  1.00  0.00    -0.248 NA
ATOM     71  C   UNL A   1      46.976  27.668  27.989  1.00  0.00     0.031 C 
ATOM     72  C   UNL A   1      43.883  23.758  30.706  1.00  0.00     0.029 A 
ATOM     73  C   UNL A   1      44.969  24.462  30.185  1.00  0.00     0.049 A 
ATOM     74  H   UNL A   1      46.014  23.833  28.466  1.00  0.00     0.167 HD
ATOM     75  C   UNL A   1      46.415  26.465  29.889  1.00  0.00     0.074 A 
ATOM     76  C   UNL A   1      46.739  26.445  28.467  1.00  0.00     0.031 C 
ATOM     77  C   UNL A   1      45.708  25.602  30.678  1.00  0.00     0.037 A 
BRANCH  64  78
ATOM     78  C   UNL A   1      44.420  23.294  25.959  1.00  0.00     0.057 A 
ATOM     79  C   UNL A   1      44.463  21.924  25.653  1.00  0.00     0.134 A 
ATOM     80  C   UNL A   1      45.404  24.083  25.327  1.00  0.00     0.134 A 
ATOM     81  F   UNL A   1      43.591  21.068  26.207  1.00  0.00    -0.206 F 
ATOM     82  C   UNL A   1      45.460  21.371  24.842  1.00  0.00     0.040 A 
ATOM     83  C   UNL A   1      46.371  23.550  24.474  1.00  0.00     0.040 A 
ATOM     84  F   UNL A   1      45.554  25.390  25.580  1.00  0.00    -0.206 F 
ATOM     85  C   UNL A   1      46.423  22.184  24.257  1.00  0.00     0.006 A 
ENDBRANCH  64  78
BRANCH  65  86
ATOM     86  C   UNL A   1      47.056  30.954  28.577  1.00  0.00     0.057 A 
ATOM     87  C   UNL A   1      48.117  31.418  29.366  1.00  0.00     0.134 A 
ATOM     88  C   UNL A   1      47.028  31.410  27.247  1.00  0.00     0.134 A 
ATOM     89  F   UNL A   1      48.252  31.008  30.636  1.00  0.00    -0.206 F 
ATOM     90  C   UNL A   1      49.111  32.262  28.854  1.00  0.00     0.040 A 
ATOM     91  C   UNL A   1      48.009  32.260  26.726  1.00  0.00     0.040 A 
ATOM     92  F   UNL A   1      46.102  30.973  26.380  1.00  0.00    -0.206 F 
ATOM     93  C   UNL A   1      49.065  32.676  27.527  1.00  0.00     0.006 A 
ENDBRANCH  65  86
BRANCH  77  94
ATOM     94  C   UNL A   1      45.472  26.003  32.107  1.00  0.00     0.057 A 
ATOM     95  C   UNL A   1      44.324  26.671  32.558  1.00  0.00     0.134 A 
ATOM     96  C   UNL A   1      46.386  25.588  33.084  1.00  0.00     0.134 A 
ATOM     97  F   UNL A   1      43.345  27.017  31.710  1.00  0.00    -0.206 F 
ATOM     98  C   UNL A   1      44.122  26.960  33.910  1.00  0.00     0.040 A 
ATOM     99  C   UNL A   1      46.179  25.840  34.442  1.00  0.00     0.040 A 
ATOM    100  F   UNL A   1      47.479  24.893  32.735  1.00  0.00    -0.206 F 
ATOM    101  C   UNL A   1      45.050  26.541  34.858  1.00  0.00     0.006 A 
ENDBRANCH  77  94
ENDBRANCH  51  52
ENDBRANCH  44  46
ENDBRANCH  43  44
ENDBRANCH  42  43
ENDBRANCH  41  42
ENDBRANCH  40  41
ENDBRANCH  39  40
ENDBRANCH  38  39
ENDBRANCH  37  38
ENDBRANCH   1  37
TORSDOF 24
ENDMDL
MODEL 2
REMARK VINA RESULT:     -10.2      1.263      2.528
REMARK SMILES Cc1c(C(=O)OCCOCCOCCOCCOC(=O)c2ccc(-c3c4nc(c(-c5c(F)cccc5F)c5ccc([nH]5)c(-c5c(F)cccc5F)c5nc(c(-c6c(F)cccc6F)c6ccc3[nH]6)C=C5)C=C4)cc2)oc2c1/C(=N/NC(=O)C(c1ccccc1)c1ccccc1)CCC2
REMARK SMILES IDX 11 1 10 2 9 3 8 4 7 5 6 6 4 7 5 8 3 9 1 10 2 11 77 12 75 13
REMARK SMILES IDX 76 14 78 15 98 16 79 17 96 18 97 19 80 20 81 21 82 23 83 24
REMARK SMILES IDX 84 25 85 26 89 27 86 28 88 29 87 30 90 31 91 32 95 33 92 34
REMARK SMILES IDX 94 35 93 36 12 37 13 38 14 39 15 40 16 41 17 42 18 43 19 44
REMARK SMILES IDX 20 45 21 46 22 47 74 48 23 49 73 50 24 51 25 52 26 53 67 54
REMARK SMILES IDX 27 55 72 56 66 57 68 58 28 59 71 60 65 61 64 62 29 64 55 65
REMARK SMILES IDX 38 66 54 67 39 68 42 69 53 70 69 71 40 72 41 73 52 75 70 76
REMARK SMILES IDX 43 77 30 78 31 79 36 80 32 81 33 82 35 83 37 84 34 85 56 86
REMARK SMILES IDX 57 87 62 88 58 89 59 90 61 91 63 92 60 93 44 94 45 95 50 96
REMARK SMILES IDX 46 97 47 98 49 99 51 100 48 101
REMARK H PARENT 80 22 68 63 42 74
REMARK Flexibility Score: inf
ROOT
ATOM      1  C   UNL A   1      33.704  31.641  27.725  1.00  0.00     0.188 C 
ENDROOT
BRANCH   1   2
ATOM      2  C   UNL A   1      32.563  30.737  27.211  1.00  0.00     0.188 C 
BRANCH   2   3
ATOM      3  O   UNL A   1      32.325  30.923  25.820  1.00  0.00    -0.376 OA
BRANCH   3   4
ATOM      4  C   UNL A   1      31.004  30.786  25.333  1.00  0.00     0.202 C 
BRANCH   4   5
ATOM      5  C   UNL A   1      30.854  29.582  24.401  1.00  0.00     0.261 C 
BRANCH   5   6
ATOM      6  O   UNL A   1      29.933  29.787  23.333  1.00  0.00    -0.457 OA
BRANCH   6   7
ATOM      7  C   UNL A   1      29.130  28.750  22.974  1.00  0.00     0.374 C 
ATOM      8  O   UNL A   1      27.941  28.838  22.692  1.00  0.00    -0.242 OA
BRANCH   7   9
ATOM      9  C   UNL A   1      29.971  27.601  22.810  1.00  0.00     0.215 A 
ATOM     10  C   UNL A   1      29.314  25.919  24.679  1.00  0.00     0.049 C 
ATOM     11  C   UNL A   1      30.092  26.402  23.507  1.00  0.00     0.012 A 
ATOM     12  C   UNL A   1      31.155  25.715  22.862  1.00  0.00     0.043 A 
ATOM     13  O   UNL A   1      30.775  27.588  21.700  1.00  0.00    -0.453 OA
ATOM     14  C   UNL A   1      31.454  26.436  21.729  1.00  0.00     0.114 A 
ATOM     15  C   UNL A   1      31.954  24.551  23.219  1.00  0.00     0.072 C 
ATOM     16  C   UNL A   1      32.455  26.182  20.672  1.00  0.00     0.076 C 
ATOM     17  N   UNL A   1      31.390  23.815  24.132  1.00  0.00    -0.177 NA
ATOM     18  C   UNL A   1      33.295  24.636  22.479  1.00  0.00     0.059 C 
ATOM     19  C   UNL A   1      33.134  24.846  20.966  1.00  0.00     0.014 C 
BRANCH  17  20
ATOM     20  N   UNL A   1      31.688  22.735  24.918  1.00  0.00    -0.246 N 
ATOM     21  C   UNL A   1      32.632  22.401  25.869  1.00  0.00     0.252 C 
ATOM     22  H   UNL A   1      31.058  21.995  24.762  1.00  0.00     0.193 HD
ATOM     23  O   UNL A   1      32.537  21.303  26.431  1.00  0.00    -0.272 OA
BRANCH  21  24
ATOM     24  C   UNL A   1      33.768  23.355  26.203  1.00  0.00     0.140 C 
BRANCH  24  25
ATOM     25  C   UNL A   1      35.008  22.940  25.305  1.00  0.00    -0.031 A 
ATOM     26  C   UNL A   1      36.146  22.278  25.859  1.00  0.00     0.005 A 
ATOM     27  C   UNL A   1      35.078  23.183  23.926  1.00  0.00     0.005 A 
ATOM     28  C   UNL A   1      37.200  21.767  25.098  1.00  0.00     0.000 A 
ATOM     29  C   UNL A   1      36.168  22.709  23.159  1.00  0.00     0.000 A 
ATOM     30  C   UNL A   1      37.208  21.978  23.736  1.00  0.00     0.000 A 
ENDBRANCH  24  25
BRANCH  24  31
ATOM     31  C   UNL A   1      33.157  24.811  26.328  1.00  0.00    -0.031 A 
ATOM     32  C   UNL A   1      33.767  25.957  25.801  1.00  0.00     0.005 A 
ATOM     33  C   UNL A   1      31.928  25.048  27.015  1.00  0.00     0.005 A 
ATOM     34  C   UNL A   1      33.120  27.216  25.856  1.00  0.00     0.000 A 
ATOM     35  C   UNL A   1      31.255  26.273  27.013  1.00  0.00     0.000 A 
ATOM     36  C   UNL A   1      31.852  27.365  26.421  1.00  0.00     0.000 A 
ENDBRANCH  24  31
ENDBRANCH  21  24
ENDBRANCH  17  20
ENDBRANCH   7   9
ENDBRANCH   6   7
ENDBRANCH   5   6
ENDBRANCH   4   5
ENDBRANCH   3   4
ENDBRANCH   2   3
ENDBRANCH   1   2
BRANCH   1  37
ATOM     37  O   UNL A   1      33.391  32.964  28.152  1.00  0.00    -0.377 OA
BRANCH  37  38
ATOM     38  C   UNL A   1      34.439  33.915  28.060  1.00  0.00     0.188 C 
BRANCH  38  39
ATOM     39  C   UNL A   1      35.394  33.890  29.272  1.00  0.00     0.188 C 
BRANCH  39  40
ATOM     40  O   UNL A   1      35.044  33.182  30.451  1.00  0.00    -0.376 OA
BRANCH  40  41
ATOM     41  C   UNL A   1      35.649  31.989  30.922  1.00  0.00     0.202 C 
BRANCH  41  42
ATOM     42  C   UNL A   1      37.043  31.464  30.597  1.00  0.00     0.261 C 
BRANCH  42  43
ATOM     43  O   UNL A   1      37.118  30.225  29.948  1.00  0.00    -0.460 OA
BRANCH  43  44
ATOM     44  C   UNL A   1      37.190  30.309  28.613  1.00  0.00     0.338 C 
ATOM     45  O   UNL A   1      36.488  30.968  27.868  1.00  0.00    -0.246 OA
BRANCH  44  46
ATOM     46  C   UNL A   1      38.186  29.332  28.177  1.00  0.00     0.060 A 
ATOM     47  C   UNL A   1      38.671  28.483  29.167  1.00  0.00     0.016 A 
ATOM     48  C   UNL A   1      38.833  29.501  26.939  1.00  0.00     0.016 A 
ATOM     49  C   UNL A   1      39.945  28.002  29.015  1.00  0.00     0.010 A 
ATOM     50  C   UNL A   1      40.112  29.024  26.793  1.00  0.00     0.010 A 
ATOM     51  C   UNL A   1      40.678  28.365  27.875  1.00  0.00    -0.014 A 
BRANCH  51  52
ATOM     52  C   UNL A   1      42.068  27.987  27.859  1.00  0.00     0.031 A 
ATOM     53  C   UNL A   1      42.304  26.678  27.231  1.00  0.00     0.074 A 
ATOM     54  C   UNL A   1      43.044  28.756  28.370  1.00  0.00     0.049 A 
ATOM     55  N   UNL A   1      42.661  25.585  27.814  1.00  0.00    -0.248 NA
ATOM     56  C   UNL A   1      41.941  26.532  25.815  1.00  0.00     0.031 C 
ATOM     57  C   UNL A   1      42.989  30.161  28.777  1.00  0.00     0.029 A 
ATOM     58  N   UNL A   1      44.350  28.425  28.555  1.00  0.00    -0.354 N 
ATOM     59  C   UNL A   1      42.762  24.644  26.799  1.00  0.00     0.074 A 
ATOM     60  C   UNL A   1      42.160  25.231  25.629  1.00  0.00     0.031 C 
ATOM     61  C   UNL A   1      44.250  30.615  28.958  1.00  0.00     0.029 A 
ATOM     62  C   UNL A   1      45.176  29.503  28.815  1.00  0.00     0.049 A 
ATOM     63  H   UNL A   1      44.677  27.499  28.508  1.00  0.00     0.167 HD
ATOM     64  C   UNL A   1      43.560  23.556  26.941  1.00  0.00     0.037 A 
ATOM     65  C   UNL A   1      46.530  29.474  28.836  1.00  0.00     0.037 A 
ATOM     66  C   UNL A   1      43.839  23.279  28.328  1.00  0.00     0.049 A 
ATOM     67  C   UNL A   1      46.949  28.065  29.039  1.00  0.00     0.074 A 
ATOM     68  C   UNL A   1      43.067  22.983  29.435  1.00  0.00     0.029 A 
ATOM     69  N   UNL A   1      45.071  23.634  28.818  1.00  0.00    -0.354 N 
ATOM     70  N   UNL A   1      46.791  27.408  30.154  1.00  0.00    -0.248 NA
ATOM     71  C   UNL A   1      47.183  27.240  27.863  1.00  0.00     0.031 C 
ATOM     72  C   UNL A   1      43.727  23.610  30.532  1.00  0.00     0.029 A 
ATOM     73  C   UNL A   1      44.878  24.226  30.039  1.00  0.00     0.049 A 
ATOM     74  H   UNL A   1      45.937  23.491  28.372  1.00  0.00     0.167 HD
ATOM     75  C   UNL A   1      46.471  26.117  29.762  1.00  0.00     0.074 A 
ATOM     76  C   UNL A   1      46.844  26.045  28.353  1.00  0.00     0.031 C 
ATOM     77  C   UNL A   1      45.678  25.321  30.539  1.00  0.00     0.037 A 
BRANCH  64  78
ATOM     78  C   UNL A   1      44.400  23.013  25.817  1.00  0.00     0.057 A 
ATOM     79  C   UNL A   1      44.378  21.634  25.555  1.00  0.00     0.134 A 
ATOM     80  C   UNL A   1      45.442  23.730  25.191  1.00  0.00     0.134 A 
ATOM     81  F   UNL A   1      43.446  20.844  26.108  1.00  0.00    -0.206 F 
ATOM     82  C   UNL A   1      45.367  21.004  24.791  1.00  0.00     0.040 A 
ATOM     83  C   UNL A   1      46.403  23.119  24.384  1.00  0.00     0.040 A 
ATOM     84  F   UNL A   1      45.655  25.034  25.408  1.00  0.00    -0.206 F 
ATOM     85  C   UNL A   1      46.388  21.746  24.210  1.00  0.00     0.006 A 
ENDBRANCH  64  78
BRANCH  65  86
ATOM     86  C   UNL A   1      47.473  30.523  28.396  1.00  0.00     0.057 A 
ATOM     87  C   UNL A   1      47.338  31.134  27.142  1.00  0.00     0.134 A 
ATOM     88  C   UNL A   1      48.353  31.148  29.297  1.00  0.00     0.134 A 
ATOM     89  F   UNL A   1      46.491  30.636  26.229  1.00  0.00    -0.206 F 
ATOM     90  C   UNL A   1      48.016  32.315  26.813  1.00  0.00     0.040 A 
ATOM     91  C   UNL A   1      49.043  32.321  28.977  1.00  0.00     0.040 A 
ATOM     92  F   UNL A   1      48.505  30.695  30.550  1.00  0.00    -0.206 F 
ATOM     93  C   UNL A   1      48.863  32.918  27.737  1.00  0.00     0.006 A 
ENDBRANCH  65  86
BRANCH  77  94
ATOM     94  C   UNL A   1      45.419  25.766  31.951  1.00  0.00     0.057 A 
ATOM     95  C   UNL A   1      46.287  25.517  33.026  1.00  0.00     0.134 A 
ATOM     96  C   UNL A   1      44.312  26.582  32.210  1.00  0.00     0.134 A 
ATOM     97  F   UNL A   1      47.427  24.832  32.853  1.00  0.00    -0.206 F 
ATOM     98  C   UNL A   1      46.033  26.012  34.308  1.00  0.00     0.040 A 
ATOM     99  C   UNL A   1      44.066  27.111  33.478  1.00  0.00     0.040 A 
ATOM    100  F   UNL A   1      43.469  26.911  31.219  1.00  0.00    -0.206 F 
ATOM    101  C   UNL A   1      44.921  26.816  34.537  1.00  0.00     0.006 A 
ENDBRANCH  77  94
ENDBRANCH  51  52
ENDBRANCH  44  46
ENDBRANCH  43  44
ENDBRANCH  42  43
ENDBRANCH  41  42
ENDBRANCH  40  41
ENDBRANCH  39  40
ENDBRANCH  38  39
ENDBRANCH  37  38
ENDBRANCH   1  37
TORSDOF 24
ENDMDL
MODEL 3
REMARK VINA RESULT:     -10.0      1.340      2.371
REMARK SMILES Cc1c(C(=O)OCCOCCOCCOCCOC(=O)c2ccc(-c3c4nc(c(-c5c(F)cccc5F)c5ccc([nH]5)c(-c5c(F)cccc5F)c5nc(c(-c6c(F)cccc6F)c6ccc3[nH]6)C=C5)C=C4)cc2)oc2c1/C(=N/NC(=O)C(c1ccccc1)c1ccccc1)CCC2
REMARK SMILES IDX 11 1 10 2 9 3 8 4 7 5 6 6 4 7 5 8 3 9 1 10 2 11 77 12 75 13
REMARK SMILES IDX 76 14 78 15 98 16 79 17 96 18 97 19 80 20 81 21 82 23 83 24
REMARK SMILES IDX 84 25 85 26 89 27 86 28 88 29 87 30 90 31 91 32 95 33 92 34
REMARK SMILES IDX 94 35 93 36 12 37 13 38 14 39 15 40 16 41 17 42 18 43 19 44
REMARK SMILES IDX 20 45 21 46 22 47 74 48 23 49 73 50 24 51 25 52 26 53 67 54
REMARK SMILES IDX 27 55 72 56 66 57 68 58 28 59 71 60 65 61 64 62 29 64 55 65
REMARK SMILES IDX 38 66 54 67 39 68 42 69 53 70 69 71 40 72 41 73 52 75 70 76
REMARK SMILES IDX 43 77 30 78 31 79 36 80 32 81 33 82 35 83 37 84 34 85 56 86
REMARK SMILES IDX 57 87 62 88 58 89 59 90 61 91 63 92 60 93 44 94 45 95 50 96
REMARK SMILES IDX 46 97 47 98 49 99 51 100 48 101
REMARK H PARENT 80 22 68 63 42 74
REMARK Flexibility Score: inf
ROOT
ATOM      1  C   UNL A   1      33.655  31.411  27.699  1.00  0.00     0.188 C 
ENDROOT
BRANCH   1   2
ATOM      2  C   UNL A   1      32.484  30.561  27.162  1.00  0.00     0.188 C 
BRANCH   2   3
ATOM      3  O   UNL A   1      32.241  30.807  25.780  1.00  0.00    -0.376 OA
BRANCH   3   4
ATOM      4  C   UNL A   1      31.201  30.096  25.137  1.00  0.00     0.202 C 
BRANCH   4   5
ATOM      5  C   UNL A   1      31.661  29.464  23.822  1.00  0.00     0.261 C 
BRANCH   5   6
ATOM      6  O   UNL A   1      30.670  29.467  22.799  1.00  0.00    -0.457 OA
BRANCH   6   7
ATOM      7  C   UNL A   1      29.740  28.476  22.806  1.00  0.00     0.374 C 
ATOM      8  O   UNL A   1      28.526  28.642  22.817  1.00  0.00    -0.242 OA
BRANCH   7   9
ATOM      9  C   UNL A   1      30.439  27.240  22.611  1.00  0.00     0.215 A 
ATOM     10  C   UNL A   1      29.672  25.638  24.510  1.00  0.00     0.049 C 
ATOM     11  C   UNL A   1      30.452  26.033  23.306  1.00  0.00     0.012 A 
ATOM     12  C   UNL A   1      31.403  25.232  22.620  1.00  0.00     0.043 A 
ATOM     13  O   UNL A   1      31.190  27.137  21.469  1.00  0.00    -0.453 OA
ATOM     14  C   UNL A   1      31.736  25.916  21.474  1.00  0.00     0.114 A 
ATOM     15  C   UNL A   1      32.080  23.984  22.948  1.00  0.00     0.072 C 
ATOM     16  C   UNL A   1      32.658  25.553  20.378  1.00  0.00     0.076 C 
ATOM     17  N   UNL A   1      31.473  23.314  23.885  1.00  0.00    -0.177 NA
ATOM     18  C   UNL A   1      33.391  23.918  22.154  1.00  0.00     0.059 C 
ATOM     19  C   UNL A   1      33.193  24.148  20.648  1.00  0.00     0.014 C 
BRANCH  17  20
ATOM     20  N   UNL A   1      31.679  22.207  24.661  1.00  0.00    -0.246 N 
ATOM     21  C   UNL A   1      32.541  21.817  25.667  1.00  0.00     0.252 C 
ATOM     22  H   UNL A   1      31.039  21.492  24.441  1.00  0.00     0.193 HD
ATOM     23  O   UNL A   1      32.371  20.710  26.192  1.00  0.00    -0.272 OA
BRANCH  21  24
ATOM     24  C   UNL A   1      33.680  22.724  26.107  1.00  0.00     0.140 C 
BRANCH  24  25
ATOM     25  C   UNL A   1      34.974  22.270  25.310  1.00  0.00    -0.031 A 
ATOM     26  C   UNL A   1      35.479  23.025  24.207  1.00  0.00     0.005 A 
ATOM     27  C   UNL A   1      35.709  21.118  25.623  1.00  0.00     0.005 A 
ATOM     28  C   UNL A   1      36.686  22.752  23.560  1.00  0.00     0.000 A 
ATOM     29  C   UNL A   1      36.908  20.812  24.937  1.00  0.00     0.000 A 
ATOM     30  C   UNL A   1      37.411  21.641  23.932  1.00  0.00     0.000 A 
ENDBRANCH  24  25
BRANCH  24  31
ATOM     31  C   UNL A   1      33.116  24.201  26.198  1.00  0.00    -0.031 A 
ATOM     32  C   UNL A   1      31.926  24.539  26.858  1.00  0.00     0.005 A 
ATOM     33  C   UNL A   1      33.795  25.298  25.586  1.00  0.00     0.005 A 
ATOM     34  C   UNL A   1      31.529  25.891  26.993  1.00  0.00     0.000 A 
ATOM     35  C   UNL A   1      33.443  26.638  25.773  1.00  0.00     0.000 A 
ATOM     36  C   UNL A   1      32.305  26.938  26.491  1.00  0.00     0.000 A 
ENDBRANCH  24  31
ENDBRANCH  21  24
ENDBRANCH  17  20
ENDBRANCH   7   9
ENDBRANCH   6   7
ENDBRANCH   5   6
ENDBRANCH   4   5
ENDBRANCH   3   4
ENDBRANCH   2   3
ENDBRANCH   1   2
BRANCH   1  37
ATOM     37  O   UNL A   1      33.367  32.664  28.313  1.00  0.00    -0.377 OA
BRANCH  37  38
ATOM     38  C   UNL A   1      34.185  33.755  27.923  1.00  0.00     0.188 C 
BRANCH  38  39
ATOM     39  C   UNL A   1      35.540  33.795  28.660  1.00  0.00     0.188 C 
BRANCH  39  40
ATOM     40  O   UNL A   1      35.620  33.475  30.040  1.00  0.00    -0.376 OA
BRANCH  40  41
ATOM     41  C   UNL A   1      36.018  32.229  30.589  1.00  0.00     0.202 C 
BRANCH  41  42
ATOM     42  C   UNL A   1      37.232  31.391  30.205  1.00  0.00     0.261 C 
BRANCH  42  43
ATOM     43  O   UNL A   1      36.984  30.101  29.718  1.00  0.00    -0.460 OA
BRANCH  43  44
ATOM     44  C   UNL A   1      37.065  29.992  28.386  1.00  0.00     0.338 C 
ATOM     45  O   UNL A   1      36.295  30.435  27.552  1.00  0.00    -0.246 OA
BRANCH  44  46
ATOM     46  C   UNL A   1      38.186  29.099  28.097  1.00  0.00     0.060 A 
ATOM     47  C   UNL A   1      38.563  28.252  29.134  1.00  0.00     0.016 A 
ATOM     48  C   UNL A   1      39.012  29.353  26.987  1.00  0.00     0.016 A 
ATOM     49  C   UNL A   1      39.875  27.862  29.184  1.00  0.00     0.010 A 
ATOM     50  C   UNL A   1      40.328  28.967  27.043  1.00  0.00     0.010 A 
ATOM     51  C   UNL A   1      40.756  28.311  28.189  1.00  0.00    -0.014 A 
BRANCH  51  52
ATOM     52  C   UNL A   1      42.153  28.027  28.393  1.00  0.00     0.031 A 
ATOM     53  C   UNL A   1      42.604  26.812  27.698  1.00  0.00     0.074 A 
ATOM     54  C   UNL A   1      42.957  28.797  29.146  1.00  0.00     0.049 A 
ATOM     55  N   UNL A   1      42.943  25.687  28.229  1.00  0.00    -0.248 NA
ATOM     56  C   UNL A   1      42.511  26.797  26.232  1.00  0.00     0.031 C 
ATOM     57  C   UNL A   1      42.714  30.143  29.668  1.00  0.00     0.029 A 
ATOM     58  N   UNL A   1      44.232  28.533  29.536  1.00  0.00    -0.354 N 
ATOM     59  C   UNL A   1      43.298  24.871  27.166  1.00  0.00     0.074 A 
ATOM     60  C   UNL A   1      42.867  25.541  25.966  1.00  0.00     0.031 C 
ATOM     61  C   UNL A   1      43.881  30.655  30.121  1.00  0.00     0.029 A 
ATOM     62  C   UNL A   1      44.907  29.627  30.046  1.00  0.00     0.049 A 
ATOM     63  H   UNL A   1      44.638  27.640  29.462  1.00  0.00     0.167 HD
ATOM     64  C   UNL A   1      44.147  23.827  27.349  1.00  0.00     0.037 A 
ATOM     65  C   UNL A   1      46.234  29.683  30.313  1.00  0.00     0.037 A 
ATOM     66  C   UNL A   1      44.197  23.420  28.731  1.00  0.00     0.049 A 
ATOM     67  C   UNL A   1      46.726  28.290  30.455  1.00  0.00     0.074 A 
ATOM     68  C   UNL A   1      43.269  22.956  29.643  1.00  0.00     0.029 A 
ATOM     69  N   UNL A   1      45.290  23.798  29.471  1.00  0.00    -0.354 N 
ATOM     70  N   UNL A   1      46.427  27.507  31.454  1.00  0.00    -0.248 NA
ATOM     71  C   UNL A   1      47.231  27.614  29.269  1.00  0.00     0.031 C 
ATOM     72  C   UNL A   1      43.670  23.502  30.897  1.00  0.00     0.029 A 
ATOM     73  C   UNL A   1      44.836  24.240  30.686  1.00  0.00     0.049 A 
ATOM     74  H   UNL A   1      46.230  23.759  29.180  1.00  0.00     0.167 HD
ATOM     75  C   UNL A   1      46.290  26.248  30.888  1.00  0.00     0.074 A 
ATOM     76  C   UNL A   1      46.911  26.354  29.572  1.00  0.00     0.031 C 
ATOM     77  C   UNL A   1      45.441  25.323  31.426  1.00  0.00     0.037 A 
BRANCH  64  78
ATOM     78  C   UNL A   1      45.214  23.465  26.352  1.00  0.00     0.057 A 
ATOM     79  C   UNL A   1      46.120  24.452  25.936  1.00  0.00     0.134 A 
ATOM     80  C   UNL A   1      45.199  22.291  25.570  1.00  0.00     0.134 A 
ATOM     81  F   UNL A   1      46.214  25.620  26.589  1.00  0.00    -0.206 F 
ATOM     82  C   UNL A   1      46.896  24.313  24.780  1.00  0.00     0.040 A 
ATOM     83  C   UNL A   1      46.007  22.120  24.445  1.00  0.00     0.040 A 
ATOM     84  F   UNL A   1      44.332  21.293  25.781  1.00  0.00    -0.206 F 
ATOM     85  C   UNL A   1      46.835  23.147  24.026  1.00  0.00     0.006 A 
ENDBRANCH  64  78
BRANCH  65  86
ATOM     86  C   UNL A   1      47.150  30.832  30.156  1.00  0.00     0.057 A 
ATOM     87  C   UNL A   1      47.933  31.281  31.228  1.00  0.00     0.134 A 
ATOM     88  C   UNL A   1      47.488  31.336  28.888  1.00  0.00     0.134 A 
ATOM     89  F   UNL A   1      47.713  30.825  32.469  1.00  0.00    -0.206 F 
ATOM     90  C   UNL A   1      49.010  32.159  31.045  1.00  0.00     0.040 A 
ATOM     91  C   UNL A   1      48.554  32.220  28.694  1.00  0.00     0.040 A 
ATOM     92  F   UNL A   1      46.856  30.919  27.781  1.00  0.00    -0.206 F 
ATOM     93  C   UNL A   1      49.330  32.621  29.773  1.00  0.00     0.006 A 
ENDBRANCH  65  86
BRANCH  77  94
ATOM     94  C   UNL A   1      44.901  25.595  32.803  1.00  0.00     0.057 A 
ATOM     95  C   UNL A   1      43.819  26.448  33.070  1.00  0.00     0.134 A 
ATOM     96  C   UNL A   1      45.417  24.872  33.885  1.00  0.00     0.134 A 
ATOM     97  F   UNL A   1      43.193  27.104  32.083  1.00  0.00    -0.206 F 
ATOM     98  C   UNL A   1      43.312  26.613  34.362  1.00  0.00     0.040 A 
ATOM     99  C   UNL A   1      44.897  25.001  35.174  1.00  0.00     0.040 A 
ATOM    100  F   UNL A   1      46.414  23.993  33.697  1.00  0.00    -0.206 F 
ATOM    101  C   UNL A   1      43.848  25.885  35.419  1.00  0.00     0.006 A 
ENDBRANCH  77  94
ENDBRANCH  51  52
ENDBRANCH  44  46
ENDBRANCH  43  44
ENDBRANCH  42  43
ENDBRANCH  41  42
ENDBRANCH  40  41
ENDBRANCH  39  40
ENDBRANCH  38  39
ENDBRANCH  37  38
ENDBRANCH   1  37
TORSDOF 24
ENDMDL
