MODEL 1
REMARK VINA RESULT:      -9.1      0.000      0.000
REMARK SMILES NC(=O)CC[N@@H+]1[C@@H](C(=O)OCCOCCOCCOCCOC(=O)c2ccc(-c3c4nc(c(-c5c(F)cccc5F)c5ccc([nH]5)c(-c5c(F)cccc5F)c5nc(c(-c6c(F)cccc6F)c6ccc3[nH]6)C=C5)C=C4)cc2)CC[C@@H]2CCCC[C@H]21
REMARK SMILES IDX 15 1 14 2 13 3 12 4 11 5 10 6 8 7 9 8 7 9 6 10 86 11 79 13
REMARK SMILES IDX 81 14 85 15 80 16 82 17 84 18 83 19 5 20 4 21 2 22 1 23 3 26
REMARK SMILES IDX 16 27 17 28 18 29 19 30 20 31 21 32 22 33 23 34 24 35 25 36
REMARK SMILES IDX 26 37 78 38 27 39 77 40 28 41 29 42 30 43 71 44 31 45 76 46
REMARK SMILES IDX 70 47 72 48 32 49 75 50 69 51 68 52 33 54 59 55 42 56 58 57
REMARK SMILES IDX 43 58 46 59 57 60 73 61 44 62 45 63 56 65 74 66 47 67 34 68
REMARK SMILES IDX 35 69 40 70 36 71 37 72 39 73 41 74 38 75 60 76 61 77 66 78
REMARK SMILES IDX 62 79 63 80 65 81 67 82 64 83 48 84 49 85 54 86 50 87 51 88
REMARK SMILES IDX 53 89 55 90 52 91
REMARK H PARENT 6 12 1 24 1 25 72 53 46 64
REMARK Flexibility Score: inf
ROOT
ATOM      1  C   UNL A   1      46.050  42.650  24.897  1.00  0.00     0.188 C 
ENDROOT
BRANCH   1   2
ATOM      2  C   UNL A   1      44.550  42.742  25.211  1.00  0.00     0.188 C 
BRANCH   2   3
ATOM      3  O   UNL A   1      43.749  42.174  24.195  1.00  0.00    -0.376 OA
BRANCH   3   4
ATOM      4  C   UNL A   1      42.401  42.595  24.061  1.00  0.00     0.202 C 
BRANCH   4   5
ATOM      5  C   UNL A   1      41.657  42.461  22.716  1.00  0.00     0.261 C 
BRANCH   5   6
ATOM      6  O   UNL A   1      42.121  43.291  21.642  1.00  0.00    -0.459 OA
BRANCH   6   7
ATOM      7  C   UNL A   1      42.767  42.651  20.637  1.00  0.00     0.364 C 
ATOM      8  O   UNL A   1      43.305  41.560  20.804  1.00  0.00    -0.245 OA
BRANCH   7   9
ATOM      9  C   UNL A   1      42.538  43.330  19.247  1.00  0.00     0.295 C 
ATOM     10  N   UNL A   1      43.569  44.371  19.003  1.00  0.00    -0.320 N 
ATOM     11  C   UNL A   1      43.320  45.361  17.941  1.00  0.00     0.187 C 
ATOM     12  H   UNL A   1      43.459  44.917  19.857  1.00  0.00     0.349 HD
ATOM     13  C   UNL A   1      41.104  43.836  19.009  1.00  0.00     0.078 C 
ATOM     14  C   UNL A   1      41.842  45.710  17.657  1.00  0.00     0.048 C 
ATOM     15  C   UNL A   1      43.998  46.705  18.296  1.00  0.00     0.065 C 
ATOM     16  C   UNL A   1      40.983  44.464  17.621  1.00  0.00     0.016 C 
ATOM     17  C   UNL A   1      41.760  46.553  16.380  1.00  0.00     0.010 C 
ATOM     18  C   UNL A   1      43.917  47.684  17.123  1.00  0.00     0.006 C 
ATOM     19  C   UNL A   1      42.494  47.878  16.599  1.00  0.00     0.001 C 
BRANCH  10  20
ATOM     20  C   UNL A   1      44.969  43.859  18.964  1.00  0.00     0.273 C 
BRANCH  20  21
ATOM     21  C   UNL A   1      46.125  44.672  19.572  1.00  0.00     0.161 C 
BRANCH  21  22
ATOM     22  C   UNL A   1      46.065  44.814  21.074  1.00  0.00     0.223 C 
ATOM     23  N   UNL A   1      47.017  44.153  21.789  1.00  0.00    -0.369 N 
ATOM     24  H   UNL A   1      47.023  44.212  22.772  1.00  0.00     0.159 HD
ATOM     25  H   UNL A   1      47.697  43.616  21.324  1.00  0.00     0.159 HD
ATOM     26  O   UNL A   1      45.190  45.450  21.652  1.00  0.00    -0.275 OA
ENDBRANCH  21  22
ENDBRANCH  20  21
ENDBRANCH  10  20
ENDBRANCH   7   9
ENDBRANCH   6   7
ENDBRANCH   5   6
ENDBRANCH   4   5
ENDBRANCH   3   4
ENDBRANCH   2   3
ENDBRANCH   1   2
BRANCH   1  27
ATOM     27  O   UNL A   1      46.650  41.368  24.975  1.00  0.00    -0.377 OA
BRANCH  27  28
ATOM     28  C   UNL A   1      46.511  40.567  26.146  1.00  0.00     0.188 C 
BRANCH  28  29
ATOM     29  C   UNL A   1      47.493  40.680  27.330  1.00  0.00     0.188 C 
BRANCH  29  30
ATOM     30  O   UNL A   1      48.684  39.929  27.192  1.00  0.00    -0.376 OA
BRANCH  30  31
ATOM     31  C   UNL A   1      48.832  38.781  28.016  1.00  0.00     0.202 C 
BRANCH  31  32
ATOM     32  C   UNL A   1      48.803  37.412  27.318  1.00  0.00     0.261 C 
BRANCH  32  33
ATOM     33  O   UNL A   1      47.845  36.462  27.818  1.00  0.00    -0.460 OA
BRANCH  33  34
ATOM     34  C   UNL A   1      48.244  35.585  28.762  1.00  0.00     0.338 C 
ATOM     35  O   UNL A   1      49.054  35.775  29.656  1.00  0.00    -0.246 OA
BRANCH  34  36
ATOM     36  C   UNL A   1      47.375  34.395  28.669  1.00  0.00     0.060 A 
ATOM     37  C   UNL A   1      47.165  33.617  29.817  1.00  0.00     0.016 A 
ATOM     38  C   UNL A   1      46.769  34.050  27.460  1.00  0.00     0.016 A 
ATOM     39  C   UNL A   1      46.381  32.466  29.748  1.00  0.00     0.010 A 
ATOM     40  C   UNL A   1      46.006  32.882  27.385  1.00  0.00     0.010 A 
ATOM     41  C   UNL A   1      45.841  32.067  28.518  1.00  0.00    -0.014 A 
BRANCH  41  42
ATOM     42  C   UNL A   1      45.310  30.691  28.371  1.00  0.00     0.031 A 
ATOM     43  C   UNL A   1      46.264  29.606  27.951  1.00  0.00     0.074 A 
ATOM     44  C   UNL A   1      44.025  30.398  28.631  1.00  0.00     0.049 A 
ATOM     45  N   UNL A   1      46.035  28.341  27.707  1.00  0.00    -0.248 NA
ATOM     46  C   UNL A   1      47.671  30.007  27.783  1.00  0.00     0.031 C 
ATOM     47  C   UNL A   1      43.017  31.347  29.097  1.00  0.00     0.029 A 
ATOM     48  N   UNL A   1      43.349  29.208  28.530  1.00  0.00    -0.354 N 
ATOM     49  C   UNL A   1      47.263  27.801  27.347  1.00  0.00     0.074 A 
ATOM     50  C   UNL A   1      48.227  28.878  27.372  1.00  0.00     0.031 C 
ATOM     51  C   UNL A   1      41.844  30.704  29.230  1.00  0.00     0.029 A 
ATOM     52  C   UNL A   1      42.012  29.309  28.825  1.00  0.00     0.049 A 
ATOM     53  H   UNL A   1      43.782  28.363  28.271  1.00  0.00     0.167 HD
ATOM     54  C   UNL A   1      47.563  26.519  27.032  1.00  0.00     0.037 A 
ATOM     55  C   UNL A   1      41.035  28.384  28.751  1.00  0.00     0.037 A 
ATOM     56  C   UNL A   1      46.599  25.450  27.001  1.00  0.00     0.049 A 
ATOM     57  C   UNL A   1      41.374  26.983  28.308  1.00  0.00     0.074 A 
ATOM     58  C   UNL A   1      46.802  24.115  26.705  1.00  0.00     0.029 A 
ATOM     59  N   UNL A   1      45.246  25.601  27.264  1.00  0.00    -0.354 N 
ATOM     60  N   UNL A   1      42.540  26.473  27.988  1.00  0.00    -0.248 NA
ATOM     61  C   UNL A   1      40.260  26.028  28.219  1.00  0.00     0.031 C 
ATOM     62  C   UNL A   1      45.562  23.470  26.726  1.00  0.00     0.029 A 
ATOM     63  C   UNL A   1      44.596  24.389  27.104  1.00  0.00     0.049 A 
ATOM     64  H   UNL A   1      44.812  26.445  27.525  1.00  0.00     0.167 HD
ATOM     65  C   UNL A   1      42.305  25.135  27.692  1.00  0.00     0.074 A 
ATOM     66  C   UNL A   1      40.887  24.910  27.882  1.00  0.00     0.031 C 
ATOM     67  C   UNL A   1      43.184  24.177  27.303  1.00  0.00     0.037 A 
BRANCH  54  68
ATOM     68  C   UNL A   1      48.986  26.217  26.657  1.00  0.00     0.057 A 
ATOM     69  C   UNL A   1      49.917  25.733  27.588  1.00  0.00     0.134 A 
ATOM     70  C   UNL A   1      49.430  26.407  25.342  1.00  0.00     0.134 A 
ATOM     71  F   UNL A   1      49.563  25.545  28.869  1.00  0.00    -0.206 F 
ATOM     72  C   UNL A   1      51.242  25.480  27.231  1.00  0.00     0.040 A 
ATOM     73  C   UNL A   1      50.744  26.128  24.967  1.00  0.00     0.040 A 
ATOM     74  F   UNL A   1      48.591  26.866  24.400  1.00  0.00    -0.206 F 
ATOM     75  C   UNL A   1      51.657  25.672  25.914  1.00  0.00     0.006 A 
ENDBRANCH  54  68
BRANCH  55  76
ATOM     76  C   UNL A   1      39.635  28.751  29.087  1.00  0.00     0.057 A 
ATOM     77  C   UNL A   1      39.127  28.571  30.380  1.00  0.00     0.134 A 
ATOM     78  C   UNL A   1      38.764  29.271  28.121  1.00  0.00     0.134 A 
ATOM     79  F   UNL A   1      39.903  28.052  31.343  1.00  0.00    -0.206 F 
ATOM     80  C   UNL A   1      37.802  28.878  30.695  1.00  0.00     0.040 A 
ATOM     81  C   UNL A   1      37.446  29.609  28.430  1.00  0.00     0.040 A 
ATOM     82  F   UNL A   1      39.187  29.466  26.864  1.00  0.00    -0.206 F 
ATOM     83  C   UNL A   1      36.959  29.405  29.719  1.00  0.00     0.006 A 
ENDBRANCH  55  76
BRANCH  67  84
ATOM     84  C   UNL A   1      42.650  22.786  27.100  1.00  0.00     0.057 A 
ATOM     85  C   UNL A   1      42.460  22.239  25.825  1.00  0.00     0.134 A 
ATOM     86  C   UNL A   1      42.367  21.967  28.202  1.00  0.00     0.134 A 
ATOM     87  F   UNL A   1      42.702  22.972  24.727  1.00  0.00    -0.206 F 
ATOM     88  C   UNL A   1      41.983  20.939  25.652  1.00  0.00     0.040 A 
ATOM     89  C   UNL A   1      41.920  20.655  28.042  1.00  0.00     0.040 A 
ATOM     90  F   UNL A   1      42.538  22.422  29.452  1.00  0.00    -0.206 F 
ATOM     91  C   UNL A   1      41.719  20.140  26.763  1.00  0.00     0.006 A 
ENDBRANCH  67  84
ENDBRANCH  41  42
ENDBRANCH  34  36
ENDBRANCH  33  34
ENDBRANCH  32  33
ENDBRANCH  31  32
ENDBRANCH  30  31
ENDBRANCH  29  30
ENDBRANCH  28  29
ENDBRANCH  27  28
ENDBRANCH   1  27
TORSDOF 23
ENDMDL
MODEL 2
REMARK VINA RESULT:      -8.8      7.802     13.148
REMARK SMILES NC(=O)CC[N@@H+]1[C@@H](C(=O)OCCOCCOCCOCCOC(=O)c2ccc(-c3c4nc(c(-c5c(F)cccc5F)c5ccc([nH]5)c(-c5c(F)cccc5F)c5nc(c(-c6c(F)cccc6F)c6ccc3[nH]6)C=C5)C=C4)cc2)CC[C@@H]2CCCC[C@H]21
REMARK SMILES IDX 15 1 14 2 13 3 12 4 11 5 10 6 8 7 9 8 7 9 6 10 86 11 79 13
REMARK SMILES IDX 81 14 85 15 80 16 82 17 84 18 83 19 5 20 4 21 2 22 1 23 3 26
REMARK SMILES IDX 16 27 17 28 18 29 19 30 20 31 21 32 22 33 23 34 24 35 25 36
REMARK SMILES IDX 26 37 78 38 27 39 77 40 28 41 29 42 30 43 71 44 31 45 76 46
REMARK SMILES IDX 70 47 72 48 32 49 75 50 69 51 68 52 33 54 59 55 42 56 58 57
REMARK SMILES IDX 43 58 46 59 57 60 73 61 44 62 45 63 56 65 74 66 47 67 34 68
REMARK SMILES IDX 35 69 40 70 36 71 37 72 39 73 41 74 38 75 60 76 61 77 66 78
REMARK SMILES IDX 62 79 63 80 65 81 67 82 64 83 48 84 49 85 54 86 50 87 51 88
REMARK SMILES IDX 53 89 55 90 52 91
REMARK H PARENT 6 12 1 24 1 25 72 53 46 64
REMARK Flexibility Score: inf
ROOT
ATOM      1  C   UNL A   1      36.490  29.850  28.865  1.00  0.00     0.188 C 
ENDROOT
BRANCH   1   2
ATOM      2  C   UNL A   1      37.863  29.547  28.247  1.00  0.00     0.188 C 
BRANCH   2   3
ATOM      3  O   UNL A   1      38.646  28.697  29.060  1.00  0.00    -0.376 OA
BRANCH   3   4
ATOM      4  C   UNL A   1      38.780  27.331  28.705  1.00  0.00     0.202 C 
BRANCH   4   5
ATOM      5  C   UNL A   1      40.133  26.601  28.849  1.00  0.00     0.261 C 
BRANCH   5   6
ATOM      6  O   UNL A   1      40.918  26.470  27.656  1.00  0.00    -0.459 OA
BRANCH   6   7
ATOM      7  C   UNL A   1      42.183  26.015  27.829  1.00  0.00     0.364 C 
ATOM      8  O   UNL A   1      42.458  25.173  28.679  1.00  0.00    -0.245 OA
BRANCH   7   9
ATOM      9  C   UNL A   1      43.154  26.492  26.699  1.00  0.00     0.295 C 
ATOM     10  N   UNL A   1      43.901  25.338  26.137  1.00  0.00    -0.320 N 
ATOM     11  C   UNL A   1      45.107  25.613  25.337  1.00  0.00     0.187 C 
ATOM     12  H   UNL A   1      44.281  24.951  27.000  1.00  0.00     0.349 HD
ATOM     13  C   UNL A   1      44.067  27.667  27.091  1.00  0.00     0.078 C 
ATOM     14  C   UNL A   1      45.893  26.894  25.694  1.00  0.00     0.048 C 
ATOM     15  C   UNL A   1      46.121  24.455  25.485  1.00  0.00     0.065 C 
ATOM     16  C   UNL A   1      44.960  28.065  25.917  1.00  0.00     0.016 C 
ATOM     17  C   UNL A   1      46.956  27.149  24.620  1.00  0.00     0.010 C 
ATOM     18  C   UNL A   1      47.292  24.627  24.515  1.00  0.00     0.006 C 
ATOM     19  C   UNL A   1      47.963  25.996  24.621  1.00  0.00     0.001 C 
BRANCH  10  20
ATOM     20  C   UNL A   1      43.045  24.294  25.505  1.00  0.00     0.273 C 
BRANCH  20  21
ATOM     21  C   UNL A   1      42.790  22.949  26.206  1.00  0.00     0.161 C 
BRANCH  21  22
ATOM     22  C   UNL A   1      43.388  21.755  25.501  1.00  0.00     0.223 C 
ATOM     23  N   UNL A   1      43.286  20.556  26.137  1.00  0.00    -0.369 N 
ATOM     24  H   UNL A   1      43.659  19.745  25.721  1.00  0.00     0.159 HD
ATOM     25  H   UNL A   1      42.840  20.499  27.012  1.00  0.00     0.159 HD
ATOM     26  O   UNL A   1      43.980  21.837  24.431  1.00  0.00    -0.275 OA
ENDBRANCH  21  22
ENDBRANCH  20  21
ENDBRANCH  10  20
ENDBRANCH   7   9
ENDBRANCH   6   7
ENDBRANCH   5   6
ENDBRANCH   4   5
ENDBRANCH   3   4
ENDBRANCH   2   3
ENDBRANCH   1   2
BRANCH   1  27
ATOM     27  O   UNL A   1      36.020  31.184  28.771  1.00  0.00    -0.377 OA
BRANCH  27  28
ATOM     28  C   UNL A   1      35.673  31.921  29.941  1.00  0.00     0.188 C 
BRANCH  28  29
ATOM     29  C   UNL A   1      34.417  32.814  29.998  1.00  0.00     0.188 C 
BRANCH  29  30
ATOM     30  O   UNL A   1      34.181  33.436  31.246  1.00  0.00    -0.376 OA
BRANCH  30  31
ATOM     31  C   UNL A   1      34.787  34.701  31.471  1.00  0.00     0.202 C 
BRANCH  31  32
ATOM     32  C   UNL A   1      35.824  34.787  32.603  1.00  0.00     0.261 C 
BRANCH  32  33
ATOM     33  O   UNL A   1      36.884  33.813  32.572  1.00  0.00    -0.460 OA
BRANCH  33  34
ATOM     34  C   UNL A   1      36.936  32.891  33.554  1.00  0.00     0.338 C 
ATOM     35  O   UNL A   1      36.080  32.649  34.390  1.00  0.00    -0.246 OA
BRANCH  34  36
ATOM     36  C   UNL A   1      38.134  32.058  33.328  1.00  0.00     0.060 A 
ATOM     37  C   UNL A   1      39.312  32.357  34.028  1.00  0.00     0.016 A 
ATOM     38  C   UNL A   1      38.096  30.987  32.433  1.00  0.00     0.016 A 
ATOM     39  C   UNL A   1      40.467  31.612  33.804  1.00  0.00     0.010 A 
ATOM     40  C   UNL A   1      39.262  30.257  32.189  1.00  0.00     0.010 A 
ATOM     41  C   UNL A   1      40.460  30.592  32.844  1.00  0.00    -0.014 A 
BRANCH  41  42
ATOM     42  C   UNL A   1      41.748  30.038  32.362  1.00  0.00     0.031 A 
ATOM     43  C   UNL A   1      42.415  30.715  31.196  1.00  0.00     0.074 A 
ATOM     44  C   UNL A   1      42.331  28.985  32.957  1.00  0.00     0.049 A 
ATOM     45  N   UNL A   1      43.514  30.394  30.562  1.00  0.00    -0.248 NA
ATOM     46  C   UNL A   1      41.748  31.919  30.673  1.00  0.00     0.031 C 
ATOM     47  C   UNL A   1      41.813  28.278  34.126  1.00  0.00     0.029 A 
ATOM     48  N   UNL A   1      43.492  28.322  32.647  1.00  0.00    -0.354 N 
ATOM     49  C   UNL A   1      43.663  31.348  29.563  1.00  0.00     0.074 A 
ATOM     50  C   UNL A   1      42.527  32.239  29.652  1.00  0.00     0.031 C 
ATOM     51  C   UNL A   1      42.649  27.269  34.429  1.00  0.00     0.029 A 
ATOM     52  C   UNL A   1      43.739  27.238  33.454  1.00  0.00     0.049 A 
ATOM     53  H   UNL A   1      44.091  28.596  31.915  1.00  0.00     0.167 HD
ATOM     54  C   UNL A   1      44.660  31.476  28.657  1.00  0.00     0.037 A 
ATOM     55  C   UNL A   1      44.719  26.316  33.392  1.00  0.00     0.037 A 
ATOM     56  C   UNL A   1      45.785  30.583  28.567  1.00  0.00     0.049 A 
ATOM     57  C   UNL A   1      45.771  26.424  32.318  1.00  0.00     0.074 A 
ATOM     58  C   UNL A   1      46.855  30.631  27.692  1.00  0.00     0.029 A 
ATOM     59  N   UNL A   1      45.977  29.472  29.374  1.00  0.00    -0.354 N 
ATOM     60  N   UNL A   1      45.916  27.339  31.388  1.00  0.00    -0.248 NA
ATOM     61  C   UNL A   1      46.796  25.372  32.285  1.00  0.00     0.031 C 
ATOM     62  C   UNL A   1      47.662  29.514  27.928  1.00  0.00     0.029 A 
ATOM     63  C   UNL A   1      47.131  28.807  28.997  1.00  0.00     0.049 A 
ATOM     64  H   UNL A   1      45.381  29.196  30.107  1.00  0.00     0.167 HD
ATOM     65  C   UNL A   1      47.064  26.991  30.683  1.00  0.00     0.074 A 
ATOM     66  C   UNL A   1      47.581  25.788  31.301  1.00  0.00     0.031 C 
ATOM     67  C   UNL A   1      47.640  27.613  29.624  1.00  0.00     0.037 A 
BRANCH  54  68
ATOM     68  C   UNL A   1      44.552  32.601  27.668  1.00  0.00     0.057 A 
ATOM     69  C   UNL A   1      45.034  33.888  27.945  1.00  0.00     0.134 A 
ATOM     70  C   UNL A   1      43.961  32.391  26.416  1.00  0.00     0.134 A 
ATOM     71  F   UNL A   1      45.596  34.163  29.133  1.00  0.00    -0.206 F 
ATOM     72  C   UNL A   1      44.905  34.931  27.027  1.00  0.00     0.040 A 
ATOM     73  C   UNL A   1      43.855  33.418  25.477  1.00  0.00     0.040 A 
ATOM     74  F   UNL A   1      43.480  31.184  26.083  1.00  0.00    -0.206 F 
ATOM     75  C   UNL A   1      44.318  34.695  25.784  1.00  0.00     0.006 A 
ENDBRANCH  54  68
BRANCH  55  76
ATOM     76  C   UNL A   1      44.750  25.196  34.368  1.00  0.00     0.057 A 
ATOM     77  C   UNL A   1      45.275  25.367  35.655  1.00  0.00     0.134 A 
ATOM     78  C   UNL A   1      44.275  23.922  34.032  1.00  0.00     0.134 A 
ATOM     79  F   UNL A   1      45.769  26.557  36.030  1.00  0.00    -0.206 F 
ATOM     80  C   UNL A   1      45.341  24.310  36.565  1.00  0.00     0.040 A 
ATOM     81  C   UNL A   1      44.310  22.864  34.941  1.00  0.00     0.040 A 
ATOM     82  F   UNL A   1      43.763  23.690  32.815  1.00  0.00    -0.206 F 
ATOM     83  C   UNL A   1      44.852  23.055  36.210  1.00  0.00     0.006 A 
ENDBRANCH  55  76
BRANCH  67  84
ATOM     84  C   UNL A   1      48.921  27.034  29.091  1.00  0.00     0.057 A 
ATOM     85  C   UNL A   1      48.939  25.929  28.231  1.00  0.00     0.134 A 
ATOM     86  C   UNL A   1      50.152  27.623  29.409  1.00  0.00     0.134 A 
ATOM     87  F   UNL A   1      47.796  25.311  27.894  1.00  0.00    -0.206 F 
ATOM     88  C   UNL A   1      50.135  25.415  27.728  1.00  0.00     0.040 A 
ATOM     89  C   UNL A   1      51.352  27.138  28.887  1.00  0.00     0.040 A 
ATOM     90  F   UNL A   1      50.208  28.692  30.217  1.00  0.00    -0.206 F 
ATOM     91  C   UNL A   1      51.346  26.025  28.050  1.00  0.00     0.006 A 
ENDBRANCH  67  84
ENDBRANCH  41  42
ENDBRANCH  34  36
ENDBRANCH  33  34
ENDBRANCH  32  33
ENDBRANCH  31  32
ENDBRANCH  30  31
ENDBRANCH  29  30
ENDBRANCH  28  29
ENDBRANCH  27  28
ENDBRANCH   1  27
TORSDOF 23
ENDMDL
MODEL 3
REMARK VINA RESULT:      -8.2      2.151      6.499
REMARK SMILES NC(=O)CC[N@@H+]1[C@@H](C(=O)OCCOCCOCCOCCOC(=O)c2ccc(-c3c4nc(c(-c5c(F)cccc5F)c5ccc([nH]5)c(-c5c(F)cccc5F)c5nc(c(-c6c(F)cccc6F)c6ccc3[nH]6)C=C5)C=C4)cc2)CC[C@@H]2CCCC[C@H]21
REMARK SMILES IDX 15 1 14 2 13 3 12 4 11 5 10 6 8 7 9 8 7 9 6 10 86 11 79 13
REMARK SMILES IDX 81 14 85 15 80 16 82 17 84 18 83 19 5 20 4 21 2 22 1 23 3 26
REMARK SMILES IDX 16 27 17 28 18 29 19 30 20 31 21 32 22 33 23 34 24 35 25 36
REMARK SMILES IDX 26 37 78 38 27 39 77 40 28 41 29 42 30 43 71 44 31 45 76 46
REMARK SMILES IDX 70 47 72 48 32 49 75 50 69 51 68 52 33 54 59 55 42 56 58 57
REMARK SMILES IDX 43 58 46 59 57 60 73 61 44 62 45 63 56 65 74 66 47 67 34 68
REMARK SMILES IDX 35 69 40 70 36 71 37 72 39 73 41 74 38 75 60 76 61 77 66 78
REMARK SMILES IDX 62 79 63 80 65 81 67 82 64 83 48 84 49 85 54 86 50 87 51 88
REMARK SMILES IDX 53 89 55 90 52 91
REMARK H PARENT 6 12 1 24 1 25 72 53 46 64
REMARK Flexibility Score: inf
ROOT
ATOM      1  C   UNL A   1      46.606  38.499  25.767  1.00  0.00     0.188 C 
ENDROOT
BRANCH   1   2
ATOM      2  C   UNL A   1      47.239  39.422  24.716  1.00  0.00     0.188 C 
BRANCH   2   3
ATOM      3  O   UNL A   1      46.288  40.255  24.084  1.00  0.00    -0.376 OA
BRANCH   3   4
ATOM      4  C   UNL A   1      46.721  41.461  23.478  1.00  0.00     0.202 C 
BRANCH   4   5
ATOM      5  C   UNL A   1      46.693  41.635  21.944  1.00  0.00     0.261 C 
BRANCH   5   6
ATOM      6  O   UNL A   1      46.935  42.957  21.445  1.00  0.00    -0.459 OA
BRANCH   6   7
ATOM      7  C   UNL A   1      45.872  43.797  21.456  1.00  0.00     0.364 C 
ATOM      8  O   UNL A   1      45.555  44.427  22.461  1.00  0.00    -0.245 OA
BRANCH   7   9
ATOM      9  C   UNL A   1      45.281  44.038  20.028  1.00  0.00     0.295 C 
ATOM     10  N   UNL A   1      45.557  45.428  19.581  1.00  0.00    -0.320 N 
ATOM     11  C   UNL A   1      44.783  45.960  18.447  1.00  0.00     0.187 C 
ATOM     12  H   UNL A   1      45.177  45.937  20.379  1.00  0.00     0.349 HD
ATOM     13  C   UNL A   1      43.804  43.637  19.869  1.00  0.00     0.078 C 
ATOM     14  C   UNL A   1      43.355  45.398  18.264  1.00  0.00     0.048 C 
ATOM     15  C   UNL A   1      44.606  47.489  18.593  1.00  0.00     0.065 C 
ATOM     16  C   UNL A   1      43.331  43.895  18.440  1.00  0.00     0.016 C 
ATOM     17  C   UNL A   1      42.796  45.871  16.917  1.00  0.00     0.010 C 
ATOM     18  C   UNL A   1      43.975  48.088  17.335  1.00  0.00     0.006 C 
ATOM     19  C   UNL A   1      42.675  47.397  16.926  1.00  0.00     0.001 C 
BRANCH  10  20
ATOM     20  C   UNL A   1      47.005  45.766  19.470  1.00  0.00     0.273 C 
BRANCH  20  21
ATOM     21  C   UNL A   1      47.907  45.053  18.448  1.00  0.00     0.161 C 
BRANCH  21  22
ATOM     22  C   UNL A   1      48.681  45.982  17.544  1.00  0.00     0.223 C 
ATOM     23  N   UNL A   1      47.961  46.926  16.878  1.00  0.00    -0.369 N 
ATOM     24  H   UNL A   1      48.416  47.557  16.275  1.00  0.00     0.159 HD
ATOM     25  H   UNL A   1      46.986  46.978  16.999  1.00  0.00     0.159 HD
ATOM     26  O   UNL A   1      49.890  45.887  17.363  1.00  0.00    -0.275 OA
ENDBRANCH  21  22
ENDBRANCH  20  21
ENDBRANCH  10  20
ENDBRANCH   7   9
ENDBRANCH   6   7
ENDBRANCH   5   6
ENDBRANCH   4   5
ENDBRANCH   3   4
ENDBRANCH   2   3
ENDBRANCH   1   2
BRANCH   1  27
ATOM     27  O   UNL A   1      45.881  39.116  26.817  1.00  0.00    -0.377 OA
BRANCH  27  28
ATOM     28  C   UNL A   1      44.460  39.027  26.876  1.00  0.00     0.188 C 
BRANCH  28  29
ATOM     29  C   UNL A   1      43.645  39.731  27.980  1.00  0.00     0.188 C 
BRANCH  29  30
ATOM     30  O   UNL A   1      44.346  39.958  29.187  1.00  0.00    -0.376 OA
BRANCH  30  31
ATOM     31  C   UNL A   1      44.116  39.054  30.258  1.00  0.00     0.202 C 
BRANCH  31  32
ATOM     32  C   UNL A   1      45.260  38.094  30.619  1.00  0.00     0.261 C 
BRANCH  32  33
ATOM     33  O   UNL A   1      46.088  37.649  29.528  1.00  0.00    -0.460 OA
BRANCH  33  34
ATOM     34  C   UNL A   1      46.889  36.583  29.725  1.00  0.00     0.338 C 
ATOM     35  O   UNL A   1      48.036  36.584  30.145  1.00  0.00    -0.246 OA
BRANCH  34  36
ATOM     36  C   UNL A   1      46.073  35.365  29.545  1.00  0.00     0.060 A 
ATOM     37  C   UNL A   1      46.092  34.381  30.544  1.00  0.00     0.016 A 
ATOM     38  C   UNL A   1      45.292  35.196  28.400  1.00  0.00     0.016 A 
ATOM     39  C   UNL A   1      45.363  33.205  30.381  1.00  0.00     0.010 A 
ATOM     40  C   UNL A   1      44.582  34.005  28.226  1.00  0.00     0.010 A 
ATOM     41  C   UNL A   1      44.646  32.991  29.197  1.00  0.00    -0.014 A 
BRANCH  41  42
ATOM     42  C   UNL A   1      44.162  31.627  28.876  1.00  0.00     0.031 A 
ATOM     43  C   UNL A   1      42.792  31.233  29.354  1.00  0.00     0.074 A 
ATOM     44  C   UNL A   1      44.900  30.767  28.154  1.00  0.00     0.049 A 
ATOM     45  N   UNL A   1      42.166  30.089  29.244  1.00  0.00    -0.248 NA
ATOM     46  C   UNL A   1      42.022  32.275  30.053  1.00  0.00     0.031 C 
ATOM     47  C   UNL A   1      46.217  31.049  27.589  1.00  0.00     0.029 A 
ATOM     48  N   UNL A   1      44.641  29.473  27.781  1.00  0.00    -0.354 N 
ATOM     49  C   UNL A   1      40.938  30.271  29.868  1.00  0.00     0.074 A 
ATOM     50  C   UNL A   1      40.919  31.623  30.382  1.00  0.00     0.031 C 
ATOM     51  C   UNL A   1      46.659  29.951  26.949  1.00  0.00     0.029 A 
ATOM     52  C   UNL A   1      45.670  28.882  27.090  1.00  0.00     0.049 A 
ATOM     53  H   UNL A   1      43.796  29.011  27.989  1.00  0.00     0.167 HD
ATOM     54  C   UNL A   1      39.915  29.394  29.993  1.00  0.00     0.037 A 
ATOM     55  C   UNL A   1      45.805  27.617  26.649  1.00  0.00     0.037 A 
ATOM     56  C   UNL A   1      39.941  28.048  29.486  1.00  0.00     0.049 A 
ATOM     57  C   UNL A   1      44.691  26.629  26.880  1.00  0.00     0.074 A 
ATOM     58  C   UNL A   1      38.953  27.083  29.552  1.00  0.00     0.029 A 
ATOM     59  N   UNL A   1      41.020  27.473  28.831  1.00  0.00    -0.354 N 
ATOM     60  N   UNL A   1      43.524  26.812  27.453  1.00  0.00    -0.248 NA
ATOM     61  C   UNL A   1      44.910  25.257  26.401  1.00  0.00     0.031 C 
ATOM     62  C   UNL A   1      39.456  25.905  28.992  1.00  0.00     0.029 A 
ATOM     63  C   UNL A   1      40.733  26.156  28.515  1.00  0.00     0.049 A 
ATOM     64  H   UNL A   1      41.864  27.933  28.621  1.00  0.00     0.167 HD
ATOM     65  C   UNL A   1      42.862  25.592  27.374  1.00  0.00     0.074 A 
ATOM     66  C   UNL A   1      43.752  24.680  26.687  1.00  0.00     0.031 C 
ATOM     67  C   UNL A   1      41.626  25.259  27.825  1.00  0.00     0.037 A 
BRANCH  54  68
ATOM     68  C   UNL A   1      38.699  29.858  30.744  1.00  0.00     0.057 A 
ATOM     69  C   UNL A   1      37.691  30.618  30.136  1.00  0.00     0.134 A 
ATOM     70  C   UNL A   1      38.533  29.532  32.096  1.00  0.00     0.134 A 
ATOM     71  F   UNL A   1      37.795  30.981  28.847  1.00  0.00    -0.206 F 
ATOM     72  C   UNL A   1      36.579  31.063  30.852  1.00  0.00     0.040 A 
ATOM     73  C   UNL A   1      37.410  29.945  32.814  1.00  0.00     0.040 A 
ATOM     74  F   UNL A   1      39.458  28.806  32.741  1.00  0.00    -0.206 F 
ATOM     75  C   UNL A   1      36.433  30.721  32.195  1.00  0.00     0.006 A 
ENDBRANCH  54  68
BRANCH  55  76
ATOM     76  C   UNL A   1      47.051  27.200  25.954  1.00  0.00     0.057 A 
ATOM     77  C   UNL A   1      48.095  26.573  26.646  1.00  0.00     0.134 A 
ATOM     78  C   UNL A   1      47.239  27.437  24.586  1.00  0.00     0.134 A 
ATOM     79  F   UNL A   1      47.987  26.342  27.963  1.00  0.00    -0.206 F 
ATOM     80  C   UNL A   1      49.283  26.213  26.009  1.00  0.00     0.040 A 
ATOM     81  C   UNL A   1      48.410  27.056  23.931  1.00  0.00     0.040 A 
ATOM     82  F   UNL A   1      46.280  28.035  23.866  1.00  0.00    -0.206 F 
ATOM     83  C   UNL A   1      49.440  26.448  24.645  1.00  0.00     0.006 A 
ENDBRANCH  55  76
BRANCH  67  84
ATOM     84  C   UNL A   1      41.141  23.862  27.551  1.00  0.00     0.057 A 
ATOM     85  C   UNL A   1      40.192  23.583  26.561  1.00  0.00     0.134 A 
ATOM     86  C   UNL A   1      41.671  22.776  28.261  1.00  0.00     0.134 A 
ATOM     87  F   UNL A   1      39.637  24.578  25.851  1.00  0.00    -0.206 F 
ATOM     88  C   UNL A   1      39.765  22.279  26.304  1.00  0.00     0.040 A 
ATOM     89  C   UNL A   1      41.277  21.464  27.992  1.00  0.00     0.040 A 
ATOM     90  F   UNL A   1      42.594  22.968  29.214  1.00  0.00    -0.206 F 
ATOM     91  C   UNL A   1      40.315  21.214  27.016  1.00  0.00     0.006 A 
ENDBRANCH  67  84
ENDBRANCH  41  42
ENDBRANCH  34  36
ENDBRANCH  33  34
ENDBRANCH  32  33
ENDBRANCH  31  32
ENDBRANCH  30  31
ENDBRANCH  29  30
ENDBRANCH  28  29
ENDBRANCH  27  28
ENDBRANCH   1  27
TORSDOF 23
ENDMDL
