MODEL 1
REMARK VINA RESULT:     -10.3      0.000      0.000
REMARK SMILES C[C@@H](Sc1nc2ccccc2c(=O)n1N)C(=O)OCCOCCOCCOCCOC(=O)c1ccc(-c2c3nc(c(-c4c(F)cccc4F)c4ccc([nH]4)c(-c4c(F)cccc4F)c4nc(c(-c5c(F)cccc5F)c5ccc2[nH]5)C=C4)C=C3)cc1
REMARK SMILES IDX 23 1 22 2 21 3 20 4 19 5 18 6 16 7 17 8 2 9 1 10 3 11 4 12
REMARK SMILES IDX 5 13 14 14 6 15 12 16 7 17 11 18 13 19 8 20 10 21 9 22 15 23
REMARK SMILES IDX 24 26 25 27 26 28 27 29 28 30 29 31 30 32 31 33 32 34 33 35
REMARK SMILES IDX 34 36 86 37 35 38 85 39 36 40 37 41 38 42 79 43 39 44 84 45
REMARK SMILES IDX 78 46 80 47 40 48 83 49 77 50 76 51 41 53 67 54 50 55 66 56
REMARK SMILES IDX 51 57 54 58 65 59 81 60 52 61 53 62 64 64 82 65 55 66 42 67
REMARK SMILES IDX 43 68 48 69 44 70 45 71 47 72 49 73 46 74 68 75 69 76 74 77
REMARK SMILES IDX 70 78 71 79 73 80 75 81 72 82 56 83 57 84 62 85 58 86 59 87
REMARK SMILES IDX 61 88 63 89 60 90
REMARK H PARENT 15 24 15 25 80 52 54 63
REMARK Flexibility Score: inf
ROOT
ATOM      1  C   UNL A   1      33.848  34.330  28.468  1.00  0.00     0.188 C 
ENDROOT
BRANCH   1   2
ATOM      2  C   UNL A   1      34.713  33.076  28.668  1.00  0.00     0.188 C 
BRANCH   2   3
ATOM      3  O   UNL A   1      34.709  32.012  27.731  1.00  0.00    -0.376 OA
BRANCH   3   4
ATOM      4  C   UNL A   1      33.555  31.236  27.447  1.00  0.00     0.202 C 
BRANCH   4   5
ATOM      5  C   UNL A   1      33.578  29.909  26.675  1.00  0.00     0.261 C 
BRANCH   5   6
ATOM      6  O   UNL A   1      32.745  29.823  25.517  1.00  0.00    -0.462 OA
BRANCH   6   7
ATOM      7  C   UNL A   1      31.919  28.753  25.475  1.00  0.00     0.319 C 
ATOM      8  O   UNL A   1      31.425  28.232  26.473  1.00  0.00    -0.251 OA
BRANCH   7   9
ATOM      9  C   UNL A   1      31.630  28.254  24.060  1.00  0.00     0.161 C 
ATOM     10  C   UNL A   1      32.756  28.291  23.024  1.00  0.00     0.032 C 
BRANCH   9  11
ATOM     11  S   UNL A   1      30.972  26.565  24.289  1.00  0.00    -0.071 SA
BRANCH  11  12
ATOM     12  C   UNL A   1      32.384  25.637  23.881  1.00  0.00     0.191 A 
ATOM     13  N   UNL A   1      33.249  25.475  24.825  1.00  0.00    -0.222 NA
ATOM     14  N   UNL A   1      32.488  25.069  22.616  1.00  0.00    -0.202 N 
ATOM     15  C   UNL A   1      34.339  24.640  24.581  1.00  0.00     0.079 A 
ATOM     16  C   UNL A   1      33.515  24.175  22.310  1.00  0.00     0.280 A 
ATOM     17  C   UNL A   1      35.271  24.462  25.603  1.00  0.00     0.029 A 
ATOM     18  C   UNL A   1      34.493  23.932  23.388  1.00  0.00     0.068 A 
ATOM     19  O   UNL A   1      33.615  23.600  21.226  1.00  0.00    -0.267 OA
ATOM     20  C   UNL A   1      36.320  23.556  25.451  1.00  0.00     0.002 A 
ATOM     21  C   UNL A   1      35.535  23.016  23.229  1.00  0.00     0.016 A 
ATOM     22  C   UNL A   1      36.443  22.822  24.270  1.00  0.00     0.001 A 
BRANCH  14  23
ATOM     23  N   UNL A   1      31.561  25.375  21.563  1.00  0.00    -0.334 N 
ATOM     24  H   UNL A   1      31.894  25.621  20.670  1.00  0.00     0.178 HD
ATOM     25  H   UNL A   1      30.592  25.339  21.735  1.00  0.00     0.178 HD
ENDBRANCH  14  23
ENDBRANCH  11  12
ENDBRANCH   9  11
ENDBRANCH   7   9
ENDBRANCH   6   7
ENDBRANCH   5   6
ENDBRANCH   4   5
ENDBRANCH   3   4
ENDBRANCH   2   3
ENDBRANCH   1   2
BRANCH   1  26
ATOM     26  O   UNL A   1      34.060  35.356  29.415  1.00  0.00    -0.377 OA
BRANCH  26  27
ATOM     27  C   UNL A   1      32.942  36.158  29.777  1.00  0.00     0.188 C 
BRANCH  27  28
ATOM     28  C   UNL A   1      32.603  36.338  31.271  1.00  0.00     0.188 C 
BRANCH  28  29
ATOM     29  O   UNL A   1      32.556  35.125  32.009  1.00  0.00    -0.376 OA
BRANCH  29  30
ATOM     30  C   UNL A   1      33.658  34.801  32.846  1.00  0.00     0.202 C 
BRANCH  30  31
ATOM     31  C   UNL A   1      34.197  33.362  32.768  1.00  0.00     0.261 C 
BRANCH  31  32
ATOM     32  O   UNL A   1      35.560  33.220  32.332  1.00  0.00    -0.460 OA
BRANCH  32  33
ATOM     33  C   UNL A   1      36.410  32.559  33.140  1.00  0.00     0.338 C 
ATOM     34  O   UNL A   1      36.364  32.493  34.361  1.00  0.00    -0.246 OA
BRANCH  33  35
ATOM     35  C   UNL A   1      37.310  31.741  32.303  1.00  0.00     0.060 A 
ATOM     36  C   UNL A   1      38.338  31.026  32.929  1.00  0.00     0.016 A 
ATOM     37  C   UNL A   1      37.164  31.698  30.913  1.00  0.00     0.016 A 
ATOM     38  C   UNL A   1      39.259  30.315  32.164  1.00  0.00     0.010 A 
ATOM     39  C   UNL A   1      38.101  30.997  30.145  1.00  0.00     0.010 A 
ATOM     40  C   UNL A   1      39.178  30.341  30.765  1.00  0.00    -0.014 A 
BRANCH  40  41
ATOM     41  C   UNL A   1      40.336  29.854  29.973  1.00  0.00     0.031 A 
ATOM     42  C   UNL A   1      41.477  30.800  29.710  1.00  0.00     0.074 A 
ATOM     43  C   UNL A   1      40.413  28.575  29.564  1.00  0.00     0.049 A 
ATOM     44  N   UNL A   1      42.601  30.593  29.074  1.00  0.00    -0.248 NA
ATOM     45  C   UNL A   1      41.329  32.166  30.239  1.00  0.00     0.031 C 
ATOM     46  C   UNL A   1      39.395  27.550  29.788  1.00  0.00     0.029 A 
ATOM     47  N   UNL A   1      41.405  27.920  28.875  1.00  0.00    -0.354 N 
ATOM     48  C   UNL A   1      43.298  31.794  29.138  1.00  0.00     0.074 A 
ATOM     49  C   UNL A   1      42.449  32.740  29.829  1.00  0.00     0.031 C 
ATOM     50  C   UNL A   1      39.811  26.396  29.239  1.00  0.00     0.029 A 
ATOM     51  C   UNL A   1      41.111  26.607  28.604  1.00  0.00     0.049 A 
ATOM     52  H   UNL A   1      42.246  28.351  28.602  1.00  0.00     0.167 HD
ATOM     53  C   UNL A   1      44.541  32.080  28.683  1.00  0.00     0.037 A 
ATOM     54  C   UNL A   1      41.805  25.686  27.907  1.00  0.00     0.037 A 
ATOM     55  C   UNL A   1      45.381  31.144  27.984  1.00  0.00     0.049 A 
ATOM     56  C   UNL A   1      43.153  26.052  27.337  1.00  0.00     0.074 A 
ATOM     57  C   UNL A   1      46.652  31.341  27.470  1.00  0.00     0.029 A 
ATOM     58  N   UNL A   1      45.033  29.833  27.696  1.00  0.00    -0.354 N 
ATOM     59  N   UNL A   1      43.810  27.186  27.421  1.00  0.00    -0.248 NA
ATOM     60  C   UNL A   1      43.861  25.007  26.586  1.00  0.00     0.031 C 
ATOM     61  C   UNL A   1      47.050  30.164  26.826  1.00  0.00     0.029 A 
ATOM     62  C   UNL A   1      46.056  29.215  26.995  1.00  0.00     0.049 A 
ATOM     63  H   UNL A   1      44.184  29.404  27.951  1.00  0.00     0.167 HD
ATOM     64  C   UNL A   1      45.016  26.977  26.761  1.00  0.00     0.074 A 
ATOM     65  C   UNL A   1      45.010  25.604  26.305  1.00  0.00     0.031 C 
ATOM     66  C   UNL A   1      46.038  27.845  26.550  1.00  0.00     0.037 A 
BRANCH  53  67
ATOM     67  C   UNL A   1      45.059  33.470  28.916  1.00  0.00     0.057 A 
ATOM     68  C   UNL A   1      45.841  33.789  30.035  1.00  0.00     0.134 A 
ATOM     69  C   UNL A   1      44.802  34.495  27.997  1.00  0.00     0.134 A 
ATOM     70  F   UNL A   1      46.112  32.859  30.963  1.00  0.00    -0.206 F 
ATOM     71  C   UNL A   1      46.329  35.081  30.242  1.00  0.00     0.040 A 
ATOM     72  C   UNL A   1      45.308  35.783  28.179  1.00  0.00     0.040 A 
ATOM     73  F   UNL A   1      44.063  34.259  26.904  1.00  0.00    -0.206 F 
ATOM     74  C   UNL A   1      46.069  36.081  29.307  1.00  0.00     0.006 A 
ENDBRANCH  53  67
BRANCH  54  75
ATOM     75  C   UNL A   1      41.238  24.330  27.681  1.00  0.00     0.057 A 
ATOM     76  C   UNL A   1      41.710  23.210  28.376  1.00  0.00     0.134 A 
ATOM     77  C   UNL A   1      40.238  24.116  26.724  1.00  0.00     0.134 A 
ATOM     78  F   UNL A   1      42.685  23.342  29.287  1.00  0.00    -0.206 F 
ATOM     79  C   UNL A   1      41.233  21.926  28.106  1.00  0.00     0.040 A 
ATOM     80  C   UNL A   1      39.728  22.843  26.467  1.00  0.00     0.040 A 
ATOM     81  F   UNL A   1      39.740  25.147  26.023  1.00  0.00    -0.206 F 
ATOM     82  C   UNL A   1      40.235  21.741  27.152  1.00  0.00     0.006 A 
ENDBRANCH  54  75
BRANCH  66  83
ATOM     83  C   UNL A   1      47.249  27.319  25.831  1.00  0.00     0.057 A 
ATOM     84  C   UNL A   1      48.300  26.685  26.508  1.00  0.00     0.134 A 
ATOM     85  C   UNL A   1      47.359  27.436  24.439  1.00  0.00     0.134 A 
ATOM     86  F   UNL A   1      48.265  26.547  27.842  1.00  0.00    -0.206 F 
ATOM     87  C   UNL A   1      49.431  26.222  25.831  1.00  0.00     0.040 A 
ATOM     88  C   UNL A   1      48.468  26.946  23.748  1.00  0.00     0.040 A 
ATOM     89  F   UNL A   1      46.384  28.019  23.725  1.00  0.00    -0.206 F 
ATOM     90  C   UNL A   1      49.514  26.347  24.446  1.00  0.00     0.006 A 
ENDBRANCH  66  83
ENDBRANCH  40  41
ENDBRANCH  33  35
ENDBRANCH  32  33
ENDBRANCH  31  32
ENDBRANCH  30  31
ENDBRANCH  29  30
ENDBRANCH  28  29
ENDBRANCH  27  28
ENDBRANCH  26  27
ENDBRANCH   1  26
TORSDOF 23
ENDMDL
MODEL 2
REMARK VINA RESULT:     -10.1      4.659     10.365
REMARK SMILES C[C@@H](Sc1nc2ccccc2c(=O)n1N)C(=O)OCCOCCOCCOCCOC(=O)c1ccc(-c2c3nc(c(-c4c(F)cccc4F)c4ccc([nH]4)c(-c4c(F)cccc4F)c4nc(c(-c5c(F)cccc5F)c5ccc2[nH]5)C=C4)C=C3)cc1
REMARK SMILES IDX 23 1 22 2 21 3 20 4 19 5 18 6 16 7 17 8 2 9 1 10 3 11 4 12
REMARK SMILES IDX 5 13 14 14 6 15 12 16 7 17 11 18 13 19 8 20 10 21 9 22 15 23
REMARK SMILES IDX 24 26 25 27 26 28 27 29 28 30 29 31 30 32 31 33 32 34 33 35
REMARK SMILES IDX 34 36 86 37 35 38 85 39 36 40 37 41 38 42 79 43 39 44 84 45
REMARK SMILES IDX 78 46 80 47 40 48 83 49 77 50 76 51 41 53 67 54 50 55 66 56
REMARK SMILES IDX 51 57 54 58 65 59 81 60 52 61 53 62 64 64 82 65 55 66 42 67
REMARK SMILES IDX 43 68 48 69 44 70 45 71 47 72 49 73 46 74 68 75 69 76 74 77
REMARK SMILES IDX 70 78 71 79 73 80 75 81 72 82 56 83 57 84 62 85 58 86 59 87
REMARK SMILES IDX 61 88 63 89 60 90
REMARK H PARENT 15 24 15 25 80 52 54 63
REMARK Flexibility Score: inf
ROOT
ATOM      1  C   UNL A   1      39.380  20.540  25.912  1.00  0.00     0.188 C 
ENDROOT
BRANCH   1   2
ATOM      2  C   UNL A   1      38.264  19.998  25.004  1.00  0.00     0.188 C 
BRANCH   2   3
ATOM      3  O   UNL A   1      37.248  20.842  24.488  1.00  0.00    -0.376 OA
BRANCH   3   4
ATOM      4  C   UNL A   1      36.206  21.376  25.288  1.00  0.00     0.202 C 
BRANCH   4   5
ATOM      5  C   UNL A   1      34.720  21.028  25.112  1.00  0.00     0.261 C 
BRANCH   5   6
ATOM      6  O   UNL A   1      34.013  21.725  24.084  1.00  0.00    -0.462 OA
BRANCH   6   7
ATOM      7  C   UNL A   1      32.986  22.497  24.507  1.00  0.00     0.319 C 
ATOM      8  O   UNL A   1      32.687  22.646  25.690  1.00  0.00    -0.251 OA
BRANCH   7   9
ATOM      9  C   UNL A   1      32.235  23.196  23.375  1.00  0.00     0.161 C 
ATOM     10  C   UNL A   1      30.850  23.780  23.664  1.00  0.00     0.032 C 
BRANCH   9  11
ATOM     11  S   UNL A   1      33.396  24.467  22.765  1.00  0.00    -0.071 SA
BRANCH  11  12
ATOM     12  C   UNL A   1      32.682  25.887  23.472  1.00  0.00     0.191 A 
ATOM     13  N   UNL A   1      32.852  26.034  24.743  1.00  0.00    -0.222 NA
ATOM     14  N   UNL A   1      32.037  26.808  22.654  1.00  0.00    -0.202 N 
ATOM     15  C   UNL A   1      32.400  27.215  25.332  1.00  0.00     0.079 A 
ATOM     16  C   UNL A   1      31.608  28.039  23.154  1.00  0.00     0.280 A 
ATOM     17  C   UNL A   1      32.587  27.376  26.705  1.00  0.00     0.029 A 
ATOM     18  C   UNL A   1      31.835  28.256  24.596  1.00  0.00     0.068 A 
ATOM     19  O   UNL A   1      31.089  28.911  22.458  1.00  0.00    -0.267 OA
ATOM     20  C   UNL A   1      32.253  28.578  27.326  1.00  0.00     0.002 A 
ATOM     21  C   UNL A   1      31.504  29.468  25.206  1.00  0.00     0.016 A 
ATOM     22  C   UNL A   1      31.726  29.630  26.574  1.00  0.00     0.001 A 
BRANCH  14  23
ATOM     23  N   UNL A   1      31.769  26.543  21.269  1.00  0.00    -0.334 N 
ATOM     24  H   UNL A   1      31.069  25.899  21.017  1.00  0.00     0.178 HD
ATOM     25  H   UNL A   1      32.286  27.007  20.570  1.00  0.00     0.178 HD
ENDBRANCH  14  23
ENDBRANCH  11  12
ENDBRANCH   9  11
ENDBRANCH   7   9
ENDBRANCH   6   7
ENDBRANCH   5   6
ENDBRANCH   4   5
ENDBRANCH   3   4
ENDBRANCH   2   3
ENDBRANCH   1   2
BRANCH   1  26
ATOM     26  O   UNL A   1      40.445  19.644  26.143  1.00  0.00    -0.377 OA
BRANCH  26  27
ATOM     27  C   UNL A   1      41.424  20.021  27.106  1.00  0.00     0.188 C 
BRANCH  27  28
ATOM     28  C   UNL A   1      42.593  20.928  26.668  1.00  0.00     0.188 C 
BRANCH  28  29
ATOM     29  O   UNL A   1      43.059  20.682  25.347  1.00  0.00    -0.376 OA
BRANCH  29  30
ATOM     30  C   UNL A   1      44.382  21.076  25.014  1.00  0.00     0.202 C 
BRANCH  30  31
ATOM     31  C   UNL A   1      44.539  22.338  24.148  1.00  0.00     0.261 C 
BRANCH  31  32
ATOM     32  O   UNL A   1      43.818  23.502  24.590  1.00  0.00    -0.460 OA
BRANCH  32  33
ATOM     33  C   UNL A   1      44.537  24.555  25.025  1.00  0.00     0.338 C 
ATOM     34  O   UNL A   1      45.645  24.901  24.638  1.00  0.00    -0.246 OA
BRANCH  33  35
ATOM     35  C   UNL A   1      43.684  25.368  25.914  1.00  0.00     0.060 A 
ATOM     36  C   UNL A   1      43.999  26.721  26.089  1.00  0.00     0.016 A 
ATOM     37  C   UNL A   1      42.601  24.801  26.592  1.00  0.00     0.016 A 
ATOM     38  C   UNL A   1      43.270  27.497  26.988  1.00  0.00     0.010 A 
ATOM     39  C   UNL A   1      41.880  25.578  27.508  1.00  0.00     0.010 A 
ATOM     40  C   UNL A   1      42.242  26.916  27.742  1.00  0.00    -0.014 A 
BRANCH  40  41
ATOM     41  C   UNL A   1      41.702  27.662  28.907  1.00  0.00     0.031 A 
ATOM     42  C   UNL A   1      42.411  27.544  30.230  1.00  0.00     0.074 A 
ATOM     43  C   UNL A   1      40.652  28.493  28.777  1.00  0.00     0.049 A 
ATOM     44  N   UNL A   1      42.145  28.122  31.372  1.00  0.00    -0.248 NA
ATOM     45  C   UNL A   1      43.582  26.651  30.266  1.00  0.00     0.031 C 
ATOM     46  C   UNL A   1      39.903  28.726  27.544  1.00  0.00     0.029 A 
ATOM     47  N   UNL A   1      40.038  29.302  29.703  1.00  0.00    -0.354 N 
ATOM     48  C   UNL A   1      43.120  27.677  32.257  1.00  0.00     0.074 A 
ATOM     49  C   UNL A   1      43.952  26.739  31.534  1.00  0.00     0.031 C 
ATOM     50  C   UNL A   1      38.923  29.613  27.791  1.00  0.00     0.029 A 
ATOM     51  C   UNL A   1      38.961  29.990  29.203  1.00  0.00     0.049 A 
ATOM     52  H   UNL A   1      40.342  29.380  30.636  1.00  0.00     0.167 HD
ATOM     53  C   UNL A   1      43.320  28.030  33.549  1.00  0.00     0.037 A 
ATOM     54  C   UNL A   1      38.093  30.816  29.821  1.00  0.00     0.037 A 
ATOM     55  C   UNL A   1      42.485  28.951  34.273  1.00  0.00     0.049 A 
ATOM     56  C   UNL A   1      38.288  31.131  31.283  1.00  0.00     0.074 A 
ATOM     57  C   UNL A   1      42.595  29.364  35.590  1.00  0.00     0.029 A 
ATOM     58  N   UNL A   1      41.380  29.600  33.743  1.00  0.00    -0.354 N 
ATOM     59  N   UNL A   1      39.224  30.718  32.105  1.00  0.00    -0.248 NA
ATOM     60  C   UNL A   1      37.309  32.036  31.901  1.00  0.00     0.031 C 
ATOM     61  C   UNL A   1      41.527  30.224  35.870  1.00  0.00     0.029 A 
ATOM     62  C   UNL A   1      40.789  30.396  34.711  1.00  0.00     0.049 A 
ATOM     63  H   UNL A   1      41.062  29.510  32.816  1.00  0.00     0.167 HD
ATOM     64  C   UNL A   1      38.964  31.336  33.322  1.00  0.00     0.074 A 
ATOM     65  C   UNL A   1      37.798  32.170  33.126  1.00  0.00     0.031 C 
ATOM     66  C   UNL A   1      39.629  31.224  34.500  1.00  0.00     0.037 A 
BRANCH  53  67
ATOM     67  C   UNL A   1      44.481  27.402  34.265  1.00  0.00     0.057 A 
ATOM     68  C   UNL A   1      44.403  26.114  34.813  1.00  0.00     0.134 A 
ATOM     69  C   UNL A   1      45.702  28.078  34.380  1.00  0.00     0.134 A 
ATOM     70  F   UNL A   1      43.258  25.418  34.752  1.00  0.00    -0.206 F 
ATOM     71  C   UNL A   1      45.490  25.531  35.469  1.00  0.00     0.040 A 
ATOM     72  C   UNL A   1      46.804  27.494  35.008  1.00  0.00     0.040 A 
ATOM     73  F   UNL A   1      45.848  29.312  33.877  1.00  0.00    -0.206 F 
ATOM     74  C   UNL A   1      46.697  26.220  35.560  1.00  0.00     0.006 A 
ENDBRANCH  53  67
BRANCH  54  75
ATOM     75  C   UNL A   1      36.944  31.392  29.075  1.00  0.00     0.057 A 
ATOM     76  C   UNL A   1      36.958  32.711  28.607  1.00  0.00     0.134 A 
ATOM     77  C   UNL A   1      35.779  30.646  28.855  1.00  0.00     0.134 A 
ATOM     78  F   UNL A   1      38.033  33.488  28.807  1.00  0.00    -0.206 F 
ATOM     79  C   UNL A   1      35.848  33.277  27.977  1.00  0.00     0.040 A 
ATOM     80  C   UNL A   1      34.673  31.187  28.197  1.00  0.00     0.040 A 
ATOM     81  F   UNL A   1      35.699  29.374  29.276  1.00  0.00    -0.206 F 
ATOM     82  C   UNL A   1      34.702  32.512  27.766  1.00  0.00     0.006 A 
ENDBRANCH  54  75
BRANCH  66  83
ATOM     83  C   UNL A   1      39.136  32.056  35.651  1.00  0.00     0.057 A 
ATOM     84  C   UNL A   1      38.274  31.539  36.628  1.00  0.00     0.134 A 
ATOM     85  C   UNL A   1      39.542  33.390  35.792  1.00  0.00     0.134 A 
ATOM     86  F   UNL A   1      37.838  30.273  36.550  1.00  0.00    -0.206 F 
ATOM     87  C   UNL A   1      37.804  32.330  37.679  1.00  0.00     0.040 A 
ATOM     88  C   UNL A   1      39.106  34.179  36.857  1.00  0.00     0.040 A 
ATOM     89  F   UNL A   1      40.377  33.947  34.901  1.00  0.00    -0.206 F 
ATOM     90  C   UNL A   1      38.225  33.652  37.799  1.00  0.00     0.006 A 
ENDBRANCH  66  83
ENDBRANCH  40  41
ENDBRANCH  33  35
ENDBRANCH  32  33
ENDBRANCH  31  32
ENDBRANCH  30  31
ENDBRANCH  29  30
ENDBRANCH  28  29
ENDBRANCH  27  28
ENDBRANCH  26  27
ENDBRANCH   1  26
TORSDOF 23
ENDMDL
MODEL 3
REMARK VINA RESULT:     -10.0      4.366     10.297
REMARK SMILES C[C@@H](Sc1nc2ccccc2c(=O)n1N)C(=O)OCCOCCOCCOCCOC(=O)c1ccc(-c2c3nc(c(-c4c(F)cccc4F)c4ccc([nH]4)c(-c4c(F)cccc4F)c4nc(c(-c5c(F)cccc5F)c5ccc2[nH]5)C=C4)C=C3)cc1
REMARK SMILES IDX 23 1 22 2 21 3 20 4 19 5 18 6 16 7 17 8 2 9 1 10 3 11 4 12
REMARK SMILES IDX 5 13 14 14 6 15 12 16 7 17 11 18 13 19 8 20 10 21 9 22 15 23
REMARK SMILES IDX 24 26 25 27 26 28 27 29 28 30 29 31 30 32 31 33 32 34 33 35
REMARK SMILES IDX 34 36 86 37 35 38 85 39 36 40 37 41 38 42 79 43 39 44 84 45
REMARK SMILES IDX 78 46 80 47 40 48 83 49 77 50 76 51 41 53 67 54 50 55 66 56
REMARK SMILES IDX 51 57 54 58 65 59 81 60 52 61 53 62 64 64 82 65 55 66 42 67
REMARK SMILES IDX 43 68 48 69 44 70 45 71 47 72 49 73 46 74 68 75 69 76 74 77
REMARK SMILES IDX 70 78 71 79 73 80 75 81 72 82 56 83 57 84 62 85 58 86 59 87
REMARK SMILES IDX 61 88 63 89 60 90
REMARK H PARENT 15 24 15 25 80 52 54 63
REMARK Flexibility Score: inf
ROOT
ATOM      1  C   UNL A   1      37.876  21.819  25.673  1.00  0.00     0.188 C 
ENDROOT
BRANCH   1   2
ATOM      2  C   UNL A   1      36.596  21.537  24.871  1.00  0.00     0.188 C 
BRANCH   2   3
ATOM      3  O   UNL A   1      35.549  22.489  24.780  1.00  0.00    -0.376 OA
BRANCH   3   4
ATOM      4  C   UNL A   1      35.375  23.537  25.721  1.00  0.00     0.202 C 
BRANCH   4   5
ATOM      5  C   UNL A   1      34.168  24.486  25.739  1.00  0.00     0.261 C 
BRANCH   5   6
ATOM      6  O   UNL A   1      33.377  24.546  24.550  1.00  0.00    -0.462 OA
BRANCH   6   7
ATOM      7  C   UNL A   1      32.155  23.974  24.638  1.00  0.00     0.319 C 
ATOM      8  O   UNL A   1      31.948  22.880  25.159  1.00  0.00    -0.251 OA
BRANCH   7   9
ATOM      9  C   UNL A   1      31.033  24.826  24.046  1.00  0.00     0.161 C 
ATOM     10  C   UNL A   1      30.254  25.762  24.974  1.00  0.00     0.032 C 
BRANCH   9  11
ATOM     11  S   UNL A   1      31.819  25.734  22.669  1.00  0.00    -0.071 SA
BRANCH  11  12
ATOM     12  C   UNL A   1      31.273  27.346  23.024  1.00  0.00     0.191 A 
ATOM     13  N   UNL A   1      30.194  27.724  22.426  1.00  0.00    -0.222 NA
ATOM     14  N   UNL A   1      31.961  28.111  23.960  1.00  0.00    -0.202 N 
ATOM     15  C   UNL A   1      29.653  28.963  22.769  1.00  0.00     0.079 A 
ATOM     16  C   UNL A   1      31.456  29.335  24.401  1.00  0.00     0.280 A 
ATOM     17  C   UNL A   1      28.485  29.370  22.125  1.00  0.00     0.029 A 
ATOM     18  C   UNL A   1      30.196  29.771  23.770  1.00  0.00     0.068 A 
ATOM     19  O   UNL A   1      31.996  30.019  25.271  1.00  0.00    -0.267 OA
ATOM     20  C   UNL A   1      27.843  30.548  22.506  1.00  0.00     0.002 A 
ATOM     21  C   UNL A   1      29.557  30.948  24.164  1.00  0.00     0.016 A 
ATOM     22  C   UNL A   1      28.371  31.329  23.536  1.00  0.00     0.001 A 
BRANCH  14  23
ATOM     23  N   UNL A   1      33.221  27.695  24.509  1.00  0.00    -0.334 N 
ATOM     24  H   UNL A   1      34.050  28.154  24.242  1.00  0.00     0.178 HD
ATOM     25  H   UNL A   1      33.255  26.949  25.151  1.00  0.00     0.178 HD
ENDBRANCH  14  23
ENDBRANCH  11  12
ENDBRANCH   9  11
ENDBRANCH   7   9
ENDBRANCH   6   7
ENDBRANCH   5   6
ENDBRANCH   4   5
ENDBRANCH   3   4
ENDBRANCH   2   3
ENDBRANCH   1   2
BRANCH   1  26
ATOM     26  O   UNL A   1      38.937  20.918  25.436  1.00  0.00    -0.377 OA
BRANCH  26  27
ATOM     27  C   UNL A   1      39.985  20.868  26.397  1.00  0.00     0.188 C 
BRANCH  27  28
ATOM     28  C   UNL A   1      41.291  21.642  26.120  1.00  0.00     0.188 C 
BRANCH  28  29
ATOM     29  O   UNL A   1      42.371  20.826  25.685  1.00  0.00    -0.376 OA
BRANCH  29  30
ATOM     30  C   UNL A   1      43.692  21.335  25.803  1.00  0.00     0.202 C 
BRANCH  30  31
ATOM     31  C   UNL A   1      44.218  22.190  24.637  1.00  0.00     0.261 C 
BRANCH  31  32
ATOM     32  O   UNL A   1      43.695  23.526  24.546  1.00  0.00    -0.460 OA
BRANCH  32  33
ATOM     33  C   UNL A   1      44.456  24.530  25.023  1.00  0.00     0.338 C 
ATOM     34  O   UNL A   1      45.589  24.826  24.673  1.00  0.00    -0.246 OA
BRANCH  33  35
ATOM     35  C   UNL A   1      43.622  25.365  25.911  1.00  0.00     0.060 A 
ATOM     36  C   UNL A   1      43.978  26.708  26.092  1.00  0.00     0.016 A 
ATOM     37  C   UNL A   1      42.519  24.830  26.581  1.00  0.00     0.016 A 
ATOM     38  C   UNL A   1      43.268  27.503  26.989  1.00  0.00     0.010 A 
ATOM     39  C   UNL A   1      41.817  25.625  27.495  1.00  0.00     0.010 A 
ATOM     40  C   UNL A   1      42.218  26.952  27.736  1.00  0.00    -0.014 A 
BRANCH  40  41
ATOM     41  C   UNL A   1      41.694  27.710  28.900  1.00  0.00     0.031 A 
ATOM     42  C   UNL A   1      42.423  27.607  30.213  1.00  0.00     0.074 A 
ATOM     43  C   UNL A   1      40.642  28.538  28.777  1.00  0.00     0.049 A 
ATOM     44  N   UNL A   1      42.174  28.199  31.353  1.00  0.00    -0.248 NA
ATOM     45  C   UNL A   1      43.596  26.716  30.242  1.00  0.00     0.031 C 
ATOM     46  C   UNL A   1      39.875  28.757  27.552  1.00  0.00     0.029 A 
ATOM     47  N   UNL A   1      40.041  29.357  29.702  1.00  0.00    -0.354 N 
ATOM     48  C   UNL A   1      43.163  27.764  32.229  1.00  0.00     0.074 A 
ATOM     49  C   UNL A   1      43.984  26.819  31.504  1.00  0.00     0.031 C 
ATOM     50  C   UNL A   1      38.898  29.645  27.804  1.00  0.00     0.029 A 
ATOM     51  C   UNL A   1      38.956  30.039  29.211  1.00  0.00     0.049 A 
ATOM     52  H   UNL A   1      40.359  29.446  30.629  1.00  0.00     0.167 HD
ATOM     53  C   UNL A   1      43.381  28.132  33.513  1.00  0.00     0.037 A 
ATOM     54  C   UNL A   1      38.097  30.871  29.832  1.00  0.00     0.037 A 
ATOM     55  C   UNL A   1      42.556  29.060  34.239  1.00  0.00     0.049 A 
ATOM     56  C   UNL A   1      38.312  31.202  31.288  1.00  0.00     0.074 A 
ATOM     57  C   UNL A   1      42.685  29.488  35.550  1.00  0.00     0.029 A 
ATOM     58  N   UNL A   1      41.443  29.702  33.719  1.00  0.00    -0.354 N 
ATOM     59  N   UNL A   1      39.261  30.799  32.100  1.00  0.00    -0.248 NA
ATOM     60  C   UNL A   1      37.342  32.114  31.910  1.00  0.00     0.031 C 
ATOM     61  C   UNL A   1      41.621  30.350  35.836  1.00  0.00     0.029 A 
ATOM     62  C   UNL A   1      40.865  30.508  34.686  1.00  0.00     0.049 A 
ATOM     63  H   UNL A   1      41.111  29.601  32.797  1.00  0.00     0.167 HD
ATOM     64  C   UNL A   1      39.019  31.431  33.314  1.00  0.00     0.074 A 
ATOM     65  C   UNL A   1      37.848  32.262  33.125  1.00  0.00     0.031 C 
ATOM     66  C   UNL A   1      39.701  31.333  34.483  1.00  0.00     0.037 A 
BRANCH  53  67
ATOM     67  C   UNL A   1      44.554  27.513  34.219  1.00  0.00     0.057 A 
ATOM     68  C   UNL A   1      45.817  28.120  34.223  1.00  0.00     0.134 A 
ATOM     69  C   UNL A   1      44.412  26.315  34.930  1.00  0.00     0.134 A 
ATOM     70  F   UNL A   1      46.026  29.261  33.549  1.00  0.00    -0.206 F 
ATOM     71  C   UNL A   1      46.902  27.546  34.890  1.00  0.00     0.040 A 
ATOM     72  C   UNL A   1      45.482  25.747  35.624  1.00  0.00     0.040 A 
ATOM     73  F   UNL A   1      43.231  25.682  34.970  1.00  0.00    -0.206 F 
ATOM     74  C   UNL A   1      46.733  26.360  35.599  1.00  0.00     0.006 A 
ENDBRANCH  53  67
BRANCH  54  75
ATOM     75  C   UNL A   1      36.936  31.437  29.097  1.00  0.00     0.057 A 
ATOM     76  C   UNL A   1      36.934  32.757  28.629  1.00  0.00     0.134 A 
ATOM     77  C   UNL A   1      35.775  30.681  28.887  1.00  0.00     0.134 A 
ATOM     78  F   UNL A   1      38.004  33.542  28.820  1.00  0.00    -0.206 F 
ATOM     79  C   UNL A   1      35.813  33.313  28.009  1.00  0.00     0.040 A 
ATOM     80  C   UNL A   1      34.659  31.213  28.240  1.00  0.00     0.040 A 
ATOM     81  F   UNL A   1      35.710  29.409  29.309  1.00  0.00    -0.206 F 
ATOM     82  C   UNL A   1      34.672  32.538  27.809  1.00  0.00     0.006 A 
ENDBRANCH  54  75
BRANCH  66  83
ATOM     83  C   UNL A   1      39.224  32.178  35.632  1.00  0.00     0.057 A 
ATOM     84  C   UNL A   1      39.674  33.490  35.828  1.00  0.00     0.134 A 
ATOM     85  C   UNL A   1      38.288  31.675  36.546  1.00  0.00     0.134 A 
ATOM     86  F   UNL A   1      40.577  34.032  34.997  1.00  0.00    -0.206 F 
ATOM     87  C   UNL A   1      39.241  34.256  36.913  1.00  0.00     0.040 A 
ATOM     88  C   UNL A   1      37.822  32.443  37.613  1.00  0.00     0.040 A 
ATOM     89  F   UNL A   1      37.804  30.430  36.410  1.00  0.00    -0.206 F 
ATOM     90  C   UNL A   1      38.308  33.734  37.806  1.00  0.00     0.006 A 
ENDBRANCH  66  83
ENDBRANCH  40  41
ENDBRANCH  33  35
ENDBRANCH  32  33
ENDBRANCH  31  32
ENDBRANCH  30  31
ENDBRANCH  29  30
ENDBRANCH  28  29
ENDBRANCH  27  28
ENDBRANCH  26  27
ENDBRANCH   1  26
TORSDOF 23
ENDMDL
