MODEL 1
REMARK VINA RESULT:     -10.8      0.000      0.000
REMARK SMILES Cc1ccccc1NC(=O)CSc1nc(C(=O)OCCOCCOCCOCCOC(=O)c2ccc(-c3c4nc(c(-c5c(F)cccc5F)c5ccc([nH]5)c(-c5c(F)cccc5F)c5nc(c(-c6c(F)cccc6F)c6ccc3[nH]6)C=C5)C=C4)cc2)c2ccccc2n1
REMARK SMILES IDX 23 1 22 2 21 3 20 4 19 5 18 6 16 7 17 8 15 9 13 10 14 11
REMARK SMILES IDX 93 12 92 13 87 14 91 15 88 16 90 17 89 18 12 19 11 20 9 21
REMARK SMILES IDX 8 22 10 24 7 25 1 26 2 27 3 28 4 29 6 30 5 31 24 32 25 33
REMARK SMILES IDX 26 34 27 35 28 36 29 37 30 38 31 39 32 40 33 41 34 42 86 43
REMARK SMILES IDX 35 44 85 45 36 46 37 47 38 48 79 49 39 50 84 51 78 52 80 53
REMARK SMILES IDX 40 54 83 55 77 56 76 57 41 59 67 60 50 61 66 62 51 63 54 64
REMARK SMILES IDX 65 65 81 66 52 67 53 68 64 70 82 71 55 72 42 73 43 74 48 75
REMARK SMILES IDX 44 76 45 77 47 78 49 79 46 80 68 81 69 82 74 83 70 84 71 85
REMARK SMILES IDX 73 86 75 87 72 88 56 89 57 90 62 91 58 92 59 93 61 94 63 95
REMARK SMILES IDX 60 96
REMARK H PARENT 8 23 80 58 54 69
REMARK Flexibility Score: inf
ROOT
ATOM      1  C   UNL A   1      41.824  22.208  26.812  1.00  0.00     0.188 C 
ENDROOT
BRANCH   1   2
ATOM      2  C   UNL A   1      40.329  22.209  26.472  1.00  0.00     0.188 C 
BRANCH   2   3
ATOM      3  O   UNL A   1      39.525  23.219  27.073  1.00  0.00    -0.376 OA
BRANCH   3   4
ATOM      4  C   UNL A   1      38.254  23.456  26.465  1.00  0.00     0.202 C 
BRANCH   4   5
ATOM      5  C   UNL A   1      37.942  22.571  25.262  1.00  0.00     0.261 C 
BRANCH   5   6
ATOM      6  O   UNL A   1      36.594  22.077  25.387  1.00  0.00    -0.458 OA
BRANCH   6   7
ATOM      7  C   UNL A   1      36.454  20.788  25.016  1.00  0.00     0.357 C 
ATOM      8  O   UNL A   1      37.334  19.943  24.993  1.00  0.00    -0.244 OA
BRANCH   7   9
ATOM      9  C   UNL A   1      35.041  20.389  25.156  1.00  0.00     0.160 A 
ATOM     10  C   UNL A   1      33.112  21.529  25.188  1.00  0.00     0.189 A 
ATOM     11  N   UNL A   1      34.362  21.465  25.565  1.00  0.00    -0.215 NA
ATOM     12  N   UNL A   1      32.374  20.454  24.902  1.00  0.00    -0.222 NA
ATOM     13  C   UNL A   1      33.027  19.290  24.766  1.00  0.00     0.076 A 
ATOM     14  C   UNL A   1      34.421  19.222  24.729  1.00  0.00     0.034 A 
ATOM     15  C   UNL A   1      32.308  18.118  24.558  1.00  0.00     0.029 A 
ATOM     16  C   UNL A   1      35.049  18.043  24.278  1.00  0.00     0.013 A 
ATOM     17  C   UNL A   1      32.936  16.918  24.213  1.00  0.00     0.002 A 
ATOM     18  C   UNL A   1      34.309  16.894  24.020  1.00  0.00     0.001 A 
BRANCH  10  19
ATOM     19  S   UNL A   1      32.741  23.070  24.393  1.00  0.00    -0.076 SA
BRANCH  19  20
ATOM     20  C   UNL A   1      31.013  23.356  25.009  1.00  0.00     0.178 C 
BRANCH  20  21
ATOM     21  C   UNL A   1      30.858  24.064  26.361  1.00  0.00     0.234 C 
ATOM     22  N   UNL A   1      30.597  25.399  26.494  1.00  0.00    -0.325 N 
ATOM     23  H   UNL A   1      30.301  25.679  27.390  1.00  0.00     0.169 HD
ATOM     24  O   UNL A   1      31.009  23.426  27.412  1.00  0.00    -0.274 OA
BRANCH  22  25
ATOM     25  C   UNL A   1      30.688  26.434  25.552  1.00  0.00     0.044 A 
ATOM     26  C   UNL A   1      32.285  27.775  27.057  1.00  0.00     0.046 C 
ATOM     27  C   UNL A   1      31.406  27.603  25.849  1.00  0.00    -0.027 A 
ATOM     28  C   UNL A   1      31.307  28.689  24.959  1.00  0.00     0.005 A 
ATOM     29  C   UNL A   1      30.530  28.610  23.803  1.00  0.00     0.000 A 
ATOM     30  C   UNL A   1      30.032  26.322  24.319  1.00  0.00     0.026 A 
ATOM     31  C   UNL A   1      29.911  27.415  23.469  1.00  0.00     0.002 A 
ENDBRANCH  22  25
ENDBRANCH  20  21
ENDBRANCH  19  20
ENDBRANCH  10  19
ENDBRANCH   7   9
ENDBRANCH   6   7
ENDBRANCH   5   6
ENDBRANCH   4   5
ENDBRANCH   3   4
ENDBRANCH   2   3
ENDBRANCH   1   2
BRANCH   1  32
ATOM     32  O   UNL A   1      42.713  21.836  25.771  1.00  0.00    -0.377 OA
BRANCH  32  33
ATOM     33  C   UNL A   1      44.086  22.228  25.843  1.00  0.00     0.188 C 
BRANCH  33  34
ATOM     34  C   UNL A   1      44.751  22.867  24.621  1.00  0.00     0.188 C 
BRANCH  34  35
ATOM     35  O   UNL A   1      44.671  24.286  24.747  1.00  0.00    -0.376 OA
BRANCH  35  36
ATOM     36  C   UNL A   1      44.861  24.808  26.060  1.00  0.00     0.202 C 
BRANCH  36  37
ATOM     37  C   UNL A   1      44.037  26.068  26.364  1.00  0.00     0.261 C 
BRANCH  37  38
ATOM     38  O   UNL A   1      42.804  25.701  27.012  1.00  0.00    -0.460 OA
BRANCH  38  39
ATOM     39  C   UNL A   1      41.682  25.928  26.282  1.00  0.00     0.338 C 
ATOM     40  O   UNL A   1      41.420  25.408  25.206  1.00  0.00    -0.246 OA
BRANCH  39  41
ATOM     41  C   UNL A   1      40.956  27.105  26.831  1.00  0.00     0.060 A 
ATOM     42  C   UNL A   1      41.442  28.402  26.587  1.00  0.00     0.016 A 
ATOM     43  C   UNL A   1      40.024  26.899  27.841  1.00  0.00     0.016 A 
ATOM     44  C   UNL A   1      41.127  29.451  27.467  1.00  0.00     0.010 A 
ATOM     45  C   UNL A   1      39.809  27.905  28.759  1.00  0.00     0.010 A 
ATOM     46  C   UNL A   1      40.378  29.182  28.614  1.00  0.00    -0.014 A 
BRANCH  46  47
ATOM     47  C   UNL A   1      40.290  30.035  29.817  1.00  0.00     0.031 A 
ATOM     48  C   UNL A   1      41.417  30.042  30.821  1.00  0.00     0.074 A 
ATOM     49  C   UNL A   1      39.417  31.074  29.821  1.00  0.00     0.049 A 
ATOM     50  N   UNL A   1      41.566  30.923  31.753  1.00  0.00    -0.248 NA
ATOM     51  C   UNL A   1      42.491  29.047  30.863  1.00  0.00     0.031 C 
ATOM     52  C   UNL A   1      39.659  32.368  30.450  1.00  0.00     0.029 A 
ATOM     53  N   UNL A   1      38.173  31.267  29.232  1.00  0.00    -0.354 N 
ATOM     54  C   UNL A   1      42.845  30.843  32.251  1.00  0.00     0.074 A 
ATOM     55  C   UNL A   1      43.343  29.594  31.740  1.00  0.00     0.031 C 
ATOM     56  C   UNL A   1      38.615  33.183  30.296  1.00  0.00     0.029 A 
ATOM     57  C   UNL A   1      37.536  32.364  29.831  1.00  0.00     0.049 A 
ATOM     58  H   UNL A   1      37.796  30.718  28.506  1.00  0.00     0.167 HD
ATOM     59  C   UNL A   1      43.358  31.909  32.936  1.00  0.00     0.037 A 
ATOM     60  C   UNL A   1      36.400  32.249  30.581  1.00  0.00     0.037 A 
ATOM     61  C   UNL A   1      42.315  32.888  33.295  1.00  0.00     0.049 A 
ATOM     62  C   UNL A   1      36.630  32.611  32.041  1.00  0.00     0.074 A 
ATOM     63  C   UNL A   1      42.209  34.261  33.208  1.00  0.00     0.029 A 
ATOM     64  N   UNL A   1      41.070  32.453  33.765  1.00  0.00    -0.354 N 
ATOM     65  N   UNL A   1      37.799  32.482  32.629  1.00  0.00    -0.248 NA
ATOM     66  C   UNL A   1      35.665  33.292  32.899  1.00  0.00     0.031 C 
ATOM     67  C   UNL A   1      40.859  34.631  33.472  1.00  0.00     0.029 A 
ATOM     68  C   UNL A   1      40.176  33.495  33.878  1.00  0.00     0.049 A 
ATOM     69  H   UNL A   1      40.858  31.517  33.987  1.00  0.00     0.167 HD
ATOM     70  C   UNL A   1      37.793  33.136  33.833  1.00  0.00     0.074 A 
ATOM     71  C   UNL A   1      36.418  33.582  33.979  1.00  0.00     0.031 C 
ATOM     72  C   UNL A   1      38.916  33.341  34.590  1.00  0.00     0.037 A 
BRANCH  59  73
ATOM     73  C   UNL A   1      44.852  32.189  33.146  1.00  0.00     0.057 A 
ATOM     74  C   UNL A   1      45.408  32.248  34.445  1.00  0.00     0.134 A 
ATOM     75  C   UNL A   1      45.769  32.534  32.131  1.00  0.00     0.134 A 
ATOM     76  F   UNL A   1      44.693  31.919  35.529  1.00  0.00    -0.206 F 
ATOM     77  C   UNL A   1      46.730  32.647  34.707  1.00  0.00     0.040 A 
ATOM     78  C   UNL A   1      47.116  32.861  32.375  1.00  0.00     0.040 A 
ATOM     79  F   UNL A   1      45.410  32.633  30.846  1.00  0.00    -0.206 F 
ATOM     80  C   UNL A   1      47.599  32.940  33.668  1.00  0.00     0.006 A 
ENDBRANCH  59  73
BRANCH  60  81
ATOM     81  C   UNL A   1      35.366  31.432  29.892  1.00  0.00     0.057 A 
ATOM     82  C   UNL A   1      34.626  32.162  28.938  1.00  0.00     0.134 A 
ATOM     83  C   UNL A   1      35.648  30.094  29.581  1.00  0.00     0.134 A 
ATOM     84  F   UNL A   1      34.285  33.436  29.193  1.00  0.00    -0.206 F 
ATOM     85  C   UNL A   1      34.444  31.689  27.637  1.00  0.00     0.040 A 
ATOM     86  C   UNL A   1      35.451  29.603  28.281  1.00  0.00     0.040 A 
ATOM     87  F   UNL A   1      36.311  29.320  30.451  1.00  0.00    -0.206 F 
ATOM     88  C   UNL A   1      34.915  30.426  27.289  1.00  0.00     0.006 A 
ENDBRANCH  60  81
BRANCH  72  89
ATOM     89  C   UNL A   1      38.969  33.499  36.101  1.00  0.00     0.057 A 
ATOM     90  C   UNL A   1      39.233  34.710  36.753  1.00  0.00     0.134 A 
ATOM     91  C   UNL A   1      38.507  32.463  36.960  1.00  0.00     0.134 A 
ATOM     92  F   UNL A   1      39.601  35.808  36.083  1.00  0.00    -0.206 F 
ATOM     93  C   UNL A   1      39.067  34.875  38.135  1.00  0.00     0.040 A 
ATOM     94  C   UNL A   1      38.299  32.630  38.331  1.00  0.00     0.040 A 
ATOM     95  F   UNL A   1      38.178  31.243  36.516  1.00  0.00    -0.206 F 
ATOM     96  C   UNL A   1      38.581  33.842  38.927  1.00  0.00     0.006 A 
ENDBRANCH  72  89
ENDBRANCH  46  47
ENDBRANCH  39  41
ENDBRANCH  38  39
ENDBRANCH  37  38
ENDBRANCH  36  37
ENDBRANCH  35  36
ENDBRANCH  34  35
ENDBRANCH  33  34
ENDBRANCH  32  33
ENDBRANCH   1  32
TORSDOF 24
ENDMDL
MODEL 2
REMARK VINA RESULT:      -9.8      2.161      5.627
REMARK SMILES Cc1ccccc1NC(=O)CSc1nc(C(=O)OCCOCCOCCOCCOC(=O)c2ccc(-c3c4nc(c(-c5c(F)cccc5F)c5ccc([nH]5)c(-c5c(F)cccc5F)c5nc(c(-c6c(F)cccc6F)c6ccc3[nH]6)C=C5)C=C4)cc2)c2ccccc2n1
REMARK SMILES IDX 23 1 22 2 21 3 20 4 19 5 18 6 16 7 17 8 15 9 13 10 14 11
REMARK SMILES IDX 93 12 92 13 87 14 91 15 88 16 90 17 89 18 12 19 11 20 9 21
REMARK SMILES IDX 8 22 10 24 7 25 1 26 2 27 3 28 4 29 6 30 5 31 24 32 25 33
REMARK SMILES IDX 26 34 27 35 28 36 29 37 30 38 31 39 32 40 33 41 34 42 86 43
REMARK SMILES IDX 35 44 85 45 36 46 37 47 38 48 79 49 39 50 84 51 78 52 80 53
REMARK SMILES IDX 40 54 83 55 77 56 76 57 41 59 67 60 50 61 66 62 51 63 54 64
REMARK SMILES IDX 65 65 81 66 52 67 53 68 64 70 82 71 55 72 42 73 43 74 48 75
REMARK SMILES IDX 44 76 45 77 47 78 49 79 46 80 68 81 69 82 74 83 70 84 71 85
REMARK SMILES IDX 73 86 75 87 72 88 56 89 57 90 62 91 58 92 59 93 61 94 63 95
REMARK SMILES IDX 60 96
REMARK H PARENT 8 23 80 58 54 69
REMARK Flexibility Score: inf
ROOT
ATOM      1  C   UNL A   1      42.592  21.476  27.155  1.00  0.00     0.188 C 
ENDROOT
BRANCH   1   2
ATOM      2  C   UNL A   1      41.127  21.711  27.541  1.00  0.00     0.188 C 
BRANCH   2   3
ATOM      3  O   UNL A   1      40.576  22.992  27.255  1.00  0.00    -0.376 OA
BRANCH   3   4
ATOM      4  C   UNL A   1      39.379  23.001  26.474  1.00  0.00     0.202 C 
BRANCH   4   5
ATOM      5  C   UNL A   1      38.682  21.651  26.351  1.00  0.00     0.261 C 
BRANCH   5   6
ATOM      6  O   UNL A   1      37.481  21.818  25.572  1.00  0.00    -0.458 OA
BRANCH   6   7
ATOM      7  C   UNL A   1      37.053  20.680  24.989  1.00  0.00     0.357 C 
ATOM      8  O   UNL A   1      37.750  19.745  24.630  1.00  0.00    -0.244 OA
BRANCH   7   9
ATOM      9  C   UNL A   1      35.631  20.466  25.321  1.00  0.00     0.160 A 
ATOM     10  C   UNL A   1      33.924  21.849  25.760  1.00  0.00     0.189 A 
ATOM     11  N   UNL A   1      35.192  21.574  25.923  1.00  0.00    -0.215 NA
ATOM     12  N   UNL A   1      32.997  20.922  25.507  1.00  0.00    -0.222 NA
ATOM     13  C   UNL A   1      33.439  19.701  25.169  1.00  0.00     0.076 A 
ATOM     14  C   UNL A   1      34.786  19.447  24.902  1.00  0.00     0.034 A 
ATOM     15  C   UNL A   1      32.527  18.668  24.982  1.00  0.00     0.029 A 
ATOM     16  C   UNL A   1      35.154  18.248  24.257  1.00  0.00     0.013 A 
ATOM     17  C   UNL A   1      32.908  17.437  24.439  1.00  0.00     0.002 A 
ATOM     18  C   UNL A   1      34.218  17.246  24.025  1.00  0.00     0.001 A 
BRANCH  10  19
ATOM     19  S   UNL A   1      33.679  23.503  25.169  1.00  0.00    -0.076 SA
BRANCH  19  20
ATOM     20  C   UNL A   1      31.826  23.548  25.065  1.00  0.00     0.178 C 
BRANCH  20  21
ATOM     21  C   UNL A   1      31.069  24.121  26.269  1.00  0.00     0.234 C 
ATOM     22  N   UNL A   1      30.395  25.310  26.248  1.00  0.00    -0.325 N 
ATOM     23  H   UNL A   1      29.774  25.451  26.999  1.00  0.00     0.169 HD
ATOM     24  O   UNL A   1      31.080  23.514  27.349  1.00  0.00    -0.274 OA
BRANCH  22  25
ATOM     25  C   UNL A   1      30.452  26.362  25.323  1.00  0.00     0.044 A 
ATOM     26  C   UNL A   1      32.525  27.366  26.468  1.00  0.00     0.046 C 
ATOM     27  C   UNL A   1      31.395  27.391  25.474  1.00  0.00    -0.027 A 
ATOM     28  C   UNL A   1      31.289  28.520  24.642  1.00  0.00     0.005 A 
ATOM     29  C   UNL A   1      30.284  28.618  23.679  1.00  0.00     0.000 A 
ATOM     30  C   UNL A   1      29.543  26.413  24.259  1.00  0.00     0.026 A 
ATOM     31  C   UNL A   1      29.424  27.551  23.469  1.00  0.00     0.002 A 
ENDBRANCH  22  25
ENDBRANCH  20  21
ENDBRANCH  19  20
ENDBRANCH  10  19
ENDBRANCH   7   9
ENDBRANCH   6   7
ENDBRANCH   5   6
ENDBRANCH   4   5
ENDBRANCH   3   4
ENDBRANCH   2   3
ENDBRANCH   1   2
BRANCH   1  32
ATOM     32  O   UNL A   1      42.829  20.885  25.887  1.00  0.00    -0.377 OA
BRANCH  32  33
ATOM     33  C   UNL A   1      43.712  21.529  24.964  1.00  0.00     0.188 C 
BRANCH  33  34
ATOM     34  C   UNL A   1      43.533  23.019  24.664  1.00  0.00     0.188 C 
BRANCH  34  35
ATOM     35  O   UNL A   1      44.692  23.718  25.114  1.00  0.00    -0.376 OA
BRANCH  35  36
ATOM     36  C   UNL A   1      44.557  24.424  26.345  1.00  0.00     0.202 C 
BRANCH  36  37
ATOM     37  C   UNL A   1      43.774  25.740  26.235  1.00  0.00     0.261 C 
BRANCH  37  38
ATOM     38  O   UNL A   1      42.500  25.608  26.894  1.00  0.00    -0.460 OA
BRANCH  38  39
ATOM     39  C   UNL A   1      41.445  26.131  26.216  1.00  0.00     0.338 C 
ATOM     40  O   UNL A   1      41.144  25.863  25.061  1.00  0.00    -0.246 OA
BRANCH  39  41
ATOM     41  C   UNL A   1      40.884  27.283  26.972  1.00  0.00     0.060 A 
ATOM     42  C   UNL A   1      41.527  28.531  26.924  1.00  0.00     0.016 A 
ATOM     43  C   UNL A   1      39.947  27.029  27.968  1.00  0.00     0.016 A 
ATOM     44  C   UNL A   1      41.361  29.452  27.972  1.00  0.00     0.010 A 
ATOM     45  C   UNL A   1      39.876  27.890  29.043  1.00  0.00     0.010 A 
ATOM     46  C   UNL A   1      40.601  29.093  29.086  1.00  0.00    -0.014 A 
BRANCH  46  47
ATOM     47  C   UNL A   1      40.640  29.740  30.414  1.00  0.00     0.031 A 
ATOM     48  C   UNL A   1      39.846  30.999  30.663  1.00  0.00     0.074 A 
ATOM     49  C   UNL A   1      41.049  29.013  31.485  1.00  0.00     0.049 A 
ATOM     50  N   UNL A   1      39.598  31.494  31.829  1.00  0.00    -0.248 NA
ATOM     51  C   UNL A   1      39.249  31.821  29.607  1.00  0.00     0.031 C 
ATOM     52  C   UNL A   1      40.498  29.126  32.832  1.00  0.00     0.029 A 
ATOM     53  N   UNL A   1      41.969  27.983  31.633  1.00  0.00    -0.354 N 
ATOM     54  C   UNL A   1      38.585  32.418  31.724  1.00  0.00     0.074 A 
ATOM     55  C   UNL A   1      38.477  32.660  30.310  1.00  0.00     0.031 C 
ATOM     56  C   UNL A   1      41.108  28.291  33.673  1.00  0.00     0.029 A 
ATOM     57  C   UNL A   1      42.277  27.822  32.992  1.00  0.00     0.049 A 
ATOM     58  H   UNL A   1      42.347  27.447  30.898  1.00  0.00     0.167 HD
ATOM     59  C   UNL A   1      37.886  32.766  32.846  1.00  0.00     0.037 A 
ATOM     60  C   UNL A   1      43.514  28.080  33.512  1.00  0.00     0.037 A 
ATOM     61  C   UNL A   1      38.551  32.300  34.077  1.00  0.00     0.049 A 
ATOM     62  C   UNL A   1      43.503  29.254  34.481  1.00  0.00     0.074 A 
ATOM     63  C   UNL A   1      38.124  31.649  35.217  1.00  0.00     0.029 A 
ATOM     64  N   UNL A   1      39.940  32.406  34.214  1.00  0.00    -0.354 N 
ATOM     65  N   UNL A   1      42.626  30.231  34.402  1.00  0.00    -0.248 NA
ATOM     66  C   UNL A   1      44.318  29.353  35.688  1.00  0.00     0.031 C 
ATOM     67  C   UNL A   1      39.268  31.228  35.955  1.00  0.00     0.029 A 
ATOM     68  C   UNL A   1      40.391  31.763  35.345  1.00  0.00     0.049 A 
ATOM     69  H   UNL A   1      40.523  32.882  33.579  1.00  0.00     0.167 HD
ATOM     70  C   UNL A   1      42.664  30.987  35.545  1.00  0.00     0.074 A 
ATOM     71  C   UNL A   1      43.775  30.428  36.295  1.00  0.00     0.031 C 
ATOM     72  C   UNL A   1      41.746  31.959  35.841  1.00  0.00     0.037 A 
BRANCH  59  73
ATOM     73  C   UNL A   1      36.482  33.384  32.856  1.00  0.00     0.057 A 
ATOM     74  C   UNL A   1      35.329  32.580  32.714  1.00  0.00     0.134 A 
ATOM     75  C   UNL A   1      36.199  34.767  32.872  1.00  0.00     0.134 A 
ATOM     76  F   UNL A   1      35.403  31.242  32.714  1.00  0.00    -0.206 F 
ATOM     77  C   UNL A   1      34.030  33.100  32.565  1.00  0.00     0.040 A 
ATOM     78  C   UNL A   1      34.897  35.297  32.801  1.00  0.00     0.040 A 
ATOM     79  F   UNL A   1      37.163  35.694  32.900  1.00  0.00    -0.206 F 
ATOM     80  C   UNL A   1      33.806  34.466  32.624  1.00  0.00     0.006 A 
ENDBRANCH  59  73
BRANCH  60  81
ATOM     81  C   UNL A   1      44.591  27.439  32.713  1.00  0.00     0.057 A 
ATOM     82  C   UNL A   1      45.382  28.366  32.002  1.00  0.00     0.134 A 
ATOM     83  C   UNL A   1      45.251  26.315  33.231  1.00  0.00     0.134 A 
ATOM     84  F   UNL A   1      44.805  29.442  31.442  1.00  0.00    -0.206 F 
ATOM     85  C   UNL A   1      46.777  28.337  32.066  1.00  0.00     0.040 A 
ATOM     86  C   UNL A   1      46.652  26.267  33.283  1.00  0.00     0.040 A 
ATOM     87  F   UNL A   1      44.565  25.367  33.884  1.00  0.00    -0.206 F 
ATOM     88  C   UNL A   1      47.415  27.315  32.764  1.00  0.00     0.006 A 
ENDBRANCH  60  81
BRANCH  72  89
ATOM     89  C   UNL A   1      41.980  33.190  36.702  1.00  0.00     0.057 A 
ATOM     90  C   UNL A   1      42.038  34.496  36.202  1.00  0.00     0.134 A 
ATOM     91  C   UNL A   1      41.913  33.110  38.121  1.00  0.00     0.134 A 
ATOM     92  F   UNL A   1      42.029  34.752  34.889  1.00  0.00    -0.206 F 
ATOM     93  C   UNL A   1      42.042  35.623  37.036  1.00  0.00     0.040 A 
ATOM     94  C   UNL A   1      41.875  34.228  38.957  1.00  0.00     0.040 A 
ATOM     95  F   UNL A   1      41.826  31.948  38.781  1.00  0.00    -0.206 F 
ATOM     96  C   UNL A   1      41.940  35.495  38.415  1.00  0.00     0.006 A 
ENDBRANCH  72  89
ENDBRANCH  46  47
ENDBRANCH  39  41
ENDBRANCH  38  39
ENDBRANCH  37  38
ENDBRANCH  36  37
ENDBRANCH  35  36
ENDBRANCH  34  35
ENDBRANCH  33  34
ENDBRANCH  32  33
ENDBRANCH   1  32
TORSDOF 24
ENDMDL
MODEL 3
REMARK VINA RESULT:      -9.6      5.329      9.780
REMARK SMILES Cc1ccccc1NC(=O)CSc1nc(C(=O)OCCOCCOCCOCCOC(=O)c2ccc(-c3c4nc(c(-c5c(F)cccc5F)c5ccc([nH]5)c(-c5c(F)cccc5F)c5nc(c(-c6c(F)cccc6F)c6ccc3[nH]6)C=C5)C=C4)cc2)c2ccccc2n1
REMARK SMILES IDX 23 1 22 2 21 3 20 4 19 5 18 6 16 7 17 8 15 9 13 10 14 11
REMARK SMILES IDX 93 12 92 13 87 14 91 15 88 16 90 17 89 18 12 19 11 20 9 21
REMARK SMILES IDX 8 22 10 24 7 25 1 26 2 27 3 28 4 29 6 30 5 31 24 32 25 33
REMARK SMILES IDX 26 34 27 35 28 36 29 37 30 38 31 39 32 40 33 41 34 42 86 43
REMARK SMILES IDX 35 44 85 45 36 46 37 47 38 48 79 49 39 50 84 51 78 52 80 53
REMARK SMILES IDX 40 54 83 55 77 56 76 57 41 59 67 60 50 61 66 62 51 63 54 64
REMARK SMILES IDX 65 65 81 66 52 67 53 68 64 70 82 71 55 72 42 73 43 74 48 75
REMARK SMILES IDX 44 76 45 77 47 78 49 79 46 80 68 81 69 82 74 83 70 84 71 85
REMARK SMILES IDX 73 86 75 87 72 88 56 89 57 90 62 91 58 92 59 93 61 94 63 95
REMARK SMILES IDX 60 96
REMARK H PARENT 8 23 80 58 54 69
REMARK Flexibility Score: inf
ROOT
ATOM      1  C   UNL A   1      40.570  26.963  27.938  1.00  0.00     0.188 C 
ENDROOT
BRANCH   1   2
ATOM      2  C   UNL A   1      40.623  28.430  27.498  1.00  0.00     0.188 C 
BRANCH   2   3
ATOM      3  O   UNL A   1      40.863  29.404  28.508  1.00  0.00    -0.376 OA
BRANCH   3   4
ATOM      4  C   UNL A   1      40.255  29.158  29.778  1.00  0.00     0.202 C 
BRANCH   4   5
ATOM      5  C   UNL A   1      39.002  29.981  30.060  1.00  0.00     0.261 C 
BRANCH   5   6
ATOM      6  O   UNL A   1      37.918  29.463  29.265  1.00  0.00    -0.458 OA
BRANCH   6   7
ATOM      7  C   UNL A   1      36.709  29.592  29.849  1.00  0.00     0.357 C 
ATOM      8  O   UNL A   1      36.444  29.365  31.018  1.00  0.00    -0.244 OA
BRANCH   7   9
ATOM      9  C   UNL A   1      35.887  30.535  29.068  1.00  0.00     0.160 A 
ATOM     10  C   UNL A   1      34.373  30.277  27.436  1.00  0.00     0.189 A 
ATOM     11  N   UNL A   1      35.519  29.908  27.947  1.00  0.00    -0.215 NA
ATOM     12  N   UNL A   1      33.838  31.485  27.625  1.00  0.00    -0.222 NA
ATOM     13  C   UNL A   1      34.393  32.251  28.577  1.00  0.00     0.076 A 
ATOM     14  C   UNL A   1      35.352  31.754  29.463  1.00  0.00     0.034 A 
ATOM     15  C   UNL A   1      33.942  33.553  28.762  1.00  0.00     0.029 A 
ATOM     16  C   UNL A   1      35.672  32.487  30.624  1.00  0.00     0.013 A 
ATOM     17  C   UNL A   1      34.340  34.323  29.858  1.00  0.00     0.002 A 
ATOM     18  C   UNL A   1      35.167  33.767  30.823  1.00  0.00     0.001 A 
BRANCH  10  19
ATOM     19  S   UNL A   1      33.304  28.892  27.148  1.00  0.00    -0.076 SA
BRANCH  19  20
ATOM     20  C   UNL A   1      33.911  28.344  25.481  1.00  0.00     0.178 C 
BRANCH  20  21
ATOM     21  C   UNL A   1      33.557  26.919  25.038  1.00  0.00     0.234 C 
ATOM     22  N   UNL A   1      32.542  26.623  24.171  1.00  0.00    -0.325 N 
ATOM     23  H   UNL A   1      32.564  25.712  23.799  1.00  0.00     0.169 HD
ATOM     24  O   UNL A   1      34.182  25.956  25.502  1.00  0.00    -0.274 OA
BRANCH  22  25
ATOM     25  C   UNL A   1      31.473  27.415  23.729  1.00  0.00     0.044 A 
ATOM     26  C   UNL A   1      29.779  26.023  25.073  1.00  0.00     0.046 C 
ATOM     27  C   UNL A   1      30.153  27.083  24.074  1.00  0.00    -0.027 A 
ATOM     28  C   UNL A   1      29.105  27.785  23.451  1.00  0.00     0.005 A 
ATOM     29  C   UNL A   1      29.361  28.799  22.526  1.00  0.00     0.000 A 
ATOM     30  C   UNL A   1      31.712  28.527  22.912  1.00  0.00     0.026 A 
ATOM     31  C   UNL A   1      30.667  29.188  22.274  1.00  0.00     0.002 A 
ENDBRANCH  22  25
ENDBRANCH  20  21
ENDBRANCH  19  20
ENDBRANCH  10  19
ENDBRANCH   7   9
ENDBRANCH   6   7
ENDBRANCH   5   6
ENDBRANCH   4   5
ENDBRANCH   3   4
ENDBRANCH   2   3
ENDBRANCH   1   2
BRANCH   1  32
ATOM     32  O   UNL A   1      40.049  26.036  26.999  1.00  0.00    -0.377 OA
BRANCH  32  33
ATOM     33  C   UNL A   1      39.269  24.929  27.459  1.00  0.00     0.188 C 
BRANCH  33  34
ATOM     34  C   UNL A   1      39.438  23.560  26.795  1.00  0.00     0.188 C 
BRANCH  34  35
ATOM     35  O   UNL A   1      40.344  22.782  27.574  1.00  0.00    -0.376 OA
BRANCH  35  36
ATOM     36  C   UNL A   1      40.693  21.507  27.039  1.00  0.00     0.202 C 
BRANCH  36  37
ATOM     37  C   UNL A   1      42.187  21.341  26.729  1.00  0.00     0.261 C 
BRANCH  37  38
ATOM     38  O   UNL A   1      42.972  22.038  27.716  1.00  0.00    -0.460 OA
BRANCH  38  39
ATOM     39  C   UNL A   1      43.908  22.884  27.213  1.00  0.00     0.338 C 
ATOM     40  O   UNL A   1      44.614  22.660  26.239  1.00  0.00    -0.246 OA
BRANCH  39  41
ATOM     41  C   UNL A   1      44.155  23.990  28.177  1.00  0.00     0.060 A 
ATOM     42  C   UNL A   1      45.433  24.158  28.737  1.00  0.00     0.016 A 
ATOM     43  C   UNL A   1      43.060  24.618  28.761  1.00  0.00     0.016 A 
ATOM     44  C   UNL A   1      45.582  24.805  29.975  1.00  0.00     0.010 A 
ATOM     45  C   UNL A   1      43.201  25.153  30.024  1.00  0.00     0.010 A 
ATOM     46  C   UNL A   1      44.447  25.227  30.669  1.00  0.00    -0.014 A 
BRANCH  46  47
ATOM     47  C   UNL A   1      44.376  25.550  32.109  1.00  0.00     0.031 A 
ATOM     48  C   UNL A   1      43.859  26.895  32.556  1.00  0.00     0.074 A 
ATOM     49  C   UNL A   1      44.393  24.534  33.010  1.00  0.00     0.049 A 
ATOM     50  N   UNL A   1      43.511  27.185  33.764  1.00  0.00    -0.248 NA
ATOM     51  C   UNL A   1      43.682  28.047  31.669  1.00  0.00     0.031 C 
ATOM     52  C   UNL A   1      43.633  24.508  34.255  1.00  0.00     0.029 A 
ATOM     53  N   UNL A   1      45.006  23.287  33.018  1.00  0.00    -0.354 N 
ATOM     54  C   UNL A   1      42.776  28.347  33.758  1.00  0.00     0.074 A 
ATOM     55  C   UNL A   1      43.001  28.898  32.449  1.00  0.00     0.031 C 
ATOM     56  C   UNL A   1      43.861  23.385  34.935  1.00  0.00     0.029 A 
ATOM     57  C   UNL A   1      45.001  22.771  34.322  1.00  0.00     0.049 A 
ATOM     58  H   UNL A   1      45.386  22.835  32.230  1.00  0.00     0.167 HD
ATOM     59  C   UNL A   1      41.972  28.629  34.827  1.00  0.00     0.037 A 
ATOM     60  C   UNL A   1      46.139  22.575  35.051  1.00  0.00     0.037 A 
ATOM     61  C   UNL A   1      42.261  27.757  35.981  1.00  0.00     0.049 A 
ATOM     62  C   UNL A   1      46.210  23.481  36.272  1.00  0.00     0.074 A 
ATOM     63  C   UNL A   1      41.485  27.022  36.854  1.00  0.00     0.029 A 
ATOM     64  N   UNL A   1      43.584  27.457  36.325  1.00  0.00    -0.354 N 
ATOM     65  N   UNL A   1      45.613  24.651  36.323  1.00  0.00    -0.248 NA
ATOM     66  C   UNL A   1      46.777  23.105  37.564  1.00  0.00     0.031 C 
ATOM     67  C   UNL A   1      42.337  26.167  37.610  1.00  0.00     0.029 A 
ATOM     68  C   UNL A   1      43.649  26.496  37.310  1.00  0.00     0.049 A 
ATOM     69  H   UNL A   1      44.373  27.880  35.913  1.00  0.00     0.167 HD
ATOM     70  C   UNL A   1      45.601  25.115  37.612  1.00  0.00     0.074 A 
ATOM     71  C   UNL A   1      46.389  24.136  38.342  1.00  0.00     0.031 C 
ATOM     72  C   UNL A   1      44.891  26.214  38.016  1.00  0.00     0.037 A 
BRANCH  59  73
ATOM     73  C   UNL A   1      40.772  29.585  34.803  1.00  0.00     0.057 A 
ATOM     74  C   UNL A   1      39.738  29.435  33.851  1.00  0.00     0.134 A 
ATOM     75  C   UNL A   1      40.635  30.744  35.597  1.00  0.00     0.134 A 
ATOM     76  F   UNL A   1      39.685  28.374  33.035  1.00  0.00    -0.206 F 
ATOM     77  C   UNL A   1      38.695  30.363  33.682  1.00  0.00     0.040 A 
ATOM     78  C   UNL A   1      39.555  31.640  35.489  1.00  0.00     0.040 A 
ATOM     79  F   UNL A   1      41.562  31.115  36.487  1.00  0.00    -0.206 F 
ATOM     80  C   UNL A   1      38.589  31.465  34.515  1.00  0.00     0.006 A 
ENDBRANCH  59  73
BRANCH  60  81
ATOM     81  C   UNL A   1      47.174  21.849  34.270  1.00  0.00     0.057 A 
ATOM     82  C   UNL A   1      48.366  22.586  34.107  1.00  0.00     0.134 A 
ATOM     83  C   UNL A   1      47.309  20.462  34.435  1.00  0.00     0.134 A 
ATOM     84  F   UNL A   1      48.305  23.912  33.900  1.00  0.00    -0.206 F 
ATOM     85  C   UNL A   1      49.614  22.031  34.395  1.00  0.00     0.040 A 
ATOM     86  C   UNL A   1      48.562  19.892  34.706  1.00  0.00     0.040 A 
ATOM     87  F   UNL A   1      46.225  19.685  34.556  1.00  0.00    -0.206 F 
ATOM     88  C   UNL A   1      49.706  20.690  34.758  1.00  0.00     0.006 A 
ENDBRANCH  60  81
BRANCH  72  89
ATOM     89  C   UNL A   1      45.230  27.131  39.181  1.00  0.00     0.057 A 
ATOM     90  C   UNL A   1      44.929  26.842  40.517  1.00  0.00     0.134 A 
ATOM     91  C   UNL A   1      46.102  28.242  39.006  1.00  0.00     0.134 A 
ATOM     92  F   UNL A   1      44.186  25.784  40.862  1.00  0.00    -0.206 F 
ATOM     93  C   UNL A   1      45.437  27.596  41.585  1.00  0.00     0.040 A 
ATOM     94  C   UNL A   1      46.645  28.972  40.063  1.00  0.00     0.040 A 
ATOM     95  F   UNL A   1      46.522  28.652  37.802  1.00  0.00    -0.206 F 
ATOM     96  C   UNL A   1      46.313  28.651  41.364  1.00  0.00     0.006 A 
ENDBRANCH  72  89
ENDBRANCH  46  47
ENDBRANCH  39  41
ENDBRANCH  38  39
ENDBRANCH  37  38
ENDBRANCH  36  37
ENDBRANCH  35  36
ENDBRANCH  34  35
ENDBRANCH  33  34
ENDBRANCH  32  33
ENDBRANCH   1  32
TORSDOF 24
ENDMDL
