MODEL 1
REMARK VINA RESULT:     -10.0      0.000      0.000
REMARK SMILES Cn1ccc(NC(=O)[C@@H]2CCCC[C@@H]2C(=O)OCCOCCOCCOCCOC(=O)c2ccc(-c3c4nc(c(-c5c(F)cccc5F)c5ccc([nH]5)c(-c5c(F)cccc5F)c5nc(c(-c6c(F)cccc6F)c6ccc3[nH]6)C=C5)C=C4)cc2)n1
REMARK SMILES IDX 23 1 22 2 21 3 20 4 19 5 18 6 17 7 15 8 16 9 14 10 9 11
REMARK SMILES IDX 10 12 11 13 13 14 12 15 7 16 6 17 8 19 5 20 1 21 2 22 3 23
REMARK SMILES IDX 86 24 4 25 24 26 25 27 26 28 27 29 28 30 29 31 30 32 31 33
REMARK SMILES IDX 32 34 33 35 85 36 34 37 84 38 35 39 36 40 37 41 78 42 38 43
REMARK SMILES IDX 83 44 77 45 79 46 39 47 82 48 76 49 75 50 40 52 66 53 49 54
REMARK SMILES IDX 65 55 50 56 53 57 64 58 80 59 51 60 52 61 63 63 81 64 54 65
REMARK SMILES IDX 41 66 42 67 47 68 43 69 44 70 46 71 48 72 45 73 67 74 68 75
REMARK SMILES IDX 73 76 69 77 70 78 72 79 74 80 71 81 55 82 56 83 61 84 57 85
REMARK SMILES IDX 58 86 60 87 62 88 59 89
REMARK H PARENT 6 18 79 51 53 62
REMARK Flexibility Score: inf
ROOT
ATOM      1  O   UNL A   1      34.019  30.720  27.259  1.00  0.00    -0.377 OA
ENDROOT
BRANCH   1   2
ATOM      2  C   UNL A   1      34.082  29.358  26.895  1.00  0.00     0.188 C 
BRANCH   2   3
ATOM      3  C   UNL A   1      33.165  28.875  25.773  1.00  0.00     0.188 C 
BRANCH   3   4
ATOM      4  O   UNL A   1      33.673  27.961  24.822  1.00  0.00    -0.376 OA
BRANCH   4   5
ATOM      5  C   UNL A   1      33.516  26.567  25.058  1.00  0.00     0.202 C 
BRANCH   5   6
ATOM      6  C   UNL A   1      34.125  25.530  24.090  1.00  0.00     0.261 C 
BRANCH   6   7
ATOM      7  O   UNL A   1      33.248  24.448  23.684  1.00  0.00    -0.463 OA
BRANCH   7   8
ATOM      8  C   UNL A   1      33.803  23.470  22.933  1.00  0.00     0.309 C 
ATOM      9  O   UNL A   1      33.631  23.384  21.717  1.00  0.00    -0.252 OA
BRANCH   8  10
ATOM     10  C   UNL A   1      34.705  22.457  23.662  1.00  0.00     0.111 C 
ATOM     11  C   UNL A   1      34.432  21.855  25.072  1.00  0.00     0.093 C 
ATOM     12  C   UNL A   1      35.394  22.367  26.176  1.00  0.00     0.014 C 
ATOM     13  C   UNL A   1      36.849  22.546  25.757  1.00  0.00     0.001 C 
ATOM     14  C   UNL A   1      36.195  22.695  23.346  1.00  0.00     0.016 C 
ATOM     15  C   UNL A   1      37.018  23.309  24.457  1.00  0.00     0.001 C 
BRANCH  11  16
ATOM     16  C   UNL A   1      32.983  21.886  25.620  1.00  0.00     0.229 C 
ATOM     17  N   UNL A   1      32.116  20.845  25.461  1.00  0.00    -0.309 N 
ATOM     18  H   UNL A   1      31.195  21.004  25.769  1.00  0.00     0.171 HD
ATOM     19  O   UNL A   1      32.560  22.861  26.254  1.00  0.00    -0.274 OA
BRANCH  17  20
ATOM     20  C   UNL A   1      32.361  19.608  24.929  1.00  0.00     0.154 A 
ATOM     21  C   UNL A   1      33.873  16.546  25.350  1.00  0.00     0.173 C 
ATOM     22  N   UNL A   1      33.107  17.642  24.803  1.00  0.00    -0.274 N 
ATOM     23  C   UNL A   1      33.062  18.064  23.509  1.00  0.00     0.110 A 
ATOM     24  N   UNL A   1      32.528  18.504  25.650  1.00  0.00    -0.155 NA
ATOM     25  C   UNL A   1      32.528  19.335  23.554  1.00  0.00     0.068 A 
ENDBRANCH  17  20
ENDBRANCH  11  16
ENDBRANCH   8  10
ENDBRANCH   7   8
ENDBRANCH   6   7
ENDBRANCH   5   6
ENDBRANCH   4   5
ENDBRANCH   3   4
ENDBRANCH   2   3
ENDBRANCH   1   2
BRANCH   1  26
ATOM     26  C   UNL A   1      34.825  31.202  28.319  1.00  0.00     0.188 C 
BRANCH  26  27
ATOM     27  C   UNL A   1      35.197  32.683  28.306  1.00  0.00     0.188 C 
BRANCH  27  28
ATOM     28  O   UNL A   1      34.354  33.594  29.017  1.00  0.00    -0.376 OA
BRANCH  28  29
ATOM     29  C   UNL A   1      34.236  34.944  28.560  1.00  0.00     0.202 C 
BRANCH  29  30
ATOM     30  C   UNL A   1      33.118  35.739  29.219  1.00  0.00     0.261 C 
BRANCH  30  31
ATOM     31  O   UNL A   1      32.581  35.010  30.333  1.00  0.00    -0.460 OA
BRANCH  31  32
ATOM     32  C   UNL A   1      32.719  35.606  31.534  1.00  0.00     0.338 C 
ATOM     33  O   UNL A   1      31.988  36.445  32.040  1.00  0.00    -0.246 OA
BRANCH  32  34
ATOM     34  C   UNL A   1      33.825  34.960  32.258  1.00  0.00     0.060 A 
ATOM     35  C   UNL A   1      35.071  35.601  32.264  1.00  0.00     0.016 A 
ATOM     36  C   UNL A   1      33.655  33.721  32.881  1.00  0.00     0.016 A 
ATOM     37  C   UNL A   1      36.171  34.971  32.833  1.00  0.00     0.010 A 
ATOM     38  C   UNL A   1      34.761  33.083  33.438  1.00  0.00     0.010 A 
ATOM     39  C   UNL A   1      36.027  33.686  33.368  1.00  0.00    -0.014 A 
BRANCH  39  40
ATOM     40  C   UNL A   1      37.234  32.882  33.646  1.00  0.00     0.031 A 
ATOM     41  C   UNL A   1      37.974  33.140  34.928  1.00  0.00     0.074 A 
ATOM     42  C   UNL A   1      37.644  31.934  32.789  1.00  0.00     0.049 A 
ATOM     43  N   UNL A   1      39.087  32.613  35.366  1.00  0.00    -0.248 NA
ATOM     44  C   UNL A   1      37.378  34.132  35.839  1.00  0.00     0.031 C 
ATOM     45  C   UNL A   1      36.968  31.572  31.544  1.00  0.00     0.029 A 
ATOM     46  N   UNL A   1      38.736  31.110  32.836  1.00  0.00    -0.354 N 
ATOM     47  C   UNL A   1      39.328  33.216  36.595  1.00  0.00     0.074 A 
ATOM     48  C   UNL A   1      38.266  34.170  36.819  1.00  0.00     0.031 C 
ATOM     49  C   UNL A   1      37.675  30.605  30.934  1.00  0.00     0.029 A 
ATOM     50  C   UNL A   1      38.867  30.311  31.728  1.00  0.00     0.049 A 
ATOM     51  H   UNL A   1      39.367  31.093  33.592  1.00  0.00     0.167 HD
ATOM     52  C   UNL A   1      40.343  32.985  37.459  1.00  0.00     0.037 A 
ATOM     53  C   UNL A   1      39.856  29.465  31.388  1.00  0.00     0.037 A 
ATOM     54  C   UNL A   1      41.397  32.038  37.217  1.00  0.00     0.049 A 
ATOM     55  C   UNL A   1      41.019  29.287  32.329  1.00  0.00     0.074 A 
ATOM     56  C   UNL A   1      42.469  31.715  38.028  1.00  0.00     0.029 A 
ATOM     57  N   UNL A   1      41.513  31.267  36.069  1.00  0.00    -0.354 N 
ATOM     58  N   UNL A   1      41.232  29.842  33.499  1.00  0.00    -0.248 NA
ATOM     59  C   UNL A   1      42.079  28.363  31.903  1.00  0.00     0.031 C 
ATOM     60  C   UNL A   1      43.268  30.794  37.343  1.00  0.00     0.029 A 
ATOM     61  C   UNL A   1      42.658  30.492  36.136  1.00  0.00     0.049 A 
ATOM     62  H   UNL A   1      40.877  31.272  35.318  1.00  0.00     0.167 HD
ATOM     63  C   UNL A   1      42.430  29.310  33.963  1.00  0.00     0.074 A 
ATOM     64  C   UNL A   1      42.889  28.379  32.953  1.00  0.00     0.031 C 
ATOM     65  C   UNL A   1      43.091  29.564  35.120  1.00  0.00     0.037 A 
BRANCH  52  66
ATOM     66  C   UNL A   1      40.377  33.798  38.721  1.00  0.00     0.057 A 
ATOM     67  C   UNL A   1      39.653  33.430  39.864  1.00  0.00     0.134 A 
ATOM     68  C   UNL A   1      41.161  34.956  38.801  1.00  0.00     0.134 A 
ATOM     69  F   UNL A   1      38.867  32.343  39.851  1.00  0.00    -0.206 F 
ATOM     70  C   UNL A   1      39.690  34.198  41.030  1.00  0.00     0.040 A 
ATOM     71  C   UNL A   1      41.229  35.714  39.970  1.00  0.00     0.040 A 
ATOM     72  F   UNL A   1      41.879  35.365  37.744  1.00  0.00    -0.206 F 
ATOM     73  C   UNL A   1      40.486  35.339  41.087  1.00  0.00     0.006 A 
ENDBRANCH  52  66
BRANCH  53  74
ATOM     74  C   UNL A   1      39.801  28.734  30.098  1.00  0.00     0.057 A 
ATOM     75  C   UNL A   1      40.402  29.249  28.943  1.00  0.00     0.134 A 
ATOM     76  C   UNL A   1      39.128  27.510  29.981  1.00  0.00     0.134 A 
ATOM     77  F   UNL A   1      41.043  30.425  28.985  1.00  0.00    -0.206 F 
ATOM     78  C   UNL A   1      40.317  28.587  27.717  1.00  0.00     0.040 A 
ATOM     79  C   UNL A   1      39.061  26.823  28.768  1.00  0.00     0.040 A 
ATOM     80  F   UNL A   1      38.535  26.957  31.050  1.00  0.00    -0.206 F 
ATOM     81  C   UNL A   1      39.649  27.368  27.628  1.00  0.00     0.006 A 
ENDBRANCH  53  74
BRANCH  65  82
ATOM     82  C   UNL A   1      44.353  28.793  35.376  1.00  0.00     0.057 A 
ATOM     83  C   UNL A   1      44.344  27.527  35.974  1.00  0.00     0.134 A 
ATOM     84  C   UNL A   1      45.592  29.309  34.974  1.00  0.00     0.134 A 
ATOM     85  F   UNL A   1      43.193  26.980  36.392  1.00  0.00    -0.206 F 
ATOM     86  C   UNL A   1      45.525  26.813  36.187  1.00  0.00     0.040 A 
ATOM     87  C   UNL A   1      46.776  28.591  35.151  1.00  0.00     0.040 A 
ATOM     88  F   UNL A   1      45.672  30.511  34.383  1.00  0.00    -0.206 F 
ATOM     89  C   UNL A   1      46.744  27.343  35.767  1.00  0.00     0.006 A 
ENDBRANCH  65  82
ENDBRANCH  39  40
ENDBRANCH  32  34
ENDBRANCH  31  32
ENDBRANCH  30  31
ENDBRANCH  29  30
ENDBRANCH  28  29
ENDBRANCH  27  28
ENDBRANCH  26  27
ENDBRANCH   1  26
TORSDOF 22
ENDMDL
MODEL 2
REMARK VINA RESULT:      -9.7      3.721      8.959
REMARK SMILES Cn1ccc(NC(=O)[C@@H]2CCCC[C@@H]2C(=O)OCCOCCOCCOCCOC(=O)c2ccc(-c3c4nc(c(-c5c(F)cccc5F)c5ccc([nH]5)c(-c5c(F)cccc5F)c5nc(c(-c6c(F)cccc6F)c6ccc3[nH]6)C=C5)C=C4)cc2)n1
REMARK SMILES IDX 23 1 22 2 21 3 20 4 19 5 18 6 17 7 15 8 16 9 14 10 9 11
REMARK SMILES IDX 10 12 11 13 13 14 12 15 7 16 6 17 8 19 5 20 1 21 2 22 3 23
REMARK SMILES IDX 86 24 4 25 24 26 25 27 26 28 27 29 28 30 29 31 30 32 31 33
REMARK SMILES IDX 32 34 33 35 85 36 34 37 84 38 35 39 36 40 37 41 78 42 38 43
REMARK SMILES IDX 83 44 77 45 79 46 39 47 82 48 76 49 75 50 40 52 66 53 49 54
REMARK SMILES IDX 65 55 50 56 53 57 64 58 80 59 51 60 52 61 63 63 81 64 54 65
REMARK SMILES IDX 41 66 42 67 47 68 43 69 44 70 46 71 48 72 45 73 67 74 68 75
REMARK SMILES IDX 73 76 69 77 70 78 72 79 74 80 71 81 55 82 56 83 61 84 57 85
REMARK SMILES IDX 58 86 60 87 62 88 59 89
REMARK H PARENT 6 18 79 51 53 62
REMARK Flexibility Score: inf
ROOT
ATOM      1  O   UNL A   1      40.143  20.715  26.851  1.00  0.00    -0.377 OA
ENDROOT
BRANCH   1   2
ATOM      2  C   UNL A   1      39.730  21.842  26.109  1.00  0.00     0.188 C 
BRANCH   2   3
ATOM      3  C   UNL A   1      38.247  22.205  26.128  1.00  0.00     0.188 C 
BRANCH   3   4
ATOM      4  O   UNL A   1      37.436  21.821  25.036  1.00  0.00    -0.376 OA
BRANCH   4   5
ATOM      5  C   UNL A   1      36.326  20.964  25.273  1.00  0.00     0.202 C 
BRANCH   5   6
ATOM      6  C   UNL A   1      34.881  21.496  25.164  1.00  0.00     0.261 C 
BRANCH   6   7
ATOM      7  O   UNL A   1      34.573  22.667  25.964  1.00  0.00    -0.463 OA
BRANCH   7   8
ATOM      8  C   UNL A   1      34.678  23.865  25.346  1.00  0.00     0.309 C 
ATOM      9  O   UNL A   1      35.662  24.594  25.468  1.00  0.00    -0.252 OA
BRANCH   8  10
ATOM     10  C   UNL A   1      33.508  24.288  24.439  1.00  0.00     0.111 C 
ATOM     11  C   UNL A   1      32.045  24.541  24.910  1.00  0.00     0.093 C 
ATOM     12  C   UNL A   1      31.034  23.462  24.440  1.00  0.00     0.014 C 
ATOM     13  C   UNL A   1      31.236  22.935  23.024  1.00  0.00     0.001 C 
ATOM     14  C   UNL A   1      33.629  23.667  23.033  1.00  0.00     0.016 C 
ATOM     15  C   UNL A   1      32.668  22.541  22.720  1.00  0.00     0.001 C 
BRANCH  11  16
ATOM     16  C   UNL A   1      31.794  24.840  26.409  1.00  0.00     0.229 C 
ATOM     17  N   UNL A   1      31.559  26.101  26.875  1.00  0.00    -0.309 N 
ATOM     18  H   UNL A   1      31.501  26.192  27.854  1.00  0.00     0.171 HD
ATOM     19  O   UNL A   1      31.770  23.931  27.248  1.00  0.00    -0.274 OA
BRANCH  17  20
ATOM     20  C   UNL A   1      31.394  27.255  26.159  1.00  0.00     0.154 A 
ATOM     21  C   UNL A   1      31.068  28.686  23.046  1.00  0.00     0.173 C 
ATOM     22  N   UNL A   1      31.150  28.500  24.476  1.00  0.00    -0.274 N 
ATOM     23  C   UNL A   1      31.790  29.289  25.384  1.00  0.00     0.110 A 
ATOM     24  N   UNL A   1      30.758  27.328  24.994  1.00  0.00    -0.155 NA
ATOM     25  C   UNL A   1      31.918  28.516  26.520  1.00  0.00     0.068 A 
ENDBRANCH  17  20
ENDBRANCH  11  16
ENDBRANCH   8  10
ENDBRANCH   7   8
ENDBRANCH   6   7
ENDBRANCH   5   6
ENDBRANCH   4   5
ENDBRANCH   3   4
ENDBRANCH   2   3
ENDBRANCH   1   2
BRANCH   1  26
ATOM     26  C   UNL A   1      41.387  20.101  26.564  1.00  0.00     0.188 C 
BRANCH  26  27
ATOM     27  C   UNL A   1      42.563  21.014  26.225  1.00  0.00     0.188 C 
BRANCH  27  28
ATOM     28  O   UNL A   1      43.442  20.612  25.171  1.00  0.00    -0.376 OA
BRANCH  28  29
ATOM     29  C   UNL A   1      44.222  21.600  24.492  1.00  0.00     0.202 C 
BRANCH  29  30
ATOM     30  C   UNL A   1      43.649  23.009  24.552  1.00  0.00     0.261 C 
BRANCH  30  31
ATOM     31  O   UNL A   1      44.655  23.935  24.987  1.00  0.00    -0.460 OA
BRANCH  31  32
ATOM     32  C   UNL A   1      44.952  23.892  26.301  1.00  0.00     0.338 C 
ATOM     33  O   UNL A   1      45.874  23.298  26.840  1.00  0.00    -0.246 OA
BRANCH  32  34
ATOM     34  C   UNL A   1      44.075  24.834  27.015  1.00  0.00     0.060 A 
ATOM     35  C   UNL A   1      44.383  26.198  26.949  1.00  0.00     0.016 A 
ATOM     36  C   UNL A   1      42.996  24.379  27.779  1.00  0.00     0.016 A 
ATOM     37  C   UNL A   1      43.654  27.111  27.703  1.00  0.00     0.010 A 
ATOM     38  C   UNL A   1      42.275  25.291  28.546  1.00  0.00     0.010 A 
ATOM     39  C   UNL A   1      42.638  26.649  28.546  1.00  0.00    -0.014 A 
BRANCH  39  40
ATOM     40  C   UNL A   1      42.109  27.544  29.594  1.00  0.00     0.031 A 
ATOM     41  C   UNL A   1      42.799  27.552  30.930  1.00  0.00     0.074 A 
ATOM     42  C   UNL A   1      41.058  28.344  29.353  1.00  0.00     0.049 A 
ATOM     43  N   UNL A   1      42.488  28.200  32.021  1.00  0.00    -0.248 NA
ATOM     44  C   UNL A   1      44.001  26.711  31.049  1.00  0.00     0.031 C 
ATOM     45  C   UNL A   1      40.352  28.447  28.077  1.00  0.00     0.029 A 
ATOM     46  N   UNL A   1      40.399  29.213  30.180  1.00  0.00    -0.354 N 
ATOM     47  C   UNL A   1      43.448  27.836  32.958  1.00  0.00     0.074 A 
ATOM     48  C   UNL A   1      44.332  26.888  32.318  1.00  0.00     0.031 C 
ATOM     49  C   UNL A   1      39.341  29.323  28.213  1.00  0.00     0.029 A 
ATOM     50  C   UNL A   1      39.311  29.808  29.592  1.00  0.00     0.049 A 
ATOM     51  H   UNL A   1      40.678  29.393  31.107  1.00  0.00     0.167 HD
ATOM     52  C   UNL A   1      43.581  28.263  34.234  1.00  0.00     0.037 A 
ATOM     53  C   UNL A   1      38.385  30.626  30.124  1.00  0.00     0.037 A 
ATOM     54  C   UNL A   1      42.688  29.201  34.859  1.00  0.00     0.049 A 
ATOM     55  C   UNL A   1      38.506  31.022  31.572  1.00  0.00     0.074 A 
ATOM     56  C   UNL A   1      42.734  29.712  36.143  1.00  0.00     0.029 A 
ATOM     57  N   UNL A   1      41.578  29.760  34.241  1.00  0.00    -0.354 N 
ATOM     58  N   UNL A   1      39.427  30.693  32.448  1.00  0.00    -0.248 NA
ATOM     59  C   UNL A   1      37.460  31.904  32.107  1.00  0.00     0.031 C 
ATOM     60  C   UNL A   1      41.616  30.533  36.322  1.00  0.00     0.029 A 
ATOM     61  C   UNL A   1      40.912  30.588  35.130  1.00  0.00     0.049 A 
ATOM     62  H   UNL A   1      41.304  29.593  33.311  1.00  0.00     0.167 HD
ATOM     63  C   UNL A   1      39.092  31.354  33.624  1.00  0.00     0.074 A 
ATOM     64  C   UNL A   1      37.889  32.111  33.344  1.00  0.00     0.031 C 
ATOM     65  C   UNL A   1      39.720  31.340  34.825  1.00  0.00     0.037 A 
BRANCH  52  66
ATOM     66  C   UNL A   1      44.708  27.690  35.044  1.00  0.00     0.057 A 
ATOM     67  C   UNL A   1      45.967  28.305  35.109  1.00  0.00     0.134 A 
ATOM     68  C   UNL A   1      44.526  26.514  35.783  1.00  0.00     0.134 A 
ATOM     69  F   UNL A   1      46.215  29.422  34.411  1.00  0.00    -0.206 F 
ATOM     70  C   UNL A   1      47.008  27.757  35.863  1.00  0.00     0.040 A 
ATOM     71  C   UNL A   1      45.550  25.975  36.563  1.00  0.00     0.040 A 
ATOM     72  F   UNL A   1      43.347  25.874  35.766  1.00  0.00    -0.206 F 
ATOM     73  C   UNL A   1      46.798  26.593  36.598  1.00  0.00     0.006 A 
ENDBRANCH  52  66
BRANCH  53  74
ATOM     74  C   UNL A   1      37.255  31.114  29.293  1.00  0.00     0.057 A 
ATOM     75  C   UNL A   1      36.183  30.278  28.960  1.00  0.00     0.134 A 
ATOM     76  C   UNL A   1      37.230  32.423  28.793  1.00  0.00     0.134 A 
ATOM     77  F   UNL A   1      36.159  29.008  29.390  1.00  0.00    -0.206 F 
ATOM     78  C   UNL A   1      35.140  30.717  28.143  1.00  0.00     0.040 A 
ATOM     79  C   UNL A   1      36.178  32.884  28.000  1.00  0.00     0.040 A 
ATOM     80  F   UNL A   1      38.223  33.278  29.079  1.00  0.00    -0.206 F 
ATOM     81  C   UNL A   1      35.132  32.025  27.665  1.00  0.00     0.006 A 
ENDBRANCH  53  74
BRANCH  65  82
ATOM     82  C   UNL A   1      39.147  32.202  35.913  1.00  0.00     0.057 A 
ATOM     83  C   UNL A   1      38.226  31.711  36.846  1.00  0.00     0.134 A 
ATOM     84  C   UNL A   1      39.562  33.534  36.053  1.00  0.00     0.134 A 
ATOM     85  F   UNL A   1      37.780  30.449  36.761  1.00  0.00    -0.206 F 
ATOM     86  C   UNL A   1      37.718  32.520  37.864  1.00  0.00     0.040 A 
ATOM     87  C   UNL A   1      39.087  34.343  37.086  1.00  0.00     0.040 A 
ATOM     88  F   UNL A   1      40.452  34.065  35.201  1.00  0.00    -0.206 F 
ATOM     89  C   UNL A   1      38.155  33.838  37.990  1.00  0.00     0.006 A 
ENDBRANCH  65  82
ENDBRANCH  39  40
ENDBRANCH  32  34
ENDBRANCH  31  32
ENDBRANCH  30  31
ENDBRANCH  29  30
ENDBRANCH  28  29
ENDBRANCH  27  28
ENDBRANCH  26  27
ENDBRANCH   1  26
TORSDOF 22
ENDMDL
MODEL 3
REMARK VINA RESULT:      -9.6      1.232      6.288
REMARK SMILES Cn1ccc(NC(=O)[C@@H]2CCCC[C@@H]2C(=O)OCCOCCOCCOCCOC(=O)c2ccc(-c3c4nc(c(-c5c(F)cccc5F)c5ccc([nH]5)c(-c5c(F)cccc5F)c5nc(c(-c6c(F)cccc6F)c6ccc3[nH]6)C=C5)C=C4)cc2)n1
REMARK SMILES IDX 23 1 22 2 21 3 20 4 19 5 18 6 17 7 15 8 16 9 14 10 9 11
REMARK SMILES IDX 10 12 11 13 13 14 12 15 7 16 6 17 8 19 5 20 1 21 2 22 3 23
REMARK SMILES IDX 86 24 4 25 24 26 25 27 26 28 27 29 28 30 29 31 30 32 31 33
REMARK SMILES IDX 32 34 33 35 85 36 34 37 84 38 35 39 36 40 37 41 78 42 38 43
REMARK SMILES IDX 83 44 77 45 79 46 39 47 82 48 76 49 75 50 40 52 66 53 49 54
REMARK SMILES IDX 65 55 50 56 53 57 64 58 80 59 51 60 52 61 63 63 81 64 54 65
REMARK SMILES IDX 41 66 42 67 47 68 43 69 44 70 46 71 48 72 45 73 67 74 68 75
REMARK SMILES IDX 73 76 69 77 70 78 72 79 74 80 71 81 55 82 56 83 61 84 57 85
REMARK SMILES IDX 58 86 60 87 62 88 59 89
REMARK H PARENT 6 18 79 51 53 62
REMARK Flexibility Score: inf
ROOT
ATOM      1  O   UNL A   1      35.379  30.468  28.380  1.00  0.00    -0.377 OA
ENDROOT
BRANCH   1   2
ATOM      2  C   UNL A   1      35.240  29.311  27.585  1.00  0.00     0.188 C 
BRANCH   2   3
ATOM      3  C   UNL A   1      33.888  29.056  26.923  1.00  0.00     0.188 C 
BRANCH   3   4
ATOM      4  O   UNL A   1      33.676  27.831  26.251  1.00  0.00    -0.376 OA
BRANCH   4   5
ATOM      5  C   UNL A   1      32.410  27.193  26.368  1.00  0.00     0.202 C 
BRANCH   5   6
ATOM      6  C   UNL A   1      32.311  25.659  26.510  1.00  0.00     0.261 C 
BRANCH   6   7
ATOM      7  O   UNL A   1      30.989  25.089  26.329  1.00  0.00    -0.463 OA
BRANCH   7   8
ATOM      8  C   UNL A   1      30.904  23.740  26.365  1.00  0.00     0.309 C 
ATOM      9  O   UNL A   1      30.536  23.121  27.363  1.00  0.00    -0.252 OA
BRANCH   8  10
ATOM     10  C   UNL A   1      31.264  22.983  25.073  1.00  0.00     0.111 C 
ATOM     11  C   UNL A   1      32.570  22.167  24.838  1.00  0.00     0.093 C 
ATOM     12  C   UNL A   1      33.554  22.825  23.834  1.00  0.00     0.014 C 
ATOM     13  C   UNL A   1      32.917  23.497  22.624  1.00  0.00     0.001 C 
ATOM     14  C   UNL A   1      30.730  23.710  23.823  1.00  0.00     0.016 C 
ATOM     15  C   UNL A   1      31.765  24.419  22.976  1.00  0.00     0.001 C 
BRANCH  11  16
ATOM     16  C   UNL A   1      33.368  21.681  26.072  1.00  0.00     0.229 C 
ATOM     17  N   UNL A   1      33.548  20.359  26.355  1.00  0.00    -0.309 N 
ATOM     18  H   UNL A   1      33.994  20.160  27.210  1.00  0.00     0.171 HD
ATOM     19  O   UNL A   1      33.904  22.485  26.846  1.00  0.00    -0.274 OA
BRANCH  17  20
ATOM     20  C   UNL A   1      33.189  19.272  25.604  1.00  0.00     0.154 A 
ATOM     21  C   UNL A   1      32.565  15.888  25.559  1.00  0.00     0.173 C 
ATOM     22  N   UNL A   1      32.712  17.269  25.159  1.00  0.00    -0.274 N 
ATOM     23  C   UNL A   1      33.246  17.749  24.002  1.00  0.00     0.110 A 
ATOM     24  N   UNL A   1      32.519  18.225  26.076  1.00  0.00    -0.155 NA
ATOM     25  C   UNL A   1      33.521  19.078  24.246  1.00  0.00     0.068 A 
ENDBRANCH  17  20
ENDBRANCH  11  16
ENDBRANCH   8  10
ENDBRANCH   7   8
ENDBRANCH   6   7
ENDBRANCH   5   6
ENDBRANCH   4   5
ENDBRANCH   3   4
ENDBRANCH   2   3
ENDBRANCH   1   2
BRANCH   1  26
ATOM     26  C   UNL A   1      34.693  31.654  28.022  1.00  0.00     0.188 C 
BRANCH  26  27
ATOM     27  C   UNL A   1      35.490  32.956  28.014  1.00  0.00     0.188 C 
BRANCH  27  28
ATOM     28  O   UNL A   1      34.804  34.161  27.662  1.00  0.00    -0.376 OA
BRANCH  28  29
ATOM     29  C   UNL A   1      33.452  34.350  28.086  1.00  0.00     0.202 C 
BRANCH  29  30
ATOM     30  C   UNL A   1      33.282  35.332  29.237  1.00  0.00     0.261 C 
BRANCH  30  31
ATOM     31  O   UNL A   1      32.895  34.636  30.430  1.00  0.00    -0.460 OA
BRANCH  31  32
ATOM     32  C   UNL A   1      32.991  35.346  31.572  1.00  0.00     0.338 C 
ATOM     33  O   UNL A   1      32.218  36.194  31.992  1.00  0.00    -0.246 OA
BRANCH  32  34
ATOM     34  C   UNL A   1      34.117  34.822  32.361  1.00  0.00     0.060 A 
ATOM     35  C   UNL A   1      35.306  35.562  32.383  1.00  0.00     0.016 A 
ATOM     36  C   UNL A   1      34.023  33.598  33.029  1.00  0.00     0.016 A 
ATOM     37  C   UNL A   1      36.431  35.047  33.017  1.00  0.00     0.010 A 
ATOM     38  C   UNL A   1      35.154  33.075  33.651  1.00  0.00     0.010 A 
ATOM     39  C   UNL A   1      36.370  33.777  33.601  1.00  0.00    -0.014 A 
BRANCH  39  40
ATOM     40  C   UNL A   1      37.626  33.086  33.954  1.00  0.00     0.031 A 
ATOM     41  C   UNL A   1      38.141  32.033  33.014  1.00  0.00     0.074 A 
ATOM     42  C   UNL A   1      38.299  33.407  35.070  1.00  0.00     0.049 A 
ATOM     43  N   UNL A   1      39.180  31.248  33.133  1.00  0.00    -0.248 NA
ATOM     44  C   UNL A   1      37.376  31.835  31.772  1.00  0.00     0.031 C 
ATOM     45  C   UNL A   1      37.911  34.448  36.021  1.00  0.00     0.029 A 
ATOM     46  N   UNL A   1      39.448  32.877  35.595  1.00  0.00    -0.354 N 
ATOM     47  C   UNL A   1      39.185  30.459  31.989  1.00  0.00     0.074 A 
ATOM     48  C   UNL A   1      38.032  30.836  31.204  1.00  0.00     0.031 C 
ATOM     49  C   UNL A   1      38.803  34.469  37.026  1.00  0.00     0.029 A 
ATOM     50  C   UNL A   1      39.797  33.420  36.806  1.00  0.00     0.049 A 
ATOM     51  H   UNL A   1      39.972  32.175  35.146  1.00  0.00     0.167 HD
ATOM     52  C   UNL A   1      40.080  29.512  31.626  1.00  0.00     0.037 A 
ATOM     53  C   UNL A   1      40.790  33.080  37.647  1.00  0.00     0.037 A 
ATOM     54  C   UNL A   1      41.219  29.144  32.424  1.00  0.00     0.049 A 
ATOM     55  C   UNL A   1      41.725  31.964  37.260  1.00  0.00     0.074 A 
ATOM     56  C   UNL A   1      42.196  28.205  32.149  1.00  0.00     0.029 A 
ATOM     57  N   UNL A   1      41.525  29.694  33.660  1.00  0.00    -0.354 N 
ATOM     58  N   UNL A   1      41.740  31.236  36.169  1.00  0.00    -0.248 NA
ATOM     59  C   UNL A   1      42.782  31.623  38.221  1.00  0.00     0.031 C 
ATOM     60  C   UNL A   1      43.059  28.144  33.248  1.00  0.00     0.029 A 
ATOM     61  C   UNL A   1      42.660  29.092  34.177  1.00  0.00     0.049 A 
ATOM     62  H   UNL A   1      41.010  30.406  34.105  1.00  0.00     0.167 HD
ATOM     63  C   UNL A   1      42.826  30.376  36.296  1.00  0.00     0.074 A 
ATOM     64  C   UNL A   1      43.450  30.684  37.566  1.00  0.00     0.031 C 
ATOM     65  C   UNL A   1      43.269  29.421  35.441  1.00  0.00     0.037 A 
BRANCH  52  66
ATOM     66  C   UNL A   1      39.838  28.788  30.334  1.00  0.00     0.057 A 
ATOM     67  C   UNL A   1      39.073  27.614  30.270  1.00  0.00     0.134 A 
ATOM     68  C   UNL A   1      40.361  29.281  29.132  1.00  0.00     0.134 A 
ATOM     69  F   UNL A   1      38.558  27.076  31.386  1.00  0.00    -0.206 F 
ATOM     70  C   UNL A   1      38.859  26.947  29.062  1.00  0.00     0.040 A 
ATOM     71  C   UNL A   1      40.128  28.640  27.915  1.00  0.00     0.040 A 
ATOM     72  F   UNL A   1      41.101  30.400  29.121  1.00  0.00    -0.206 F 
ATOM     73  C   UNL A   1      39.381  27.465  27.879  1.00  0.00     0.006 A 
ENDBRANCH  52  66
BRANCH  53  74
ATOM     74  C   UNL A   1      40.946  33.790  38.942  1.00  0.00     0.057 A 
ATOM     75  C   UNL A   1      40.179  33.441  40.059  1.00  0.00     0.134 A 
ATOM     76  C   UNL A   1      41.851  34.849  39.089  1.00  0.00     0.134 A 
ATOM     77  F   UNL A   1      39.280  32.449  39.977  1.00  0.00    -0.206 F 
ATOM     78  C   UNL A   1      40.289  34.132  41.267  1.00  0.00     0.040 A 
ATOM     79  C   UNL A   1      41.994  35.529  40.299  1.00  0.00     0.040 A 
ATOM     80  F   UNL A   1      42.622  35.231  38.059  1.00  0.00    -0.206 F 
ATOM     81  C   UNL A   1      41.202  35.176  41.391  1.00  0.00     0.006 A 
ENDBRANCH  53  74
BRANCH  65  82
ATOM     82  C   UNL A   1      44.512  28.673  35.829  1.00  0.00     0.057 A 
ATOM     83  C   UNL A   1      45.790  29.121  35.476  1.00  0.00     0.134 A 
ATOM     84  C   UNL A   1      44.425  27.511  36.607  1.00  0.00     0.134 A 
ATOM     85  F   UNL A   1      45.943  30.220  34.723  1.00  0.00    -0.206 F 
ATOM     86  C   UNL A   1      46.939  28.425  35.861  1.00  0.00     0.040 A 
ATOM     87  C   UNL A   1      45.566  26.825  37.026  1.00  0.00     0.040 A 
ATOM     88  F   UNL A   1      43.231  27.033  36.991  1.00  0.00    -0.206 F 
ATOM     89  C   UNL A   1      46.827  27.278  36.646  1.00  0.00     0.006 A 
ENDBRANCH  65  82
ENDBRANCH  39  40
ENDBRANCH  32  34
ENDBRANCH  31  32
ENDBRANCH  30  31
ENDBRANCH  29  30
ENDBRANCH  28  29
ENDBRANCH  27  28
ENDBRANCH  26  27
ENDBRANCH   1  26
TORSDOF 22
ENDMDL
