MODEL 1
REMARK VINA RESULT:     -10.7      0.000      0.000
REMARK SMILES Cc1ccc([N+](=O)[O-])c(N2CCC[C@H](CC(=O)OCCOCCOCCOCCOC(=O)c3ccc(-c4c5nc(c(-c6c(F)cccc6F)c6ccc([nH]6)c(-c6c(F)cccc6F)c6nc(c(-c7c(F)cccc7F)c7ccc4[nH]7)C=C6)C=C5)cc3)C2)c1
REMARK SMILES IDX 23 1 22 2 21 3 20 4 19 5 18 6 16 7 17 8 15 9 14 10 10 11
REMARK SMILES IDX 11 12 87 13 12 14 13 15 9 16 1 17 2 18 3 19 88 20 4 21 5 22
REMARK SMILES IDX 6 23 7 24 8 25 24 26 25 27 26 28 27 29 28 30 29 31 30 32
REMARK SMILES IDX 31 33 32 34 33 35 34 36 86 37 35 38 85 39 36 40 37 41 38 42
REMARK SMILES IDX 79 43 39 44 84 45 78 46 80 47 40 48 83 49 77 50 76 51 41 53
REMARK SMILES IDX 67 54 50 55 66 56 51 57 54 58 65 59 81 60 52 61 53 62 64 64
REMARK SMILES IDX 82 65 55 66 42 67 43 68 48 69 44 70 45 71 47 72 49 73 46 74
REMARK SMILES IDX 68 75 69 76 74 77 70 78 71 79 73 80 75 81 72 82 56 83 57 84
REMARK SMILES IDX 62 85 58 86 59 87 61 88 63 89 60 90
REMARK H PARENT 80 52 54 63
REMARK Flexibility Score: inf
ROOT
ATOM      1  C   UNL A   1      40.001  22.441  26.895  1.00  0.00     0.188 C 
ENDROOT
BRANCH   1   2
ATOM      2  C   UNL A   1      38.648  22.434  26.161  1.00  0.00     0.188 C 
BRANCH   2   3
ATOM      3  O   UNL A   1      38.070  21.198  25.783  1.00  0.00    -0.376 OA
BRANCH   3   4
ATOM      4  C   UNL A   1      37.267  21.246  24.615  1.00  0.00     0.202 C 
BRANCH   4   5
ATOM      5  C   UNL A   1      36.013  22.103  24.644  1.00  0.00     0.261 C 
BRANCH   5   6
ATOM      6  O   UNL A   1      34.971  21.334  25.246  1.00  0.00    -0.463 OA
BRANCH   6   7
ATOM      7  C   UNL A   1      34.308  21.945  26.248  1.00  0.00     0.306 C 
ATOM      8  O   UNL A   1      34.357  21.663  27.422  1.00  0.00    -0.252 OA
BRANCH   7   9
ATOM      9  C   UNL A   1      33.577  23.127  25.687  1.00  0.00     0.128 C 
BRANCH   9  10
ATOM     10  C   UNL A   1      32.310  22.739  24.911  1.00  0.00     0.019 C 
ATOM     11  N   UNL A   1      31.724  25.039  24.552  1.00  0.00    -0.366 N 
ATOM     12  C   UNL A   1      30.552  25.084  25.415  1.00  0.00     0.117 C 
ATOM     13  C   UNL A   1      31.984  23.780  23.855  1.00  0.00     0.121 C 
ATOM     14  C   UNL A   1      30.540  23.894  26.384  1.00  0.00     0.022 C 
ATOM     15  C   UNL A   1      31.043  22.583  25.766  1.00  0.00     0.008 C 
BRANCH  11  16
ATOM     16  C   UNL A   1      32.660  26.038  24.347  1.00  0.00     0.116 A 
ATOM     17  C   UNL A   1      34.003  28.564  26.866  1.00  0.00     0.044 C 
ATOM     18  C   UNL A   1      33.687  27.925  25.549  1.00  0.00    -0.049 A 
ATOM     19  C   UNL A   1      33.865  28.606  24.347  1.00  0.00     0.010 A 
ATOM     20  C   UNL A   1      33.139  26.641  25.526  1.00  0.00     0.036 A 
ATOM     21  C   UNL A   1      33.518  27.993  23.143  1.00  0.00     0.088 A 
ATOM     22  C   UNL A   1      32.937  26.708  23.140  1.00  0.00     0.292 A 
BRANCH  22  23
ATOM     23  N   UNL A   1      32.506  26.209  21.838  1.00  0.00     0.064 N 
ATOM     24  O   UNL A   1      33.342  25.578  21.167  1.00  0.00    -0.258 OA
ATOM     25  O   UNL A   1      31.329  26.387  21.499  1.00  0.00    -0.258 OA
ENDBRANCH  22  23
ENDBRANCH  11  16
ENDBRANCH   9  10
ENDBRANCH   7   9
ENDBRANCH   6   7
ENDBRANCH   5   6
ENDBRANCH   4   5
ENDBRANCH   3   4
ENDBRANCH   2   3
ENDBRANCH   1   2
BRANCH   1  26
ATOM     26  O   UNL A   1      40.527  21.219  27.383  1.00  0.00    -0.377 OA
BRANCH  26  27
ATOM     27  C   UNL A   1      40.965  20.292  26.402  1.00  0.00     0.188 C 
BRANCH  27  28
ATOM     28  C   UNL A   1      42.058  19.359  26.833  1.00  0.00     0.188 C 
BRANCH  28  29
ATOM     29  O   UNL A   1      42.555  18.700  25.673  1.00  0.00    -0.376 OA
BRANCH  29  30
ATOM     30  C   UNL A   1      43.926  18.341  25.775  1.00  0.00     0.202 C 
BRANCH  30  31
ATOM     31  C   UNL A   1      44.738  18.828  24.568  1.00  0.00     0.261 C 
BRANCH  31  32
ATOM     32  O   UNL A   1      44.381  20.207  24.311  1.00  0.00    -0.460 OA
BRANCH  32  33
ATOM     33  C   UNL A   1      45.048  21.147  25.039  1.00  0.00     0.338 C 
ATOM     34  O   UNL A   1      46.163  21.004  25.517  1.00  0.00    -0.246 OA
BRANCH  33  35
ATOM     35  C   UNL A   1      44.112  22.239  25.472  1.00  0.00     0.060 A 
ATOM     36  C   UNL A   1      43.713  23.221  24.547  1.00  0.00     0.016 A 
ATOM     37  C   UNL A   1      43.959  22.496  26.830  1.00  0.00     0.016 A 
ATOM     38  C   UNL A   1      43.350  24.512  24.982  1.00  0.00     0.010 A 
ATOM     39  C   UNL A   1      43.692  23.793  27.244  1.00  0.00     0.010 A 
ATOM     40  C   UNL A   1      43.440  24.837  26.334  1.00  0.00    -0.014 A 
BRANCH  40  41
ATOM     41  C   UNL A   1      43.459  26.212  26.899  1.00  0.00     0.031 A 
ATOM     42  C   UNL A   1      42.172  26.970  27.016  1.00  0.00     0.074 A 
ATOM     43  C   UNL A   1      44.530  26.631  27.630  1.00  0.00     0.049 A 
ATOM     44  N   UNL A   1      42.052  28.102  27.618  1.00  0.00    -0.248 NA
ATOM     45  C   UNL A   1      40.884  26.500  26.509  1.00  0.00     0.031 C 
ATOM     46  C   UNL A   1      44.566  27.630  28.704  1.00  0.00     0.029 A 
ATOM     47  N   UNL A   1      45.859  26.217  27.584  1.00  0.00    -0.354 N 
ATOM     48  C   UNL A   1      40.722  28.335  27.887  1.00  0.00     0.074 A 
ATOM     49  C   UNL A   1      40.031  27.357  27.088  1.00  0.00     0.031 C 
ATOM     50  C   UNL A   1      45.819  27.854  29.120  1.00  0.00     0.029 A 
ATOM     51  C   UNL A   1      46.670  27.217  28.157  1.00  0.00     0.049 A 
ATOM     52  H   UNL A   1      46.179  25.364  27.211  1.00  0.00     0.167 HD
ATOM     53  C   UNL A   1      40.397  29.251  28.854  1.00  0.00     0.037 A 
ATOM     54  C   UNL A   1      47.550  27.879  27.355  1.00  0.00     0.037 A 
ATOM     55  C   UNL A   1      41.587  30.039  29.287  1.00  0.00     0.049 A 
ATOM     56  C   UNL A   1      47.034  29.299  27.112  1.00  0.00     0.074 A 
ATOM     57  C   UNL A   1      42.139  30.431  30.497  1.00  0.00     0.029 A 
ATOM     58  N   UNL A   1      42.533  30.424  28.327  1.00  0.00    -0.354 N 
ATOM     59  N   UNL A   1      45.817  29.677  27.448  1.00  0.00    -0.248 NA
ATOM     60  C   UNL A   1      47.796  30.430  26.608  1.00  0.00     0.031 C 
ATOM     61  C   UNL A   1      43.447  30.969  30.246  1.00  0.00     0.029 A 
ATOM     62  C   UNL A   1      43.664  30.992  28.875  1.00  0.00     0.049 A 
ATOM     63  H   UNL A   1      42.402  30.301  27.359  1.00  0.00     0.167 HD
ATOM     64  C   UNL A   1      45.681  31.031  27.429  1.00  0.00     0.074 A 
ATOM     65  C   UNL A   1      46.910  31.442  26.754  1.00  0.00     0.031 C 
ATOM     66  C   UNL A   1      44.614  31.691  28.002  1.00  0.00     0.037 A 
BRANCH  53  67
ATOM     67  C   UNL A   1      39.028  29.346  29.540  1.00  0.00     0.057 A 
ATOM     68  C   UNL A   1      37.918  29.914  28.877  1.00  0.00     0.134 A 
ATOM     69  C   UNL A   1      38.753  28.992  30.882  1.00  0.00     0.134 A 
ATOM     70  F   UNL A   1      38.000  30.316  27.603  1.00  0.00    -0.206 F 
ATOM     71  C   UNL A   1      36.662  30.106  29.487  1.00  0.00     0.040 A 
ATOM     72  C   UNL A   1      37.486  29.124  31.484  1.00  0.00     0.040 A 
ATOM     73  F   UNL A   1      39.707  28.552  31.711  1.00  0.00    -0.206 F 
ATOM     74  C   UNL A   1      36.434  29.694  30.790  1.00  0.00     0.006 A 
ENDBRANCH  53  67
BRANCH  54  75
ATOM     75  C   UNL A   1      48.343  26.842  26.593  1.00  0.00     0.057 A 
ATOM     76  C   UNL A   1      48.146  26.908  25.184  1.00  0.00     0.134 A 
ATOM     77  C   UNL A   1      49.639  26.487  26.997  1.00  0.00     0.134 A 
ATOM     78  F   UNL A   1      46.929  27.200  24.695  1.00  0.00    -0.206 F 
ATOM     79  C   UNL A   1      49.216  26.937  24.273  1.00  0.00     0.040 A 
ATOM     80  C   UNL A   1      50.712  26.462  26.077  1.00  0.00     0.040 A 
ATOM     81  F   UNL A   1      49.937  26.376  28.299  1.00  0.00    -0.206 F 
ATOM     82  C   UNL A   1      50.515  26.774  24.731  1.00  0.00     0.006 A 
ENDBRANCH  54  75
BRANCH  66  83
ATOM     83  C   UNL A   1      44.269  33.130  27.712  1.00  0.00     0.057 A 
ATOM     84  C   UNL A   1      43.795  33.596  26.491  1.00  0.00     0.134 A 
ATOM     85  C   UNL A   1      44.358  34.113  28.731  1.00  0.00     0.134 A 
ATOM     86  F   UNL A   1      43.931  32.874  25.371  1.00  0.00    -0.206 F 
ATOM     87  C   UNL A   1      43.196  34.853  26.367  1.00  0.00     0.040 A 
ATOM     88  C   UNL A   1      43.818  35.387  28.608  1.00  0.00     0.040 A 
ATOM     89  F   UNL A   1      44.956  33.894  29.909  1.00  0.00    -0.206 F 
ATOM     90  C   UNL A   1      43.169  35.736  27.441  1.00  0.00     0.006 A 
ENDBRANCH  66  83
ENDBRANCH  40  41
ENDBRANCH  33  35
ENDBRANCH  32  33
ENDBRANCH  31  32
ENDBRANCH  30  31
ENDBRANCH  29  30
ENDBRANCH  28  29
ENDBRANCH  27  28
ENDBRANCH  26  27
ENDBRANCH   1  26
TORSDOF 23
ENDMDL
MODEL 2
REMARK VINA RESULT:     -10.0      1.738      2.494
REMARK SMILES Cc1ccc([N+](=O)[O-])c(N2CCC[C@H](CC(=O)OCCOCCOCCOCCOC(=O)c3ccc(-c4c5nc(c(-c6c(F)cccc6F)c6ccc([nH]6)c(-c6c(F)cccc6F)c6nc(c(-c7c(F)cccc7F)c7ccc4[nH]7)C=C6)C=C5)cc3)C2)c1
REMARK SMILES IDX 23 1 22 2 21 3 20 4 19 5 18 6 16 7 17 8 15 9 14 10 10 11
REMARK SMILES IDX 11 12 87 13 12 14 13 15 9 16 1 17 2 18 3 19 88 20 4 21 5 22
REMARK SMILES IDX 6 23 7 24 8 25 24 26 25 27 26 28 27 29 28 30 29 31 30 32
REMARK SMILES IDX 31 33 32 34 33 35 34 36 86 37 35 38 85 39 36 40 37 41 38 42
REMARK SMILES IDX 79 43 39 44 84 45 78 46 80 47 40 48 83 49 77 50 76 51 41 53
REMARK SMILES IDX 67 54 50 55 66 56 51 57 54 58 65 59 81 60 52 61 53 62 64 64
REMARK SMILES IDX 82 65 55 66 42 67 43 68 48 69 44 70 45 71 47 72 49 73 46 74
REMARK SMILES IDX 68 75 69 76 74 77 70 78 71 79 73 80 75 81 72 82 56 83 57 84
REMARK SMILES IDX 62 85 58 86 59 87 61 88 63 89 60 90
REMARK H PARENT 80 52 54 63
REMARK Flexibility Score: inf
ROOT
ATOM      1  C   UNL A   1      40.150  22.843  27.314  1.00  0.00     0.188 C 
ENDROOT
BRANCH   1   2
ATOM      2  C   UNL A   1      39.189  23.761  26.539  1.00  0.00     0.188 C 
BRANCH   2   3
ATOM      3  O   UNL A   1      37.808  23.451  26.506  1.00  0.00    -0.376 OA
BRANCH   3   4
ATOM      4  C   UNL A   1      37.184  23.634  25.245  1.00  0.00     0.202 C 
BRANCH   4   5
ATOM      5  C   UNL A   1      35.814  23.016  25.029  1.00  0.00     0.261 C 
BRANCH   5   6
ATOM      6  O   UNL A   1      34.917  24.061  24.648  1.00  0.00    -0.463 OA
BRANCH   6   7
ATOM      7  C   UNL A   1      34.556  24.068  23.350  1.00  0.00     0.306 C 
ATOM      8  O   UNL A   1      34.927  23.300  22.495  1.00  0.00    -0.252 OA
BRANCH   7   9
ATOM      9  C   UNL A   1      33.509  25.122  23.150  1.00  0.00     0.128 C 
BRANCH   9  10
ATOM     10  C   UNL A   1      32.164  24.552  22.675  1.00  0.00     0.019 C 
ATOM     11  N   UNL A   1      30.933  26.095  24.041  1.00  0.00    -0.366 N 
ATOM     12  C   UNL A   1      30.406  25.136  25.001  1.00  0.00     0.117 C 
ATOM     13  C   UNL A   1      31.096  25.631  22.663  1.00  0.00     0.121 C 
ATOM     14  C   UNL A   1      31.189  23.818  24.943  1.00  0.00     0.022 C 
ATOM     15  C   UNL A   1      31.606  23.402  23.527  1.00  0.00     0.008 C 
BRANCH  11  16
ATOM     16  C   UNL A   1      31.349  27.393  24.284  1.00  0.00     0.116 A 
ATOM     17  C   UNL A   1      33.522  28.674  27.142  1.00  0.00     0.044 C 
ATOM     18  C   UNL A   1      32.565  28.686  25.990  1.00  0.00    -0.049 A 
ATOM     19  C   UNL A   1      31.834  29.825  25.661  1.00  0.00     0.010 A 
ATOM     20  C   UNL A   1      32.350  27.510  25.268  1.00  0.00     0.036 A 
ATOM     21  C   UNL A   1      30.919  29.784  24.609  1.00  0.00     0.088 A 
ATOM     22  C   UNL A   1      30.691  28.580  23.911  1.00  0.00     0.292 A 
BRANCH  22  23
ATOM     23  N   UNL A   1      29.632  28.619  22.906  1.00  0.00     0.064 N 
ATOM     24  O   UNL A   1      29.953  28.970  21.757  1.00  0.00    -0.258 OA
ATOM     25  O   UNL A   1      28.497  28.250  23.233  1.00  0.00    -0.258 OA
ENDBRANCH  22  23
ENDBRANCH  11  16
ENDBRANCH   9  10
ENDBRANCH   7   9
ENDBRANCH   6   7
ENDBRANCH   5   6
ENDBRANCH   4   5
ENDBRANCH   3   4
ENDBRANCH   2   3
ENDBRANCH   1   2
BRANCH   1  26
ATOM     26  O   UNL A   1      40.013  21.438  27.188  1.00  0.00    -0.377 OA
BRANCH  26  27
ATOM     27  C   UNL A   1      40.896  20.805  26.276  1.00  0.00     0.188 C 
BRANCH  27  28
ATOM     28  C   UNL A   1      40.560  19.386  25.926  1.00  0.00     0.188 C 
BRANCH  28  29
ATOM     29  O   UNL A   1      41.735  18.600  26.099  1.00  0.00    -0.376 OA
BRANCH  29  30
ATOM     30  C   UNL A   1      42.934  19.361  26.038  1.00  0.00     0.202 C 
BRANCH  30  31
ATOM     31  C   UNL A   1      43.953  18.747  25.072  1.00  0.00     0.261 C 
BRANCH  31  32
ATOM     32  O   UNL A   1      44.386  19.781  24.156  1.00  0.00    -0.460 OA
BRANCH  32  33
ATOM     33  C   UNL A   1      45.491  20.489  24.526  1.00  0.00     0.338 C 
ATOM     34  O   UNL A   1      46.431  20.040  25.165  1.00  0.00    -0.246 OA
BRANCH  33  35
ATOM     35  C   UNL A   1      45.254  21.963  24.357  1.00  0.00     0.060 A 
ATOM     36  C   UNL A   1      46.339  22.815  24.081  1.00  0.00     0.016 A 
ATOM     37  C   UNL A   1      44.074  22.515  24.843  1.00  0.00     0.016 A 
ATOM     38  C   UNL A   1      46.305  24.169  24.470  1.00  0.00     0.010 A 
ATOM     39  C   UNL A   1      44.084  23.823  25.307  1.00  0.00     0.010 A 
ATOM     40  C   UNL A   1      45.212  24.656  25.184  1.00  0.00    -0.014 A 
BRANCH  40  41
ATOM     41  C   UNL A   1      45.180  25.915  25.975  1.00  0.00     0.031 A 
ATOM     42  C   UNL A   1      43.915  26.716  26.020  1.00  0.00     0.074 A 
ATOM     43  C   UNL A   1      46.130  26.144  26.926  1.00  0.00     0.049 A 
ATOM     44  N   UNL A   1      43.733  27.737  26.783  1.00  0.00    -0.248 NA
ATOM     45  C   UNL A   1      42.714  26.412  25.246  1.00  0.00     0.031 C 
ATOM     46  C   UNL A   1      46.021  26.947  28.149  1.00  0.00     0.029 A 
ATOM     47  N   UNL A   1      47.435  25.667  27.016  1.00  0.00    -0.354 N 
ATOM     48  C   UNL A   1      42.384  27.999  26.879  1.00  0.00     0.074 A 
ATOM     49  C   UNL A   1      41.804  27.209  25.824  1.00  0.00     0.031 C 
ATOM     50  C   UNL A   1      47.195  27.025  28.787  1.00  0.00     0.029 A 
ATOM     51  C   UNL A   1      48.172  26.509  27.872  1.00  0.00     0.049 A 
ATOM     52  H   UNL A   1      47.786  24.871  26.555  1.00  0.00     0.167 HD
ATOM     53  C   UNL A   1      41.935  28.759  27.927  1.00  0.00     0.037 A 
ATOM     54  C   UNL A   1      49.191  27.244  27.345  1.00  0.00     0.037 A 
ATOM     55  C   UNL A   1      43.061  29.394  28.670  1.00  0.00     0.049 A 
ATOM     56  C   UNL A   1      48.764  28.712  27.274  1.00  0.00     0.074 A 
ATOM     57  C   UNL A   1      43.420  29.546  30.001  1.00  0.00     0.029 A 
ATOM     58  N   UNL A   1      44.162  29.877  27.950  1.00  0.00    -0.354 N 
ATOM     59  N   UNL A   1      47.522  29.099  27.477  1.00  0.00    -0.248 NA
ATOM     60  C   UNL A   1      49.632  29.864  27.098  1.00  0.00     0.031 C 
ATOM     61  C   UNL A   1      44.767  30.043  30.053  1.00  0.00     0.029 A 
ATOM     62  C   UNL A   1      45.205  30.280  28.757  1.00  0.00     0.049 A 
ATOM     63  H   UNL A   1      44.187  29.925  26.967  1.00  0.00     0.167 HD
ATOM     64  C   UNL A   1      47.432  30.442  27.671  1.00  0.00     0.074 A 
ATOM     65  C   UNL A   1      48.766  30.888  27.278  1.00  0.00     0.031 C 
ATOM     66  C   UNL A   1      46.306  31.058  28.178  1.00  0.00     0.037 A 
BRANCH  53  67
ATOM     67  C   UNL A   1      40.475  28.817  28.398  1.00  0.00     0.057 A 
ATOM     68  C   UNL A   1      40.105  28.359  29.682  1.00  0.00     0.134 A 
ATOM     69  C   UNL A   1      39.370  29.216  27.610  1.00  0.00     0.134 A 
ATOM     70  F   UNL A   1      41.023  27.933  30.559  1.00  0.00    -0.206 F 
ATOM     71  C   UNL A   1      38.772  28.307  30.135  1.00  0.00     0.040 A 
ATOM     72  C   UNL A   1      38.039  29.225  28.073  1.00  0.00     0.040 A 
ATOM     73  F   UNL A   1      39.502  29.565  26.325  1.00  0.00    -0.206 F 
ATOM     74  C   UNL A   1      37.732  28.757  29.339  1.00  0.00     0.006 A 
ENDBRANCH  53  67
BRANCH  54  75
ATOM     75  C   UNL A   1      50.065  26.303  26.547  1.00  0.00     0.057 A 
ATOM     76  C   UNL A   1      50.121  26.627  25.161  1.00  0.00     0.134 A 
ATOM     77  C   UNL A   1      51.258  25.797  27.087  1.00  0.00     0.134 A 
ATOM     78  F   UNL A   1      49.019  27.082  24.539  1.00  0.00    -0.206 F 
ATOM     79  C   UNL A   1      51.333  26.742  24.460  1.00  0.00     0.040 A 
ATOM     80  C   UNL A   1      52.473  25.860  26.368  1.00  0.00     0.040 A 
ATOM     81  F   UNL A   1      51.319  25.441  28.378  1.00  0.00    -0.206 F 
ATOM     82  C   UNL A   1      52.526  26.413  25.088  1.00  0.00     0.006 A 
ENDBRANCH  54  75
BRANCH  66  83
ATOM     83  C   UNL A   1      46.057  32.543  28.091  1.00  0.00     0.057 A 
ATOM     84  C   UNL A   1      46.314  33.447  29.114  1.00  0.00     0.134 A 
ATOM     85  C   UNL A   1      45.584  33.125  26.886  1.00  0.00     0.134 A 
ATOM     86  F   UNL A   1      46.478  33.037  30.379  1.00  0.00    -0.206 F 
ATOM     87  C   UNL A   1      46.369  34.824  28.881  1.00  0.00     0.040 A 
ATOM     88  C   UNL A   1      45.578  34.495  26.655  1.00  0.00     0.040 A 
ATOM     89  F   UNL A   1      45.116  32.404  25.859  1.00  0.00    -0.206 F 
ATOM     90  C   UNL A   1      46.041  35.348  27.636  1.00  0.00     0.006 A 
ENDBRANCH  66  83
ENDBRANCH  40  41
ENDBRANCH  33  35
ENDBRANCH  32  33
ENDBRANCH  31  32
ENDBRANCH  30  31
ENDBRANCH  29  30
ENDBRANCH  28  29
ENDBRANCH  27  28
ENDBRANCH  26  27
ENDBRANCH   1  26
TORSDOF 23
ENDMDL
MODEL 3
REMARK VINA RESULT:     -10.0      4.202      7.302
REMARK SMILES Cc1ccc([N+](=O)[O-])c(N2CCC[C@H](CC(=O)OCCOCCOCCOCCOC(=O)c3ccc(-c4c5nc(c(-c6c(F)cccc6F)c6ccc([nH]6)c(-c6c(F)cccc6F)c6nc(c(-c7c(F)cccc7F)c7ccc4[nH]7)C=C6)C=C5)cc3)C2)c1
REMARK SMILES IDX 23 1 22 2 21 3 20 4 19 5 18 6 16 7 17 8 15 9 14 10 10 11
REMARK SMILES IDX 11 12 87 13 12 14 13 15 9 16 1 17 2 18 3 19 88 20 4 21 5 22
REMARK SMILES IDX 6 23 7 24 8 25 24 26 25 27 26 28 27 29 28 30 29 31 30 32
REMARK SMILES IDX 31 33 32 34 33 35 34 36 86 37 35 38 85 39 36 40 37 41 38 42
REMARK SMILES IDX 79 43 39 44 84 45 78 46 80 47 40 48 83 49 77 50 76 51 41 53
REMARK SMILES IDX 67 54 50 55 66 56 51 57 54 58 65 59 81 60 52 61 53 62 64 64
REMARK SMILES IDX 82 65 55 66 42 67 43 68 48 69 44 70 45 71 47 72 49 73 46 74
REMARK SMILES IDX 68 75 69 76 74 77 70 78 71 79 73 80 75 81 72 82 56 83 57 84
REMARK SMILES IDX 62 85 58 86 59 87 61 88 63 89 60 90
REMARK H PARENT 80 52 54 63
REMARK Flexibility Score: inf
ROOT
ATOM      1  C   UNL A   1      41.324  21.364  26.315  1.00  0.00     0.188 C 
ENDROOT
BRANCH   1   2
ATOM      2  C   UNL A   1      39.888  21.913  26.243  1.00  0.00     0.188 C 
BRANCH   2   3
ATOM      3  O   UNL A   1      38.833  21.048  25.862  1.00  0.00    -0.376 OA
BRANCH   3   4
ATOM      4  C   UNL A   1      37.603  21.695  25.578  1.00  0.00     0.202 C 
BRANCH   4   5
ATOM      5  C   UNL A   1      37.644  23.151  25.148  1.00  0.00     0.261 C 
BRANCH   5   6
ATOM      6  O   UNL A   1      36.297  23.606  25.012  1.00  0.00    -0.463 OA
BRANCH   6   7
ATOM      7  C   UNL A   1      35.742  23.417  23.799  1.00  0.00     0.306 C 
ATOM      8  O   UNL A   1      36.329  23.229  22.760  1.00  0.00    -0.252 OA
BRANCH   7   9
ATOM      9  C   UNL A   1      34.253  23.355  23.957  1.00  0.00     0.128 C 
BRANCH   9  10
ATOM     10  C   UNL A   1      33.514  23.143  22.628  1.00  0.00     0.019 C 
ATOM     11  N   UNL A   1      31.830  24.750  23.211  1.00  0.00    -0.366 N 
ATOM     12  C   UNL A   1      30.718  23.824  23.376  1.00  0.00     0.117 C 
ATOM     13  C   UNL A   1      32.820  24.419  22.187  1.00  0.00     0.121 C 
ATOM     14  C   UNL A   1      31.225  22.384  23.531  1.00  0.00     0.022 C 
ATOM     15  C   UNL A   1      32.434  22.050  22.649  1.00  0.00     0.008 C 
BRANCH  11  16
ATOM     16  C   UNL A   1      32.093  25.893  23.946  1.00  0.00     0.116 A 
ATOM     17  C   UNL A   1      34.305  28.849  22.998  1.00  0.00     0.044 C 
ATOM     18  C   UNL A   1      33.501  27.909  23.843  1.00  0.00    -0.049 A 
ATOM     19  C   UNL A   1      33.545  27.961  25.234  1.00  0.00     0.010 A 
ATOM     20  C   UNL A   1      32.740  26.915  23.226  1.00  0.00     0.036 A 
ATOM     21  C   UNL A   1      32.816  27.041  25.988  1.00  0.00     0.088 A 
ATOM     22  C   UNL A   1      32.078  26.024  25.348  1.00  0.00     0.292 A 
BRANCH  22  23
ATOM     23  N   UNL A   1      31.447  25.046  26.230  1.00  0.00     0.064 N 
ATOM     24  O   UNL A   1      32.165  24.132  26.669  1.00  0.00    -0.258 OA
ATOM     25  O   UNL A   1      30.259  25.210  26.536  1.00  0.00    -0.258 OA
ENDBRANCH  22  23
ENDBRANCH  11  16
ENDBRANCH   9  10
ENDBRANCH   7   9
ENDBRANCH   6   7
ENDBRANCH   5   6
ENDBRANCH   4   5
ENDBRANCH   3   4
ENDBRANCH   2   3
ENDBRANCH   1   2
BRANCH   1  26
ATOM     26  O   UNL A   1      42.056  21.501  27.520  1.00  0.00    -0.377 OA
BRANCH  26  27
ATOM     27  C   UNL A   1      42.973  22.581  27.573  1.00  0.00     0.188 C 
BRANCH  27  28
ATOM     28  C   UNL A   1      42.777  23.546  28.705  1.00  0.00     0.188 C 
BRANCH  28  29
ATOM     29  O   UNL A   1      43.316  22.956  29.883  1.00  0.00    -0.376 OA
BRANCH  29  30
ATOM     30  C   UNL A   1      44.531  23.558  30.309  1.00  0.00     0.202 C 
BRANCH  30  31
ATOM     31  C   UNL A   1      44.287  24.869  31.066  1.00  0.00     0.261 C 
BRANCH  31  32
ATOM     32  O   UNL A   1      45.165  24.896  32.216  1.00  0.00    -0.460 OA
BRANCH  32  33
ATOM     33  C   UNL A   1      44.579  24.673  33.427  1.00  0.00     0.338 C 
ATOM     34  O   UNL A   1      44.373  23.572  33.915  1.00  0.00    -0.246 OA
BRANCH  33  35
ATOM     35  C   UNL A   1      43.908  25.921  33.925  1.00  0.00     0.060 A 
ATOM     36  C   UNL A   1      42.584  25.859  34.395  1.00  0.00     0.016 A 
ATOM     37  C   UNL A   1      44.436  27.157  33.569  1.00  0.00     0.016 A 
ATOM     38  C   UNL A   1      41.743  26.987  34.323  1.00  0.00     0.010 A 
ATOM     39  C   UNL A   1      43.577  28.236  33.414  1.00  0.00     0.010 A 
ATOM     40  C   UNL A   1      42.208  28.160  33.731  1.00  0.00    -0.014 A 
BRANCH  40  41
ATOM     41  C   UNL A   1      41.364  29.284  33.247  1.00  0.00     0.031 A 
ATOM     42  C   UNL A   1      40.783  30.242  34.242  1.00  0.00     0.074 A 
ATOM     43  C   UNL A   1      41.420  29.661  31.938  1.00  0.00     0.049 A 
ATOM     44  N   UNL A   1      40.162  31.325  33.927  1.00  0.00    -0.248 NA
ATOM     45  C   UNL A   1      40.891  30.096  35.693  1.00  0.00     0.031 C 
ATOM     46  C   UNL A   1      41.169  30.985  31.359  1.00  0.00     0.029 A 
ATOM     47  N   UNL A   1      41.751  28.916  30.809  1.00  0.00    -0.354 N 
ATOM     48  C   UNL A   1      40.105  32.152  35.026  1.00  0.00     0.074 A 
ATOM     49  C   UNL A   1      40.483  31.298  36.122  1.00  0.00     0.031 C 
ATOM     50  C   UNL A   1      41.217  30.950  30.021  1.00  0.00     0.029 A 
ATOM     51  C   UNL A   1      41.231  29.559  29.667  1.00  0.00     0.049 A 
ATOM     52  H   UNL A   1      42.265  28.076  30.808  1.00  0.00     0.167 HD
ATOM     53  C   UNL A   1      39.862  33.487  34.832  1.00  0.00     0.037 A 
ATOM     54  C   UNL A   1      40.245  28.938  28.963  1.00  0.00     0.037 A 
ATOM     55  C   UNL A   1      39.447  33.773  33.428  1.00  0.00     0.049 A 
ATOM     56  C   UNL A   1      38.918  29.658  29.217  1.00  0.00     0.074 A 
ATOM     57  C   UNL A   1      39.783  34.703  32.456  1.00  0.00     0.029 A 
ATOM     58  N   UNL A   1      38.607  32.864  32.770  1.00  0.00    -0.354 N 
ATOM     59  N   UNL A   1      38.777  30.568  30.160  1.00  0.00    -0.248 NA
ATOM     60  C   UNL A   1      37.702  29.548  28.430  1.00  0.00     0.031 C 
ATOM     61  C   UNL A   1      39.204  34.287  31.210  1.00  0.00     0.029 A 
ATOM     62  C   UNL A   1      38.439  33.150  31.432  1.00  0.00     0.049 A 
ATOM     63  H   UNL A   1      38.181  32.098  33.219  1.00  0.00     0.167 HD
ATOM     64  C   UNL A   1      37.631  31.285  30.006  1.00  0.00     0.074 A 
ATOM     65  C   UNL A   1      36.927  30.504  28.992  1.00  0.00     0.031 C 
ATOM     66  C   UNL A   1      37.383  32.465  30.676  1.00  0.00     0.037 A 
BRANCH  53  67
ATOM     67  C   UNL A   1      40.148  34.585  35.866  1.00  0.00     0.057 A 
ATOM     68  C   UNL A   1      41.335  35.348  35.809  1.00  0.00     0.134 A 
ATOM     69  C   UNL A   1      39.352  34.877  36.998  1.00  0.00     0.134 A 
ATOM     70  F   UNL A   1      42.212  35.196  34.808  1.00  0.00    -0.206 F 
ATOM     71  C   UNL A   1      41.691  36.306  36.779  1.00  0.00     0.040 A 
ATOM     72  C   UNL A   1      39.668  35.874  37.942  1.00  0.00     0.040 A 
ATOM     73  F   UNL A   1      38.252  34.176  37.295  1.00  0.00    -0.206 F 
ATOM     74  C   UNL A   1      40.850  36.588  37.842  1.00  0.00     0.006 A 
ENDBRANCH  53  67
BRANCH  54  75
ATOM     75  C   UNL A   1      40.704  27.524  28.685  1.00  0.00     0.057 A 
ATOM     76  C   UNL A   1      39.701  26.547  28.946  1.00  0.00     0.134 A 
ATOM     77  C   UNL A   1      41.542  27.241  27.596  1.00  0.00     0.134 A 
ATOM     78  F   UNL A   1      38.873  26.705  29.993  1.00  0.00    -0.206 F 
ATOM     79  C   UNL A   1      39.361  25.549  28.018  1.00  0.00     0.040 A 
ATOM     80  C   UNL A   1      41.235  26.204  26.686  1.00  0.00     0.040 A 
ATOM     81  F   UNL A   1      42.533  28.081  27.267  1.00  0.00    -0.206 F 
ATOM     82  C   UNL A   1      40.096  25.415  26.848  1.00  0.00     0.006 A 
ENDBRANCH  54  75
BRANCH  66  83
ATOM     83  C   UNL A   1      36.016  33.093  30.783  1.00  0.00     0.057 A 
ATOM     84  C   UNL A   1      35.206  33.031  31.910  1.00  0.00     0.134 A 
ATOM     85  C   UNL A   1      35.491  33.863  29.713  1.00  0.00     0.134 A 
ATOM     86  F   UNL A   1      35.420  32.122  32.871  1.00  0.00    -0.206 F 
ATOM     87  C   UNL A   1      34.109  33.882  32.073  1.00  0.00     0.040 A 
ATOM     88  C   UNL A   1      34.369  34.673  29.838  1.00  0.00     0.040 A 
ATOM     89  F   UNL A   1      36.040  33.890  28.492  1.00  0.00    -0.206 F 
ATOM     90  C   UNL A   1      33.713  34.737  31.050  1.00  0.00     0.006 A 
ENDBRANCH  66  83
ENDBRANCH  40  41
ENDBRANCH  33  35
ENDBRANCH  32  33
ENDBRANCH  31  32
ENDBRANCH  30  31
ENDBRANCH  29  30
ENDBRANCH  28  29
ENDBRANCH  27  28
ENDBRANCH  26  27
ENDBRANCH   1  26
TORSDOF 23
ENDMDL
