MODEL 1
REMARK VINA RESULT:      -7.2      0.000      0.000
REMARK SMILES CC(C)C[C@H](NC(=O)CNC(=O)[C@@H](NC(=O)OCc1ccccc1)C(C)C)C(=O)OCCOCCOCCOCCOC(=O)c1ccc(-c2c3nc(c(-c4c(F)cccc4F)c4ccc([nH]4)c(-c4c(F)cccc4F)c4nc(c(-c5c(F)cccc5F)c5ccc2[nH]5)C=C4)C=C3)cc1
REMARK SMILES IDX 33 1 32 2 31 3 30 4 28 5 29 6 5 7 4 8 2 9 1 10 3 11 6 12
REMARK SMILES IDX 7 13 8 15 9 16 10 17 11 18 12 20 13 21 14 22 15 23 16 25
REMARK SMILES IDX 17 26 18 27 19 28 20 29 24 30 21 31 23 32 22 33 25 34 26 35
REMARK SMILES IDX 27 36 34 37 35 38 36 39 37 40 38 41 39 42 40 43 41 44 42 45
REMARK SMILES IDX 43 46 44 47 45 48 46 49 98 50 47 51 97 52 48 53 49 54 50 55
REMARK SMILES IDX 91 56 51 57 96 58 90 59 92 60 52 61 95 62 89 63 88 64 53 66
REMARK SMILES IDX 79 67 62 68 78 69 63 70 66 71 77 72 93 73 64 74 65 75 76 77
REMARK SMILES IDX 94 78 67 79 54 80 55 81 60 82 56 83 57 84 59 85 61 86 58 87
REMARK SMILES IDX 80 88 81 89 86 90 82 91 83 92 85 93 87 94 84 95 68 96 69 97
REMARK SMILES IDX 74 98 70 99 71 100 73 101 75 102 72 103
REMARK H PARENT 6 14 10 19 14 24 92 65 66 76
REMARK Flexibility Score: inf
ROOT
ATOM      1  O   UNL A   1      50.589  31.038  27.713  1.00  0.00    -0.376 OA
ENDROOT
BRANCH   1   2
ATOM      2  C   UNL A   1      49.413  31.806  27.922  1.00  0.00     0.202 C 
BRANCH   2   3
ATOM      3  C   UNL A   1      48.220  31.848  26.963  1.00  0.00     0.261 C 
BRANCH   3   4
ATOM      4  O   UNL A   1      47.050  31.204  27.468  1.00  0.00    -0.462 OA
BRANCH   4   5
ATOM      5  C   UNL A   1      46.154  30.901  26.502  1.00  0.00     0.328 C 
ATOM      6  O   UNL A   1      46.452  30.398  25.420  1.00  0.00    -0.250 OA
BRANCH   5   7
ATOM      7  C   UNL A   1      44.714  31.319  26.833  1.00  0.00     0.192 C 
BRANCH   7   8
ATOM      8  C   UNL A   1      43.946  30.012  26.898  1.00  0.00     0.040 C 
BRANCH   8   9
ATOM      9  C   UNL A   1      43.139  30.153  28.154  1.00  0.00    -0.015 C 
ATOM     10  C   UNL A   1      41.754  29.393  28.054  1.00  0.00     0.007 C 
ATOM     11  C   UNL A   1      44.138  30.754  29.218  1.00  0.00     0.007 C 
ENDBRANCH   8   9
ENDBRANCH   7   8
BRANCH   7  12
ATOM     12  N   UNL A   1      44.023  32.443  26.076  1.00  0.00    -0.341 N 
ATOM     13  C   UNL A   1      44.089  33.784  25.812  1.00  0.00     0.240 C 
ATOM     14  H   UNL A   1      43.244  32.069  25.603  1.00  0.00     0.164 HD
ATOM     15  O   UNL A   1      43.235  34.129  24.966  1.00  0.00    -0.273 OA
BRANCH  13  16
ATOM     16  C   UNL A   1      45.020  35.032  26.408  1.00  0.00     0.216 C 
BRANCH  16  17
ATOM     17  N   UNL A   1      45.413  36.560  26.232  1.00  0.00    -0.345 N 
ATOM     18  C   UNL A   1      45.473  37.834  26.765  1.00  0.00     0.243 C 
ATOM     19  H   UNL A   1      45.785  36.634  25.324  1.00  0.00     0.164 HD
ATOM     20  O   UNL A   1      46.606  38.295  26.479  1.00  0.00    -0.273 OA
BRANCH  18  21
ATOM     21  C   UNL A   1      44.410  39.021  27.530  1.00  0.00     0.177 C 
BRANCH  21  22
ATOM     22  N   UNL A   1      44.385  40.546  27.533  1.00  0.00    -0.309 N 
ATOM     23  C   UNL A   1      44.360  41.545  26.604  1.00  0.00     0.408 C 
ATOM     24  H   UNL A   1      44.387  40.906  28.450  1.00  0.00     0.167 HD
ATOM     25  O   UNL A   1      44.758  42.663  26.927  1.00  0.00    -0.225 OA
BRANCH  23  26
ATOM     26  O   UNL A   1      43.977  41.183  25.356  1.00  0.00    -0.445 OA
BRANCH  26  27
ATOM     27  C   UNL A   1      42.712  41.705  24.903  1.00  0.00     0.270 C 
BRANCH  27  28
ATOM     28  C   UNL A   1      42.740  42.410  23.569  1.00  0.00    -0.011 A 
ATOM     29  C   UNL A   1      43.941  42.796  22.961  1.00  0.00     0.007 A 
ATOM     30  C   UNL A   1      41.547  42.582  22.853  1.00  0.00     0.007 A 
ATOM     31  C   UNL A   1      43.960  43.333  21.677  1.00  0.00     0.000 A 
ATOM     32  C   UNL A   1      41.562  43.136  21.571  1.00  0.00     0.000 A 
ATOM     33  C   UNL A   1      42.770  43.505  20.982  1.00  0.00     0.000 A 
ENDBRANCH  27  28
ENDBRANCH  26  27
ENDBRANCH  23  26
ENDBRANCH  21  22
BRANCH  21  34
ATOM     34  C   UNL A   1      42.983  38.503  27.897  1.00  0.00     0.015 C 
ATOM     35  C   UNL A   1      42.203  39.501  28.756  1.00  0.00     0.010 C 
ATOM     36  C   UNL A   1      42.095  38.273  26.644  1.00  0.00     0.010 C 
ENDBRANCH  21  34
ENDBRANCH  18  21
ENDBRANCH  16  17
ENDBRANCH  13  16
ENDBRANCH   7  12
ENDBRANCH   5   7
ENDBRANCH   4   5
ENDBRANCH   3   4
ENDBRANCH   2   3
ENDBRANCH   1   2
BRANCH   1  37
ATOM     37  C   UNL A   1      50.648  29.682  27.307  1.00  0.00     0.188 C 
BRANCH  37  38
ATOM     38  C   UNL A   1      50.144  29.185  25.944  1.00  0.00     0.188 C 
BRANCH  38  39
ATOM     39  O   UNL A   1      50.998  28.318  25.235  1.00  0.00    -0.377 OA
BRANCH  39  40
ATOM     40  C   UNL A   1      51.531  28.755  23.992  1.00  0.00     0.188 C 
BRANCH  40  41
ATOM     41  C   UNL A   1      50.962  28.174  22.683  1.00  0.00     0.188 C 
BRANCH  41  42
ATOM     42  O   UNL A   1      51.934  27.756  21.739  1.00  0.00    -0.376 OA
BRANCH  42  43
ATOM     43  C   UNL A   1      52.906  26.792  22.116  1.00  0.00     0.202 C 
BRANCH  43  44
ATOM     44  C   UNL A   1      54.341  27.262  22.412  1.00  0.00     0.261 C 
BRANCH  44  45
ATOM     45  O   UNL A   1      54.686  27.476  23.793  1.00  0.00    -0.460 OA
BRANCH  45  46
ATOM     46  C   UNL A   1      55.058  26.434  24.553  1.00  0.00     0.338 C 
ATOM     47  O   UNL A   1      56.131  25.834  24.525  1.00  0.00    -0.246 OA
BRANCH  46  48
ATOM     48  C   UNL A   1      54.037  26.253  25.600  1.00  0.00     0.060 A 
ATOM     49  C   UNL A   1      53.141  25.178  25.506  1.00  0.00     0.016 A 
ATOM     50  C   UNL A   1      53.972  27.135  26.681  1.00  0.00     0.016 A 
ATOM     51  C   UNL A   1      52.167  24.990  26.484  1.00  0.00     0.010 A 
ATOM     52  C   UNL A   1      52.970  26.968  27.640  1.00  0.00     0.010 A 
ATOM     53  C   UNL A   1      52.049  25.911  27.531  1.00  0.00    -0.014 A 
BRANCH  53  54
ATOM     54  C   UNL A   1      50.851  25.887  28.401  1.00  0.00     0.031 A 
ATOM     55  C   UNL A   1      51.047  26.041  29.883  1.00  0.00     0.074 A 
ATOM     56  C   UNL A   1      49.618  25.731  27.889  1.00  0.00     0.049 A 
ATOM     57  N   UNL A   1      50.173  25.951  30.849  1.00  0.00    -0.248 NA
ATOM     58  C   UNL A   1      52.418  26.337  30.335  1.00  0.00     0.031 C 
ATOM     59  C   UNL A   1      49.296  25.627  26.467  1.00  0.00     0.029 A 
ATOM     60  N   UNL A   1      48.404  25.614  28.520  1.00  0.00    -0.354 N 
ATOM     61  C   UNL A   1      50.887  26.166  32.022  1.00  0.00     0.074 A 
ATOM     62  C   UNL A   1      52.267  26.379  31.650  1.00  0.00     0.031 C 
ATOM     63  C   UNL A   1      47.972  25.431  26.335  1.00  0.00     0.029 A 
ATOM     64  C   UNL A   1      47.362  25.354  27.662  1.00  0.00     0.049 A 
ATOM     65  H   UNL A   1      48.291  25.707  29.493  1.00  0.00     0.167 HD
ATOM     66  C   UNL A   1      50.428  26.182  33.295  1.00  0.00     0.037 A 
ATOM     67  C   UNL A   1      46.077  25.048  27.926  1.00  0.00     0.037 A 
ATOM     68  C   UNL A   1      49.054  25.971  33.661  1.00  0.00     0.049 A 
ATOM     69  C   UNL A   1      45.614  24.982  29.360  1.00  0.00     0.074 A 
ATOM     70  C   UNL A   1      48.487  26.000  34.923  1.00  0.00     0.029 A 
ATOM     71  N   UNL A   1      48.036  25.677  32.768  1.00  0.00    -0.354 N 
ATOM     72  N   UNL A   1      46.286  25.221  30.461  1.00  0.00    -0.248 NA
ATOM     73  C   UNL A   1      44.213  24.595  29.590  1.00  0.00     0.031 C 
ATOM     74  C   UNL A   1      47.135  25.663  34.799  1.00  0.00     0.029 A 
ATOM     75  C   UNL A   1      46.850  25.483  33.455  1.00  0.00     0.049 A 
ATOM     76  H   UNL A   1      48.140  25.615  31.791  1.00  0.00     0.167 HD
ATOM     77  C   UNL A   1      45.386  25.038  31.506  1.00  0.00     0.074 A 
ATOM     78  C   UNL A   1      44.116  24.689  30.908  1.00  0.00     0.031 C 
ATOM     79  C   UNL A   1      45.592  25.143  32.842  1.00  0.00     0.037 A 
BRANCH  66  80
ATOM     80  C   UNL A   1      51.423  26.405  34.393  1.00  0.00     0.057 A 
ATOM     81  C   UNL A   1      51.627  27.666  34.965  1.00  0.00     0.134 A 
ATOM     82  C   UNL A   1      52.137  25.326  34.930  1.00  0.00     0.134 A 
ATOM     83  F   UNL A   1      50.986  28.742  34.485  1.00  0.00    -0.206 F 
ATOM     84  C   UNL A   1      52.511  27.848  36.031  1.00  0.00     0.040 A 
ATOM     85  C   UNL A   1      53.006  25.491  36.010  1.00  0.00     0.040 A 
ATOM     86  F   UNL A   1      51.987  24.091  34.426  1.00  0.00    -0.206 F 
ATOM     87  C   UNL A   1      53.194  26.755  36.563  1.00  0.00     0.006 A 
ENDBRANCH  66  80
BRANCH  67  88
ATOM     88  C   UNL A   1      45.137  24.724  26.822  1.00  0.00     0.057 A 
ATOM     89  C   UNL A   1      44.267  25.689  26.298  1.00  0.00     0.134 A 
ATOM     90  C   UNL A   1      45.039  23.425  26.307  1.00  0.00     0.134 A 
ATOM     91  F   UNL A   1      44.291  26.944  26.768  1.00  0.00    -0.206 F 
ATOM     92  C   UNL A   1      43.317  25.367  25.326  1.00  0.00     0.040 A 
ATOM     93  C   UNL A   1      44.115  23.097  25.314  1.00  0.00     0.040 A 
ATOM     94  F   UNL A   1      45.840  22.452  26.765  1.00  0.00    -0.206 F 
ATOM     95  C   UNL A   1      43.241  24.067  24.829  1.00  0.00     0.006 A 
ENDBRANCH  67  88
BRANCH  79  96
ATOM     96  C   UNL A   1      44.416  24.903  33.745  1.00  0.00     0.057 A 
ATOM     97  C   UNL A   1      43.598  25.951  34.186  1.00  0.00     0.134 A 
ATOM     98  C   UNL A   1      44.070  23.604  34.138  1.00  0.00     0.134 A 
ATOM     99  F   UNL A   1      43.881  27.220  33.855  1.00  0.00    -0.206 F 
ATOM    100  C   UNL A   1      42.491  25.717  35.004  1.00  0.00     0.040 A 
ATOM    101  C   UNL A   1      42.950  23.354  34.931  1.00  0.00     0.040 A 
ATOM    102  F   UNL A   1      44.805  22.553  33.741  1.00  0.00    -0.206 F 
ATOM    103  C   UNL A   1      42.160  24.414  35.371  1.00  0.00     0.006 A 
ENDBRANCH  79  96
ENDBRANCH  53  54
ENDBRANCH  46  48
ENDBRANCH  45  46
ENDBRANCH  44  45
ENDBRANCH  43  44
ENDBRANCH  42  43
ENDBRANCH  41  42
ENDBRANCH  40  41
ENDBRANCH  39  40
ENDBRANCH  38  39
ENDBRANCH  37  38
ENDBRANCH   1  37
TORSDOF 31
ENDMDL
MODEL 2
REMARK VINA RESULT:      -7.0      8.151     16.483
REMARK SMILES CC(C)C[C@H](NC(=O)CNC(=O)[C@@H](NC(=O)OCc1ccccc1)C(C)C)C(=O)OCCOCCOCCOCCOC(=O)c1ccc(-c2c3nc(c(-c4c(F)cccc4F)c4ccc([nH]4)c(-c4c(F)cccc4F)c4nc(c(-c5c(F)cccc5F)c5ccc2[nH]5)C=C4)C=C3)cc1
REMARK SMILES IDX 33 1 32 2 31 3 30 4 28 5 29 6 5 7 4 8 2 9 1 10 3 11 6 12
REMARK SMILES IDX 7 13 8 15 9 16 10 17 11 18 12 20 13 21 14 22 15 23 16 25
REMARK SMILES IDX 17 26 18 27 19 28 20 29 24 30 21 31 23 32 22 33 25 34 26 35
REMARK SMILES IDX 27 36 34 37 35 38 36 39 37 40 38 41 39 42 40 43 41 44 42 45
REMARK SMILES IDX 43 46 44 47 45 48 46 49 98 50 47 51 97 52 48 53 49 54 50 55
REMARK SMILES IDX 91 56 51 57 96 58 90 59 92 60 52 61 95 62 89 63 88 64 53 66
REMARK SMILES IDX 79 67 62 68 78 69 63 70 66 71 77 72 93 73 64 74 65 75 76 77
REMARK SMILES IDX 94 78 67 79 54 80 55 81 60 82 56 83 57 84 59 85 61 86 58 87
REMARK SMILES IDX 80 88 81 89 86 90 82 91 83 92 85 93 87 94 84 95 68 96 69 97
REMARK SMILES IDX 74 98 70 99 71 100 73 101 75 102 72 103
REMARK H PARENT 6 14 10 19 14 24 92 65 66 76
REMARK Flexibility Score: inf
ROOT
ATOM      1  O   UNL A   1      45.957  20.882  41.308  1.00  0.00    -0.376 OA
ENDROOT
BRANCH   1   2
ATOM      2  C   UNL A   1      45.580  20.191  42.490  1.00  0.00     0.202 C 
BRANCH   2   3
ATOM      3  C   UNL A   1      44.138  19.861  42.884  1.00  0.00     0.261 C 
BRANCH   3   4
ATOM      4  O   UNL A   1      43.614  18.703  42.235  1.00  0.00    -0.462 OA
BRANCH   4   5
ATOM      5  C   UNL A   1      43.693  17.588  42.996  1.00  0.00     0.328 C 
ATOM      6  O   UNL A   1      44.048  17.582  44.173  1.00  0.00    -0.250 OA
BRANCH   5   7
ATOM      7  C   UNL A   1      43.381  16.290  42.237  1.00  0.00     0.192 C 
BRANCH   7   8
ATOM      8  C   UNL A   1      43.720  15.185  43.220  1.00  0.00     0.040 C 
BRANCH   8   9
ATOM      9  C   UNL A   1      42.599  14.206  43.033  1.00  0.00    -0.015 C 
ATOM     10  C   UNL A   1      43.048  12.726  43.368  1.00  0.00     0.007 C 
ATOM     11  C   UNL A   1      41.303  15.093  42.873  1.00  0.00     0.007 C 
ENDBRANCH   8   9
ENDBRANCH   7   8
BRANCH   7  12
ATOM     12  N   UNL A   1      43.871  16.069  40.814  1.00  0.00    -0.341 N 
ATOM     13  C   UNL A   1      44.837  16.444  39.921  1.00  0.00     0.240 C 
ATOM     14  H   UNL A   1      43.276  15.418  40.376  1.00  0.00     0.164 HD
ATOM     15  O   UNL A   1      44.770  15.779  38.864  1.00  0.00    -0.273 OA
BRANCH  13  16
ATOM     16  C   UNL A   1      46.028  17.611  39.934  1.00  0.00     0.216 C 
BRANCH  16  17
ATOM     17  N   UNL A   1      46.720  18.771  39.100  1.00  0.00    -0.345 N 
ATOM     18  C   UNL A   1      47.855  19.278  38.496  1.00  0.00     0.243 C 
ATOM     19  H   UNL A   1      46.014  19.439  38.939  1.00  0.00     0.164 HD
ATOM     20  O   UNL A   1      47.506  19.710  37.369  1.00  0.00    -0.273 OA
BRANCH  18  21
ATOM     21  C   UNL A   1      49.537  19.649  38.895  1.00  0.00     0.177 C 
BRANCH  21  22
ATOM     22  N   UNL A   1      50.466  20.798  38.517  1.00  0.00    -0.309 N 
ATOM     23  C   UNL A   1      50.893  21.400  37.369  1.00  0.00     0.408 C 
ATOM     24  H   UNL A   1      50.866  21.216  39.315  1.00  0.00     0.167 HD
ATOM     25  O   UNL A   1      51.952  22.026  37.388  1.00  0.00    -0.225 OA
BRANCH  23  26
ATOM     26  O   UNL A   1      50.140  21.172  36.267  1.00  0.00    -0.445 OA
BRANCH  26  27
ATOM     27  C   UNL A   1      50.564  20.085  35.421  1.00  0.00     0.270 C 
BRANCH  27  28
ATOM     28  C   UNL A   1      51.628  20.428  34.408  1.00  0.00    -0.011 A 
ATOM     29  C   UNL A   1      52.578  19.490  33.987  1.00  0.00     0.007 A 
ATOM     30  C   UNL A   1      51.602  21.679  33.774  1.00  0.00     0.007 A 
ATOM     31  C   UNL A   1      53.475  19.781  32.962  1.00  0.00     0.000 A 
ATOM     32  C   UNL A   1      52.512  21.979  32.757  1.00  0.00     0.000 A 
ATOM     33  C   UNL A   1      53.444  21.027  32.349  1.00  0.00     0.000 A 
ENDBRANCH  27  28
ENDBRANCH  26  27
ENDBRANCH  23  26
ENDBRANCH  21  22
BRANCH  21  34
ATOM     34  C   UNL A   1      50.076  18.987  40.203  1.00  0.00     0.015 C 
ATOM     35  C   UNL A   1      51.235  18.026  39.934  1.00  0.00     0.010 C 
ATOM     36  C   UNL A   1      50.643  20.030  41.204  1.00  0.00     0.010 C 
ENDBRANCH  21  34
ENDBRANCH  18  21
ENDBRANCH  16  17
ENDBRANCH  13  16
ENDBRANCH   7  12
ENDBRANCH   5   7
ENDBRANCH   4   5
ENDBRANCH   3   4
ENDBRANCH   2   3
ENDBRANCH   1   2
BRANCH   1  37
ATOM     37  C   UNL A   1      45.136  21.747  40.541  1.00  0.00     0.188 C 
BRANCH  37  38
ATOM     38  C   UNL A   1      45.623  22.476  39.280  1.00  0.00     0.188 C 
BRANCH  38  39
ATOM     39  O   UNL A   1      44.988  23.695  38.974  1.00  0.00    -0.377 OA
BRANCH  39  40
ATOM     40  C   UNL A   1      45.508  24.892  39.537  1.00  0.00     0.188 C 
BRANCH  40  41
ATOM     41  C   UNL A   1      46.922  25.358  39.138  1.00  0.00     0.188 C 
BRANCH  41  42
ATOM     42  O   UNL A   1      47.273  26.659  39.582  1.00  0.00    -0.376 OA
BRANCH  42  43
ATOM     43  C   UNL A   1      48.579  27.156  39.332  1.00  0.00     0.202 C 
BRANCH  43  44
ATOM     44  C   UNL A   1      48.807  28.678  39.335  1.00  0.00     0.261 C 
BRANCH  44  45
ATOM     45  O   UNL A   1      48.229  29.427  38.250  1.00  0.00    -0.460 OA
BRANCH  45  46
ATOM     46  C   UNL A   1      48.824  29.420  37.047  1.00  0.00     0.338 C 
ATOM     47  O   UNL A   1      50.004  29.177  36.799  1.00  0.00    -0.246 OA
BRANCH  46  48
ATOM     48  C   UNL A   1      47.772  29.539  36.023  1.00  0.00     0.060 A 
ATOM     49  C   UNL A   1      47.807  30.615  35.125  1.00  0.00     0.016 A 
ATOM     50  C   UNL A   1      46.758  28.582  35.939  1.00  0.00     0.016 A 
ATOM     51  C   UNL A   1      46.822  30.748  34.150  1.00  0.00     0.010 A 
ATOM     52  C   UNL A   1      45.748  28.738  34.987  1.00  0.00     0.010 A 
ATOM     53  C   UNL A   1      45.763  29.835  34.106  1.00  0.00    -0.014 A 
BRANCH  53  54
ATOM     54  C   UNL A   1      44.572  30.127  33.277  1.00  0.00     0.031 A 
ATOM     55  C   UNL A   1      43.505  31.014  33.854  1.00  0.00     0.074 A 
ATOM     56  C   UNL A   1      44.439  29.618  32.039  1.00  0.00     0.049 A 
ATOM     57  N   UNL A   1      42.334  31.329  33.367  1.00  0.00    -0.248 NA
ATOM     58  C   UNL A   1      43.800  31.629  35.160  1.00  0.00     0.031 C 
ATOM     59  C   UNL A   1      45.428  28.792  31.351  1.00  0.00     0.029 A 
ATOM     60  N   UNL A   1      43.397  29.710  31.149  1.00  0.00    -0.354 N 
ATOM     61  C   UNL A   1      41.749  32.167  34.309  1.00  0.00     0.074 A 
ATOM     62  C   UNL A   1      42.686  32.302  35.402  1.00  0.00     0.031 C 
ATOM     63  C   UNL A   1      44.933  28.427  30.155  1.00  0.00     0.029 A 
ATOM     64  C   UNL A   1      43.578  28.958  30.014  1.00  0.00     0.049 A 
ATOM     65  H   UNL A   1      42.598  30.262  31.311  1.00  0.00     0.167 HD
ATOM     66  C   UNL A   1      40.537  32.766  34.265  1.00  0.00     0.037 A 
ATOM     67  C   UNL A   1      42.727  28.698  29.001  1.00  0.00     0.037 A 
ATOM     68  C   UNL A   1      39.609  32.630  33.175  1.00  0.00     0.049 A 
ATOM     69  C   UNL A   1      41.347  29.307  29.023  1.00  0.00     0.074 A 
ATOM     70  C   UNL A   1      38.369  33.224  33.024  1.00  0.00     0.029 A 
ATOM     71  N   UNL A   1      39.813  31.834  32.060  1.00  0.00    -0.354 N 
ATOM     72  N   UNL A   1      40.814  30.125  29.899  1.00  0.00    -0.248 NA
ATOM     73  C   UNL A   1      40.445  28.949  27.917  1.00  0.00     0.031 C 
ATOM     74  C   UNL A   1      37.796  32.740  31.844  1.00  0.00     0.029 A 
ATOM     75  C   UNL A   1      38.704  31.890  31.234  1.00  0.00     0.049 A 
ATOM     76  H   UNL A   1      40.625  31.307  31.882  1.00  0.00     0.167 HD
ATOM     77  C   UNL A   1      39.530  30.396  29.437  1.00  0.00     0.074 A 
ATOM     78  C   UNL A   1      39.371  29.674  28.195  1.00  0.00     0.031 C 
ATOM     79  C   UNL A   1      38.565  31.169  29.995  1.00  0.00     0.037 A 
BRANCH  66  80
ATOM     80  C   UNL A   1      40.127  33.601  35.439  1.00  0.00     0.057 A 
ATOM     81  C   UNL A   1      40.442  34.961  35.530  1.00  0.00     0.134 A 
ATOM     82  C   UNL A   1      39.345  33.047  36.461  1.00  0.00     0.134 A 
ATOM     83  F   UNL A   1      41.201  35.547  34.592  1.00  0.00    -0.206 F 
ATOM     84  C   UNL A   1      39.999  35.742  36.600  1.00  0.00     0.040 A 
ATOM     85  C   UNL A   1      38.877  33.821  37.524  1.00  0.00     0.040 A 
ATOM     86  F   UNL A   1      39.009  31.748  36.434  1.00  0.00    -0.206 F 
ATOM     87  C   UNL A   1      39.204  35.173  37.594  1.00  0.00     0.006 A 
ENDBRANCH  66  80
BRANCH  67  88
ATOM     88  C   UNL A   1      43.122  27.779  27.902  1.00  0.00     0.057 A 
ATOM     89  C   UNL A   1      42.960  26.393  28.018  1.00  0.00     0.134 A 
ATOM     90  C   UNL A   1      43.730  28.259  26.735  1.00  0.00     0.134 A 
ATOM     91  F   UNL A   1      42.410  25.869  29.122  1.00  0.00    -0.206 F 
ATOM     92  C   UNL A   1      43.414  25.518  27.029  1.00  0.00     0.040 A 
ATOM     93  C   UNL A   1      44.161  27.399  25.725  1.00  0.00     0.040 A 
ATOM     94  F   UNL A   1      43.918  29.576  26.561  1.00  0.00    -0.206 F 
ATOM     95  C   UNL A   1      44.015  26.021  25.876  1.00  0.00     0.006 A 
ENDBRANCH  67  88
BRANCH  79  96
ATOM     96  C   UNL A   1      37.265  31.294  29.254  1.00  0.00     0.057 A 
ATOM     97  C   UNL A   1      36.308  30.272  29.264  1.00  0.00     0.134 A 
ATOM     98  C   UNL A   1      36.946  32.472  28.564  1.00  0.00     0.134 A 
ATOM     99  F   UNL A   1      36.555  29.116  29.896  1.00  0.00    -0.206 F 
ATOM    100  C   UNL A   1      35.090  30.407  28.594  1.00  0.00     0.040 A 
ATOM    101  C   UNL A   1      35.721  32.630  27.916  1.00  0.00     0.040 A 
ATOM    102  F   UNL A   1      37.814  33.496  28.526  1.00  0.00    -0.206 F 
ATOM    103  C   UNL A   1      34.791  31.593  27.925  1.00  0.00     0.006 A 
ENDBRANCH  79  96
ENDBRANCH  53  54
ENDBRANCH  46  48
ENDBRANCH  45  46
ENDBRANCH  44  45
ENDBRANCH  43  44
ENDBRANCH  42  43
ENDBRANCH  41  42
ENDBRANCH  40  41
ENDBRANCH  39  40
ENDBRANCH  38  39
ENDBRANCH  37  38
ENDBRANCH   1  37
TORSDOF 31
ENDMDL
MODEL 3
REMARK VINA RESULT:      -6.7      9.195     16.856
REMARK SMILES CC(C)C[C@H](NC(=O)CNC(=O)[C@@H](NC(=O)OCc1ccccc1)C(C)C)C(=O)OCCOCCOCCOCCOC(=O)c1ccc(-c2c3nc(c(-c4c(F)cccc4F)c4ccc([nH]4)c(-c4c(F)cccc4F)c4nc(c(-c5c(F)cccc5F)c5ccc2[nH]5)C=C4)C=C3)cc1
REMARK SMILES IDX 33 1 32 2 31 3 30 4 28 5 29 6 5 7 4 8 2 9 1 10 3 11 6 12
REMARK SMILES IDX 7 13 8 15 9 16 10 17 11 18 12 20 13 21 14 22 15 23 16 25
REMARK SMILES IDX 17 26 18 27 19 28 20 29 24 30 21 31 23 32 22 33 25 34 26 35
REMARK SMILES IDX 27 36 34 37 35 38 36 39 37 40 38 41 39 42 40 43 41 44 42 45
REMARK SMILES IDX 43 46 44 47 45 48 46 49 98 50 47 51 97 52 48 53 49 54 50 55
REMARK SMILES IDX 91 56 51 57 96 58 90 59 92 60 52 61 95 62 89 63 88 64 53 66
REMARK SMILES IDX 79 67 62 68 78 69 63 70 66 71 77 72 93 73 64 74 65 75 76 77
REMARK SMILES IDX 94 78 67 79 54 80 55 81 60 82 56 83 57 84 59 85 61 86 58 87
REMARK SMILES IDX 80 88 81 89 86 90 82 91 83 92 85 93 87 94 84 95 68 96 69 97
REMARK SMILES IDX 74 98 70 99 71 100 73 101 75 102 72 103
REMARK H PARENT 6 14 10 19 14 24 92 65 66 76
REMARK Flexibility Score: inf
ROOT
ATOM      1  O   UNL A   1      45.978  20.824  41.371  1.00  0.00    -0.376 OA
ENDROOT
BRANCH   1   2
ATOM      2  C   UNL A   1      45.497  20.123  42.508  1.00  0.00     0.202 C 
BRANCH   2   3
ATOM      3  C   UNL A   1      44.023  19.809  42.778  1.00  0.00     0.261 C 
BRANCH   3   4
ATOM      4  O   UNL A   1      43.549  18.643  42.106  1.00  0.00    -0.462 OA
BRANCH   4   5
ATOM      5  C   UNL A   1      43.643  17.522  42.858  1.00  0.00     0.328 C 
ATOM      6  O   UNL A   1      43.994  17.512  44.036  1.00  0.00    -0.250 OA
BRANCH   5   7
ATOM      7  C   UNL A   1      43.353  16.227  42.086  1.00  0.00     0.192 C 
BRANCH   7   8
ATOM      8  C   UNL A   1      43.803  15.120  43.022  1.00  0.00     0.040 C 
BRANCH   8   9
ATOM      9  C   UNL A   1      42.515  14.462  43.417  1.00  0.00    -0.015 C 
ATOM     10  C   UNL A   1      41.691  13.975  42.156  1.00  0.00     0.007 C 
ATOM     11  C   UNL A   1      42.633  14.232  44.974  1.00  0.00     0.007 C 
ENDBRANCH   8   9
ENDBRANCH   7   8
BRANCH   7  12
ATOM     12  N   UNL A   1      43.773  16.061  40.633  1.00  0.00    -0.341 N 
ATOM     13  C   UNL A   1      44.668  16.501  39.698  1.00  0.00     0.240 C 
ATOM     14  H   UNL A   1      43.185  15.392  40.213  1.00  0.00     0.164 HD
ATOM     15  O   UNL A   1      44.572  15.859  38.630  1.00  0.00    -0.273 OA
BRANCH  13  16
ATOM     16  C   UNL A   1      45.802  17.724  39.674  1.00  0.00     0.216 C 
BRANCH  16  17
ATOM     17  N   UNL A   1      46.496  18.836  38.779  1.00  0.00    -0.345 N 
ATOM     18  C   UNL A   1      47.641  19.330  38.182  1.00  0.00     0.243 C 
ATOM     19  H   UNL A   1      45.778  19.466  38.538  1.00  0.00     0.164 HD
ATOM     20  O   UNL A   1      47.328  19.661  37.012  1.00  0.00    -0.273 OA
BRANCH  18  21
ATOM     21  C   UNL A   1      49.292  19.785  38.618  1.00  0.00     0.177 C 
BRANCH  21  22
ATOM     22  N   UNL A   1      50.177  20.971  38.248  1.00  0.00    -0.309 N 
ATOM     23  C   UNL A   1      50.529  21.636  37.109  1.00  0.00     0.408 C 
ATOM     24  H   UNL A   1      50.610  21.361  39.042  1.00  0.00     0.167 HD
ATOM     25  O   UNL A   1      51.574  22.284  37.102  1.00  0.00    -0.225 OA
BRANCH  23  26
ATOM     26  O   UNL A   1      49.722  21.444  36.038  1.00  0.00    -0.445 OA
BRANCH  26  27
ATOM     27  C   UNL A   1      50.028  20.305  35.209  1.00  0.00     0.270 C 
BRANCH  27  28
ATOM     28  C   UNL A   1      51.259  20.442  34.347  1.00  0.00    -0.011 A 
ATOM     29  C   UNL A   1      52.307  19.516  34.400  1.00  0.00     0.007 A 
ATOM     30  C   UNL A   1      51.314  21.454  33.376  1.00  0.00     0.007 A 
ATOM     31  C   UNL A   1      53.378  19.586  33.514  1.00  0.00     0.000 A 
ATOM     32  C   UNL A   1      52.397  21.535  32.497  1.00  0.00     0.000 A 
ATOM     33  C   UNL A   1      53.424  20.597  32.563  1.00  0.00     0.000 A 
ENDBRANCH  27  28
ENDBRANCH  26  27
ENDBRANCH  23  26
ENDBRANCH  21  22
BRANCH  21  34
ATOM     34  C   UNL A   1      49.829  19.166  39.948  1.00  0.00     0.015 C 
ATOM     35  C   UNL A   1      51.029  18.245  39.720  1.00  0.00     0.010 C 
ATOM     36  C   UNL A   1      50.335  20.246  40.942  1.00  0.00     0.010 C 
ENDBRANCH  21  34
ENDBRANCH  18  21
ENDBRANCH  16  17
ENDBRANCH  13  16
ENDBRANCH   7  12
ENDBRANCH   5   7
ENDBRANCH   4   5
ENDBRANCH   3   4
ENDBRANCH   2   3
ENDBRANCH   1   2
BRANCH   1  37
ATOM     37  C   UNL A   1      45.259  21.772  40.600  1.00  0.00     0.188 C 
BRANCH  37  38
ATOM     38  C   UNL A   1      45.829  22.450  39.346  1.00  0.00     0.188 C 
BRANCH  38  39
ATOM     39  O   UNL A   1      45.566  23.825  39.199  1.00  0.00    -0.377 OA
BRANCH  39  40
ATOM     40  C   UNL A   1      46.515  24.756  39.703  1.00  0.00     0.188 C 
BRANCH  40  41
ATOM     41  C   UNL A   1      47.944  24.761  39.124  1.00  0.00     0.188 C 
BRANCH  41  42
ATOM     42  O   UNL A   1      48.979  24.892  40.084  1.00  0.00    -0.376 OA
BRANCH  42  43
ATOM     43  C   UNL A   1      50.334  24.809  39.669  1.00  0.00     0.202 C 
BRANCH  43  44
ATOM     44  C   UNL A   1      51.401  25.590  40.455  1.00  0.00     0.261 C 
BRANCH  44  45
ATOM     45  O   UNL A   1      51.208  27.011  40.583  1.00  0.00    -0.460 OA
BRANCH  45  46
ATOM     46  C   UNL A   1      51.493  27.815  39.547  1.00  0.00     0.338 C 
ATOM     47  O   UNL A   1      52.567  27.923  38.959  1.00  0.00    -0.246 OA
BRANCH  46  48
ATOM     48  C   UNL A   1      50.228  28.405  39.074  1.00  0.00     0.060 A 
ATOM     49  C   UNL A   1      49.104  28.380  39.912  1.00  0.00     0.016 A 
ATOM     50  C   UNL A   1      50.155  28.997  37.811  1.00  0.00     0.016 A 
ATOM     51  C   UNL A   1      47.898  28.931  39.484  1.00  0.00     0.010 A 
ATOM     52  C   UNL A   1      48.935  29.513  37.367  1.00  0.00     0.010 A 
ATOM     53  C   UNL A   1      47.797  29.459  38.192  1.00  0.00    -0.014 A 
BRANCH  53  54
ATOM     54  C   UNL A   1      46.466  29.777  37.629  1.00  0.00     0.031 A 
ATOM     55  C   UNL A   1      45.760  28.714  36.834  1.00  0.00     0.074 A 
ATOM     56  C   UNL A   1      45.895  30.979  37.817  1.00  0.00     0.049 A 
ATOM     57  N   UNL A   1      44.643  28.787  36.160  1.00  0.00    -0.248 NA
ATOM     58  C   UNL A   1      46.403  27.390  36.793  1.00  0.00     0.031 C 
ATOM     59  C   UNL A   1      46.455  32.069  38.614  1.00  0.00     0.029 A 
ATOM     60  N   UNL A   1      44.717  31.489  37.328  1.00  0.00    -0.354 N 
ATOM     61  C   UNL A   1      44.456  27.526  35.607  1.00  0.00     0.074 A 
ATOM     62  C   UNL A   1      45.579  26.710  36.012  1.00  0.00     0.031 C 
ATOM     63  C   UNL A   1      45.634  33.131  38.534  1.00  0.00     0.029 A 
ATOM     64  C   UNL A   1      44.515  32.809  37.650  1.00  0.00     0.049 A 
ATOM     65  H   UNL A   1      44.080  30.958  36.798  1.00  0.00     0.167 HD
ATOM     66  C   UNL A   1      43.438  27.091  34.829  1.00  0.00     0.037 A 
ATOM     67  C   UNL A   1      43.559  33.665  37.239  1.00  0.00     0.037 A 
ATOM     68  C   UNL A   1      42.322  27.905  34.429  1.00  0.00     0.049 A 
ATOM     69  C   UNL A   1      42.487  33.177  36.297  1.00  0.00     0.074 A 
ATOM     70  C   UNL A   1      41.224  27.544  33.668  1.00  0.00     0.029 A 
ATOM     71  N   UNL A   1      42.170  29.245  34.746  1.00  0.00    -0.354 N 
ATOM     72  N   UNL A   1      42.297  31.975  35.807  1.00  0.00    -0.248 NA
ATOM     73  C   UNL A   1      41.497  34.168  35.844  1.00  0.00     0.031 C 
ATOM     74  C   UNL A   1      40.438  28.683  33.474  1.00  0.00     0.029 A 
ATOM     75  C   UNL A   1      41.016  29.738  34.162  1.00  0.00     0.049 A 
ATOM     76  H   UNL A   1      42.790  29.769  35.303  1.00  0.00     0.167 HD
ATOM     77  C   UNL A   1      41.159  32.062  35.011  1.00  0.00     0.074 A 
ATOM     78  C   UNL A   1      40.689  33.426  35.101  1.00  0.00     0.031 C 
ATOM     79  C   UNL A   1      40.559  31.099  34.268  1.00  0.00     0.037 A 
BRANCH  66  80
ATOM     80  C   UNL A   1      43.494  25.679  34.330  1.00  0.00     0.057 A 
ATOM     81  C   UNL A   1      44.193  25.330  33.169  1.00  0.00     0.134 A 
ATOM     82  C   UNL A   1      42.893  24.646  35.061  1.00  0.00     0.134 A 
ATOM     83  F   UNL A   1      44.775  26.274  32.415  1.00  0.00    -0.206 F 
ATOM     84  C   UNL A   1      44.290  24.001  32.749  1.00  0.00     0.040 A 
ATOM     85  C   UNL A   1      43.002  23.312  34.664  1.00  0.00     0.040 A 
ATOM     86  F   UNL A   1      42.207  24.915  36.182  1.00  0.00    -0.206 F 
ATOM     87  C   UNL A   1      43.702  22.988  33.505  1.00  0.00     0.006 A 
ENDBRANCH  66  80
BRANCH  67  88
ATOM     88  C   UNL A   1      43.589  35.089  37.663  1.00  0.00     0.057 A 
ATOM     89  C   UNL A   1      42.952  35.514  38.836  1.00  0.00     0.134 A 
ATOM     90  C   UNL A   1      44.199  36.071  36.872  1.00  0.00     0.134 A 
ATOM     91  F   UNL A   1      42.326  34.627  39.622  1.00  0.00    -0.206 F 
ATOM     92  C   UNL A   1      42.897  36.863  39.191  1.00  0.00     0.040 A 
ATOM     93  C   UNL A   1      44.178  37.419  37.230  1.00  0.00     0.040 A 
ATOM     94  F   UNL A   1      44.824  35.733  35.735  1.00  0.00    -0.206 F 
ATOM     95  C   UNL A   1      43.514  37.821  38.388  1.00  0.00     0.006 A 
ENDBRANCH  67  88
BRANCH  79  96
ATOM     96  C   UNL A   1      39.316  31.480  33.515  1.00  0.00     0.057 A 
ATOM     97  C   UNL A   1      38.048  31.425  34.106  1.00  0.00     0.134 A 
ATOM     98  C   UNL A   1      39.396  31.955  32.199  1.00  0.00     0.134 A 
ATOM     99  F   UNL A   1      37.901  30.970  35.359  1.00  0.00    -0.206 F 
ATOM    100  C   UNL A   1      36.901  31.806  33.408  1.00  0.00     0.040 A 
ATOM    101  C   UNL A   1      38.261  32.366  31.500  1.00  0.00     0.040 A 
ATOM    102  F   UNL A   1      40.582  32.044  31.577  1.00  0.00    -0.206 F 
ATOM    103  C   UNL A   1      37.007  32.286  32.103  1.00  0.00     0.006 A 
ENDBRANCH  79  96
ENDBRANCH  53  54
ENDBRANCH  46  48
ENDBRANCH  45  46
ENDBRANCH  44  45
ENDBRANCH  43  44
ENDBRANCH  42  43
ENDBRANCH  41  42
ENDBRANCH  40  41
ENDBRANCH  39  40
ENDBRANCH  38  39
ENDBRANCH  37  38
ENDBRANCH   1  37
TORSDOF 31
ENDMDL
