MODEL 1
REMARK VINA RESULT:     -11.1      0.000      0.000
REMARK SMILES O=C(OCCOCCOCCOCCOC(=O)[C@H]1Cc2ccc(Cl)cc2C[N@@H+]1Cc1ccc(Cl)cc1)c1ccc(-c2c3nc(c(-c4c(F)cccc4F)c4ccc([nH]4)c(-c4c(F)cccc4F)c4nc(c(-c5c(F)cccc5F)c5ccc2[nH]5)C=C4)C=C3)cc1
REMARK SMILES IDX 9 1 8 2 7 3 6 4 5 5 4 6 3 7 2 8 1 9 37 10 38 11 90 12 39 13
REMARK SMILES IDX 89 14 40 15 41 16 42 17 83 18 43 19 88 20 82 21 84 22 44 23
REMARK SMILES IDX 87 24 81 25 80 26 45 28 71 29 54 30 70 31 55 32 58 33 69 34
REMARK SMILES IDX 85 35 56 36 57 37 68 39 86 40 59 41 46 42 47 43 52 44 48 45
REMARK SMILES IDX 49 46 51 47 53 48 50 49 72 50 73 51 78 52 74 53 75 54 77 55
REMARK SMILES IDX 79 56 76 57 60 58 61 59 66 60 62 61 63 62 65 63 67 64 64 65
REMARK SMILES IDX 10 66 11 67 12 68 13 69 14 70 15 71 16 72 17 73 18 74 19 75
REMARK SMILES IDX 28 76 20 77 27 78 21 80 26 81 22 82 25 83 23 84 24 85 29 86
REMARK SMILES IDX 30 87 31 88 36 89 32 90 35 91 33 92 34 93
REMARK H PARENT 84 27 58 38 28 79
REMARK Flexibility Score: inf
ROOT
ATOM      1  O   UNL A   1      40.480  19.581  25.750  1.00  0.00    -0.377 OA
ENDROOT
BRANCH   1   2
ATOM      2  C   UNL A   1      41.399  20.315  26.546  1.00  0.00     0.188 C 
BRANCH   2   3
ATOM      3  C   UNL A   1      42.866  20.065  26.252  1.00  0.00     0.188 C 
BRANCH   3   4
ATOM      4  O   UNL A   1      43.228  20.596  24.986  1.00  0.00    -0.376 OA
BRANCH   4   5
ATOM      5  C   UNL A   1      44.372  21.454  24.993  1.00  0.00     0.202 C 
BRANCH   5   6
ATOM      6  C   UNL A   1      44.265  22.596  23.985  1.00  0.00     0.261 C 
BRANCH   6   7
ATOM      7  O   UNL A   1      43.604  23.712  24.597  1.00  0.00    -0.460 OA
BRANCH   7   8
ATOM      8  C   UNL A   1      44.435  24.685  25.046  1.00  0.00     0.338 C 
ATOM      9  O   UNL A   1      45.621  24.814  24.764  1.00  0.00    -0.246 OA
BRANCH   8  10
ATOM     10  C   UNL A   1      43.717  25.493  26.056  1.00  0.00     0.060 A 
ATOM     11  C   UNL A   1      42.722  24.931  26.861  1.00  0.00     0.016 A 
ATOM     12  C   UNL A   1      43.995  26.865  26.141  1.00  0.00     0.016 A 
ATOM     13  C   UNL A   1      42.080  25.731  27.810  1.00  0.00     0.010 A 
ATOM     14  C   UNL A   1      43.309  27.675  27.013  1.00  0.00     0.010 A 
ATOM     15  C   UNL A   1      42.400  27.097  27.897  1.00  0.00    -0.014 A 
BRANCH  15  16
ATOM     16  C   UNL A   1      42.079  27.931  29.062  1.00  0.00     0.031 A 
ATOM     17  C   UNL A   1      42.684  27.651  30.395  1.00  0.00     0.074 A 
ATOM     18  C   UNL A   1      40.987  28.706  28.920  1.00  0.00     0.049 A 
ATOM     19  N   UNL A   1      42.437  28.227  31.540  1.00  0.00    -0.248 NA
ATOM     20  C   UNL A   1      43.663  26.554  30.463  1.00  0.00     0.031 C 
ATOM     21  C   UNL A   1      40.213  28.841  27.675  1.00  0.00     0.029 A 
ATOM     22  N   UNL A   1      40.282  29.443  29.826  1.00  0.00    -0.354 N 
ATOM     23  C   UNL A   1      43.258  27.594  32.462  1.00  0.00     0.074 A 
ATOM     24  C   UNL A   1      43.953  26.539  31.758  1.00  0.00     0.031 C 
ATOM     25  C   UNL A   1      39.126  29.585  27.909  1.00  0.00     0.029 A 
ATOM     26  C   UNL A   1      39.135  29.989  29.306  1.00  0.00     0.049 A 
ATOM     27  H   UNL A   1      40.569  29.571  30.760  1.00  0.00     0.167 HD
ATOM     28  C   UNL A   1      43.414  27.898  33.772  1.00  0.00     0.037 A 
ATOM     29  C   UNL A   1      38.195  30.741  29.901  1.00  0.00     0.037 A 
ATOM     30  C   UNL A   1      42.630  28.912  34.436  1.00  0.00     0.049 A 
ATOM     31  C   UNL A   1      38.408  31.102  31.337  1.00  0.00     0.074 A 
ATOM     32  C   UNL A   1      42.756  29.412  35.718  1.00  0.00     0.029 A 
ATOM     33  N   UNL A   1      41.532  29.549  33.864  1.00  0.00    -0.354 N 
ATOM     34  N   UNL A   1      39.340  30.679  32.160  1.00  0.00    -0.248 NA
ATOM     35  C   UNL A   1      37.470  32.063  31.921  1.00  0.00     0.031 C 
ATOM     36  C   UNL A   1      41.701  30.306  35.940  1.00  0.00     0.029 A 
ATOM     37  C   UNL A   1      40.944  30.404  34.781  1.00  0.00     0.049 A 
ATOM     38  H   UNL A   1      41.219  29.411  32.941  1.00  0.00     0.167 HD
ATOM     39  C   UNL A   1      39.109  31.327  33.360  1.00  0.00     0.074 A 
ATOM     40  C   UNL A   1      37.965  32.195  33.144  1.00  0.00     0.031 C 
ATOM     41  C   UNL A   1      39.776  31.217  34.536  1.00  0.00     0.037 A 
BRANCH  28  42
ATOM     42  C   UNL A   1      44.463  27.146  34.542  1.00  0.00     0.057 A 
ATOM     43  C   UNL A   1      44.171  25.941  35.192  1.00  0.00     0.134 A 
ATOM     44  C   UNL A   1      45.777  27.629  34.660  1.00  0.00     0.134 A 
ATOM     45  F   UNL A   1      42.937  25.417  35.135  1.00  0.00    -0.206 F 
ATOM     46  C   UNL A   1      45.140  25.243  35.918  1.00  0.00     0.040 A 
ATOM     47  C   UNL A   1      46.762  26.927  35.358  1.00  0.00     0.040 A 
ATOM     48  F   UNL A   1      46.134  28.779  34.066  1.00  0.00    -0.206 F 
ATOM     49  C   UNL A   1      46.444  25.730  35.994  1.00  0.00     0.006 A 
ENDBRANCH  28  42
BRANCH  29  50
ATOM     50  C   UNL A   1      37.060  31.254  29.100  1.00  0.00     0.057 A 
ATOM     51  C   UNL A   1      37.031  32.569  28.621  1.00  0.00     0.134 A 
ATOM     52  C   UNL A   1      35.928  30.462  28.881  1.00  0.00     0.134 A 
ATOM     53  F   UNL A   1      38.072  33.389  28.828  1.00  0.00    -0.206 F 
ATOM     54  C   UNL A   1      35.914  33.080  27.957  1.00  0.00     0.040 A 
ATOM     55  C   UNL A   1      34.812  30.953  28.202  1.00  0.00     0.040 A 
ATOM     56  F   UNL A   1      35.894  29.197  29.324  1.00  0.00    -0.206 F 
ATOM     57  C   UNL A   1      34.801  32.269  27.744  1.00  0.00     0.006 A 
ENDBRANCH  29  50
BRANCH  41  58
ATOM     58  C   UNL A   1      39.243  32.038  35.671  1.00  0.00     0.057 A 
ATOM     59  C   UNL A   1      38.335  31.494  36.586  1.00  0.00     0.134 A 
ATOM     60  C   UNL A   1      39.632  33.371  35.851  1.00  0.00     0.134 A 
ATOM     61  F   UNL A   1      37.921  30.223  36.464  1.00  0.00    -0.206 F 
ATOM     62  C   UNL A   1      37.830  32.250  37.643  1.00  0.00     0.040 A 
ATOM     63  C   UNL A   1      39.159  34.128  36.922  1.00  0.00     0.040 A 
ATOM     64  F   UNL A   1      40.517  33.941  35.019  1.00  0.00    -0.206 F 
ATOM     65  C   UNL A   1      38.249  33.568  37.819  1.00  0.00     0.006 A 
ENDBRANCH  41  58
ENDBRANCH  15  16
ENDBRANCH   8  10
ENDBRANCH   7   8
ENDBRANCH   6   7
ENDBRANCH   5   6
ENDBRANCH   4   5
ENDBRANCH   3   4
ENDBRANCH   2   3
ENDBRANCH   1   2
BRANCH   1  66
ATOM     66  C   UNL A   1      39.153  20.064  25.545  1.00  0.00     0.188 C 
BRANCH  66  67
ATOM     67  C   UNL A   1      38.831  21.543  25.754  1.00  0.00     0.188 C 
BRANCH  67  68
ATOM     68  O   UNL A   1      37.791  22.035  24.951  1.00  0.00    -0.376 OA
BRANCH  68  69
ATOM     69  C   UNL A   1      36.457  22.075  25.431  1.00  0.00     0.202 C 
BRANCH  69  70
ATOM     70  C   UNL A   1      35.621  23.321  25.834  1.00  0.00     0.261 C 
BRANCH  70  71
ATOM     71  O   UNL A   1      35.453  24.452  24.954  1.00  0.00    -0.459 OA
BRANCH  71  72
ATOM     72  C   UNL A   1      34.561  24.243  23.949  1.00  0.00     0.365 C 
ATOM     73  O   UNL A   1      34.852  23.532  22.990  1.00  0.00    -0.245 OA
BRANCH  72  74
ATOM     74  C   UNL A   1      33.154  24.892  24.075  1.00  0.00     0.300 C 
ATOM     75  C   UNL A   1      32.862  25.944  22.982  1.00  0.00     0.113 C 
ATOM     76  N   UNL A   1      32.045  23.900  24.183  1.00  0.00    -0.315 N 
ATOM     77  C   UNL A   1      31.489  26.552  23.052  1.00  0.00    -0.033 A 
ATOM     78  C   UNL A   1      30.755  24.577  24.443  1.00  0.00     0.300 C 
ATOM     79  H   UNL A   1      32.016  23.440  23.273  1.00  0.00     0.349 HD
ATOM     80  C   UNL A   1      31.249  27.834  22.527  1.00  0.00     0.006 A 
ATOM     81  C   UNL A   1      30.463  25.844  23.674  1.00  0.00     0.011 A 
ATOM     82  C   UNL A   1      29.989  28.419  22.638  1.00  0.00     0.021 A 
ATOM     83  C   UNL A   1      29.188  26.431  23.758  1.00  0.00     0.030 A 
ATOM     84  C   UNL A   1      28.959  27.708  23.245  1.00  0.00     0.041 A 
ATOM     85  Cl  UNL A   1      27.405  28.430  23.407  1.00  0.00    -0.084 Cl
BRANCH  76  86
ATOM     86  C   UNL A   1      32.271  22.802  25.168  1.00  0.00     0.300 C 
BRANCH  86  87
ATOM     87  C   UNL A   1      32.588  21.407  24.633  1.00  0.00     0.006 A 
ATOM     88  C   UNL A   1      32.279  21.019  23.323  1.00  0.00     0.011 A 
ATOM     89  C   UNL A   1      33.198  20.447  25.458  1.00  0.00     0.011 A 
ATOM     90  C   UNL A   1      32.384  19.684  22.920  1.00  0.00     0.021 A 
ATOM     91  C   UNL A   1      33.301  19.109  25.068  1.00  0.00     0.021 A 
ATOM     92  C   UNL A   1      32.861  18.727  23.809  1.00  0.00     0.041 A 
ATOM     93  Cl  UNL A   1      32.914  17.073  23.344  1.00  0.00    -0.084 Cl
ENDBRANCH  86  87
ENDBRANCH  76  86
ENDBRANCH  72  74
ENDBRANCH  71  72
ENDBRANCH  70  71
ENDBRANCH  69  70
ENDBRANCH  68  69
ENDBRANCH  67  68
ENDBRANCH  66  67
ENDBRANCH   1  66
TORSDOF 22
ENDMDL
MODEL 2
REMARK VINA RESULT:     -11.1      3.381      8.307
REMARK SMILES O=C(OCCOCCOCCOCCOC(=O)[C@H]1Cc2ccc(Cl)cc2C[N@@H+]1Cc1ccc(Cl)cc1)c1ccc(-c2c3nc(c(-c4c(F)cccc4F)c4ccc([nH]4)c(-c4c(F)cccc4F)c4nc(c(-c5c(F)cccc5F)c5ccc2[nH]5)C=C4)C=C3)cc1
REMARK SMILES IDX 9 1 8 2 7 3 6 4 5 5 4 6 3 7 2 8 1 9 37 10 38 11 90 12 39 13
REMARK SMILES IDX 89 14 40 15 41 16 42 17 83 18 43 19 88 20 82 21 84 22 44 23
REMARK SMILES IDX 87 24 81 25 80 26 45 28 71 29 54 30 70 31 55 32 58 33 69 34
REMARK SMILES IDX 85 35 56 36 57 37 68 39 86 40 59 41 46 42 47 43 52 44 48 45
REMARK SMILES IDX 49 46 51 47 53 48 50 49 72 50 73 51 78 52 74 53 75 54 77 55
REMARK SMILES IDX 79 56 76 57 60 58 61 59 66 60 62 61 63 62 65 63 67 64 64 65
REMARK SMILES IDX 10 66 11 67 12 68 13 69 14 70 15 71 16 72 17 73 18 74 19 75
REMARK SMILES IDX 28 76 20 77 27 78 21 80 26 81 22 82 25 83 23 84 24 85 29 86
REMARK SMILES IDX 30 87 31 88 36 89 32 90 35 91 33 92 34 93
REMARK H PARENT 84 27 58 38 28 79
REMARK Flexibility Score: inf
ROOT
ATOM      1  O   UNL A   1      33.658  27.971  24.206  1.00  0.00    -0.377 OA
ENDROOT
BRANCH   1   2
ATOM      2  C   UNL A   1      32.906  29.174  24.296  1.00  0.00     0.188 C 
BRANCH   2   3
ATOM      3  C   UNL A   1      32.582  29.640  25.702  1.00  0.00     0.188 C 
BRANCH   3   4
ATOM      4  O   UNL A   1      31.679  30.735  25.679  1.00  0.00    -0.376 OA
BRANCH   4   5
ATOM      5  C   UNL A   1      31.582  31.467  26.904  1.00  0.00     0.202 C 
BRANCH   5   6
ATOM      6  C   UNL A   1      31.694  32.977  26.706  1.00  0.00     0.261 C 
BRANCH   6   7
ATOM      7  O   UNL A   1      33.066  33.374  26.838  1.00  0.00    -0.460 OA
BRANCH   7   8
ATOM      8  C   UNL A   1      33.412  33.806  28.075  1.00  0.00     0.338 C 
ATOM      9  O   UNL A   1      32.902  34.736  28.691  1.00  0.00    -0.246 OA
BRANCH   8  10
ATOM     10  C   UNL A   1      34.614  33.064  28.517  1.00  0.00     0.060 A 
ATOM     11  C   UNL A   1      35.891  33.622  28.408  1.00  0.00     0.016 A 
ATOM     12  C   UNL A   1      34.461  31.748  28.977  1.00  0.00     0.016 A 
ATOM     13  C   UNL A   1      36.996  32.888  28.851  1.00  0.00     0.010 A 
ATOM     14  C   UNL A   1      35.549  30.991  29.335  1.00  0.00     0.010 A 
ATOM     15  C   UNL A   1      36.811  31.583  29.338  1.00  0.00    -0.014 A 
BRANCH  15  16
ATOM     16  C   UNL A   1      37.807  30.875  30.152  1.00  0.00     0.031 A 
ATOM     17  C   UNL A   1      38.120  31.321  31.539  1.00  0.00     0.074 A 
ATOM     18  C   UNL A   1      38.623  30.054  29.462  1.00  0.00     0.049 A 
ATOM     19  N   UNL A   1      39.034  30.869  32.354  1.00  0.00    -0.248 NA
ATOM     20  C   UNL A   1      37.336  32.449  32.067  1.00  0.00     0.031 C 
ATOM     21  C   UNL A   1      38.491  29.757  28.028  1.00  0.00     0.029 A 
ATOM     22  N   UNL A   1      39.763  29.402  29.830  1.00  0.00    -0.354 N 
ATOM     23  C   UNL A   1      38.912  31.627  33.510  1.00  0.00     0.074 A 
ATOM     24  C   UNL A   1      37.888  32.618  33.262  1.00  0.00     0.031 C 
ATOM     25  C   UNL A   1      39.529  29.009  27.634  1.00  0.00     0.029 A 
ATOM     26  C   UNL A   1      40.384  28.765  28.784  1.00  0.00     0.049 A 
ATOM     27  H   UNL A   1      40.106  29.388  30.753  1.00  0.00     0.167 HD
ATOM     28  C   UNL A   1      39.594  31.476  34.670  1.00  0.00     0.037 A 
ATOM     29  C   UNL A   1      41.523  28.054  28.765  1.00  0.00     0.037 A 
ATOM     30  C   UNL A   1      40.663  30.519  34.828  1.00  0.00     0.049 A 
ATOM     31  C   UNL A   1      42.238  27.864  30.065  1.00  0.00     0.074 A 
ATOM     32  C   UNL A   1      41.359  30.170  35.970  1.00  0.00     0.029 A 
ATOM     33  N   UNL A   1      41.216  29.788  33.782  1.00  0.00    -0.354 N 
ATOM     34  N   UNL A   1      41.976  28.405  31.233  1.00  0.00    -0.248 NA
ATOM     35  C   UNL A   1      43.379  26.945  30.061  1.00  0.00     0.031 C 
ATOM     36  C   UNL A   1      42.371  29.274  35.602  1.00  0.00     0.029 A 
ATOM     37  C   UNL A   1      42.275  29.023  34.241  1.00  0.00     0.049 A 
ATOM     38  H   UNL A   1      40.901  29.812  32.849  1.00  0.00     0.167 HD
ATOM     39  C   UNL A   1      42.914  27.889  32.109  1.00  0.00     0.074 A 
ATOM     40  C   UNL A   1      43.730  26.966  31.340  1.00  0.00     0.031 C 
ATOM     41  C   UNL A   1      43.091  28.151  33.428  1.00  0.00     0.037 A 
BRANCH  28  42
ATOM     42  C   UNL A   1      39.193  32.343  35.831  1.00  0.00     0.057 A 
ATOM     43  C   UNL A   1      38.255  31.911  36.777  1.00  0.00     0.134 A 
ATOM     44  C   UNL A   1      39.724  33.631  36.006  1.00  0.00     0.134 A 
ATOM     45  F   UNL A   1      37.693  30.697  36.676  1.00  0.00    -0.206 F 
ATOM     46  C   UNL A   1      37.870  32.717  37.852  1.00  0.00     0.040 A 
ATOM     47  C   UNL A   1      39.370  34.436  37.091  1.00  0.00     0.040 A 
ATOM     48  F   UNL A   1      40.628  34.117  35.140  1.00  0.00    -0.206 F 
ATOM     49  C   UNL A   1      38.436  33.979  38.018  1.00  0.00     0.006 A 
ENDBRANCH  28  42
BRANCH  29  50
ATOM     50  C   UNL A   1      41.964  27.420  27.502  1.00  0.00     0.057 A 
ATOM     51  C   UNL A   1      42.597  28.153  26.491  1.00  0.00     0.134 A 
ATOM     52  C   UNL A   1      41.669  26.078  27.238  1.00  0.00     0.134 A 
ATOM     53  F   UNL A   1      42.875  29.454  26.670  1.00  0.00    -0.206 F 
ATOM     54  C   UNL A   1      42.916  27.576  25.261  1.00  0.00     0.040 A 
ATOM     55  C   UNL A   1      42.000  25.482  26.020  1.00  0.00     0.040 A 
ATOM     56  F   UNL A   1      41.057  25.328  28.165  1.00  0.00    -0.206 F 
ATOM     57  C   UNL A   1      42.620  26.234  25.024  1.00  0.00     0.006 A 
ENDBRANCH  29  50
BRANCH  41  58
ATOM     58  C   UNL A   1      44.236  27.446  34.089  1.00  0.00     0.057 A 
ATOM     59  C   UNL A   1      44.068  26.176  34.651  1.00  0.00     0.134 A 
ATOM     60  C   UNL A   1      45.506  28.032  34.167  1.00  0.00     0.134 A 
ATOM     61  F   UNL A   1      42.875  25.563  34.611  1.00  0.00    -0.206 F 
ATOM     62  C   UNL A   1      45.127  25.511  35.270  1.00  0.00     0.040 A 
ATOM     63  C   UNL A   1      46.579  27.365  34.756  1.00  0.00     0.040 A 
ATOM     64  F   UNL A   1      45.733  29.239  33.627  1.00  0.00    -0.206 F 
ATOM     65  C   UNL A   1      46.388  26.102  35.316  1.00  0.00     0.006 A 
ENDBRANCH  41  58
ENDBRANCH  15  16
ENDBRANCH   8  10
ENDBRANCH   7   8
ENDBRANCH   6   7
ENDBRANCH   5   6
ENDBRANCH   4   5
ENDBRANCH   3   4
ENDBRANCH   2   3
ENDBRANCH   1   2
BRANCH   1  66
ATOM     66  C   UNL A   1      32.997  26.711  24.113  1.00  0.00     0.188 C 
BRANCH  66  67
ATOM     67  C   UNL A   1      31.533  26.637  23.685  1.00  0.00     0.188 C 
BRANCH  67  68
ATOM     68  O   UNL A   1      30.621  26.475  24.739  1.00  0.00    -0.376 OA
BRANCH  68  69
ATOM     69  C   UNL A   1      30.806  25.459  25.712  1.00  0.00     0.202 C 
BRANCH  69  70
ATOM     70  C   UNL A   1      30.909  23.926  25.488  1.00  0.00     0.261 C 
BRANCH  70  71
ATOM     71  O   UNL A   1      32.141  23.201  25.682  1.00  0.00    -0.459 OA
BRANCH  71  72
ATOM     72  C   UNL A   1      32.863  23.021  24.544  1.00  0.00     0.365 C 
ATOM     73  O   UNL A   1      32.355  23.216  23.442  1.00  0.00    -0.245 OA
BRANCH  72  74
ATOM     74  C   UNL A   1      34.355  22.607  24.683  1.00  0.00     0.300 C 
ATOM     75  C   UNL A   1      35.157  23.511  25.646  1.00  0.00     0.113 C 
ATOM     76  N   UNL A   1      34.548  21.164  25.008  1.00  0.00    -0.315 N 
ATOM     77  C   UNL A   1      36.592  23.103  25.835  1.00  0.00    -0.033 A 
ATOM     78  C   UNL A   1      35.983  20.805  24.986  1.00  0.00     0.300 C 
ATOM     79  H   UNL A   1      34.181  21.057  25.954  1.00  0.00     0.349 HD
ATOM     80  C   UNL A   1      37.560  24.053  26.206  1.00  0.00     0.006 A 
ATOM     81  C   UNL A   1      36.958  21.779  25.605  1.00  0.00     0.011 A 
ATOM     82  C   UNL A   1      38.899  23.685  26.332  1.00  0.00     0.021 A 
ATOM     83  C   UNL A   1      38.306  21.412  25.760  1.00  0.00     0.030 A 
ATOM     84  C   UNL A   1      39.264  22.361  26.117  1.00  0.00     0.041 A 
ATOM     85  Cl  UNL A   1      40.918  21.900  26.248  1.00  0.00    -0.084 Cl
BRANCH  76  86
ATOM     86  C   UNL A   1      33.754  20.215  24.174  1.00  0.00     0.300 C 
BRANCH  86  87
ATOM     87  C   UNL A   1      33.665  18.758  24.624  1.00  0.00     0.006 A 
ATOM     88  C   UNL A   1      34.520  17.767  24.125  1.00  0.00     0.011 A 
ATOM     89  C   UNL A   1      32.696  18.358  25.558  1.00  0.00     0.011 A 
ATOM     90  C   UNL A   1      34.288  16.413  24.388  1.00  0.00     0.021 A 
ATOM     91  C   UNL A   1      32.450  17.007  25.822  1.00  0.00     0.021 A 
ATOM     92  C   UNL A   1      33.229  16.037  25.207  1.00  0.00     0.041 A 
ATOM     93  Cl  UNL A   1      32.892  14.372  25.466  1.00  0.00    -0.084 Cl
ENDBRANCH  86  87
ENDBRANCH  76  86
ENDBRANCH  72  74
ENDBRANCH  71  72
ENDBRANCH  70  71
ENDBRANCH  69  70
ENDBRANCH  68  69
ENDBRANCH  67  68
ENDBRANCH  66  67
ENDBRANCH   1  66
TORSDOF 22
ENDMDL
MODEL 3
REMARK VINA RESULT:     -11.0      4.160      8.649
REMARK SMILES O=C(OCCOCCOCCOCCOC(=O)[C@H]1Cc2ccc(Cl)cc2C[N@@H+]1Cc1ccc(Cl)cc1)c1ccc(-c2c3nc(c(-c4c(F)cccc4F)c4ccc([nH]4)c(-c4c(F)cccc4F)c4nc(c(-c5c(F)cccc5F)c5ccc2[nH]5)C=C4)C=C3)cc1
REMARK SMILES IDX 9 1 8 2 7 3 6 4 5 5 4 6 3 7 2 8 1 9 37 10 38 11 90 12 39 13
REMARK SMILES IDX 89 14 40 15 41 16 42 17 83 18 43 19 88 20 82 21 84 22 44 23
REMARK SMILES IDX 87 24 81 25 80 26 45 28 71 29 54 30 70 31 55 32 58 33 69 34
REMARK SMILES IDX 85 35 56 36 57 37 68 39 86 40 59 41 46 42 47 43 52 44 48 45
REMARK SMILES IDX 49 46 51 47 53 48 50 49 72 50 73 51 78 52 74 53 75 54 77 55
REMARK SMILES IDX 79 56 76 57 60 58 61 59 66 60 62 61 63 62 65 63 67 64 64 65
REMARK SMILES IDX 10 66 11 67 12 68 13 69 14 70 15 71 16 72 17 73 18 74 19 75
REMARK SMILES IDX 28 76 20 77 27 78 21 80 26 81 22 82 25 83 23 84 24 85 29 86
REMARK SMILES IDX 30 87 31 88 36 89 32 90 35 91 33 92 34 93
REMARK H PARENT 84 27 58 38 28 79
REMARK Flexibility Score: inf
ROOT
ATOM      1  O   UNL A   1      36.495  23.339  23.399  1.00  0.00    -0.377 OA
ENDROOT
BRANCH   1   2
ATOM      2  C   UNL A   1      37.027  23.642  24.681  1.00  0.00     0.188 C 
BRANCH   2   3
ATOM      3  C   UNL A   1      36.906  22.542  25.718  1.00  0.00     0.188 C 
BRANCH   3   4
ATOM      4  O   UNL A   1      38.020  21.665  25.662  1.00  0.00    -0.376 OA
BRANCH   4   5
ATOM      5  C   UNL A   1      37.779  20.419  25.001  1.00  0.00     0.202 C 
BRANCH   5   6
ATOM      6  C   UNL A   1      38.794  19.341  25.375  1.00  0.00     0.261 C 
BRANCH   6   7
ATOM      7  O   UNL A   1      39.694  19.857  26.366  1.00  0.00    -0.460 OA
BRANCH   7   8
ATOM      8  C   UNL A   1      41.006  19.644  26.102  1.00  0.00     0.338 C 
ATOM      9  O   UNL A   1      41.517  18.583  25.760  1.00  0.00    -0.246 OA
BRANCH   8  10
ATOM     10  C   UNL A   1      41.762  20.872  26.435  1.00  0.00     0.060 A 
ATOM     11  C   UNL A   1      42.395  21.625  25.441  1.00  0.00     0.016 A 
ATOM     12  C   UNL A   1      41.902  21.231  27.783  1.00  0.00     0.016 A 
ATOM     13  C   UNL A   1      43.086  22.785  25.802  1.00  0.00     0.010 A 
ATOM     14  C   UNL A   1      42.649  22.323  28.152  1.00  0.00     0.010 A 
ATOM     15  C   UNL A   1      43.185  23.140  27.158  1.00  0.00    -0.014 A 
BRANCH  15  16
ATOM     16  C   UNL A   1      43.550  24.486  27.618  1.00  0.00     0.031 A 
ATOM     17  C   UNL A   1      42.505  25.516  27.881  1.00  0.00     0.074 A 
ATOM     18  C   UNL A   1      44.847  24.808  27.453  1.00  0.00     0.049 A 
ATOM     19  N   UNL A   1      42.660  26.773  28.198  1.00  0.00    -0.248 NA
ATOM     20  C   UNL A   1      41.104  25.094  27.728  1.00  0.00     0.031 C 
ATOM     21  C   UNL A   1      45.885  23.881  26.975  1.00  0.00     0.029 A 
ATOM     22  N   UNL A   1      45.500  26.000  27.572  1.00  0.00    -0.354 N 
ATOM     23  C   UNL A   1      41.378  27.288  28.323  1.00  0.00     0.074 A 
ATOM     24  C   UNL A   1      40.458  26.227  27.973  1.00  0.00     0.031 C 
ATOM     25  C   UNL A   1      47.033  24.550  26.809  1.00  0.00     0.029 A 
ATOM     26  C   UNL A   1      46.816  25.939  27.183  1.00  0.00     0.049 A 
ATOM     27  H   UNL A   1      45.072  26.823  27.904  1.00  0.00     0.167 HD
ATOM     28  C   UNL A   1      41.025  28.534  28.717  1.00  0.00     0.037 A 
ATOM     29  C   UNL A   1      47.745  26.906  27.140  1.00  0.00     0.037 A 
ATOM     30  C   UNL A   1      41.993  29.574  28.975  1.00  0.00     0.049 A 
ATOM     31  C   UNL A   1      47.348  28.266  27.619  1.00  0.00     0.074 A 
ATOM     32  C   UNL A   1      41.796  30.840  29.493  1.00  0.00     0.029 A 
ATOM     33  N   UNL A   1      43.350  29.466  28.684  1.00  0.00    -0.354 N 
ATOM     34  N   UNL A   1      46.158  28.696  27.971  1.00  0.00    -0.248 NA
ATOM     35  C   UNL A   1      48.414  29.263  27.731  1.00  0.00     0.031 C 
ATOM     36  C   UNL A   1      43.022  31.517  29.459  1.00  0.00     0.029 A 
ATOM     37  C   UNL A   1      43.996  30.658  28.969  1.00  0.00     0.049 A 
ATOM     38  H   UNL A   1      43.787  28.660  28.327  1.00  0.00     0.167 HD
ATOM     39  C   UNL A   1      46.329  30.014  28.354  1.00  0.00     0.074 A 
ATOM     40  C   UNL A   1      47.747  30.300  28.220  1.00  0.00     0.031 C 
ATOM     41  C   UNL A   1      45.403  30.912  28.776  1.00  0.00     0.037 A 
BRANCH  28  42
ATOM     42  C   UNL A   1      39.561  28.819  28.900  1.00  0.00     0.057 A 
ATOM     43  C   UNL A   1      38.760  29.251  27.835  1.00  0.00     0.134 A 
ATOM     44  C   UNL A   1      38.936  28.684  30.151  1.00  0.00     0.134 A 
ATOM     45  F   UNL A   1      39.284  29.414  26.611  1.00  0.00    -0.206 F 
ATOM     46  C   UNL A   1      37.400  29.527  28.003  1.00  0.00     0.040 A 
ATOM     47  C   UNL A   1      37.572  28.929  30.326  1.00  0.00     0.040 A 
ATOM     48  F   UNL A   1      39.637  28.275  31.221  1.00  0.00    -0.206 F 
ATOM     49  C   UNL A   1      36.799  29.356  29.248  1.00  0.00     0.006 A 
ENDBRANCH  28  42
BRANCH  29  50
ATOM     50  C   UNL A   1      49.125  26.571  26.720  1.00  0.00     0.057 A 
ATOM     51  C   UNL A   1      49.555  26.743  25.399  1.00  0.00     0.134 A 
ATOM     52  C   UNL A   1      50.018  25.974  27.616  1.00  0.00     0.134 A 
ATOM     53  F   UNL A   1      48.734  27.278  24.482  1.00  0.00    -0.206 F 
ATOM     54  C   UNL A   1      50.822  26.329  24.983  1.00  0.00     0.040 A 
ATOM     55  C   UNL A   1      51.294  25.573  27.220  1.00  0.00     0.040 A 
ATOM     56  F   UNL A   1      49.659  25.776  28.893  1.00  0.00    -0.206 F 
ATOM     57  C   UNL A   1      51.697  25.744  25.897  1.00  0.00     0.006 A 
ENDBRANCH  29  50
BRANCH  41  58
ATOM     58  C   UNL A   1      45.916  32.287  29.083  1.00  0.00     0.057 A 
ATOM     59  C   UNL A   1      46.395  32.606  30.358  1.00  0.00     0.134 A 
ATOM     60  C   UNL A   1      45.932  33.293  28.109  1.00  0.00     0.134 A 
ATOM     61  F   UNL A   1      46.403  31.686  31.335  1.00  0.00    -0.206 F 
ATOM     62  C   UNL A   1      46.871  33.882  30.655  1.00  0.00     0.040 A 
ATOM     63  C   UNL A   1      46.435  34.563  28.385  1.00  0.00     0.040 A 
ATOM     64  F   UNL A   1      45.506  33.040  26.862  1.00  0.00    -0.206 F 
ATOM     65  C   UNL A   1      46.901  34.862  29.665  1.00  0.00     0.006 A 
ENDBRANCH  41  58
ENDBRANCH  15  16
ENDBRANCH   8  10
ENDBRANCH   7   8
ENDBRANCH   6   7
ENDBRANCH   5   6
ENDBRANCH   4   5
ENDBRANCH   3   4
ENDBRANCH   2   3
ENDBRANCH   1   2
BRANCH   1  66
ATOM     66  C   UNL A   1      35.097  23.467  23.148  1.00  0.00     0.188 C 
BRANCH  66  67
ATOM     67  C   UNL A   1      34.413  24.828  23.268  1.00  0.00     0.188 C 
BRANCH  67  68
ATOM     68  O   UNL A   1      34.022  25.398  22.048  1.00  0.00    -0.376 OA
BRANCH  68  69
ATOM     69  C   UNL A   1      33.273  26.601  22.013  1.00  0.00     0.202 C 
BRANCH  69  70
ATOM     70  C   UNL A   1      31.742  26.782  22.205  1.00  0.00     0.261 C 
BRANCH  70  71
ATOM     71  O   UNL A   1      31.133  26.847  23.511  1.00  0.00    -0.459 OA
BRANCH  71  72
ATOM     72  C   UNL A   1      30.188  25.894  23.728  1.00  0.00     0.365 C 
ATOM     73  O   UNL A   1      28.999  26.131  23.518  1.00  0.00    -0.245 OA
BRANCH  72  74
ATOM     74  C   UNL A   1      30.659  24.491  24.204  1.00  0.00     0.300 C 
ATOM     75  C   UNL A   1      31.231  23.616  23.067  1.00  0.00     0.113 C 
ATOM     76  N   UNL A   1      31.587  24.536  25.372  1.00  0.00    -0.315 N 
ATOM     77  C   UNL A   1      31.739  22.272  23.509  1.00  0.00    -0.033 A 
ATOM     78  C   UNL A   1      31.884  23.172  25.863  1.00  0.00     0.300 C 
ATOM     79  H   UNL A   1      32.439  24.966  25.013  1.00  0.00     0.349 HD
ATOM     80  C   UNL A   1      31.779  21.193  22.607  1.00  0.00     0.006 A 
ATOM     81  C   UNL A   1      32.137  22.097  24.832  1.00  0.00     0.011 A 
ATOM     82  C   UNL A   1      32.202  19.934  23.030  1.00  0.00     0.021 A 
ATOM     83  C   UNL A   1      32.587  20.831  25.243  1.00  0.00     0.030 A 
ATOM     84  C   UNL A   1      32.615  19.761  24.347  1.00  0.00     0.041 A 
ATOM     85  Cl  UNL A   1      33.117  18.206  24.886  1.00  0.00    -0.084 Cl
BRANCH  76  86
ATOM     86  C   UNL A   1      31.150  25.417  26.494  1.00  0.00     0.300 C 
BRANCH  86  87
ATOM     87  C   UNL A   1      31.943  26.695  26.760  1.00  0.00     0.006 A 
ATOM     88  C   UNL A   1      31.365  27.824  27.355  1.00  0.00     0.011 A 
ATOM     89  C   UNL A   1      33.296  26.784  26.397  1.00  0.00     0.011 A 
ATOM     90  C   UNL A   1      32.044  29.046  27.396  1.00  0.00     0.021 A 
ATOM     91  C   UNL A   1      33.982  28.002  26.427  1.00  0.00     0.021 A 
ATOM     92  C   UNL A   1      33.339  29.137  26.898  1.00  0.00     0.041 A 
ATOM     93  Cl  UNL A   1      34.145  30.655  26.874  1.00  0.00    -0.084 Cl
ENDBRANCH  86  87
ENDBRANCH  76  86
ENDBRANCH  72  74
ENDBRANCH  71  72
ENDBRANCH  70  71
ENDBRANCH  69  70
ENDBRANCH  68  69
ENDBRANCH  67  68
ENDBRANCH  66  67
ENDBRANCH   1  66
TORSDOF 22
ENDMDL
