MODEL 1
REMARK VINA RESULT:      -9.0      0.000      0.000
REMARK SMILES O=C(Cc1cc(=O)[nH]c(=O)[nH]1)Nc1cccc(C(=O)OCCOCCOCCOCCOC(=O)c2ccc(-c3c4nc(c(-c5c(F)cccc5F)c5ccc([nH]5)c(-c5c(F)cccc5F)c5nc(c(-c6c(F)cccc6F)c6ccc3[nH]6)C=C5)C=C4)cc2)c1
REMARK SMILES IDX 25 1 24 2 23 3 22 4 21 5 20 6 18 7 19 8 17 9 13 10 14 11
REMARK SMILES IDX 89 12 15 13 16 14 12 15 1 16 2 17 3 19 4 20 5 21 11 22 6 23
REMARK SMILES IDX 9 24 7 26 8 27 10 28 26 30 27 31 28 32 29 33 30 34 31 35
REMARK SMILES IDX 32 36 33 37 34 38 35 39 36 40 88 41 37 42 87 43 38 44 39 45
REMARK SMILES IDX 40 46 81 47 41 48 86 49 80 50 82 51 42 52 85 53 79 54 78 55
REMARK SMILES IDX 43 57 69 58 52 59 68 60 53 61 56 62 67 63 83 64 54 65 55 66
REMARK SMILES IDX 66 68 84 69 57 70 44 71 45 72 50 73 46 74 47 75 49 76 51 77
REMARK SMILES IDX 48 78 70 79 71 80 76 81 72 82 73 83 75 84 77 85 74 86 58 87
REMARK SMILES IDX 59 88 64 89 60 90 61 91 63 92 65 93 62 94
REMARK H PARENT 12 18 11 25 8 29 82 56 56 67
REMARK Flexibility Score: inf
ROOT
ATOM      1  C   UNL A   1      40.013  31.362  30.336  1.00  0.00     0.188 C 
ENDROOT
BRANCH   1   2
ATOM      2  C   UNL A   1      39.834  32.054  31.706  1.00  0.00     0.188 C 
BRANCH   2   3
ATOM      3  O   UNL A   1      38.503  32.033  32.185  1.00  0.00    -0.376 OA
BRANCH   3   4
ATOM      4  C   UNL A   1      38.196  31.311  33.360  1.00  0.00     0.202 C 
BRANCH   4   5
ATOM      5  C   UNL A   1      37.993  29.793  33.277  1.00  0.00     0.261 C 
BRANCH   5   6
ATOM      6  O   UNL A   1      37.086  29.334  32.272  1.00  0.00    -0.460 OA
BRANCH   6   7
ATOM      7  C   UNL A   1      37.600  28.809  31.139  1.00  0.00     0.338 C 
ATOM      8  O   UNL A   1      38.265  27.791  31.037  1.00  0.00    -0.246 OA
BRANCH   7   9
ATOM      9  C   UNL A   1      37.008  29.565  30.010  1.00  0.00     0.062 A 
ATOM     10  C   UNL A   1      35.409  31.200  29.210  1.00  0.00     0.042 A 
ATOM     11  C   UNL A   1      35.651  30.771  27.899  1.00  0.00     0.026 A 
ATOM     12  C   UNL A   1      36.068  30.571  30.263  1.00  0.00     0.041 A 
ATOM     13  C   UNL A   1      36.596  29.772  27.642  1.00  0.00     0.003 A 
ATOM     14  C   UNL A   1      37.291  29.180  28.697  1.00  0.00     0.016 A 
BRANCH  10  15
ATOM     15  N   UNL A   1      34.499  32.258  29.409  1.00  0.00    -0.326 N 
ATOM     16  O   UNL A   1      35.869  34.093  28.944  1.00  0.00    -0.274 OA
ATOM     17  C   UNL A   1      34.792  33.610  29.277  1.00  0.00     0.230 C 
ATOM     18  H   UNL A   1      33.579  32.019  29.663  1.00  0.00     0.169 HD
BRANCH  17  19
ATOM     19  C   UNL A   1      33.595  34.513  29.536  1.00  0.00     0.154 C 
BRANCH  19  20
ATOM     20  C   UNL A   1      33.807  35.431  30.714  1.00  0.00     0.034 A 
ATOM     21  C   UNL A   1      33.220  36.629  30.857  1.00  0.00     0.093 A 
ATOM     22  N   UNL A   1      34.648  34.973  31.701  1.00  0.00    -0.311 N 
ATOM     23  C   UNL A   1      33.470  37.424  32.077  1.00  0.00     0.253 A 
ATOM     24  C   UNL A   1      34.931  35.656  32.852  1.00  0.00     0.325 A 
ATOM     25  H   UNL A   1      35.074  34.094  31.572  1.00  0.00     0.171 HD
ATOM     26  O   UNL A   1      32.925  38.506  32.248  1.00  0.00    -0.269 OA
ATOM     27  N   UNL A   1      34.319  36.866  32.988  1.00  0.00    -0.274 N 
ATOM     28  O   UNL A   1      35.680  35.193  33.704  1.00  0.00    -0.248 OA
ATOM     29  H   UNL A   1      34.504  37.379  33.808  1.00  0.00     0.175 HD
ENDBRANCH  19  20
ENDBRANCH  17  19
ENDBRANCH  10  15
ENDBRANCH   7   9
ENDBRANCH   6   7
ENDBRANCH   5   6
ENDBRANCH   4   5
ENDBRANCH   3   4
ENDBRANCH   2   3
ENDBRANCH   1   2
BRANCH   1  30
ATOM     30  O   UNL A   1      40.714  30.128  30.260  1.00  0.00    -0.377 OA
BRANCH  30  31
ATOM     31  C   UNL A   1      40.925  29.503  28.998  1.00  0.00     0.188 C 
BRANCH  31  32
ATOM     32  C   UNL A   1      41.150  27.976  28.871  1.00  0.00     0.188 C 
BRANCH  32  33
ATOM     33  O   UNL A   1      40.254  27.315  27.996  1.00  0.00    -0.376 OA
BRANCH  33  34
ATOM     34  C   UNL A   1      39.563  26.180  28.483  1.00  0.00     0.202 C 
BRANCH  34  35
ATOM     35  C   UNL A   1      39.585  24.925  27.599  1.00  0.00     0.261 C 
BRANCH  35  36
ATOM     36  O   UNL A   1      40.504  24.950  26.496  1.00  0.00    -0.460 OA
BRANCH  36  37
ATOM     37  C   UNL A   1      41.581  24.141  26.587  1.00  0.00     0.338 C 
ATOM     38  O   UNL A   1      41.592  22.922  26.563  1.00  0.00    -0.246 OA
BRANCH  37  39
ATOM     39  C   UNL A   1      42.791  24.984  26.537  1.00  0.00     0.060 A 
ATOM     40  C   UNL A   1      43.398  25.367  27.739  1.00  0.00     0.016 A 
ATOM     41  C   UNL A   1      43.309  25.411  25.312  1.00  0.00     0.016 A 
ATOM     42  C   UNL A   1      44.496  26.223  27.721  1.00  0.00     0.010 A 
ATOM     43  C   UNL A   1      44.399  26.285  25.295  1.00  0.00     0.010 A 
ATOM     44  C   UNL A   1      44.967  26.731  26.502  1.00  0.00    -0.014 A 
BRANCH  44  45
ATOM     45  C   UNL A   1      45.905  27.878  26.516  1.00  0.00     0.031 A 
ATOM     46  C   UNL A   1      47.379  27.601  26.379  1.00  0.00     0.074 A 
ATOM     47  C   UNL A   1      45.459  29.144  26.589  1.00  0.00     0.049 A 
ATOM     48  N   UNL A   1      48.384  28.436  26.348  1.00  0.00    -0.248 NA
ATOM     49  C   UNL A   1      47.771  26.185  26.261  1.00  0.00     0.031 C 
ATOM     50  C   UNL A   1      44.057  29.543  26.696  1.00  0.00     0.029 A 
ATOM     51  N   UNL A   1      46.149  30.331  26.589  1.00  0.00    -0.354 N 
ATOM     52  C   UNL A   1      49.523  27.651  26.219  1.00  0.00     0.074 A 
ATOM     53  C   UNL A   1      49.091  26.272  26.208  1.00  0.00     0.031 C 
ATOM     54  C   UNL A   1      43.990  30.884  26.758  1.00  0.00     0.029 A 
ATOM     55  C   UNL A   1      45.343  31.435  26.725  1.00  0.00     0.049 A 
ATOM     56  H   UNL A   1      47.128  30.386  26.499  1.00  0.00     0.167 HD
ATOM     57  C   UNL A   1      50.814  28.044  26.110  1.00  0.00     0.037 A 
ATOM     58  C   UNL A   1      45.667  32.738  26.828  1.00  0.00     0.037 A 
ATOM     59  C   UNL A   1      51.242  29.418  26.114  1.00  0.00     0.049 A 
ATOM     60  C   UNL A   1      47.116  33.147  26.746  1.00  0.00     0.074 A 
ATOM     61  C   UNL A   1      52.524  29.922  25.977  1.00  0.00     0.029 A 
ATOM     62  N   UNL A   1      50.399  30.508  26.270  1.00  0.00    -0.354 N 
ATOM     63  N   UNL A   1      48.182  32.400  26.585  1.00  0.00    -0.248 NA
ATOM     64  C   UNL A   1      47.405  34.584  26.846  1.00  0.00     0.031 C 
ATOM     65  C   UNL A   1      52.465  31.312  26.116  1.00  0.00     0.029 A 
ATOM     66  C   UNL A   1      51.137  31.681  26.263  1.00  0.00     0.049 A 
ATOM     67  H   UNL A   1      49.422  30.456  26.371  1.00  0.00     0.167 HD
ATOM     68  C   UNL A   1      49.260  33.277  26.528  1.00  0.00     0.074 A 
ATOM     69  C   UNL A   1      48.715  34.612  26.652  1.00  0.00     0.031 C 
ATOM     70  C   UNL A   1      50.581  33.004  26.383  1.00  0.00     0.037 A 
BRANCH  57  71
ATOM     71  C   UNL A   1      51.864  26.975  26.012  1.00  0.00     0.057 A 
ATOM     72  C   UNL A   1      52.495  26.441  27.143  1.00  0.00     0.134 A 
ATOM     73  C   UNL A   1      52.214  26.440  24.765  1.00  0.00     0.134 A 
ATOM     74  F   UNL A   1      52.220  26.918  28.366  1.00  0.00    -0.206 F 
ATOM     75  C   UNL A   1      53.448  25.426  27.036  1.00  0.00     0.040 A 
ATOM     76  C   UNL A   1      53.144  25.405  24.648  1.00  0.00     0.040 A 
ATOM     77  F   UNL A   1      51.648  26.905  23.641  1.00  0.00    -0.206 F 
ATOM     78  C   UNL A   1      53.766  24.898  25.785  1.00  0.00     0.006 A 
ENDBRANCH  57  71
BRANCH  58  79
ATOM     79  C   UNL A   1      44.608  33.759  27.037  1.00  0.00     0.057 A 
ATOM     80  C   UNL A   1      44.162  34.102  28.319  1.00  0.00     0.134 A 
ATOM     81  C   UNL A   1      43.982  34.385  25.951  1.00  0.00     0.134 A 
ATOM     82  F   UNL A   1      44.704  33.521  29.400  1.00  0.00    -0.206 F 
ATOM     83  C   UNL A   1      43.114  35.004  28.514  1.00  0.00     0.040 A 
ATOM     84  C   UNL A   1      42.955  35.313  26.133  1.00  0.00     0.040 A 
ATOM     85  F   UNL A   1      44.360  34.103  24.696  1.00  0.00    -0.206 F 
ATOM     86  C   UNL A   1      42.509  35.616  27.417  1.00  0.00     0.006 A 
ENDBRANCH  58  79
BRANCH  70  87
ATOM     87  C   UNL A   1      51.519  34.177  26.295  1.00  0.00     0.057 A 
ATOM     88  C   UNL A   1      51.868  34.768  25.073  1.00  0.00     0.134 A 
ATOM     89  C   UNL A   1      52.078  34.726  27.457  1.00  0.00     0.134 A 
ATOM     90  F   UNL A   1      51.376  34.289  23.920  1.00  0.00    -0.206 F 
ATOM     91  C   UNL A   1      52.773  35.830  25.006  1.00  0.00     0.040 A 
ATOM     92  C   UNL A   1      52.954  35.812  27.406  1.00  0.00     0.040 A 
ATOM     93  F   UNL A   1      51.775  34.223  28.663  1.00  0.00    -0.206 F 
ATOM     94  C   UNL A   1      53.316  36.356  26.176  1.00  0.00     0.006 A 
ENDBRANCH  70  87
ENDBRANCH  44  45
ENDBRANCH  37  39
ENDBRANCH  36  37
ENDBRANCH  35  36
ENDBRANCH  34  35
ENDBRANCH  33  34
ENDBRANCH  32  33
ENDBRANCH  31  32
ENDBRANCH  30  31
ENDBRANCH   1  30
TORSDOF 23
ENDMDL
MODEL 2
REMARK VINA RESULT:      -8.9      0.541      5.842
REMARK SMILES O=C(Cc1cc(=O)[nH]c(=O)[nH]1)Nc1cccc(C(=O)OCCOCCOCCOCCOC(=O)c2ccc(-c3c4nc(c(-c5c(F)cccc5F)c5ccc([nH]5)c(-c5c(F)cccc5F)c5nc(c(-c6c(F)cccc6F)c6ccc3[nH]6)C=C5)C=C4)cc2)c1
REMARK SMILES IDX 25 1 24 2 23 3 22 4 21 5 20 6 18 7 19 8 17 9 13 10 14 11
REMARK SMILES IDX 89 12 15 13 16 14 12 15 1 16 2 17 3 19 4 20 5 21 11 22 6 23
REMARK SMILES IDX 9 24 7 26 8 27 10 28 26 30 27 31 28 32 29 33 30 34 31 35
REMARK SMILES IDX 32 36 33 37 34 38 35 39 36 40 88 41 37 42 87 43 38 44 39 45
REMARK SMILES IDX 40 46 81 47 41 48 86 49 80 50 82 51 42 52 85 53 79 54 78 55
REMARK SMILES IDX 43 57 69 58 52 59 68 60 53 61 56 62 67 63 83 64 54 65 55 66
REMARK SMILES IDX 66 68 84 69 57 70 44 71 45 72 50 73 46 74 47 75 49 76 51 77
REMARK SMILES IDX 48 78 70 79 71 80 76 81 72 82 73 83 75 84 77 85 74 86 58 87
REMARK SMILES IDX 59 88 64 89 60 90 61 91 63 92 65 93 62 94
REMARK H PARENT 12 18 11 25 8 29 82 56 56 67
REMARK Flexibility Score: inf
ROOT
ATOM      1  C   UNL A   1      40.064  31.805  30.585  1.00  0.00     0.188 C 
ENDROOT
BRANCH   1   2
ATOM      2  C   UNL A   1      39.783  32.612  31.873  1.00  0.00     0.188 C 
BRANCH   2   3
ATOM      3  O   UNL A   1      38.413  32.669  32.222  1.00  0.00    -0.376 OA
BRANCH   3   4
ATOM      4  C   UNL A   1      37.945  31.934  33.335  1.00  0.00     0.202 C 
BRANCH   4   5
ATOM      5  C   UNL A   1      37.917  30.402  33.265  1.00  0.00     0.261 C 
BRANCH   5   6
ATOM      6  O   UNL A   1      36.934  29.830  32.399  1.00  0.00    -0.460 OA
BRANCH   6   7
ATOM      7  C   UNL A   1      37.358  29.154  31.309  1.00  0.00     0.338 C 
ATOM      8  O   UNL A   1      37.884  28.052  31.288  1.00  0.00    -0.246 OA
BRANCH   7   9
ATOM      9  C   UNL A   1      36.852  29.887  30.126  1.00  0.00     0.062 A 
ATOM     10  C   UNL A   1      35.370  31.561  29.190  1.00  0.00     0.042 A 
ATOM     11  C   UNL A   1      35.643  31.063  27.910  1.00  0.00     0.026 A 
ATOM     12  C   UNL A   1      35.954  30.947  30.296  1.00  0.00     0.041 A 
ATOM     13  C   UNL A   1      36.548  30.010  27.736  1.00  0.00     0.003 A 
ATOM     14  C   UNL A   1      37.168  29.431  28.843  1.00  0.00     0.016 A 
BRANCH  10  15
ATOM     15  N   UNL A   1      34.507  32.669  29.306  1.00  0.00    -0.326 N 
ATOM     16  O   UNL A   1      36.004  34.419  28.909  1.00  0.00    -0.274 OA
ATOM     17  C   UNL A   1      34.881  34.000  29.172  1.00  0.00     0.230 C 
ATOM     18  H   UNL A   1      33.560  32.484  29.496  1.00  0.00     0.169 HD
BRANCH  17  19
ATOM     19  C   UNL A   1      33.719  34.971  29.329  1.00  0.00     0.154 C 
BRANCH  19  20
ATOM     20  C   UNL A   1      33.568  35.468  30.745  1.00  0.00     0.034 A 
ATOM     21  C   UNL A   1      32.456  36.040  31.233  1.00  0.00     0.093 A 
ATOM     22  N   UNL A   1      34.652  35.292  31.573  1.00  0.00    -0.311 N 
ATOM     23  C   UNL A   1      32.409  36.451  32.650  1.00  0.00     0.253 A 
ATOM     24  C   UNL A   1      34.682  35.653  32.892  1.00  0.00     0.325 A 
ATOM     25  H   UNL A   1      35.460  34.878  31.192  1.00  0.00     0.171 HD
ATOM     26  O   UNL A   1      31.398  36.947  33.131  1.00  0.00    -0.269 OA
ATOM     27  N   UNL A   1      33.542  36.223  33.376  1.00  0.00    -0.274 N 
ATOM     28  O   UNL A   1      35.673  35.462  33.586  1.00  0.00    -0.248 OA
ATOM     29  H   UNL A   1      33.536  36.491  34.323  1.00  0.00     0.175 HD
ENDBRANCH  19  20
ENDBRANCH  17  19
ENDBRANCH  10  15
ENDBRANCH   7   9
ENDBRANCH   6   7
ENDBRANCH   5   6
ENDBRANCH   4   5
ENDBRANCH   3   4
ENDBRANCH   2   3
ENDBRANCH   1   2
BRANCH   1  30
ATOM     30  O   UNL A   1      40.502  30.456  30.684  1.00  0.00    -0.377 OA
BRANCH  30  31
ATOM     31  C   UNL A   1      40.972  29.771  29.527  1.00  0.00     0.188 C 
BRANCH  31  32
ATOM     32  C   UNL A   1      40.922  28.228  29.416  1.00  0.00     0.188 C 
BRANCH  32  33
ATOM     33  O   UNL A   1      40.202  27.735  28.300  1.00  0.00    -0.376 OA
BRANCH  33  34
ATOM     34  C   UNL A   1      39.242  26.721  28.521  1.00  0.00     0.202 C 
BRANCH  34  35
ATOM     35  C   UNL A   1      39.547  25.338  27.928  1.00  0.00     0.261 C 
BRANCH  35  36
ATOM     36  O   UNL A   1      40.315  25.332  26.714  1.00  0.00    -0.460 OA
BRANCH  36  37
ATOM     37  C   UNL A   1      41.287  24.399  26.617  1.00  0.00     0.338 C 
ATOM     38  O   UNL A   1      41.144  23.199  26.461  1.00  0.00    -0.246 OA
BRANCH  37  39
ATOM     39  C   UNL A   1      42.584  25.098  26.547  1.00  0.00     0.060 A 
ATOM     40  C   UNL A   1      43.199  25.503  27.739  1.00  0.00     0.016 A 
ATOM     41  C   UNL A   1      43.179  25.370  25.313  1.00  0.00     0.016 A 
ATOM     42  C   UNL A   1      44.386  26.229  27.696  1.00  0.00     0.010 A 
ATOM     43  C   UNL A   1      44.360  26.115  25.270  1.00  0.00     0.010 A 
ATOM     44  C   UNL A   1      44.943  26.587  26.460  1.00  0.00    -0.014 A 
BRANCH  44  45
ATOM     45  C   UNL A   1      46.003  27.622  26.422  1.00  0.00     0.031 A 
ATOM     46  C   UNL A   1      45.601  29.066  26.558  1.00  0.00     0.074 A 
ATOM     47  C   UNL A   1      47.302  27.287  26.328  1.00  0.00     0.049 A 
ATOM     48  N   UNL A   1      46.346  30.141  26.569  1.00  0.00    -0.248 NA
ATOM     49  C   UNL A   1      44.160  29.334  26.699  1.00  0.00     0.031 C 
ATOM     50  C   UNL A   1      47.820  25.924  26.221  1.00  0.00     0.029 A 
ATOM     51  N   UNL A   1      48.424  28.077  26.304  1.00  0.00    -0.354 N 
ATOM     52  C   UNL A   1      45.467  31.208  26.707  1.00  0.00     0.074 A 
ATOM     53  C   UNL A   1      44.131  30.658  26.744  1.00  0.00     0.031 C 
ATOM     54  C   UNL A   1      49.160  25.974  26.135  1.00  0.00     0.029 A 
ATOM     55  C   UNL A   1      49.592  27.370  26.152  1.00  0.00     0.049 A 
ATOM     56  H   UNL A   1      48.395  29.058  26.389  1.00  0.00     0.167 HD
ATOM     57  C   UNL A   1      45.748  32.529  26.803  1.00  0.00     0.037 A 
ATOM     58  C   UNL A   1      50.860  27.806  26.025  1.00  0.00     0.037 A 
ATOM     59  C   UNL A   1      47.080  33.075  26.773  1.00  0.00     0.049 A 
ATOM     60  C   UNL A   1      51.142  29.285  26.092  1.00  0.00     0.074 A 
ATOM     61  C   UNL A   1      47.472  34.397  26.895  1.00  0.00     0.029 A 
ATOM     62  N   UNL A   1      48.236  32.329  26.600  1.00  0.00    -0.354 N 
ATOM     63  N   UNL A   1      50.308  30.283  26.262  1.00  0.00    -0.248 NA
ATOM     64  C   UNL A   1      52.547  29.697  25.966  1.00  0.00     0.031 C 
ATOM     65  C   UNL A   1      48.860  34.458  26.731  1.00  0.00     0.029 A 
ATOM     66  C   UNL A   1      49.340  33.166  26.583  1.00  0.00     0.049 A 
ATOM     67  H   UNL A   1      48.268  31.350  26.505  1.00  0.00     0.167 HD
ATOM     68  C   UNL A   1      51.088  31.433  26.298  1.00  0.00     0.074 A 
ATOM     69  C   UNL A   1      52.464  31.006  26.153  1.00  0.00     0.031 C 
ATOM     70  C   UNL A   1      50.705  32.727  26.443  1.00  0.00     0.037 A 
BRANCH  57  71
ATOM     71  C   UNL A   1      44.594  33.482  26.915  1.00  0.00     0.057 A 
ATOM     72  C   UNL A   1      44.073  33.883  28.153  1.00  0.00     0.134 A 
ATOM     73  C   UNL A   1      44.025  34.043  25.764  1.00  0.00     0.134 A 
ATOM     74  F   UNL A   1      44.558  33.372  29.294  1.00  0.00    -0.206 F 
ATOM     75  C   UNL A   1      43.018  34.794  28.240  1.00  0.00     0.040 A 
ATOM     76  C   UNL A   1      42.990  34.977  25.839  1.00  0.00     0.040 A 
ATOM     77  F   UNL A   1      44.477  33.704  24.547  1.00  0.00    -0.206 F 
ATOM     78  C   UNL A   1      42.481  35.352  27.080  1.00  0.00     0.006 A 
ENDBRANCH  57  71
BRANCH  58  79
ATOM     79  C   UNL A   1      51.966  26.838  25.801  1.00  0.00     0.057 A 
ATOM     80  C   UNL A   1      52.715  26.321  26.864  1.00  0.00     0.134 A 
ATOM     81  C   UNL A   1      52.329  26.442  24.508  1.00  0.00     0.134 A 
ATOM     82  F   UNL A   1      52.433  26.680  28.126  1.00  0.00    -0.206 F 
ATOM     83  C   UNL A   1      53.803  25.472  26.650  1.00  0.00     0.040 A 
ATOM     84  C   UNL A   1      53.394  25.568  24.281  1.00  0.00     0.040 A 
ATOM     85  F   UNL A   1      51.653  26.899  23.444  1.00  0.00    -0.206 F 
ATOM     86  C   UNL A   1      54.142  25.090  25.354  1.00  0.00     0.006 A 
ENDBRANCH  58  79
BRANCH  70  87
ATOM     87  C   UNL A   1      51.793  33.764  26.505  1.00  0.00     0.057 A 
ATOM     88  C   UNL A   1      52.258  34.431  25.364  1.00  0.00     0.134 A 
ATOM     89  C   UNL A   1      52.379  34.102  27.732  1.00  0.00     0.134 A 
ATOM     90  F   UNL A   1      51.746  34.152  24.156  1.00  0.00    -0.206 F 
ATOM     91  C   UNL A   1      53.297  35.362  25.435  1.00  0.00     0.040 A 
ATOM     92  C   UNL A   1      53.393  35.058  27.820  1.00  0.00     0.040 A 
ATOM     93  F   UNL A   1      51.972  33.516  28.868  1.00  0.00    -0.206 F 
ATOM     94  C   UNL A   1      53.866  35.679  26.667  1.00  0.00     0.006 A 
ENDBRANCH  70  87
ENDBRANCH  44  45
ENDBRANCH  37  39
ENDBRANCH  36  37
ENDBRANCH  35  36
ENDBRANCH  34  35
ENDBRANCH  33  34
ENDBRANCH  32  33
ENDBRANCH  31  32
ENDBRANCH  30  31
ENDBRANCH   1  30
TORSDOF 23
ENDMDL
MODEL 3
REMARK VINA RESULT:      -8.6      4.158      9.120
REMARK SMILES O=C(Cc1cc(=O)[nH]c(=O)[nH]1)Nc1cccc(C(=O)OCCOCCOCCOCCOC(=O)c2ccc(-c3c4nc(c(-c5c(F)cccc5F)c5ccc([nH]5)c(-c5c(F)cccc5F)c5nc(c(-c6c(F)cccc6F)c6ccc3[nH]6)C=C5)C=C4)cc2)c1
REMARK SMILES IDX 25 1 24 2 23 3 22 4 21 5 20 6 18 7 19 8 17 9 13 10 14 11
REMARK SMILES IDX 89 12 15 13 16 14 12 15 1 16 2 17 3 19 4 20 5 21 11 22 6 23
REMARK SMILES IDX 9 24 7 26 8 27 10 28 26 30 27 31 28 32 29 33 30 34 31 35
REMARK SMILES IDX 32 36 33 37 34 38 35 39 36 40 88 41 37 42 87 43 38 44 39 45
REMARK SMILES IDX 40 46 81 47 41 48 86 49 80 50 82 51 42 52 85 53 79 54 78 55
REMARK SMILES IDX 43 57 69 58 52 59 68 60 53 61 56 62 67 63 83 64 54 65 55 66
REMARK SMILES IDX 66 68 84 69 57 70 44 71 45 72 50 73 46 74 47 75 49 76 51 77
REMARK SMILES IDX 48 78 70 79 71 80 76 81 72 82 73 83 75 84 77 85 74 86 58 87
REMARK SMILES IDX 59 88 64 89 60 90 61 91 63 92 65 93 62 94
REMARK H PARENT 12 18 11 25 8 29 82 56 56 67
REMARK Flexibility Score: inf
ROOT
ATOM      1  C   UNL A   1      44.082  36.203  34.404  1.00  0.00     0.188 C 
ENDROOT
BRANCH   1   2
ATOM      2  C   UNL A   1      44.376  35.560  35.777  1.00  0.00     0.188 C 
BRANCH   2   3
ATOM      3  O   UNL A   1      43.584  34.420  36.053  1.00  0.00    -0.376 OA
BRANCH   3   4
ATOM      4  C   UNL A   1      42.183  34.558  36.177  1.00  0.00     0.202 C 
BRANCH   4   5
ATOM      5  C   UNL A   1      41.416  33.613  37.110  1.00  0.00     0.261 C 
BRANCH   5   6
ATOM      6  O   UNL A   1      40.301  32.928  36.534  1.00  0.00    -0.460 OA
BRANCH   6   7
ATOM      7  C   UNL A   1      39.103  33.552  36.523  1.00  0.00     0.338 C 
ATOM      8  O   UNL A   1      38.565  34.123  37.458  1.00  0.00    -0.246 OA
BRANCH   7   9
ATOM      9  C   UNL A   1      38.670  33.624  35.108  1.00  0.00     0.062 A 
ATOM     10  C   UNL A   1      36.975  34.200  33.476  1.00  0.00     0.042 A 
ATOM     11  C   UNL A   1      37.690  33.486  32.505  1.00  0.00     0.026 A 
ATOM     12  C   UNL A   1      37.456  34.238  34.782  1.00  0.00     0.041 A 
ATOM     13  C   UNL A   1      38.909  32.879  32.826  1.00  0.00     0.003 A 
ATOM     14  C   UNL A   1      39.412  32.963  34.125  1.00  0.00     0.016 A 
BRANCH  10  15
ATOM     15  N   UNL A   1      35.788  34.852  33.085  1.00  0.00    -0.326 N 
ATOM     16  O   UNL A   1      34.230  33.143  33.425  1.00  0.00    -0.274 OA
ATOM     17  C   UNL A   1      34.521  34.283  33.075  1.00  0.00     0.230 C 
ATOM     18  H   UNL A   1      35.864  35.789  32.796  1.00  0.00     0.169 HD
BRANCH  17  19
ATOM     19  C   UNL A   1      33.432  35.245  32.623  1.00  0.00     0.154 C 
BRANCH  19  20
ATOM     20  C   UNL A   1      33.405  35.427  31.126  1.00  0.00     0.034 A 
ATOM     21  C   UNL A   1      33.206  36.602  30.509  1.00  0.00     0.093 A 
ATOM     22  N   UNL A   1      33.622  34.299  30.370  1.00  0.00    -0.311 N 
ATOM     23  C   UNL A   1      33.243  36.667  29.034  1.00  0.00     0.253 A 
ATOM     24  C   UNL A   1      33.663  34.283  29.003  1.00  0.00     0.325 A 
ATOM     25  H   UNL A   1      33.758  33.446  30.844  1.00  0.00     0.171 HD
ATOM     26  O   UNL A   1      33.095  37.729  28.445  1.00  0.00    -0.269 OA
ATOM     27  N   UNL A   1      33.470  35.485  28.391  1.00  0.00    -0.274 N 
ATOM     28  O   UNL A   1      33.873  33.249  28.381  1.00  0.00    -0.248 OA
ATOM     29  H   UNL A   1      33.496  35.502  27.406  1.00  0.00     0.175 HD
ENDBRANCH  19  20
ENDBRANCH  17  19
ENDBRANCH  10  15
ENDBRANCH   7   9
ENDBRANCH   6   7
ENDBRANCH   5   6
ENDBRANCH   4   5
ENDBRANCH   3   4
ENDBRANCH   2   3
ENDBRANCH   1   2
BRANCH   1  30
ATOM     30  O   UNL A   1      44.310  37.594  34.217  1.00  0.00    -0.377 OA
BRANCH  30  31
ATOM     31  C   UNL A   1      43.214  38.473  33.982  1.00  0.00     0.188 C 
BRANCH  31  32
ATOM     32  C   UNL A   1      43.417  39.890  33.394  1.00  0.00     0.188 C 
BRANCH  32  33
ATOM     33  O   UNL A   1      43.054  40.024  32.030  1.00  0.00    -0.376 OA
BRANCH  33  34
ATOM     34  C   UNL A   1      44.060  39.839  31.053  1.00  0.00     0.202 C 
BRANCH  34  35
ATOM     35  C   UNL A   1      43.962  38.572  30.192  1.00  0.00     0.261 C 
BRANCH  35  36
ATOM     36  O   UNL A   1      44.693  37.431  30.667  1.00  0.00    -0.460 OA
BRANCH  36  37
ATOM     37  C   UNL A   1      45.743  37.029  29.919  1.00  0.00     0.338 C 
ATOM     38  O   UNL A   1      46.774  37.643  29.705  1.00  0.00    -0.246 OA
BRANCH  37  39
ATOM     39  C   UNL A   1      45.518  35.622  29.537  1.00  0.00     0.060 A 
ATOM     40  C   UNL A   1      44.864  35.344  28.331  1.00  0.00     0.016 A 
ATOM     41  C   UNL A   1      45.933  34.584  30.375  1.00  0.00     0.016 A 
ATOM     42  C   UNL A   1      44.574  34.027  27.984  1.00  0.00     0.010 A 
ATOM     43  C   UNL A   1      45.625  33.264  30.036  1.00  0.00     0.010 A 
ATOM     44  C   UNL A   1      44.903  32.985  28.861  1.00  0.00    -0.014 A 
BRANCH  44  45
ATOM     45  C   UNL A   1      44.307  31.646  28.642  1.00  0.00     0.031 A 
ATOM     46  C   UNL A   1      45.104  30.622  27.879  1.00  0.00     0.074 A 
ATOM     47  C   UNL A   1      43.108  31.324  29.159  1.00  0.00     0.049 A 
ATOM     48  N   UNL A   1      44.801  29.387  27.578  1.00  0.00    -0.248 NA
ATOM     49  C   UNL A   1      46.424  31.052  27.389  1.00  0.00     0.031 C 
ATOM     50  C   UNL A   1      42.254  32.216  29.939  1.00  0.00     0.029 A 
ATOM     51  N   UNL A   1      42.401  30.148  29.097  1.00  0.00    -0.354 N 
ATOM     52  C   UNL A   1      45.883  28.897  26.857  1.00  0.00     0.074 A 
ATOM     53  C   UNL A   1      46.838  29.976  26.737  1.00  0.00     0.031 C 
ATOM     54  C   UNL A   1      41.132  31.558  30.278  1.00  0.00     0.029 A 
ATOM     55  C   UNL A   1      41.176  30.210  29.715  1.00  0.00     0.049 A 
ATOM     56  H   UNL A   1      42.740  29.338  28.651  1.00  0.00     0.167 HD
ATOM     57  C   UNL A   1      46.069  27.657  26.346  1.00  0.00     0.037 A 
ATOM     58  C   UNL A   1      40.199  29.287  29.799  1.00  0.00     0.037 A 
ATOM     59  C   UNL A   1      45.120  26.582  26.472  1.00  0.00     0.049 A 
ATOM     60  C   UNL A   1      40.414  27.927  29.186  1.00  0.00     0.074 A 
ATOM     61  C   UNL A   1      45.230  25.279  26.018  1.00  0.00     0.029 A 
ATOM     62  N   UNL A   1      43.884  26.688  27.091  1.00  0.00    -0.354 N 
ATOM     63  N   UNL A   1      41.456  27.463  28.539  1.00  0.00    -0.248 NA
ATOM     64  C   UNL A   1      39.319  26.957  29.327  1.00  0.00     0.031 C 
ATOM     65  C   UNL A   1      44.033  24.615  26.305  1.00  0.00     0.029 A 
ATOM     66  C   UNL A   1      43.208  25.481  27.004  1.00  0.00     0.049 A 
ATOM     67  H   UNL A   1      43.538  27.499  27.527  1.00  0.00     0.167 HD
ATOM     68  C   UNL A   1      41.158  26.140  28.230  1.00  0.00     0.074 A 
ATOM     69  C   UNL A   1      39.845  25.872  28.778  1.00  0.00     0.031 C 
ATOM     70  C   UNL A   1      41.903  25.227  27.558  1.00  0.00     0.037 A 
BRANCH  57  71
ATOM     71  C   UNL A   1      47.331  27.402  25.574  1.00  0.00     0.057 A 
ATOM     72  C   UNL A   1      47.433  27.662  24.201  1.00  0.00     0.134 A 
ATOM     73  C   UNL A   1      48.478  26.932  26.228  1.00  0.00     0.134 A 
ATOM     74  F   UNL A   1      46.369  28.097  23.509  1.00  0.00    -0.206 F 
ATOM     75  C   UNL A   1      48.624  27.446  23.504  1.00  0.00     0.040 A 
ATOM     76  C   UNL A   1      49.682  26.741  25.548  1.00  0.00     0.040 A 
ATOM     77  F   UNL A   1      48.451  26.663  27.542  1.00  0.00    -0.206 F 
ATOM     78  C   UNL A   1      49.756  26.995  24.181  1.00  0.00     0.006 A 
ENDBRANCH  57  71
BRANCH  58  79
ATOM     79  C   UNL A   1      38.916  29.614  30.475  1.00  0.00     0.057 A 
ATOM     80  C   UNL A   1      38.678  29.262  31.808  1.00  0.00     0.134 A 
ATOM     81  C   UNL A   1      37.876  30.249  29.784  1.00  0.00     0.134 A 
ATOM     82  F   UNL A   1      39.624  28.629  32.519  1.00  0.00    -0.206 F 
ATOM     83  C   UNL A   1      37.445  29.499  32.421  1.00  0.00     0.040 A 
ATOM     84  C   UNL A   1      36.650  30.522  30.393  1.00  0.00     0.040 A 
ATOM     85  F   UNL A   1      38.038  30.615  28.503  1.00  0.00    -0.206 F 
ATOM     86  C   UNL A   1      36.428  30.136  31.712  1.00  0.00     0.006 A 
ENDBRANCH  58  79
BRANCH  70  87
ATOM     87  C   UNL A   1      41.336  23.839  27.427  1.00  0.00     0.057 A 
ATOM     88  C   UNL A   1      40.277  23.542  26.559  1.00  0.00     0.134 A 
ATOM     89  C   UNL A   1      41.866  22.783  28.180  1.00  0.00     0.134 A 
ATOM     90  F   UNL A   1      39.716  24.506  25.813  1.00  0.00    -0.206 F 
ATOM     91  C   UNL A   1      39.735  22.257  26.481  1.00  0.00     0.040 A 
ATOM     92  C   UNL A   1      41.359  21.487  28.082  1.00  0.00     0.040 A 
ATOM     93  F   UNL A   1      42.893  22.991  29.018  1.00  0.00    -0.206 F 
ATOM     94  C   UNL A   1      40.279  21.224  27.242  1.00  0.00     0.006 A 
ENDBRANCH  70  87
ENDBRANCH  44  45
ENDBRANCH  37  39
ENDBRANCH  36  37
ENDBRANCH  35  36
ENDBRANCH  34  35
ENDBRANCH  33  34
ENDBRANCH  32  33
ENDBRANCH  31  32
ENDBRANCH  30  31
ENDBRANCH   1  30
TORSDOF 23
ENDMDL
