MODEL 1
REMARK VINA RESULT:      -9.5      0.000      0.000
REMARK SMILES Cc1c(CC(=O)OCCOCCOCCOCCOC(=O)c2ccc(-c3c4nc(c(-c5c(F)cccc5F)c5ccc([nH]5)c(-c5c(F)cccc5F)c5nc(c(-c6c(F)cccc6F)c6ccc3[nH]6)C=C5)C=C4)cc2)cc(-c2ccc(S(C)(=O)=O)cc2)n1-c1ccccc1
REMARK SMILES IDX 12 1 11 2 10 3 9 4 8 5 7 6 5 7 6 8 4 9 3 10 1 11 2 12 88 13
REMARK SMILES IDX 76 14 77 15 89 16 90 17 94 18 91 19 93 20 92 21 78 22 79 23
REMARK SMILES IDX 87 24 80 25 86 26 81 27 82 28 83 29 84 30 85 31 13 32 14 33
REMARK SMILES IDX 15 34 16 35 17 36 18 37 19 38 20 39 21 40 22 41 23 42 75 43
REMARK SMILES IDX 24 44 74 45 25 46 26 47 27 48 68 49 28 50 73 51 67 52 69 53
REMARK SMILES IDX 29 54 72 55 66 56 65 57 30 59 56 60 39 61 55 62 40 63 43 64
REMARK SMILES IDX 54 65 70 66 41 67 42 68 53 70 71 71 44 72 31 73 32 74 37 75
REMARK SMILES IDX 33 76 34 77 36 78 38 79 35 80 57 81 58 82 63 83 59 84 60 85
REMARK SMILES IDX 62 86 64 87 61 88 45 89 46 90 51 91 47 92 48 93 50 94 52 95
REMARK SMILES IDX 49 96
REMARK H PARENT 69 58 43 69
REMARK Flexibility Score: inf
ROOT
ATOM      1  C   UNL A   1      34.118  29.359  27.523  1.00  0.00     0.188 C 
ENDROOT
BRANCH   1   2
ATOM      2  C   UNL A   1      33.295  30.606  27.128  1.00  0.00     0.188 C 
BRANCH   2   3
ATOM      3  O   UNL A   1      31.883  30.546  26.930  1.00  0.00    -0.376 OA
BRANCH   3   4
ATOM      4  C   UNL A   1      31.370  30.447  25.614  1.00  0.00     0.202 C 
BRANCH   4   5
ATOM      5  C   UNL A   1      31.279  29.038  24.999  1.00  0.00     0.261 C 
BRANCH   5   6
ATOM      6  O   UNL A   1      30.668  28.949  23.691  1.00  0.00    -0.463 OA
BRANCH   6   7
ATOM      7  C   UNL A   1      30.556  27.710  23.156  1.00  0.00     0.310 C 
ATOM      8  O   UNL A   1      30.496  27.501  21.945  1.00  0.00    -0.252 OA
BRANCH   7   9
ATOM      9  C   UNL A   1      30.438  26.555  24.141  1.00  0.00     0.160 C 
BRANCH   9  10
ATOM     10  C   UNL A   1      31.513  25.497  24.297  1.00  0.00    -0.015 A 
ATOM     11  C   UNL A   1      33.739  26.825  23.863  1.00  0.00     0.065 C 
ATOM     12  C   UNL A   1      32.900  25.623  24.148  1.00  0.00     0.024 A 
ATOM     13  N   UNL A   1      33.473  24.363  24.273  1.00  0.00    -0.314 N 
ATOM     14  C   UNL A   1      31.266  24.092  24.422  1.00  0.00     0.033 A 
ATOM     15  C   UNL A   1      32.468  23.411  24.333  1.00  0.00     0.053 A 
BRANCH  13  16
ATOM     16  C   UNL A   1      34.855  24.065  24.391  1.00  0.00     0.046 A 
ATOM     17  C   UNL A   1      35.545  23.440  23.350  1.00  0.00     0.026 A 
ATOM     18  C   UNL A   1      35.451  24.212  25.643  1.00  0.00     0.026 A 
ATOM     19  C   UNL A   1      36.855  22.993  23.563  1.00  0.00     0.002 A 
ATOM     20  C   UNL A   1      36.753  23.751  25.843  1.00  0.00     0.002 A 
ATOM     21  C   UNL A   1      37.459  23.151  24.808  1.00  0.00     0.000 A 
ENDBRANCH  13  16
BRANCH  15  22
ATOM     22  C   UNL A   1      32.725  21.973  24.216  1.00  0.00    -0.001 A 
ATOM     23  C   UNL A   1      32.295  21.239  23.102  1.00  0.00     0.011 A 
ATOM     24  C   UNL A   1      33.335  21.303  25.286  1.00  0.00     0.011 A 
ATOM     25  C   UNL A   1      32.456  19.850  23.063  1.00  0.00     0.021 A 
ATOM     26  C   UNL A   1      33.499  19.918  25.255  1.00  0.00     0.021 A 
ATOM     27  C   UNL A   1      33.050  19.197  24.148  1.00  0.00     0.067 A 
BRANCH  27  28
ATOM     28  S   UNL A   1      33.286  17.436  24.074  1.00  0.00     0.175 S 
ATOM     29  C   UNL A   1      32.213  16.790  25.330  1.00  0.00     0.163 C 
ATOM     30  O   UNL A   1      32.814  16.996  22.792  1.00  0.00    -0.224 OA
ATOM     31  O   UNL A   1      34.659  17.163  24.505  1.00  0.00    -0.224 OA
ENDBRANCH  27  28
ENDBRANCH  15  22
ENDBRANCH   9  10
ENDBRANCH   7   9
ENDBRANCH   6   7
ENDBRANCH   5   6
ENDBRANCH   4   5
ENDBRANCH   3   4
ENDBRANCH   2   3
ENDBRANCH   1   2
BRANCH   1  32
ATOM     32  O   UNL A   1      35.516  29.495  27.374  1.00  0.00    -0.377 OA
BRANCH  32  33
ATOM     33  C   UNL A   1      36.263  30.031  28.448  1.00  0.00     0.188 C 
BRANCH  33  34
ATOM     34  C   UNL A   1      36.319  31.552  28.565  1.00  0.00     0.188 C 
BRANCH  34  35
ATOM     35  O   UNL A   1      36.235  32.077  29.874  1.00  0.00    -0.376 OA
BRANCH  35  36
ATOM     36  C   UNL A   1      36.110  33.471  30.122  1.00  0.00     0.202 C 
BRANCH  36  37
ATOM     37  C   UNL A   1      36.723  34.189  31.363  1.00  0.00     0.261 C 
BRANCH  37  38
ATOM     38  O   UNL A   1      38.119  33.929  31.800  1.00  0.00    -0.460 OA
BRANCH  38  39
ATOM     39  C   UNL A   1      39.093  34.418  30.933  1.00  0.00     0.338 C 
ATOM     40  O   UNL A   1      38.801  35.167  30.005  1.00  0.00    -0.246 OA
BRANCH  39  41
ATOM     41  C   UNL A   1      40.578  33.984  31.082  1.00  0.00     0.060 A 
ATOM     42  C   UNL A   1      41.392  33.842  29.966  1.00  0.00     0.016 A 
ATOM     43  C   UNL A   1      41.083  33.309  32.225  1.00  0.00     0.016 A 
ATOM     44  C   UNL A   1      42.642  33.093  30.017  1.00  0.00     0.010 A 
ATOM     45  C   UNL A   1      42.334  32.493  32.254  1.00  0.00     0.010 A 
ATOM     46  C   UNL A   1      43.169  32.324  31.134  1.00  0.00    -0.014 A 
BRANCH  46  47
ATOM     47  C   UNL A   1      44.287  31.109  30.795  1.00  0.00     0.031 A 
ATOM     48  C   UNL A   1      43.592  30.380  29.696  1.00  0.00     0.074 A 
ATOM     49  C   UNL A   1      45.478  30.439  31.173  1.00  0.00     0.049 A 
ATOM     50  N   UNL A   1      42.386  29.924  29.895  1.00  0.00    -0.248 NA
ATOM     51  C   UNL A   1      43.994  30.462  28.292  1.00  0.00     0.031 C 
ATOM     52  C   UNL A   1      46.342  30.679  32.347  1.00  0.00     0.029 A 
ATOM     53  N   UNL A   1      46.232  29.334  30.585  1.00  0.00    -0.354 N 
ATOM     54  C   UNL A   1      42.000  29.358  28.712  1.00  0.00     0.074 A 
ATOM     55  C   UNL A   1      42.904  29.931  27.724  1.00  0.00     0.031 C 
ATOM     56  C   UNL A   1      47.484  29.919  32.331  1.00  0.00     0.029 A 
ATOM     57  C   UNL A   1      47.527  29.010  31.181  1.00  0.00     0.049 A 
ATOM     58  H   UNL A   1      45.880  28.826  29.818  1.00  0.00     0.167 HD
ATOM     59  C   UNL A   1      41.522  28.084  28.802  1.00  0.00     0.037 A 
ATOM     60  C   UNL A   1      48.517  28.057  30.866  1.00  0.00     0.037 A 
ATOM     61  C   UNL A   1      42.465  27.115  28.324  1.00  0.00     0.049 A 
ATOM     62  C   UNL A   1      47.849  26.969  30.145  1.00  0.00     0.074 A 
ATOM     63  C   UNL A   1      43.319  27.084  27.240  1.00  0.00     0.029 A 
ATOM     64  N   UNL A   1      42.960  26.216  29.244  1.00  0.00    -0.354 N 
ATOM     65  N   UNL A   1      47.190  26.060  30.793  1.00  0.00    -0.248 NA
ATOM     66  C   UNL A   1      48.028  26.712  28.720  1.00  0.00     0.031 C 
ATOM     67  C   UNL A   1      44.538  26.610  27.766  1.00  0.00     0.029 A 
ATOM     68  C   UNL A   1      44.298  26.021  29.000  1.00  0.00     0.049 A 
ATOM     69  H   UNL A   1      42.439  25.784  29.960  1.00  0.00     0.167 HD
ATOM     70  C   UNL A   1      46.451  25.465  29.828  1.00  0.00     0.074 A 
ATOM     71  C   UNL A   1      47.190  25.680  28.597  1.00  0.00     0.031 C 
ATOM     72  C   UNL A   1      45.118  25.493  30.057  1.00  0.00     0.037 A 
BRANCH  59  73
ATOM     73  C   UNL A   1      40.608  27.870  29.976  1.00  0.00     0.057 A 
ATOM     74  C   UNL A   1      39.232  27.787  29.762  1.00  0.00     0.134 A 
ATOM     75  C   UNL A   1      41.047  27.915  31.314  1.00  0.00     0.134 A 
ATOM     76  F   UNL A   1      38.746  27.685  28.517  1.00  0.00    -0.206 F 
ATOM     77  C   UNL A   1      38.328  27.822  30.827  1.00  0.00     0.040 A 
ATOM     78  C   UNL A   1      40.155  28.012  32.380  1.00  0.00     0.040 A 
ATOM     79  F   UNL A   1      42.357  27.888  31.610  1.00  0.00    -0.206 F 
ATOM     80  C   UNL A   1      38.786  27.977  32.136  1.00  0.00     0.006 A 
ENDBRANCH  59  73
BRANCH  60  81
ATOM     81  C   UNL A   1      49.991  27.546  31.144  1.00  0.00     0.057 A 
ATOM     82  C   UNL A   1      50.282  26.582  32.182  1.00  0.00     0.134 A 
ATOM     83  C   UNL A   1      51.013  27.606  30.189  1.00  0.00     0.134 A 
ATOM     84  F   UNL A   1      49.473  26.408  33.236  1.00  0.00    -0.206 F 
ATOM     85  C   UNL A   1      51.383  25.695  32.190  1.00  0.00     0.040 A 
ATOM     86  C   UNL A   1      52.154  26.745  30.213  1.00  0.00     0.040 A 
ATOM     87  F   UNL A   1      50.910  28.442  29.148  1.00  0.00    -0.206 F 
ATOM     88  C   UNL A   1      52.323  25.760  31.186  1.00  0.00     0.006 A 
ENDBRANCH  60  81
BRANCH  72  89
ATOM     89  C   UNL A   1      44.670  25.165  31.473  1.00  0.00     0.057 A 
ATOM     90  C   UNL A   1      44.696  26.020  32.601  1.00  0.00     0.134 A 
ATOM     91  C   UNL A   1      44.291  23.843  31.733  1.00  0.00     0.134 A 
ATOM     92  F   UNL A   1      44.908  27.340  32.504  1.00  0.00    -0.206 F 
ATOM     93  C   UNL A   1      44.476  25.551  33.905  1.00  0.00     0.040 A 
ATOM     94  C   UNL A   1      44.011  23.378  33.023  1.00  0.00     0.040 A 
ATOM     95  F   UNL A   1      44.182  22.967  30.722  1.00  0.00    -0.206 F 
ATOM     96  C   UNL A   1      44.137  24.224  34.119  1.00  0.00     0.006 A 
ENDBRANCH  72  89
ENDBRANCH  46  47
ENDBRANCH  39  41
ENDBRANCH  38  39
ENDBRANCH  37  38
ENDBRANCH  36  37
ENDBRANCH  35  36
ENDBRANCH  34  35
ENDBRANCH  33  34
ENDBRANCH  32  33
ENDBRANCH   1  32
TORSDOF 24
ENDMDL
MODEL 2
REMARK VINA RESULT:      -9.4      2.602      5.550
REMARK SMILES Cc1c(CC(=O)OCCOCCOCCOCCOC(=O)c2ccc(-c3c4nc(c(-c5c(F)cccc5F)c5ccc([nH]5)c(-c5c(F)cccc5F)c5nc(c(-c6c(F)cccc6F)c6ccc3[nH]6)C=C5)C=C4)cc2)cc(-c2ccc(S(C)(=O)=O)cc2)n1-c1ccccc1
REMARK SMILES IDX 12 1 11 2 10 3 9 4 8 5 7 6 5 7 6 8 4 9 3 10 1 11 2 12 88 13
REMARK SMILES IDX 76 14 77 15 89 16 90 17 94 18 91 19 93 20 92 21 78 22 79 23
REMARK SMILES IDX 87 24 80 25 86 26 81 27 82 28 83 29 84 30 85 31 13 32 14 33
REMARK SMILES IDX 15 34 16 35 17 36 18 37 19 38 20 39 21 40 22 41 23 42 75 43
REMARK SMILES IDX 24 44 74 45 25 46 26 47 27 48 68 49 28 50 73 51 67 52 69 53
REMARK SMILES IDX 29 54 72 55 66 56 65 57 30 59 56 60 39 61 55 62 40 63 43 64
REMARK SMILES IDX 54 65 70 66 41 67 42 68 53 70 71 71 44 72 31 73 32 74 37 75
REMARK SMILES IDX 33 76 34 77 36 78 38 79 35 80 57 81 58 82 63 83 59 84 60 85
REMARK SMILES IDX 62 86 64 87 61 88 45 89 46 90 51 91 47 92 48 93 50 94 52 95
REMARK SMILES IDX 49 96
REMARK H PARENT 69 58 43 69
REMARK Flexibility Score: inf
ROOT
ATOM      1  C   UNL A   1      33.706  32.293  27.728  1.00  0.00     0.188 C 
ENDROOT
BRANCH   1   2
ATOM      2  C   UNL A   1      32.570  31.399  27.180  1.00  0.00     0.188 C 
BRANCH   2   3
ATOM      3  O   UNL A   1      32.811  30.389  26.201  1.00  0.00    -0.376 OA
BRANCH   3   4
ATOM      4  C   UNL A   1      31.808  29.426  25.937  1.00  0.00     0.202 C 
BRANCH   4   5
ATOM      5  C   UNL A   1      31.539  29.077  24.462  1.00  0.00     0.261 C 
BRANCH   5   6
ATOM      6  O   UNL A   1      30.306  28.372  24.185  1.00  0.00    -0.463 OA
BRANCH   6   7
ATOM      7  C   UNL A   1      30.298  27.570  23.093  1.00  0.00     0.310 C 
ATOM      8  O   UNL A   1      30.439  27.993  21.947  1.00  0.00    -0.252 OA
BRANCH   7   9
ATOM      9  C   UNL A   1      30.036  26.091  23.339  1.00  0.00     0.160 C 
BRANCH   9  10
ATOM     10  C   UNL A   1      31.131  25.118  23.730  1.00  0.00    -0.015 A 
ATOM     11  C   UNL A   1      33.337  26.411  23.124  1.00  0.00     0.065 C 
ATOM     12  C   UNL A   1      32.519  25.259  23.605  1.00  0.00     0.024 A 
ATOM     13  N   UNL A   1      33.120  24.064  23.987  1.00  0.00    -0.314 N 
ATOM     14  C   UNL A   1      30.916  23.755  24.113  1.00  0.00     0.033 A 
ATOM     15  C   UNL A   1      32.138  23.109  24.195  1.00  0.00     0.053 A 
BRANCH  13  16
ATOM     16  C   UNL A   1      34.503  23.840  24.205  1.00  0.00     0.046 A 
ATOM     17  C   UNL A   1      35.277  23.160  23.261  1.00  0.00     0.026 A 
ATOM     18  C   UNL A   1      35.020  24.118  25.470  1.00  0.00     0.026 A 
ATOM     19  C   UNL A   1      36.589  22.793  23.582  1.00  0.00     0.002 A 
ATOM     20  C   UNL A   1      36.326  23.734  25.779  1.00  0.00     0.002 A 
ATOM     21  C   UNL A   1      37.113  23.081  24.840  1.00  0.00     0.000 A 
ENDBRANCH  13  16
BRANCH  15  22
ATOM     22  C   UNL A   1      32.436  21.684  24.364  1.00  0.00    -0.001 A 
ATOM     23  C   UNL A   1      32.936  21.176  25.570  1.00  0.00     0.011 A 
ATOM     24  C   UNL A   1      32.299  20.827  23.263  1.00  0.00     0.011 A 
ATOM     25  C   UNL A   1      33.314  19.834  25.672  1.00  0.00     0.021 A 
ATOM     26  C   UNL A   1      32.674  19.486  23.356  1.00  0.00     0.021 A 
ATOM     27  C   UNL A   1      33.189  18.998  24.557  1.00  0.00     0.067 A 
BRANCH  27  28
ATOM     28  S   UNL A   1      33.635  17.284  24.707  1.00  0.00     0.175 S 
ATOM     29  C   UNL A   1      33.470  16.635  23.064  1.00  0.00     0.163 C 
ATOM     30  O   UNL A   1      35.018  17.234  25.087  1.00  0.00    -0.224 OA
ATOM     31  O   UNL A   1      32.606  16.637  25.525  1.00  0.00    -0.224 OA
ENDBRANCH  27  28
ENDBRANCH  15  22
ENDBRANCH   9  10
ENDBRANCH   7   9
ENDBRANCH   6   7
ENDBRANCH   5   6
ENDBRANCH   4   5
ENDBRANCH   3   4
ENDBRANCH   2   3
ENDBRANCH   1   2
BRANCH   1  32
ATOM     32  O   UNL A   1      34.470  31.716  28.766  1.00  0.00    -0.377 OA
BRANCH  32  33
ATOM     33  C   UNL A   1      34.854  32.528  29.858  1.00  0.00     0.188 C 
BRANCH  33  34
ATOM     34  C   UNL A   1      34.642  34.033  29.714  1.00  0.00     0.188 C 
BRANCH  34  35
ATOM     35  O   UNL A   1      33.942  34.664  30.766  1.00  0.00    -0.376 OA
BRANCH  35  36
ATOM     36  C   UNL A   1      34.549  34.927  32.025  1.00  0.00     0.202 C 
BRANCH  36  37
ATOM     37  C   UNL A   1      34.221  34.135  33.327  1.00  0.00     0.261 C 
BRANCH  37  38
ATOM     38  O   UNL A   1      34.980  32.914  33.705  1.00  0.00    -0.460 OA
BRANCH  38  39
ATOM     39  C   UNL A   1      36.068  33.149  34.542  1.00  0.00     0.338 C 
ATOM     40  O   UNL A   1      35.939  33.767  35.594  1.00  0.00    -0.246 OA
BRANCH  39  41
ATOM     41  C   UNL A   1      37.494  32.682  34.137  1.00  0.00     0.060 A 
ATOM     42  C   UNL A   1      37.915  32.748  32.815  1.00  0.00     0.016 A 
ATOM     43  C   UNL A   1      38.280  31.799  34.924  1.00  0.00     0.016 A 
ATOM     44  C   UNL A   1      39.067  31.994  32.336  1.00  0.00     0.010 A 
ATOM     45  C   UNL A   1      39.422  30.983  34.413  1.00  0.00     0.010 A 
ATOM     46  C   UNL A   1      39.859  31.023  33.077  1.00  0.00    -0.014 A 
BRANCH  46  47
ATOM     47  C   UNL A   1      40.735  29.886  32.193  1.00  0.00     0.031 A 
ATOM     48  C   UNL A   1      42.017  29.858  32.954  1.00  0.00     0.074 A 
ATOM     49  C   UNL A   1      40.823  29.087  31.024  1.00  0.00     0.049 A 
ATOM     50  N   UNL A   1      42.669  30.970  33.145  1.00  0.00    -0.248 NA
ATOM     51  C   UNL A   1      42.411  28.754  33.829  1.00  0.00     0.031 C 
ATOM     52  C   UNL A   1      39.885  29.009  29.884  1.00  0.00     0.029 A 
ATOM     53  N   UNL A   1      41.809  28.121  30.546  1.00  0.00    -0.354 N 
ATOM     54  C   UNL A   1      43.758  30.639  33.905  1.00  0.00     0.074 A 
ATOM     55  C   UNL A   1      43.414  29.349  34.488  1.00  0.00     0.031 C 
ATOM     56  C   UNL A   1      40.228  28.035  28.981  1.00  0.00     0.029 A 
ATOM     57  C   UNL A   1      41.477  27.358  29.344  1.00  0.00     0.049 A 
ATOM     58  H   UNL A   1      42.665  27.989  31.015  1.00  0.00     0.167 HD
ATOM     59  C   UNL A   1      44.958  31.073  33.425  1.00  0.00     0.037 A 
ATOM     60  C   UNL A   1      42.152  26.346  28.633  1.00  0.00     0.037 A 
ATOM     61  C   UNL A   1      45.728  30.010  32.847  1.00  0.00     0.049 A 
ATOM     62  C   UNL A   1      43.581  26.496  28.927  1.00  0.00     0.074 A 
ATOM     63  C   UNL A   1      45.961  28.701  33.222  1.00  0.00     0.029 A 
ATOM     64  N   UNL A   1      45.987  30.087  31.496  1.00  0.00    -0.354 N 
ATOM     65  N   UNL A   1      44.287  27.391  28.309  1.00  0.00    -0.248 NA
ATOM     66  C   UNL A   1      44.341  25.564  29.752  1.00  0.00     0.031 C 
ATOM     67  C   UNL A   1      45.810  27.962  32.030  1.00  0.00     0.029 A 
ATOM     68  C   UNL A   1      45.878  28.832  30.950  1.00  0.00     0.049 A 
ATOM     69  H   UNL A   1      46.213  30.909  31.003  1.00  0.00     0.167 HD
ATOM     70  C   UNL A   1      45.409  27.475  29.060  1.00  0.00     0.074 A 
ATOM     71  C   UNL A   1      45.523  26.186  29.718  1.00  0.00     0.031 C 
ATOM     72  C   UNL A   1      45.668  28.716  29.531  1.00  0.00     0.037 A 
BRANCH  59  73
ATOM     73  C   UNL A   1      44.917  32.477  32.892  1.00  0.00     0.057 A 
ATOM     74  C   UNL A   1      44.477  32.699  31.587  1.00  0.00     0.134 A 
ATOM     75  C   UNL A   1      45.460  33.580  33.581  1.00  0.00     0.134 A 
ATOM     76  F   UNL A   1      43.900  31.708  30.891  1.00  0.00    -0.206 F 
ATOM     77  C   UNL A   1      44.636  33.941  30.967  1.00  0.00     0.040 A 
ATOM     78  C   UNL A   1      45.679  34.806  32.955  1.00  0.00     0.040 A 
ATOM     79  F   UNL A   1      45.808  33.481  34.875  1.00  0.00    -0.206 F 
ATOM     80  C   UNL A   1      45.276  34.985  31.636  1.00  0.00     0.006 A 
ENDBRANCH  59  73
BRANCH  60  81
ATOM     81  C   UNL A   1      42.063  25.257  27.485  1.00  0.00     0.057 A 
ATOM     82  C   UNL A   1      42.343  25.580  26.103  1.00  0.00     0.134 A 
ATOM     83  C   UNL A   1      42.160  23.882  27.727  1.00  0.00     0.134 A 
ATOM     84  F   UNL A   1      42.241  26.830  25.632  1.00  0.00    -0.206 F 
ATOM     85  C   UNL A   1      42.797  24.666  25.124  1.00  0.00     0.040 A 
ATOM     86  C   UNL A   1      42.573  22.942  26.731  1.00  0.00     0.040 A 
ATOM     87  F   UNL A   1      41.939  23.400  28.956  1.00  0.00    -0.206 F 
ATOM     88  C   UNL A   1      42.934  23.333  25.442  1.00  0.00     0.006 A 
ENDBRANCH  60  81
BRANCH  72  89
ATOM     89  C   UNL A   1      45.493  29.861  28.546  1.00  0.00     0.057 A 
ATOM     90  C   UNL A   1      44.284  30.495  28.171  1.00  0.00     0.134 A 
ATOM     91  C   UNL A   1      46.629  30.274  27.839  1.00  0.00     0.134 A 
ATOM     92  F   UNL A   1      43.134  30.311  28.837  1.00  0.00    -0.206 F 
ATOM     93  C   UNL A   1      44.205  31.383  27.088  1.00  0.00     0.040 A 
ATOM     94  C   UNL A   1      46.571  31.204  26.796  1.00  0.00     0.040 A 
ATOM     95  F   UNL A   1      47.833  29.774  28.156  1.00  0.00    -0.206 F 
ATOM     96  C   UNL A   1      45.351  31.737  26.393  1.00  0.00     0.006 A 
ENDBRANCH  72  89
ENDBRANCH  46  47
ENDBRANCH  39  41
ENDBRANCH  38  39
ENDBRANCH  37  38
ENDBRANCH  36  37
ENDBRANCH  35  36
ENDBRANCH  34  35
ENDBRANCH  33  34
ENDBRANCH  32  33
ENDBRANCH   1  32
TORSDOF 24
ENDMDL
MODEL 3
REMARK VINA RESULT:      -9.4      3.232      6.256
REMARK SMILES Cc1c(CC(=O)OCCOCCOCCOCCOC(=O)c2ccc(-c3c4nc(c(-c5c(F)cccc5F)c5ccc([nH]5)c(-c5c(F)cccc5F)c5nc(c(-c6c(F)cccc6F)c6ccc3[nH]6)C=C5)C=C4)cc2)cc(-c2ccc(S(C)(=O)=O)cc2)n1-c1ccccc1
REMARK SMILES IDX 12 1 11 2 10 3 9 4 8 5 7 6 5 7 6 8 4 9 3 10 1 11 2 12 88 13
REMARK SMILES IDX 76 14 77 15 89 16 90 17 94 18 91 19 93 20 92 21 78 22 79 23
REMARK SMILES IDX 87 24 80 25 86 26 81 27 82 28 83 29 84 30 85 31 13 32 14 33
REMARK SMILES IDX 15 34 16 35 17 36 18 37 19 38 20 39 21 40 22 41 23 42 75 43
REMARK SMILES IDX 24 44 74 45 25 46 26 47 27 48 68 49 28 50 73 51 67 52 69 53
REMARK SMILES IDX 29 54 72 55 66 56 65 57 30 59 56 60 39 61 55 62 40 63 43 64
REMARK SMILES IDX 54 65 70 66 41 67 42 68 53 70 71 71 44 72 31 73 32 74 37 75
REMARK SMILES IDX 33 76 34 77 36 78 38 79 35 80 57 81 58 82 63 83 59 84 60 85
REMARK SMILES IDX 62 86 64 87 61 88 45 89 46 90 51 91 47 92 48 93 50 94 52 95
REMARK SMILES IDX 49 96
REMARK H PARENT 69 58 43 69
REMARK Flexibility Score: inf
ROOT
ATOM      1  C   UNL A   1      33.865  32.003  27.639  1.00  0.00     0.188 C 
ENDROOT
BRANCH   1   2
ATOM      2  C   UNL A   1      32.996  30.806  27.190  1.00  0.00     0.188 C 
BRANCH   2   3
ATOM      3  O   UNL A   1      33.328  30.019  26.048  1.00  0.00    -0.376 OA
BRANCH   3   4
ATOM      4  C   UNL A   1      32.548  28.879  25.740  1.00  0.00     0.202 C 
BRANCH   4   5
ATOM      5  C   UNL A   1      31.325  29.088  24.827  1.00  0.00     0.261 C 
BRANCH   5   6
ATOM      6  O   UNL A   1      30.349  28.021  24.811  1.00  0.00    -0.463 OA
BRANCH   6   7
ATOM      7  C   UNL A   1      30.118  27.428  23.615  1.00  0.00     0.310 C 
ATOM      8  O   UNL A   1      29.996  28.056  22.564  1.00  0.00    -0.252 OA
BRANCH   7   9
ATOM      9  C   UNL A   1      29.947  25.916  23.629  1.00  0.00     0.160 C 
BRANCH   9  10
ATOM     10  C   UNL A   1      31.099  24.963  23.885  1.00  0.00    -0.015 A 
ATOM     11  C   UNL A   1      33.220  26.407  23.319  1.00  0.00     0.065 C 
ATOM     12  C   UNL A   1      32.473  25.179  23.721  1.00  0.00     0.024 A 
ATOM     13  N   UNL A   1      33.140  23.983  23.966  1.00  0.00    -0.314 N 
ATOM     14  C   UNL A   1      30.959  23.562  24.145  1.00  0.00     0.033 A 
ATOM     15  C   UNL A   1      32.210  22.968  24.120  1.00  0.00     0.053 A 
BRANCH  13  16
ATOM     16  C   UNL A   1      34.540  23.805  24.109  1.00  0.00     0.046 A 
ATOM     17  C   UNL A   1      35.298  23.230  23.086  1.00  0.00     0.026 A 
ATOM     18  C   UNL A   1      35.100  24.013  25.369  1.00  0.00     0.026 A 
ATOM     19  C   UNL A   1      36.636  22.898  23.324  1.00  0.00     0.002 A 
ATOM     20  C   UNL A   1      36.434  23.666  25.594  1.00  0.00     0.002 A 
ATOM     21  C   UNL A   1      37.204  23.117  24.577  1.00  0.00     0.000 A 
ENDBRANCH  13  16
BRANCH  15  22
ATOM     22  C   UNL A   1      32.575  21.549  24.143  1.00  0.00    -0.001 A 
ATOM     23  C   UNL A   1      32.387  20.725  23.025  1.00  0.00     0.011 A 
ATOM     24  C   UNL A   1      33.040  20.988  25.340  1.00  0.00     0.011 A 
ATOM     25  C   UNL A   1      32.642  19.353  23.106  1.00  0.00     0.021 A 
ATOM     26  C   UNL A   1      33.298  19.619  25.429  1.00  0.00     0.021 A 
ATOM     27  C   UNL A   1      33.087  18.806  24.314  1.00  0.00     0.067 A 
BRANCH  27  28
ATOM     28  S   UNL A   1      33.446  17.067  24.396  1.00  0.00     0.175 S 
ATOM     29  C   UNL A   1      32.361  16.447  25.655  1.00  0.00     0.163 C 
ATOM     30  O   UNL A   1      33.069  16.493  23.137  1.00  0.00    -0.224 OA
ATOM     31  O   UNL A   1      34.813  16.929  24.908  1.00  0.00    -0.224 OA
ENDBRANCH  27  28
ENDBRANCH  15  22
ENDBRANCH   9  10
ENDBRANCH   7   9
ENDBRANCH   6   7
ENDBRANCH   5   6
ENDBRANCH   4   5
ENDBRANCH   3   4
ENDBRANCH   2   3
ENDBRANCH   1   2
BRANCH   1  32
ATOM     32  O   UNL A   1      34.573  31.807  28.844  1.00  0.00    -0.377 OA
BRANCH  32  33
ATOM     33  C   UNL A   1      34.675  32.884  29.754  1.00  0.00     0.188 C 
BRANCH  33  34
ATOM     34  C   UNL A   1      34.024  34.203  29.346  1.00  0.00     0.188 C 
BRANCH  34  35
ATOM     35  O   UNL A   1      33.129  34.768  30.282  1.00  0.00    -0.376 OA
BRANCH  35  36
ATOM     36  C   UNL A   1      33.571  35.305  31.522  1.00  0.00     0.202 C 
BRANCH  36  37
ATOM     37  C   UNL A   1      33.737  34.461  32.822  1.00  0.00     0.261 C 
BRANCH  37  38
ATOM     38  O   UNL A   1      34.977  33.687  33.093  1.00  0.00    -0.460 OA
BRANCH  38  39
ATOM     39  C   UNL A   1      35.943  34.384  33.813  1.00  0.00     0.338 C 
ATOM     40  O   UNL A   1      35.669  34.940  34.872  1.00  0.00    -0.246 OA
BRANCH  39  41
ATOM     41  C   UNL A   1      37.391  34.527  33.265  1.00  0.00     0.060 A 
ATOM     42  C   UNL A   1      37.696  34.159  31.961  1.00  0.00     0.016 A 
ATOM     43  C   UNL A   1      38.537  34.610  34.099  1.00  0.00     0.016 A 
ATOM     44  C   UNL A   1      39.069  33.922  31.530  1.00  0.00     0.010 A 
ATOM     45  C   UNL A   1      39.934  34.307  33.666  1.00  0.00     0.010 A 
ATOM     46  C   UNL A   1      40.267  33.921  32.355  1.00  0.00    -0.014 A 
BRANCH  46  47
ATOM     47  C   UNL A   1      41.612  33.077  31.786  1.00  0.00     0.031 A 
ATOM     48  C   UNL A   1      42.719  33.973  32.228  1.00  0.00     0.074 A 
ATOM     49  C   UNL A   1      42.109  32.010  30.996  1.00  0.00     0.049 A 
ATOM     50  N   UNL A   1      42.709  35.226  31.866  1.00  0.00    -0.248 NA
ATOM     51  C   UNL A   1      43.611  33.662  33.344  1.00  0.00     0.031 C 
ATOM     52  C   UNL A   1      41.357  31.036  30.178  1.00  0.00     0.029 A 
ATOM     53  N   UNL A   1      43.456  31.521  30.711  1.00  0.00    -0.354 N 
ATOM     54  C   UNL A   1      43.805  35.793  32.455  1.00  0.00     0.074 A 
ATOM     55  C   UNL A   1      44.162  34.870  33.523  1.00  0.00     0.031 C 
ATOM     56  C   UNL A   1      42.159  30.062  29.641  1.00  0.00     0.029 A 
ATOM     57  C   UNL A   1      43.574  30.271  29.962  1.00  0.00     0.049 A 
ATOM     58  H   UNL A   1      44.253  32.014  31.012  1.00  0.00     0.167 HD
ATOM     59  C   UNL A   1      44.622  36.495  31.618  1.00  0.00     0.037 A 
ATOM     60  C   UNL A   1      44.680  29.503  29.546  1.00  0.00     0.037 A 
ATOM     61  C   UNL A   1      45.833  35.787  31.322  1.00  0.00     0.049 A 
ATOM     62  C   UNL A   1      45.828  30.412  29.468  1.00  0.00     0.074 A 
ATOM     63  C   UNL A   1      46.697  35.032  32.090  1.00  0.00     0.029 A 
ATOM     64  N   UNL A   1      46.032  35.407  30.012  1.00  0.00    -0.354 N 
ATOM     65  N   UNL A   1      45.985  31.183  28.438  1.00  0.00    -0.248 NA
ATOM     66  C   UNL A   1      46.948  30.385  30.403  1.00  0.00     0.031 C 
ATOM     67  C   UNL A   1      46.959  33.890  31.305  1.00  0.00     0.029 A 
ATOM     68  C   UNL A   1      46.586  34.150  29.993  1.00  0.00     0.049 A 
ATOM     69  H   UNL A   1      45.812  35.948  29.219  1.00  0.00     0.167 HD
ATOM     70  C   UNL A   1      46.898  32.086  28.862  1.00  0.00     0.074 A 
ATOM     71  C   UNL A   1      47.647  31.409  29.906  1.00  0.00     0.031 C 
ATOM     72  C   UNL A   1      46.481  33.371  28.788  1.00  0.00     0.037 A 
BRANCH  59  73
ATOM     73  C   UNL A   1      43.875  37.348  30.631  1.00  0.00     0.057 A 
ATOM     74  C   UNL A   1      43.381  36.767  29.464  1.00  0.00     0.134 A 
ATOM     75  C   UNL A   1      43.786  38.751  30.737  1.00  0.00     0.134 A 
ATOM     76  F   UNL A   1      43.383  35.434  29.318  1.00  0.00    -0.206 F 
ATOM     77  C   UNL A   1      42.890  37.549  28.415  1.00  0.00     0.040 A 
ATOM     78  C   UNL A   1      43.354  39.544  29.675  1.00  0.00     0.040 A 
ATOM     79  F   UNL A   1      44.139  39.380  31.870  1.00  0.00    -0.206 F 
ATOM     80  C   UNL A   1      42.914  38.941  28.502  1.00  0.00     0.006 A 
ENDBRANCH  59  73
BRANCH  60  81
ATOM     81  C   UNL A   1      45.173  28.135  28.915  1.00  0.00     0.057 A 
ATOM     82  C   UNL A   1      45.430  26.967  29.728  1.00  0.00     0.134 A 
ATOM     83  C   UNL A   1      44.975  27.800  27.570  1.00  0.00     0.134 A 
ATOM     84  F   UNL A   1      45.716  27.061  31.033  1.00  0.00    -0.206 F 
ATOM     85  C   UNL A   1      45.358  25.627  29.282  1.00  0.00     0.040 A 
ATOM     86  C   UNL A   1      44.947  26.450  27.100  1.00  0.00     0.040 A 
ATOM     87  F   UNL A   1      44.718  28.757  26.671  1.00  0.00    -0.206 F 
ATOM     88  C   UNL A   1      45.095  25.359  27.957  1.00  0.00     0.006 A 
ENDBRANCH  60  81
BRANCH  72  89
ATOM     89  C   UNL A   1      45.757  33.772  27.511  1.00  0.00     0.057 A 
ATOM     90  C   UNL A   1      44.429  33.455  27.141  1.00  0.00     0.134 A 
ATOM     91  C   UNL A   1      46.508  34.436  26.534  1.00  0.00     0.134 A 
ATOM     92  F   UNL A   1      43.541  32.941  28.005  1.00  0.00    -0.206 F 
ATOM     93  C   UNL A   1      43.935  33.677  25.848  1.00  0.00     0.040 A 
ATOM     94  C   UNL A   1      46.006  34.717  25.259  1.00  0.00     0.040 A 
ATOM     95  F   UNL A   1      47.761  34.831  26.806  1.00  0.00    -0.206 F 
ATOM     96  C   UNL A   1      44.726  34.307  24.899  1.00  0.00     0.006 A 
ENDBRANCH  72  89
ENDBRANCH  46  47
ENDBRANCH  39  41
ENDBRANCH  38  39
ENDBRANCH  37  38
ENDBRANCH  36  37
ENDBRANCH  35  36
ENDBRANCH  34  35
ENDBRANCH  33  34
ENDBRANCH  32  33
ENDBRANCH   1  32
TORSDOF 24
ENDMDL
