MODEL 1
REMARK VINA RESULT:     -10.3      0.000      0.000
REMARK SMILES CCc1ccnc(C(=O)c2[nH]c3ccc(OC(F)(F)F)cc3c2CC(=O)OCCOCCOCCOCCOC(=O)c2ccc(-c3c4nc(c(-c5c(F)cccc5F)c5ccc([nH]5)c(-c5c(F)cccc5F)c5nc(c(-c6c(F)cccc6F)c6ccc3[nH]6)C=C5)C=C4)cc2)c1
REMARK SMILES IDX 32 1 31 2 30 3 29 4 28 5 27 6 25 7 26 8 24 9 23 10 10 11
REMARK SMILES IDX 11 12 12 13 22 15 13 16 21 17 14 18 15 19 8 20 9 21 7 22
REMARK SMILES IDX 3 23 4 24 96 25 5 26 6 27 2 28 1 29 16 30 17 31 18 32 19 33
REMARK SMILES IDX 20 34 33 35 34 36 35 37 36 38 37 39 38 40 39 41 40 42 41 43
REMARK SMILES IDX 42 44 43 45 95 46 44 47 94 48 45 49 46 50 47 51 88 52 48 53
REMARK SMILES IDX 93 54 87 55 89 56 49 57 92 58 86 59 85 60 50 62 76 63 59 64
REMARK SMILES IDX 75 65 60 66 63 67 74 68 90 69 61 70 62 71 73 73 91 74 64 75
REMARK SMILES IDX 51 76 52 77 57 78 53 79 54 80 56 81 58 82 55 83 77 84 78 85
REMARK SMILES IDX 83 86 79 87 80 88 82 89 84 90 81 91 65 92 66 93 71 94 67 95
REMARK SMILES IDX 68 96 70 97 72 98 69 99
REMARK H PARENT 11 14 89 61 63 72
REMARK Flexibility Score: inf
ROOT
ATOM      1  C   UNL A   1      33.693  30.346  26.945  1.00  0.00     0.188 C 
ENDROOT
BRANCH   1   2
ATOM      2  C   UNL A   1      34.017  29.307  25.873  1.00  0.00     0.188 C 
BRANCH   2   3
ATOM      3  O   UNL A   1      33.149  29.220  24.762  1.00  0.00    -0.376 OA
BRANCH   3   4
ATOM      4  C   UNL A   1      33.748  29.158  23.471  1.00  0.00     0.202 C 
BRANCH   4   5
ATOM      5  C   UNL A   1      33.661  27.862  22.636  1.00  0.00     0.261 C 
BRANCH   5   6
ATOM      6  O   UNL A   1      33.868  26.621  23.369  1.00  0.00    -0.463 OA
BRANCH   6   7
ATOM      7  C   UNL A   1      33.347  25.501  22.806  1.00  0.00     0.310 C 
ATOM      8  O   UNL A   1      33.861  24.951  21.831  1.00  0.00    -0.252 OA
BRANCH   7   9
ATOM      9  C   UNL A   1      32.097  24.897  23.426  1.00  0.00     0.161 C 
BRANCH   9  10
ATOM     10  C   UNL A   1      32.052  24.366  24.843  1.00  0.00     0.000 A 
ATOM     11  C   UNL A   1      31.624  25.032  26.006  1.00  0.00     0.093 A 
ATOM     12  N   UNL A   1      31.718  24.111  27.032  1.00  0.00    -0.352 N 
ATOM     13  C   UNL A   1      32.584  23.103  26.678  1.00  0.00     0.046 A 
ATOM     14  H   UNL A   1      31.237  24.167  27.889  1.00  0.00     0.167 HD
ATOM     15  C   UNL A   1      32.796  23.226  25.309  1.00  0.00     0.008 A 
ATOM     16  C   UNL A   1      33.213  22.124  27.459  1.00  0.00     0.030 A 
ATOM     17  C   UNL A   1      33.716  22.347  24.699  1.00  0.00     0.057 A 
ATOM     18  C   UNL A   1      34.163  21.301  26.833  1.00  0.00     0.049 A 
ATOM     19  C   UNL A   1      34.437  21.426  25.472  1.00  0.00     0.130 A 
BRANCH  11  20
ATOM     20  C   UNL A   1      31.167  26.420  26.134  1.00  0.00     0.227 C 
ATOM     21  O   UNL A   1      31.539  27.155  27.049  1.00  0.00    -0.285 OA
BRANCH  20  22
ATOM     22  C   UNL A   1      30.171  27.013  25.196  1.00  0.00     0.113 A 
ATOM     23  C   UNL A   1      29.631  28.538  23.427  1.00  0.00    -0.044 A 
ATOM     24  C   UNL A   1      28.523  27.737  23.134  1.00  0.00     0.024 A 
ATOM     25  C   UNL A   1      30.469  28.171  24.488  1.00  0.00     0.036 A 
ATOM     26  C   UNL A   1      28.291  26.615  23.910  1.00  0.00     0.112 A 
ATOM     27  N   UNL A   1      29.080  26.244  24.939  1.00  0.00    -0.253 NA
BRANCH  23  28
ATOM     28  C   UNL A   1      29.957  29.740  22.580  1.00  0.00     0.032 C 
ATOM     29  C   UNL A   1      29.201  30.979  23.034  1.00  0.00     0.009 C 
ENDBRANCH  23  28
ENDBRANCH  20  22
ENDBRANCH  11  20
BRANCH  19  30
ATOM     30  O   UNL A   1      35.388  20.741  24.769  1.00  0.00    -0.406 OA
BRANCH  30  31
ATOM     31  C   UNL A   1      36.748  21.056  25.007  1.00  0.00     0.573 C 
ATOM     32  F   UNL A   1      37.526  19.952  24.996  1.00  0.00    -0.132 F 
ATOM     33  F   UNL A   1      37.204  21.936  24.090  1.00  0.00    -0.132 F 
ATOM     34  F   UNL A   1      36.853  21.628  26.227  1.00  0.00    -0.132 F 
ENDBRANCH  30  31
ENDBRANCH  19  30
ENDBRANCH   9  10
ENDBRANCH   7   9
ENDBRANCH   6   7
ENDBRANCH   5   6
ENDBRANCH   4   5
ENDBRANCH   3   4
ENDBRANCH   2   3
ENDBRANCH   1   2
BRANCH   1  35
ATOM     35  O   UNL A   1      34.736  30.814  27.783  1.00  0.00    -0.377 OA
BRANCH  35  36
ATOM     36  C   UNL A   1      34.905  32.206  27.997  1.00  0.00     0.188 C 
BRANCH  36  37
ATOM     37  C   UNL A   1      33.661  33.051  28.263  1.00  0.00     0.188 C 
BRANCH  37  38
ATOM     38  O   UNL A   1      33.781  34.186  29.122  1.00  0.00    -0.376 OA
BRANCH  38  39
ATOM     39  C   UNL A   1      34.803  34.218  30.114  1.00  0.00     0.202 C 
BRANCH  39  40
ATOM     40  C   UNL A   1      34.351  33.782  31.503  1.00  0.00     0.261 C 
BRANCH  40  41
ATOM     41  O   UNL A   1      34.978  32.548  31.873  1.00  0.00    -0.460 OA
BRANCH  41  42
ATOM     42  C   UNL A   1      36.195  32.681  32.444  1.00  0.00     0.338 C 
ATOM     43  O   UNL A   1      36.484  33.306  33.452  1.00  0.00    -0.246 OA
BRANCH  42  44
ATOM     44  C   UNL A   1      37.144  31.801  31.746  1.00  0.00     0.060 A 
ATOM     45  C   UNL A   1      38.085  31.107  32.519  1.00  0.00     0.016 A 
ATOM     46  C   UNL A   1      37.144  31.697  30.352  1.00  0.00     0.016 A 
ATOM     47  C   UNL A   1      39.067  30.349  31.898  1.00  0.00     0.010 A 
ATOM     48  C   UNL A   1      38.139  30.949  29.728  1.00  0.00     0.010 A 
ATOM     49  C   UNL A   1      39.128  30.314  30.499  1.00  0.00    -0.014 A 
BRANCH  49  50
ATOM     50  C   UNL A   1      40.353  29.809  29.851  1.00  0.00     0.031 A 
ATOM     51  C   UNL A   1      41.498  30.763  29.669  1.00  0.00     0.074 A 
ATOM     52  C   UNL A   1      40.447  28.527  29.466  1.00  0.00     0.049 A 
ATOM     53  N   UNL A   1      42.650  30.577  29.082  1.00  0.00    -0.248 NA
ATOM     54  C   UNL A   1      41.315  32.117  30.223  1.00  0.00     0.031 C 
ATOM     55  C   UNL A   1      39.410  27.513  29.647  1.00  0.00     0.029 A 
ATOM     56  N   UNL A   1      41.465  27.867  28.833  1.00  0.00    -0.354 N 
ATOM     57  C   UNL A   1      43.323  31.787  29.187  1.00  0.00     0.074 A 
ATOM     58  C   UNL A   1      42.440  32.712  29.862  1.00  0.00     0.031 C 
ATOM     59  C   UNL A   1      39.843  26.354  29.121  1.00  0.00     0.029 A 
ATOM     60  C   UNL A   1      41.166  26.561  28.537  1.00  0.00     0.049 A 
ATOM     61  H   UNL A   1      42.328  28.287  28.613  1.00  0.00     0.167 HD
ATOM     62  C   UNL A   1      44.571  32.095  28.763  1.00  0.00     0.037 A 
ATOM     63  C   UNL A   1      41.878  25.651  27.845  1.00  0.00     0.037 A 
ATOM     64  C   UNL A   1      45.433  31.162  28.087  1.00  0.00     0.049 A 
ATOM     65  C   UNL A   1      43.230  26.041  27.310  1.00  0.00     0.074 A 
ATOM     66  C   UNL A   1      46.719  31.358  27.621  1.00  0.00     0.029 A 
ATOM     67  N   UNL A   1      45.085  29.855  27.774  1.00  0.00    -0.354 N 
ATOM     68  N   UNL A   1      43.871  27.181  27.425  1.00  0.00    -0.248 NA
ATOM     69  C   UNL A   1      43.962  25.017  26.551  1.00  0.00     0.031 C 
ATOM     70  C   UNL A   1      47.127  30.190  26.969  1.00  0.00     0.029 A 
ATOM     71  C   UNL A   1      46.122  29.242  27.091  1.00  0.00     0.049 A 
ATOM     72  H   UNL A   1      44.229  29.428  28.003  1.00  0.00     0.167 HD
ATOM     73  C   UNL A   1      45.091  27.001  26.784  1.00  0.00     0.074 A 
ATOM     74  C   UNL A   1      45.105  25.638  26.293  1.00  0.00     0.031 C 
ATOM     75  C   UNL A   1      46.111  27.880  26.618  1.00  0.00     0.037 A 
BRANCH  62  76
ATOM     76  C   UNL A   1      45.051  33.500  28.983  1.00  0.00     0.057 A 
ATOM     77  C   UNL A   1      44.716  34.548  28.114  1.00  0.00     0.134 A 
ATOM     78  C   UNL A   1      45.854  33.811  30.088  1.00  0.00     0.134 A 
ATOM     79  F   UNL A   1      43.967  34.317  27.026  1.00  0.00    -0.206 F 
ATOM     80  C   UNL A   1      45.184  35.847  28.322  1.00  0.00     0.040 A 
ATOM     81  C   UNL A   1      46.302  35.112  30.323  1.00  0.00     0.040 A 
ATOM     82  F   UNL A   1      46.214  32.857  30.959  1.00  0.00    -0.206 F 
ATOM     83  C   UNL A   1      45.974  36.133  29.434  1.00  0.00     0.006 A 
ENDBRANCH  62  76
BRANCH  63  84
ATOM     84  C   UNL A   1      41.320  24.296  27.607  1.00  0.00     0.057 A 
ATOM     85  C   UNL A   1      40.330  24.078  26.641  1.00  0.00     0.134 A 
ATOM     86  C   UNL A   1      41.753  23.189  28.347  1.00  0.00     0.134 A 
ATOM     87  F   UNL A   1      39.860  25.101  25.914  1.00  0.00    -0.206 F 
ATOM     88  C   UNL A   1      39.778  22.812  26.433  1.00  0.00     0.040 A 
ATOM     89  C   UNL A   1      41.231  21.914  28.129  1.00  0.00     0.040 A 
ATOM     90  F   UNL A   1      42.701  23.329  29.285  1.00  0.00    -0.206 F 
ATOM     91  C   UNL A   1      40.233  21.724  27.175  1.00  0.00     0.006 A 
ENDBRANCH  63  84
BRANCH  75  92
ATOM     92  C   UNL A   1      47.341  27.381  25.914  1.00  0.00     0.057 A 
ATOM     93  C   UNL A   1      47.521  27.531  24.533  1.00  0.00     0.134 A 
ATOM     94  C   UNL A   1      48.378  26.781  26.640  1.00  0.00     0.134 A 
ATOM     95  F   UNL A   1      46.562  28.088  23.779  1.00  0.00    -0.206 F 
ATOM     96  C   UNL A   1      48.677  27.078  23.896  1.00  0.00     0.040 A 
ATOM     97  C   UNL A   1      49.552  26.353  26.020  1.00  0.00     0.040 A 
ATOM     98  F   UNL A   1      48.276  26.618  27.969  1.00  0.00    -0.206 F 
ATOM     99  C   UNL A   1      49.700  26.494  24.642  1.00  0.00     0.006 A 
ENDBRANCH  75  92
ENDBRANCH  49  50
ENDBRANCH  42  44
ENDBRANCH  41  42
ENDBRANCH  40  41
ENDBRANCH  39  40
ENDBRANCH  38  39
ENDBRANCH  37  38
ENDBRANCH  36  37
ENDBRANCH  35  36
ENDBRANCH   1  35
TORSDOF 26
ENDMDL
MODEL 2
REMARK VINA RESULT:     -10.0      4.613      9.714
REMARK SMILES CCc1ccnc(C(=O)c2[nH]c3ccc(OC(F)(F)F)cc3c2CC(=O)OCCOCCOCCOCCOC(=O)c2ccc(-c3c4nc(c(-c5c(F)cccc5F)c5ccc([nH]5)c(-c5c(F)cccc5F)c5nc(c(-c6c(F)cccc6F)c6ccc3[nH]6)C=C5)C=C4)cc2)c1
REMARK SMILES IDX 32 1 31 2 30 3 29 4 28 5 27 6 25 7 26 8 24 9 23 10 10 11
REMARK SMILES IDX 11 12 12 13 22 15 13 16 21 17 14 18 15 19 8 20 9 21 7 22
REMARK SMILES IDX 3 23 4 24 96 25 5 26 6 27 2 28 1 29 16 30 17 31 18 32 19 33
REMARK SMILES IDX 20 34 33 35 34 36 35 37 36 38 37 39 38 40 39 41 40 42 41 43
REMARK SMILES IDX 42 44 43 45 95 46 44 47 94 48 45 49 46 50 47 51 88 52 48 53
REMARK SMILES IDX 93 54 87 55 89 56 49 57 92 58 86 59 85 60 50 62 76 63 59 64
REMARK SMILES IDX 75 65 60 66 63 67 74 68 90 69 61 70 62 71 73 73 91 74 64 75
REMARK SMILES IDX 51 76 52 77 57 78 53 79 54 80 56 81 58 82 55 83 77 84 78 85
REMARK SMILES IDX 83 86 79 87 80 88 82 89 84 90 81 91 65 92 66 93 71 94 67 95
REMARK SMILES IDX 68 96 70 97 72 98 69 99
REMARK H PARENT 11 14 89 61 63 72
REMARK Flexibility Score: inf
ROOT
ATOM      1  C   UNL A   1      37.096  20.286  25.033  1.00  0.00     0.188 C 
ENDROOT
BRANCH   1   2
ATOM      2  C   UNL A   1      35.661  20.808  25.005  1.00  0.00     0.188 C 
BRANCH   2   3
ATOM      3  O   UNL A   1      34.643  19.905  24.623  1.00  0.00    -0.376 OA
BRANCH   3   4
ATOM      4  C   UNL A   1      33.295  20.318  24.833  1.00  0.00     0.202 C 
BRANCH   4   5
ATOM      5  C   UNL A   1      32.546  21.107  23.737  1.00  0.00     0.261 C 
BRANCH   5   6
ATOM      6  O   UNL A   1      33.285  22.204  23.129  1.00  0.00    -0.463 OA
BRANCH   6   7
ATOM      7  C   UNL A   1      32.570  23.325  22.853  1.00  0.00     0.310 C 
ATOM      8  O   UNL A   1      31.341  23.363  22.940  1.00  0.00    -0.252 OA
BRANCH   7   9
ATOM      9  C   UNL A   1      33.325  24.580  22.447  1.00  0.00     0.161 C 
BRANCH   9  10
ATOM     10  C   UNL A   1      33.483  25.779  23.358  1.00  0.00     0.000 A 
ATOM     11  C   UNL A   1      34.116  25.838  24.613  1.00  0.00     0.093 A 
ATOM     12  N   UNL A   1      34.049  27.158  25.015  1.00  0.00    -0.352 N 
ATOM     13  C   UNL A   1      33.045  27.805  24.333  1.00  0.00     0.046 A 
ATOM     14  H   UNL A   1      34.633  27.575  25.689  1.00  0.00     0.167 HD
ATOM     15  C   UNL A   1      32.684  26.973  23.278  1.00  0.00     0.008 A 
ATOM     16  C   UNL A   1      32.415  29.031  24.582  1.00  0.00     0.030 A 
ATOM     17  C   UNL A   1      31.611  27.374  22.455  1.00  0.00     0.057 A 
ATOM     18  C   UNL A   1      31.315  29.375  23.780  1.00  0.00     0.049 A 
ATOM     19  C   UNL A   1      30.894  28.544  22.743  1.00  0.00     0.130 A 
BRANCH  11  20
ATOM     20  C   UNL A   1      34.729  24.738  25.366  1.00  0.00     0.227 C 
ATOM     21  O   UNL A   1      35.883  24.361  25.160  1.00  0.00    -0.285 OA
BRANCH  20  22
ATOM     22  C   UNL A   1      33.971  23.964  26.391  1.00  0.00     0.113 A 
ATOM     23  C   UNL A   1      31.907  23.061  27.209  1.00  0.00    -0.044 A 
ATOM     24  C   UNL A   1      32.654  22.134  27.942  1.00  0.00     0.024 A 
ATOM     25  C   UNL A   1      32.582  24.002  26.422  1.00  0.00     0.036 A 
ATOM     26  C   UNL A   1      34.035  22.188  27.870  1.00  0.00     0.112 A 
ATOM     27  N   UNL A   1      34.708  23.088  27.123  1.00  0.00    -0.253 NA
BRANCH  23  28
ATOM     28  C   UNL A   1      30.401  23.011  27.213  1.00  0.00     0.032 C 
ATOM     29  C   UNL A   1      29.798  23.958  26.187  1.00  0.00     0.009 C 
ENDBRANCH  23  28
ENDBRANCH  20  22
ENDBRANCH  11  20
BRANCH  19  30
ATOM     30  O   UNL A   1      29.799  28.730  21.947  1.00  0.00    -0.406 OA
BRANCH  30  31
ATOM     31  C   UNL A   1      28.609  29.204  22.551  1.00  0.00     0.573 C 
ATOM     32  F   UNL A   1      28.088  28.300  23.409  1.00  0.00    -0.132 F 
ATOM     33  F   UNL A   1      28.833  30.365  23.203  1.00  0.00    -0.132 F 
ATOM     34  F   UNL A   1      27.694  29.435  21.583  1.00  0.00    -0.132 F 
ENDBRANCH  30  31
ENDBRANCH  19  30
ENDBRANCH   9  10
ENDBRANCH   7   9
ENDBRANCH   6   7
ENDBRANCH   5   6
ENDBRANCH   4   5
ENDBRANCH   3   4
ENDBRANCH   2   3
ENDBRANCH   1   2
BRANCH   1  35
ATOM     35  O   UNL A   1      38.164  21.206  24.883  1.00  0.00    -0.377 OA
BRANCH  35  36
ATOM     36  C   UNL A   1      38.486  22.097  25.938  1.00  0.00     0.188 C 
BRANCH  36  37
ATOM     37  C   UNL A   1      39.877  22.000  26.563  1.00  0.00     0.188 C 
BRANCH  37  38
ATOM     38  O   UNL A   1      40.676  20.853  26.269  1.00  0.00    -0.376 OA
BRANCH  38  39
ATOM     39  C   UNL A   1      42.069  20.864  26.571  1.00  0.00     0.202 C 
BRANCH  39  40
ATOM     40  C   UNL A   1      42.937  21.561  25.530  1.00  0.00     0.261 C 
BRANCH  40  41
ATOM     41  O   UNL A   1      43.684  22.627  26.128  1.00  0.00    -0.460 OA
BRANCH  41  42
ATOM     42  C   UNL A   1      43.323  23.865  25.727  1.00  0.00     0.338 C 
ATOM     43  O   UNL A   1      42.985  24.221  24.609  1.00  0.00    -0.246 OA
BRANCH  42  44
ATOM     44  C   UNL A   1      43.234  24.738  26.908  1.00  0.00     0.060 A 
ATOM     45  C   UNL A   1      42.533  24.263  28.024  1.00  0.00     0.016 A 
ATOM     46  C   UNL A   1      43.787  26.022  26.901  1.00  0.00     0.016 A 
ATOM     47  C   UNL A   1      42.333  25.089  29.120  1.00  0.00     0.010 A 
ATOM     48  C   UNL A   1      43.572  26.858  27.994  1.00  0.00     0.010 A 
ATOM     49  C   UNL A   1      42.804  26.407  29.082  1.00  0.00    -0.014 A 
BRANCH  49  50
ATOM     50  C   UNL A   1      42.298  27.375  30.074  1.00  0.00     0.031 A 
ATOM     51  C   UNL A   1      42.994  27.450  31.403  1.00  0.00     0.074 A 
ATOM     52  C   UNL A   1      41.268  28.182  29.781  1.00  0.00     0.049 A 
ATOM     53  N   UNL A   1      42.707  28.173  32.452  1.00  0.00    -0.248 NA
ATOM     54  C   UNL A   1      44.176  26.585  31.571  1.00  0.00     0.031 C 
ATOM     55  C   UNL A   1      40.562  28.221  28.503  1.00  0.00     0.029 A 
ATOM     56  N   UNL A   1      40.633  29.120  30.551  1.00  0.00    -0.354 N 
ATOM     57  C   UNL A   1      43.662  27.845  33.405  1.00  0.00     0.074 A 
ATOM     58  C   UNL A   1      44.518  26.834  32.825  1.00  0.00     0.031 C 
ATOM     59  C   UNL A   1      39.576  29.131  28.580  1.00  0.00     0.029 A 
ATOM     60  C   UNL A   1      39.563  29.706  29.923  1.00  0.00     0.049 A 
ATOM     61  H   UNL A   1      40.918  29.352  31.465  1.00  0.00     0.167 HD
ATOM     62  C   UNL A   1      43.815  28.350  34.651  1.00  0.00     0.037 A 
ATOM     63  C   UNL A   1      38.663  30.587  30.400  1.00  0.00     0.037 A 
ATOM     64  C   UNL A   1      42.949  29.352  35.213  1.00  0.00     0.049 A 
ATOM     65  C   UNL A   1      38.803  31.073  31.818  1.00  0.00     0.074 A 
ATOM     66  C   UNL A   1      43.012  29.945  36.461  1.00  0.00     0.029 A 
ATOM     67  N   UNL A   1      41.853  29.901  34.561  1.00  0.00    -0.354 N 
ATOM     68  N   UNL A   1      39.718  30.774  32.711  1.00  0.00    -0.248 NA
ATOM     69  C   UNL A   1      37.789  32.023  32.295  1.00  0.00     0.031 C 
ATOM     70  C   UNL A   1      41.918  30.807  36.587  1.00  0.00     0.029 A 
ATOM     71  C   UNL A   1      41.213  30.803  35.393  1.00  0.00     0.049 A 
ATOM     72  H   UNL A   1      41.574  29.680  33.644  1.00  0.00     0.167 HD
ATOM     73  C   UNL A   1      39.408  31.522  33.841  1.00  0.00     0.074 A 
ATOM     74  C   UNL A   1      38.229  32.298  33.514  1.00  0.00     0.031 C 
ATOM     75  C   UNL A   1      40.041  31.567  35.040  1.00  0.00     0.037 A 
BRANCH  62  76
ATOM     76  C   UNL A   1      44.927  27.796  35.493  1.00  0.00     0.057 A 
ATOM     77  C   UNL A   1      44.761  26.662  36.299  1.00  0.00     0.134 A 
ATOM     78  C   UNL A   1      46.190  28.402  35.488  1.00  0.00     0.134 A 
ATOM     79  F   UNL A   1      43.572  26.043  36.366  1.00  0.00    -0.206 F 
ATOM     80  C   UNL A   1      45.800  26.167  37.089  1.00  0.00     0.040 A 
ATOM     81  C   UNL A   1      47.246  27.899  36.251  1.00  0.00     0.040 A 
ATOM     82  F   UNL A   1      46.421  29.492  34.741  1.00  0.00    -0.206 F 
ATOM     83  C   UNL A   1      47.050  26.783  37.061  1.00  0.00     0.006 A 
ENDBRANCH  62  76
BRANCH  63  84
ATOM     84  C   UNL A   1      37.547  31.048  29.537  1.00  0.00     0.057 A 
ATOM     85  C   UNL A   1      36.427  30.242  29.304  1.00  0.00     0.134 A 
ATOM     86  C   UNL A   1      37.578  32.302  28.914  1.00  0.00     0.134 A 
ATOM     87  F   UNL A   1      36.347  29.023  29.856  1.00  0.00    -0.206 F 
ATOM     88  C   UNL A   1      35.388  30.657  28.468  1.00  0.00     0.040 A 
ATOM     89  C   UNL A   1      36.534  32.741  28.100  1.00  0.00     0.040 A 
ATOM     90  F   UNL A   1      38.621  33.125  29.098  1.00  0.00    -0.206 F 
ATOM     91  C   UNL A   1      35.437  31.913  27.868  1.00  0.00     0.006 A 
ENDBRANCH  63  84
BRANCH  75  92
ATOM     92  C   UNL A   1      39.498  32.518  36.069  1.00  0.00     0.057 A 
ATOM     93  C   UNL A   1      38.483  32.148  36.960  1.00  0.00     0.134 A 
ATOM     94  C   UNL A   1      40.033  33.806  36.195  1.00  0.00     0.134 A 
ATOM     95  F   UNL A   1      37.922  30.932  36.887  1.00  0.00    -0.206 F 
ATOM     96  C   UNL A   1      38.001  33.036  37.923  1.00  0.00     0.040 A 
ATOM     97  C   UNL A   1      39.581  34.692  37.174  1.00  0.00     0.040 A 
ATOM     98  F   UNL A   1      41.016  34.220  35.381  1.00  0.00    -0.206 F 
ATOM     99  C   UNL A   1      38.556  34.310  38.036  1.00  0.00     0.006 A 
ENDBRANCH  75  92
ENDBRANCH  49  50
ENDBRANCH  42  44
ENDBRANCH  41  42
ENDBRANCH  40  41
ENDBRANCH  39  40
ENDBRANCH  38  39
ENDBRANCH  37  38
ENDBRANCH  36  37
ENDBRANCH  35  36
ENDBRANCH   1  35
TORSDOF 26
ENDMDL
MODEL 3
REMARK VINA RESULT:      -9.6      4.061      8.625
REMARK SMILES CCc1ccnc(C(=O)c2[nH]c3ccc(OC(F)(F)F)cc3c2CC(=O)OCCOCCOCCOCCOC(=O)c2ccc(-c3c4nc(c(-c5c(F)cccc5F)c5ccc([nH]5)c(-c5c(F)cccc5F)c5nc(c(-c6c(F)cccc6F)c6ccc3[nH]6)C=C5)C=C4)cc2)c1
REMARK SMILES IDX 32 1 31 2 30 3 29 4 28 5 27 6 25 7 26 8 24 9 23 10 10 11
REMARK SMILES IDX 11 12 12 13 22 15 13 16 21 17 14 18 15 19 8 20 9 21 7 22
REMARK SMILES IDX 3 23 4 24 96 25 5 26 6 27 2 28 1 29 16 30 17 31 18 32 19 33
REMARK SMILES IDX 20 34 33 35 34 36 35 37 36 38 37 39 38 40 39 41 40 42 41 43
REMARK SMILES IDX 42 44 43 45 95 46 44 47 94 48 45 49 46 50 47 51 88 52 48 53
REMARK SMILES IDX 93 54 87 55 89 56 49 57 92 58 86 59 85 60 50 62 76 63 59 64
REMARK SMILES IDX 75 65 60 66 63 67 74 68 90 69 61 70 62 71 73 73 91 74 64 75
REMARK SMILES IDX 51 76 52 77 57 78 53 79 54 80 56 81 58 82 55 83 77 84 78 85
REMARK SMILES IDX 83 86 79 87 80 88 82 89 84 90 81 91 65 92 66 93 71 94 67 95
REMARK SMILES IDX 68 96 70 97 72 98 69 99
REMARK H PARENT 11 14 89 61 63 72
REMARK Flexibility Score: inf
ROOT
ATOM      1  C   UNL A   1      35.821  23.577  25.502  1.00  0.00     0.188 C 
ENDROOT
BRANCH   1   2
ATOM      2  C   UNL A   1      35.043  22.263  25.548  1.00  0.00     0.188 C 
BRANCH   2   3
ATOM      3  O   UNL A   1      34.143  22.072  26.620  1.00  0.00    -0.376 OA
BRANCH   3   4
ATOM      4  C   UNL A   1      33.543  23.236  27.181  1.00  0.00     0.202 C 
BRANCH   4   5
ATOM      5  C   UNL A   1      32.027  23.481  27.020  1.00  0.00     0.261 C 
BRANCH   5   6
ATOM      6  O   UNL A   1      31.647  24.459  26.010  1.00  0.00    -0.463 OA
BRANCH   6   7
ATOM      7  C   UNL A   1      31.954  25.752  26.285  1.00  0.00     0.310 C 
ATOM      8  O   UNL A   1      31.397  26.388  27.181  1.00  0.00    -0.252 OA
BRANCH   7   9
ATOM      9  C   UNL A   1      33.046  26.423  25.466  1.00  0.00     0.161 C 
BRANCH   9  10
ATOM     10  C   UNL A   1      32.927  26.669  23.977  1.00  0.00     0.000 A 
ATOM     11  C   UNL A   1      32.339  27.768  23.323  1.00  0.00     0.093 A 
ATOM     12  N   UNL A   1      32.534  27.558  21.971  1.00  0.00    -0.352 N 
ATOM     13  C   UNL A   1      32.782  26.227  21.735  1.00  0.00     0.046 A 
ATOM     14  H   UNL A   1      32.500  28.258  21.280  1.00  0.00     0.167 HD
ATOM     15  C   UNL A   1      33.051  25.649  22.971  1.00  0.00     0.008 A 
ATOM     16  C   UNL A   1      32.760  25.492  20.542  1.00  0.00     0.030 A 
ATOM     17  C   UNL A   1      33.269  24.255  23.018  1.00  0.00     0.057 A 
ATOM     18  C   UNL A   1      32.925  24.101  20.629  1.00  0.00     0.049 A 
ATOM     19  C   UNL A   1      33.150  23.479  21.857  1.00  0.00     0.130 A 
BRANCH  11  20
ATOM     20  C   UNL A   1      31.650  28.913  23.927  1.00  0.00     0.227 C 
ATOM     21  O   UNL A   1      32.231  29.728  24.645  1.00  0.00    -0.285 OA
BRANCH  20  22
ATOM     22  C   UNL A   1      30.184  29.132  23.760  1.00  0.00     0.113 A 
ATOM     23  C   UNL A   1      28.338  30.586  23.293  1.00  0.00    -0.044 A 
ATOM     24  C   UNL A   1      27.594  29.457  22.939  1.00  0.00     0.024 A 
ATOM     25  C   UNL A   1      29.661  30.418  23.721  1.00  0.00     0.036 A 
ATOM     26  C   UNL A   1      28.191  28.211  23.035  1.00  0.00     0.112 A 
ATOM     27  N   UNL A   1      29.461  28.024  23.448  1.00  0.00    -0.253 NA
BRANCH  23  28
ATOM     28  C   UNL A   1      27.751  31.967  23.156  1.00  0.00     0.032 C 
ATOM     29  C   UNL A   1      28.460  32.784  22.088  1.00  0.00     0.009 C 
ENDBRANCH  23  28
ENDBRANCH  20  22
ENDBRANCH  11  20
BRANCH  19  30
ATOM     30  O   UNL A   1      33.250  22.134  22.080  1.00  0.00    -0.406 OA
BRANCH  30  31
ATOM     31  C   UNL A   1      32.140  21.470  22.656  1.00  0.00     0.573 C 
ATOM     32  F   UNL A   1      31.007  22.195  22.539  1.00  0.00    -0.132 F 
ATOM     33  F   UNL A   1      31.960  20.258  22.089  1.00  0.00    -0.132 F 
ATOM     34  F   UNL A   1      32.382  21.286  23.974  1.00  0.00    -0.132 F 
ENDBRANCH  30  31
ENDBRANCH  19  30
ENDBRANCH   9  10
ENDBRANCH   7   9
ENDBRANCH   6   7
ENDBRANCH   5   6
ENDBRANCH   4   5
ENDBRANCH   3   4
ENDBRANCH   2   3
ENDBRANCH   1   2
BRANCH   1  35
ATOM     35  O   UNL A   1      36.941  23.741  26.355  1.00  0.00    -0.377 OA
BRANCH  35  36
ATOM     36  C   UNL A   1      38.253  23.707  25.819  1.00  0.00     0.188 C 
BRANCH  36  37
ATOM     37  C   UNL A   1      39.396  24.251  26.675  1.00  0.00     0.188 C 
BRANCH  37  38
ATOM     38  O   UNL A   1      39.929  23.417  27.705  1.00  0.00    -0.376 OA
BRANCH  38  39
ATOM     39  C   UNL A   1      40.270  22.064  27.416  1.00  0.00     0.202 C 
BRANCH  39  40
ATOM     40  C   UNL A   1      41.548  21.893  26.603  1.00  0.00     0.261 C 
BRANCH  40  41
ATOM     41  O   UNL A   1      42.587  22.738  27.112  1.00  0.00    -0.460 OA
BRANCH  41  42
ATOM     42  C   UNL A   1      43.655  22.875  26.296  1.00  0.00     0.338 C 
ATOM     43  O   UNL A   1      44.096  22.062  25.499  1.00  0.00    -0.246 OA
BRANCH  42  44
ATOM     44  C   UNL A   1      44.145  24.259  26.386  1.00  0.00     0.060 A 
ATOM     45  C   UNL A   1      44.199  25.012  25.206  1.00  0.00     0.016 A 
ATOM     46  C   UNL A   1      44.590  24.792  27.599  1.00  0.00     0.016 A 
ATOM     47  C   UNL A   1      44.752  26.285  25.222  1.00  0.00     0.010 A 
ATOM     48  C   UNL A   1      45.160  26.063  27.613  1.00  0.00     0.010 A 
ATOM     49  C   UNL A   1      45.284  26.789  26.415  1.00  0.00    -0.014 A 
BRANCH  49  50
ATOM     50  C   UNL A   1      46.169  27.968  26.361  1.00  0.00     0.031 A 
ATOM     51  C   UNL A   1      47.639  27.736  26.164  1.00  0.00     0.074 A 
ATOM     52  C   UNL A   1      45.665  29.208  26.452  1.00  0.00     0.049 A 
ATOM     53  N   UNL A   1      48.620  28.598  26.139  1.00  0.00    -0.248 NA
ATOM     54  C   UNL A   1      48.060  26.336  25.976  1.00  0.00     0.031 C 
ATOM     55  C   UNL A   1      44.248  29.536  26.591  1.00  0.00     0.029 A 
ATOM     56  N   UNL A   1      46.299  30.422  26.450  1.00  0.00    -0.354 N 
ATOM     57  C   UNL A   1      49.772  27.847  25.942  1.00  0.00     0.074 A 
ATOM     58  C   UNL A   1      49.375  26.458  25.888  1.00  0.00     0.031 C 
ATOM     59  C   UNL A   1      44.120  30.872  26.675  1.00  0.00     0.029 A 
ATOM     60  C   UNL A   1      45.447  31.482  26.635  1.00  0.00     0.049 A 
ATOM     61  H   UNL A   1      47.271  30.524  26.328  1.00  0.00     0.167 HD
ATOM     62  C   UNL A   1      51.047  28.282  25.809  1.00  0.00     0.037 A 
ATOM     63  C   UNL A   1      45.723  32.791  26.782  1.00  0.00     0.037 A 
ATOM     64  C   UNL A   1      51.423  29.669  25.871  1.00  0.00     0.049 A 
ATOM     65  C   UNL A   1      47.157  33.244  26.714  1.00  0.00     0.074 A 
ATOM     66  C   UNL A   1      52.681  30.228  25.742  1.00  0.00     0.029 A 
ATOM     67  N   UNL A   1      50.538  30.716  26.092  1.00  0.00    -0.354 N 
ATOM     68  N   UNL A   1      48.243  32.533  26.510  1.00  0.00    -0.248 NA
ATOM     69  C   UNL A   1      47.407  34.680  26.893  1.00  0.00     0.031 C 
ATOM     70  C   UNL A   1      52.565  31.607  25.946  1.00  0.00     0.029 A 
ATOM     71  C   UNL A   1      51.227  31.915  26.134  1.00  0.00     0.049 A 
ATOM     72  H   UNL A   1      49.565  30.618  26.203  1.00  0.00     0.167 HD
ATOM     73  C   UNL A   1      49.297  33.439  26.503  1.00  0.00     0.074 A 
ATOM     74  C   UNL A   1      48.718  34.751  26.711  1.00  0.00     0.031 C 
ATOM     75  C   UNL A   1      50.624  33.210  26.338  1.00  0.00     0.037 A 
BRANCH  62  76
ATOM     76  C   UNL A   1      52.117  27.246  25.628  1.00  0.00     0.057 A 
ATOM     77  C   UNL A   1      52.693  26.569  26.712  1.00  0.00     0.134 A 
ATOM     78  C   UNL A   1      52.573  26.913  24.346  1.00  0.00     0.134 A 
ATOM     79  F   UNL A   1      52.318  26.853  27.968  1.00  0.00    -0.206 F 
ATOM     80  C   UNL A   1      53.700  25.619  26.529  1.00  0.00     0.040 A 
ATOM     81  C   UNL A   1      53.558  25.943  24.148  1.00  0.00     0.040 A 
ATOM     82  F   UNL A   1      52.067  27.522  23.263  1.00  0.00    -0.206 F 
ATOM     83  C   UNL A   1      54.130  25.299  25.243  1.00  0.00     0.006 A 
ENDBRANCH  62  76
BRANCH  63  84
ATOM     84  C   UNL A   1      44.623  33.759  27.022  1.00  0.00     0.057 A 
ATOM     85  C   UNL A   1      43.990  34.417  25.962  1.00  0.00     0.134 A 
ATOM     86  C   UNL A   1      44.187  34.059  28.319  1.00  0.00     0.134 A 
ATOM     87  F   UNL A   1      44.376  34.188  24.698  1.00  0.00    -0.206 F 
ATOM     88  C   UNL A   1      42.977  35.352  26.182  1.00  0.00     0.040 A 
ATOM     89  C   UNL A   1      43.156  34.969  28.552  1.00  0.00     0.040 A 
ATOM     90  F   UNL A   1      44.750  33.461  29.379  1.00  0.00    -0.206 F 
ATOM     91  C   UNL A   1      42.552  35.626  27.481  1.00  0.00     0.006 A 
ENDBRANCH  63  84
BRANCH  75  92
ATOM     92  C   UNL A   1      51.533  34.406  26.330  1.00  0.00     0.057 A 
ATOM     93  C   UNL A   1      51.905  35.050  25.143  1.00  0.00     0.134 A 
ATOM     94  C   UNL A   1      52.004  34.945  27.534  1.00  0.00     0.134 A 
ATOM     95  F   UNL A   1      51.496  34.579  23.956  1.00  0.00    -0.206 F 
ATOM     96  C   UNL A   1      52.736  36.171  25.154  1.00  0.00     0.040 A 
ATOM     97  C   UNL A   1      52.809  36.084  27.559  1.00  0.00     0.040 A 
ATOM     98  F   UNL A   1      51.675  34.384  28.708  1.00  0.00    -0.206 F 
ATOM     99  C   UNL A   1      53.184  36.696  26.365  1.00  0.00     0.006 A 
ENDBRANCH  75  92
ENDBRANCH  49  50
ENDBRANCH  42  44
ENDBRANCH  41  42
ENDBRANCH  40  41
ENDBRANCH  39  40
ENDBRANCH  38  39
ENDBRANCH  37  38
ENDBRANCH  36  37
ENDBRANCH  35  36
ENDBRANCH   1  35
TORSDOF 26
ENDMDL
