MODEL 1
REMARK VINA RESULT:     -10.3      0.000      0.000
REMARK SMILES Cc1cc2cc(-c3ccc([C@@H](C)C(=O)OCCOCCOCCOCCOC(=O)c4ccc(-c5c6nc(c(-c7c(F)cccc7F)c7ccc([nH]7)c(-c7c(F)cccc7F)c7nc(c(-c8c(F)cccc8F)c8ccc5[nH]8)C=C7)C=C6)cc4)cc3)ccc2[nH]1
REMARK SMILES IDX 21 1 20 2 19 3 18 4 17 5 16 6 15 7 13 8 14 9 11 10 12 11
REMARK SMILES IDX 10 12 7 13 8 14 85 15 9 16 84 17 6 18 1 19 2 20 3 21 89 22
REMARK SMILES IDX 4 23 88 24 5 26 87 27 86 28 22 29 23 30 24 31 25 32 26 33
REMARK SMILES IDX 27 34 28 35 29 36 30 37 31 38 83 39 32 40 82 41 33 42 34 43
REMARK SMILES IDX 35 44 76 45 36 46 81 47 75 48 77 49 37 50 80 51 74 52 73 53
REMARK SMILES IDX 38 55 64 56 47 57 63 58 48 59 51 60 62 61 78 62 49 63 50 64
REMARK SMILES IDX 61 66 79 67 52 68 39 69 40 70 45 71 41 72 42 73 44 74 46 75
REMARK SMILES IDX 43 76 65 77 66 78 71 79 67 80 68 81 70 82 72 83 69 84 53 85
REMARK SMILES IDX 54 86 59 87 55 88 56 89 58 90 60 91 57 92
REMARK H PARENT 89 25 77 54 51 65
REMARK Flexibility Score: inf
ROOT
ATOM      1  O   UNL A   1      35.204  24.185  24.530  1.00  0.00    -0.377 OA
ENDROOT
BRANCH   1   2
ATOM      2  C   UNL A   1      34.574  24.839  25.612  1.00  0.00     0.188 C 
BRANCH   2   3
ATOM      3  C   UNL A   1      33.880  26.161  25.255  1.00  0.00     0.188 C 
BRANCH   3   4
ATOM      4  O   UNL A   1      34.266  26.900  24.105  1.00  0.00    -0.376 OA
BRANCH   4   5
ATOM      5  C   UNL A   1      33.520  28.033  23.685  1.00  0.00     0.202 C 
BRANCH   5   6
ATOM      6  C   UNL A   1      32.668  28.853  24.675  1.00  0.00     0.261 C 
BRANCH   6   7
ATOM      7  O   UNL A   1      31.245  28.619  24.669  1.00  0.00    -0.463 OA
BRANCH   7   8
ATOM      8  C   UNL A   1      30.648  28.577  23.456  1.00  0.00     0.313 C 
ATOM      9  O   UNL A   1      30.663  29.520  22.666  1.00  0.00    -0.252 OA
BRANCH   8  10
ATOM     10  C   UNL A   1      29.907  27.285  23.113  1.00  0.00     0.126 C 
ATOM     11  C   UNL A   1      28.482  27.397  23.644  1.00  0.00     0.025 C 
BRANCH  10  12
ATOM     12  C   UNL A   1      30.503  25.913  23.430  1.00  0.00    -0.034 A 
ATOM     13  C   UNL A   1      31.569  23.348  24.137  1.00  0.00    -0.018 A 
ATOM     14  C   UNL A   1      31.882  23.969  22.914  1.00  0.00     0.009 A 
ATOM     15  C   UNL A   1      30.697  24.024  24.997  1.00  0.00     0.009 A 
ATOM     16  C   UNL A   1      31.366  25.230  22.566  1.00  0.00     0.005 A 
ATOM     17  C   UNL A   1      30.185  25.287  24.656  1.00  0.00     0.005 A 
BRANCH  13  18
ATOM     18  C   UNL A   1      32.211  22.076  24.526  1.00  0.00    -0.018 A 
ATOM     19  C   UNL A   1      34.006  16.243  23.889  1.00  0.00     0.064 C 
ATOM     20  C   UNL A   1      33.607  17.657  24.101  1.00  0.00     0.013 A 
ATOM     21  C   UNL A   1      32.923  18.525  23.276  1.00  0.00     0.031 A 
ATOM     22  N   UNL A   1      33.897  18.340  25.259  1.00  0.00    -0.359 N 
ATOM     23  C   UNL A   1      32.788  19.764  23.956  1.00  0.00     0.000 A 
ATOM     24  C   UNL A   1      33.409  19.628  25.194  1.00  0.00     0.046 A 
ATOM     25  H   UNL A   1      34.385  17.963  26.026  1.00  0.00     0.166 HD
ATOM     26  C   UNL A   1      32.191  20.994  23.625  1.00  0.00     0.019 A 
ATOM     27  C   UNL A   1      33.465  20.679  26.118  1.00  0.00     0.027 A 
ATOM     28  C   UNL A   1      32.859  21.899  25.760  1.00  0.00     0.011 A 
ENDBRANCH  13  18
ENDBRANCH  10  12
ENDBRANCH   8  10
ENDBRANCH   7   8
ENDBRANCH   6   7
ENDBRANCH   5   6
ENDBRANCH   4   5
ENDBRANCH   3   4
ENDBRANCH   2   3
ENDBRANCH   1   2
BRANCH   1  29
ATOM     29  C   UNL A   1      36.468  23.599  24.789  1.00  0.00     0.188 C 
BRANCH  29  30
ATOM     30  C   UNL A   1      36.687  22.152  24.309  1.00  0.00     0.188 C 
BRANCH  30  31
ATOM     31  O   UNL A   1      37.683  21.448  25.038  1.00  0.00    -0.376 OA
BRANCH  31  32
ATOM     32  C   UNL A   1      37.695  20.028  24.992  1.00  0.00     0.202 C 
BRANCH  32  33
ATOM     33  C   UNL A   1      39.009  19.289  25.302  1.00  0.00     0.261 C 
BRANCH  33  34
ATOM     34  O   UNL A   1      39.826  19.812  26.360  1.00  0.00    -0.460 OA
BRANCH  34  35
ATOM     35  C   UNL A   1      41.164  19.699  26.261  1.00  0.00     0.338 C 
ATOM     36  O   UNL A   1      41.795  18.730  25.873  1.00  0.00    -0.246 OA
BRANCH  35  37
ATOM     37  C   UNL A   1      41.749  21.033  26.521  1.00  0.00     0.060 A 
ATOM     38  C   UNL A   1      41.960  21.440  27.846  1.00  0.00     0.016 A 
ATOM     39  C   UNL A   1      42.100  21.874  25.462  1.00  0.00     0.016 A 
ATOM     40  C   UNL A   1      42.486  22.705  28.118  1.00  0.00     0.010 A 
ATOM     41  C   UNL A   1      42.599  23.151  25.735  1.00  0.00     0.010 A 
ATOM     42  C   UNL A   1      42.761  23.585  27.064  1.00  0.00    -0.014 A 
BRANCH  42  43
ATOM     43  C   UNL A   1      43.005  25.022  27.340  1.00  0.00     0.031 A 
ATOM     44  C   UNL A   1      44.395  25.557  27.121  1.00  0.00     0.074 A 
ATOM     45  C   UNL A   1      42.029  25.839  27.772  1.00  0.00     0.049 A 
ATOM     46  N   UNL A   1      44.887  26.738  27.391  1.00  0.00    -0.248 NA
ATOM     47  C   UNL A   1      45.360  24.626  26.513  1.00  0.00     0.031 C 
ATOM     48  C   UNL A   1      40.631  25.462  27.967  1.00  0.00     0.029 A 
ATOM     49  N   UNL A   1      42.077  27.161  28.142  1.00  0.00    -0.354 N 
ATOM     50  C   UNL A   1      46.220  26.688  26.998  1.00  0.00     0.074 A 
ATOM     51  C   UNL A   1      46.467  25.353  26.500  1.00  0.00     0.031 C 
ATOM     52  C   UNL A   1      39.956  26.524  28.443  1.00  0.00     0.029 A 
ATOM     53  C   UNL A   1      40.883  27.641  28.624  1.00  0.00     0.049 A 
ATOM     54  H   UNL A   1      42.889  27.712  28.067  1.00  0.00     0.167 HD
ATOM     55  C   UNL A   1      47.152  27.668  27.040  1.00  0.00     0.037 A 
ATOM     56  C   UNL A   1      40.587  28.834  29.180  1.00  0.00     0.037 A 
ATOM     57  C   UNL A   1      46.906  28.992  27.549  1.00  0.00     0.049 A 
ATOM     58  C   UNL A   1      41.670  29.875  29.318  1.00  0.00     0.074 A 
ATOM     59  C   UNL A   1      47.785  30.056  27.640  1.00  0.00     0.029 A 
ATOM     60  N   UNL A   1      45.694  29.427  28.059  1.00  0.00    -0.354 N 
ATOM     61  N   UNL A   1      42.924  29.826  28.935  1.00  0.00    -0.248 NA
ATOM     62  C   UNL A   1      41.296  31.141  29.967  1.00  0.00     0.031 C 
ATOM     63  C   UNL A   1      47.119  31.118  28.259  1.00  0.00     0.029 A 
ATOM     64  C   UNL A   1      45.807  30.737  28.492  1.00  0.00     0.049 A 
ATOM     65  H   UNL A   1      44.872  28.885  28.108  1.00  0.00     0.167 HD
ATOM     66  C   UNL A   1      43.473  31.063  29.259  1.00  0.00     0.074 A 
ATOM     67  C   UNL A   1      42.415  31.843  29.864  1.00  0.00     0.031 C 
ATOM     68  C   UNL A   1      44.738  31.512  29.070  1.00  0.00     0.037 A 
BRANCH  55  69
ATOM     69  C   UNL A   1      48.531  27.332  26.554  1.00  0.00     0.057 A 
ATOM     70  C   UNL A   1      48.895  27.466  25.207  1.00  0.00     0.134 A 
ATOM     71  C   UNL A   1      49.517  26.894  27.447  1.00  0.00     0.134 A 
ATOM     72  F   UNL A   1      47.994  27.865  24.295  1.00  0.00    -0.206 F 
ATOM     73  C   UNL A   1      50.180  27.151  24.762  1.00  0.00     0.040 A 
ATOM     74  C   UNL A   1      50.814  26.606  27.020  1.00  0.00     0.040 A 
ATOM     75  F   UNL A   1      49.238  26.746  28.751  1.00  0.00    -0.206 F 
ATOM     76  C   UNL A   1      51.146  26.727  25.672  1.00  0.00     0.006 A 
ENDBRANCH  55  69
BRANCH  56  77
ATOM     77  C   UNL A   1      39.214  29.111  29.679  1.00  0.00     0.057 A 
ATOM     78  C   UNL A   1      38.855  28.839  31.005  1.00  0.00     0.134 A 
ATOM     79  C   UNL A   1      38.215  29.610  28.834  1.00  0.00     0.134 A 
ATOM     80  F   UNL A   1      39.757  28.334  31.858  1.00  0.00    -0.206 F 
ATOM     81  C   UNL A   1      37.549  29.025  31.464  1.00  0.00     0.040 A 
ATOM     82  C   UNL A   1      36.914  29.831  29.287  1.00  0.00     0.040 A 
ATOM     83  F   UNL A   1      38.490  29.891  27.551  1.00  0.00    -0.206 F 
ATOM     84  C   UNL A   1      36.575  29.528  30.604  1.00  0.00     0.006 A 
ENDBRANCH  56  77
BRANCH  68  85
ATOM     85  C   UNL A   1      45.042  32.931  29.461  1.00  0.00     0.057 A 
ATOM     86  C   UNL A   1      45.526  33.268  30.730  1.00  0.00     0.134 A 
ATOM     87  C   UNL A   1      44.903  33.967  28.527  1.00  0.00     0.134 A 
ATOM     88  F   UNL A   1      45.673  32.328  31.676  1.00  0.00    -0.206 F 
ATOM     89  C   UNL A   1      45.843  34.587  31.063  1.00  0.00     0.040 A 
ATOM     90  C   UNL A   1      45.246  35.283  28.837  1.00  0.00     0.040 A 
ATOM     91  F   UNL A   1      44.455  33.711  27.288  1.00  0.00    -0.206 F 
ATOM     92  C   UNL A   1      45.712  35.598  30.111  1.00  0.00     0.006 A 
ENDBRANCH  68  85
ENDBRANCH  42  43
ENDBRANCH  35  37
ENDBRANCH  34  35
ENDBRANCH  33  34
ENDBRANCH  32  33
ENDBRANCH  31  32
ENDBRANCH  30  31
ENDBRANCH  29  30
ENDBRANCH   1  29
TORSDOF 22
ENDMDL
MODEL 2
REMARK VINA RESULT:     -10.3      0.960      5.974
REMARK SMILES Cc1cc2cc(-c3ccc([C@@H](C)C(=O)OCCOCCOCCOCCOC(=O)c4ccc(-c5c6nc(c(-c7c(F)cccc7F)c7ccc([nH]7)c(-c7c(F)cccc7F)c7nc(c(-c8c(F)cccc8F)c8ccc5[nH]8)C=C7)C=C6)cc4)cc3)ccc2[nH]1
REMARK SMILES IDX 21 1 20 2 19 3 18 4 17 5 16 6 15 7 13 8 14 9 11 10 12 11
REMARK SMILES IDX 10 12 7 13 8 14 85 15 9 16 84 17 6 18 1 19 2 20 3 21 89 22
REMARK SMILES IDX 4 23 88 24 5 26 87 27 86 28 22 29 23 30 24 31 25 32 26 33
REMARK SMILES IDX 27 34 28 35 29 36 30 37 31 38 83 39 32 40 82 41 33 42 34 43
REMARK SMILES IDX 35 44 76 45 36 46 81 47 75 48 77 49 37 50 80 51 74 52 73 53
REMARK SMILES IDX 38 55 64 56 47 57 63 58 48 59 51 60 62 61 78 62 49 63 50 64
REMARK SMILES IDX 61 66 79 67 52 68 39 69 40 70 45 71 41 72 42 73 44 74 46 75
REMARK SMILES IDX 43 76 65 77 66 78 71 79 67 80 68 81 70 82 72 83 69 84 53 85
REMARK SMILES IDX 54 86 59 87 55 88 56 89 58 90 60 91 57 92
REMARK H PARENT 89 25 77 54 51 65
REMARK Flexibility Score: inf
ROOT
ATOM      1  O   UNL A   1      35.534  24.458  24.445  1.00  0.00    -0.377 OA
ENDROOT
BRANCH   1   2
ATOM      2  C   UNL A   1      34.651  25.038  25.384  1.00  0.00     0.188 C 
BRANCH   2   3
ATOM      3  C   UNL A   1      34.054  26.388  24.964  1.00  0.00     0.188 C 
BRANCH   3   4
ATOM      4  O   UNL A   1      33.571  27.306  25.935  1.00  0.00    -0.376 OA
BRANCH   4   5
ATOM      5  C   UNL A   1      33.062  28.573  25.547  1.00  0.00     0.202 C 
BRANCH   5   6
ATOM      6  C   UNL A   1      31.555  28.893  25.609  1.00  0.00     0.261 C 
BRANCH   6   7
ATOM      7  O   UNL A   1      30.926  29.343  24.391  1.00  0.00    -0.463 OA
BRANCH   7   8
ATOM      8  C   UNL A   1      31.285  28.701  23.256  1.00  0.00     0.313 C 
ATOM      9  O   UNL A   1      32.198  29.085  22.526  1.00  0.00    -0.252 OA
BRANCH   8  10
ATOM     10  C   UNL A   1      30.466  27.462  22.893  1.00  0.00     0.126 C 
ATOM     11  C   UNL A   1      29.030  27.690  23.350  1.00  0.00     0.025 C 
BRANCH  10  12
ATOM     12  C   UNL A   1      30.939  26.055  23.258  1.00  0.00    -0.034 A 
ATOM     13  C   UNL A   1      31.766  23.427  24.050  1.00  0.00    -0.018 A 
ATOM     14  C   UNL A   1      32.229  24.023  22.862  1.00  0.00     0.009 A 
ATOM     15  C   UNL A   1      30.865  24.161  24.829  1.00  0.00     0.009 A 
ATOM     16  C   UNL A   1      31.831  25.315  22.473  1.00  0.00     0.005 A 
ATOM     17  C   UNL A   1      30.471  25.454  24.448  1.00  0.00     0.005 A 
BRANCH  13  18
ATOM     18  C   UNL A   1      32.285  22.117  24.492  1.00  0.00    -0.018 A 
ATOM     19  C   UNL A   1      33.517  16.119  24.093  1.00  0.00     0.064 C 
ATOM     20  C   UNL A   1      33.255  17.572  24.248  1.00  0.00     0.013 A 
ATOM     21  C   UNL A   1      32.655  18.466  23.387  1.00  0.00     0.031 A 
ATOM     22  N   UNL A   1      33.610  18.270  25.378  1.00  0.00    -0.359 N 
ATOM     23  C   UNL A   1      32.639  19.739  24.016  1.00  0.00     0.000 A 
ATOM     24  C   UNL A   1      33.246  19.595  25.260  1.00  0.00     0.046 A 
ATOM     25  H   UNL A   1      34.062  17.880  26.161  1.00  0.00     0.166 HD
ATOM     26  C   UNL A   1      32.161  21.007  23.635  1.00  0.00     0.019 A 
ATOM     27  C   UNL A   1      33.403  20.673  26.141  1.00  0.00     0.027 A 
ATOM     28  C   UNL A   1      32.916  21.929  25.732  1.00  0.00     0.011 A 
ENDBRANCH  13  18
ENDBRANCH  10  12
ENDBRANCH   8  10
ENDBRANCH   7   8
ENDBRANCH   6   7
ENDBRANCH   5   6
ENDBRANCH   4   5
ENDBRANCH   3   4
ENDBRANCH   2   3
ENDBRANCH   1   2
BRANCH   1  29
ATOM     29  C   UNL A   1      36.582  23.660  24.966  1.00  0.00     0.188 C 
BRANCH  29  30
ATOM     30  C   UNL A   1      36.685  22.210  24.456  1.00  0.00     0.188 C 
BRANCH  30  31
ATOM     31  O   UNL A   1      37.609  21.408  25.179  1.00  0.00    -0.376 OA
BRANCH  31  32
ATOM     32  C   UNL A   1      37.642  20.009  24.938  1.00  0.00     0.202 C 
BRANCH  32  33
ATOM     33  C   UNL A   1      38.855  19.201  25.435  1.00  0.00     0.261 C 
BRANCH  33  34
ATOM     34  O   UNL A   1      39.826  19.895  26.233  1.00  0.00    -0.460 OA
BRANCH  34  35
ATOM     35  C   UNL A   1      41.121  19.540  26.129  1.00  0.00     0.338 C 
ATOM     36  O   UNL A   1      41.564  18.479  25.723  1.00  0.00    -0.246 OA
BRANCH  35  37
ATOM     37  C   UNL A   1      41.941  20.740  26.410  1.00  0.00     0.060 A 
ATOM     38  C   UNL A   1      42.193  21.098  27.743  1.00  0.00     0.016 A 
ATOM     39  C   UNL A   1      42.468  21.503  25.365  1.00  0.00     0.016 A 
ATOM     40  C   UNL A   1      42.941  22.240  28.034  1.00  0.00     0.010 A 
ATOM     41  C   UNL A   1      43.192  22.662  25.658  1.00  0.00     0.010 A 
ATOM     42  C   UNL A   1      43.402  23.055  26.992  1.00  0.00    -0.014 A 
BRANCH  42  43
ATOM     43  C   UNL A   1      43.905  24.420  27.283  1.00  0.00     0.031 A 
ATOM     44  C   UNL A   1      42.916  25.451  27.757  1.00  0.00     0.074 A 
ATOM     45  C   UNL A   1      45.201  24.747  27.135  1.00  0.00     0.049 A 
ATOM     46  N   UNL A   1      43.082  26.730  27.970  1.00  0.00    -0.248 NA
ATOM     47  C   UNL A   1      41.552  24.966  28.023  1.00  0.00     0.031 C 
ATOM     48  C   UNL A   1      46.268  23.829  26.742  1.00  0.00     0.029 A 
ATOM     49  N   UNL A   1      45.834  25.956  27.287  1.00  0.00    -0.354 N 
ATOM     50  C   UNL A   1      41.842  27.205  28.385  1.00  0.00     0.074 A 
ATOM     51  C   UNL A   1      40.929  26.084  28.363  1.00  0.00     0.031 C 
ATOM     52  C   UNL A   1      47.423  24.515  26.661  1.00  0.00     0.029 A 
ATOM     53  C   UNL A   1      47.167  25.925  26.956  1.00  0.00     0.049 A 
ATOM     54  H   UNL A   1      45.375  26.768  27.602  1.00  0.00     0.167 HD
ATOM     55  C   UNL A   1      41.498  28.459  28.758  1.00  0.00     0.037 A 
ATOM     56  C   UNL A   1      48.065  26.927  26.869  1.00  0.00     0.037 A 
ATOM     57  C   UNL A   1      42.407  29.575  28.767  1.00  0.00     0.049 A 
ATOM     58  C   UNL A   1      47.632  28.338  27.184  1.00  0.00     0.074 A 
ATOM     59  C   UNL A   1      42.156  30.888  29.123  1.00  0.00     0.029 A 
ATOM     60  N   UNL A   1      43.740  29.508  28.393  1.00  0.00    -0.354 N 
ATOM     61  N   UNL A   1      46.463  28.778  27.586  1.00  0.00    -0.248 NA
ATOM     62  C   UNL A   1      48.644  29.394  27.034  1.00  0.00     0.031 C 
ATOM     63  C   UNL A   1      43.323  31.627  28.910  1.00  0.00     0.029 A 
ATOM     64  C   UNL A   1      44.319  30.762  28.485  1.00  0.00     0.049 A 
ATOM     65  H   UNL A   1      44.206  28.690  28.104  1.00  0.00     0.167 HD
ATOM     66  C   UNL A   1      46.613  30.149  27.773  1.00  0.00     0.074 A 
ATOM     67  C   UNL A   1      47.986  30.466  27.449  1.00  0.00     0.031 C 
ATOM     68  C   UNL A   1      45.696  31.060  28.181  1.00  0.00     0.037 A 
BRANCH  55  69
ATOM     69  C   UNL A   1      40.071  28.695  29.156  1.00  0.00     0.057 A 
ATOM     70  C   UNL A   1      39.095  29.076  28.225  1.00  0.00     0.134 A 
ATOM     71  C   UNL A   1      39.660  28.516  30.484  1.00  0.00     0.134 A 
ATOM     72  F   UNL A   1      39.424  29.281  26.940  1.00  0.00    -0.206 F 
ATOM     73  C   UNL A   1      37.769  29.293  28.604  1.00  0.00     0.040 A 
ATOM     74  C   UNL A   1      38.331  28.701  30.869  1.00  0.00     0.040 A 
ATOM     75  F   UNL A   1      40.542  28.150  31.426  1.00  0.00    -0.206 F 
ATOM     76  C   UNL A   1      37.383  29.098  29.929  1.00  0.00     0.006 A 
ENDBRANCH  55  69
BRANCH  56  77
ATOM     77  C   UNL A   1      49.461  26.652  26.439  1.00  0.00     0.057 A 
ATOM     78  C   UNL A   1      49.868  26.862  25.115  1.00  0.00     0.134 A 
ATOM     79  C   UNL A   1      50.410  26.128  27.325  1.00  0.00     0.134 A 
ATOM     80  F   UNL A   1      48.999  27.336  24.210  1.00  0.00    -0.206 F 
ATOM     81  C   UNL A   1      51.155  26.537  24.683  1.00  0.00     0.040 A 
ATOM     82  C   UNL A   1      51.710  25.827  26.915  1.00  0.00     0.040 A 
ATOM     83  F   UNL A   1      50.087  25.901  28.608  1.00  0.00    -0.206 F 
ATOM     84  C   UNL A   1      52.082  26.022  25.587  1.00  0.00     0.006 A 
ENDBRANCH  56  77
BRANCH  68  85
ATOM     85  C   UNL A   1      46.154  32.480  28.362  1.00  0.00     0.057 A 
ATOM     86  C   UNL A   1      46.697  32.942  29.567  1.00  0.00     0.134 A 
ATOM     87  C   UNL A   1      46.106  33.381  27.289  1.00  0.00     0.134 A 
ATOM     88  F   UNL A   1      46.763  32.136  30.638  1.00  0.00    -0.206 F 
ATOM     89  C   UNL A   1      47.157  34.254  29.705  1.00  0.00     0.040 A 
ATOM     90  C   UNL A   1      46.591  34.684  27.405  1.00  0.00     0.040 A 
ATOM     91  F   UNL A   1      45.609  33.000  26.102  1.00  0.00    -0.206 F 
ATOM     92  C   UNL A   1      47.113  35.126  28.618  1.00  0.00     0.006 A 
ENDBRANCH  68  85
ENDBRANCH  42  43
ENDBRANCH  35  37
ENDBRANCH  34  35
ENDBRANCH  33  34
ENDBRANCH  32  33
ENDBRANCH  31  32
ENDBRANCH  30  31
ENDBRANCH  29  30
ENDBRANCH   1  29
TORSDOF 22
ENDMDL
MODEL 3
REMARK VINA RESULT:     -10.1      3.022      7.309
REMARK SMILES Cc1cc2cc(-c3ccc([C@@H](C)C(=O)OCCOCCOCCOCCOC(=O)c4ccc(-c5c6nc(c(-c7c(F)cccc7F)c7ccc([nH]7)c(-c7c(F)cccc7F)c7nc(c(-c8c(F)cccc8F)c8ccc5[nH]8)C=C7)C=C6)cc4)cc3)ccc2[nH]1
REMARK SMILES IDX 21 1 20 2 19 3 18 4 17 5 16 6 15 7 13 8 14 9 11 10 12 11
REMARK SMILES IDX 10 12 7 13 8 14 85 15 9 16 84 17 6 18 1 19 2 20 3 21 89 22
REMARK SMILES IDX 4 23 88 24 5 26 87 27 86 28 22 29 23 30 24 31 25 32 26 33
REMARK SMILES IDX 27 34 28 35 29 36 30 37 31 38 83 39 32 40 82 41 33 42 34 43
REMARK SMILES IDX 35 44 76 45 36 46 81 47 75 48 77 49 37 50 80 51 74 52 73 53
REMARK SMILES IDX 38 55 64 56 47 57 63 58 48 59 51 60 62 61 78 62 49 63 50 64
REMARK SMILES IDX 61 66 79 67 52 68 39 69 40 70 45 71 41 72 42 73 44 74 46 75
REMARK SMILES IDX 43 76 65 77 66 78 71 79 67 80 68 81 70 82 72 83 69 84 53 85
REMARK SMILES IDX 54 86 59 87 55 88 56 89 58 90 60 91 57 92
REMARK H PARENT 89 25 77 54 51 65
REMARK Flexibility Score: inf
ROOT
ATOM      1  O   UNL A   1      35.639  23.244  23.740  1.00  0.00    -0.377 OA
ENDROOT
BRANCH   1   2
ATOM      2  C   UNL A   1      35.371  24.050  24.869  1.00  0.00     0.188 C 
BRANCH   2   3
ATOM      3  C   UNL A   1      33.993  23.832  25.509  1.00  0.00     0.188 C 
BRANCH   3   4
ATOM      4  O   UNL A   1      33.484  24.744  26.473  1.00  0.00    -0.376 OA
BRANCH   4   5
ATOM      5  C   UNL A   1      32.743  25.886  26.071  1.00  0.00     0.202 C 
BRANCH   5   6
ATOM      6  C   UNL A   1      33.436  27.145  25.511  1.00  0.00     0.261 C 
BRANCH   6   7
ATOM      7  O   UNL A   1      33.726  27.164  24.098  1.00  0.00    -0.463 OA
BRANCH   7   8
ATOM      8  C   UNL A   1      32.835  27.811  23.311  1.00  0.00     0.313 C 
ATOM      9  O   UNL A   1      32.808  29.035  23.193  1.00  0.00    -0.252 OA
BRANCH   8  10
ATOM     10  C   UNL A   1      31.819  26.934  22.580  1.00  0.00     0.126 C 
ATOM     11  C   UNL A   1      30.421  27.390  22.981  1.00  0.00     0.025 C 
BRANCH  10  12
ATOM     12  C   UNL A   1      31.922  25.408  22.595  1.00  0.00    -0.034 A 
ATOM     13  C   UNL A   1      32.021  22.546  22.703  1.00  0.00    -0.018 A 
ATOM     14  C   UNL A   1      32.966  23.293  21.976  1.00  0.00     0.009 A 
ATOM     15  C   UNL A   1      31.011  23.254  23.363  1.00  0.00     0.009 A 
ATOM     16  C   UNL A   1      32.925  24.698  21.925  1.00  0.00     0.005 A 
ATOM     17  C   UNL A   1      30.971  24.658  23.320  1.00  0.00     0.005 A 
BRANCH  13  18
ATOM     18  C   UNL A   1      32.152  21.081  22.832  1.00  0.00    -0.018 A 
ATOM     19  C   UNL A   1      33.029  15.733  25.711  1.00  0.00     0.064 C 
ATOM     20  C   UNL A   1      32.803  16.992  24.958  1.00  0.00     0.013 A 
ATOM     21  C   UNL A   1      32.760  18.299  25.396  1.00  0.00     0.031 A 
ATOM     22  N   UNL A   1      32.588  17.011  23.599  1.00  0.00    -0.359 N 
ATOM     23  C   UNL A   1      32.522  19.132  24.272  1.00  0.00     0.000 A 
ATOM     24  C   UNL A   1      32.413  18.306  23.158  1.00  0.00     0.046 A 
ATOM     25  H   UNL A   1      32.562  16.213  23.023  1.00  0.00     0.166 HD
ATOM     26  C   UNL A   1      32.388  20.523  24.103  1.00  0.00     0.019 A 
ATOM     27  C   UNL A   1      32.166  18.813  21.875  1.00  0.00     0.027 A 
ATOM     28  C   UNL A   1      32.036  20.208  21.737  1.00  0.00     0.011 A 
ENDBRANCH  13  18
ENDBRANCH  10  12
ENDBRANCH   8  10
ENDBRANCH   7   8
ENDBRANCH   6   7
ENDBRANCH   5   6
ENDBRANCH   4   5
ENDBRANCH   3   4
ENDBRANCH   2   3
ENDBRANCH   1   2
BRANCH   1  29
ATOM     29  C   UNL A   1      36.799  22.432  23.799  1.00  0.00     0.188 C 
BRANCH  29  30
ATOM     30  C   UNL A   1      36.876  21.393  24.933  1.00  0.00     0.188 C 
BRANCH  30  31
ATOM     31  O   UNL A   1      38.115  21.392  25.631  1.00  0.00    -0.376 OA
BRANCH  31  32
ATOM     32  C   UNL A   1      38.625  22.620  26.129  1.00  0.00     0.202 C 
BRANCH  32  33
ATOM     33  C   UNL A   1      39.980  22.617  26.859  1.00  0.00     0.261 C 
BRANCH  33  34
ATOM     34  O   UNL A   1      40.925  23.635  26.497  1.00  0.00    -0.460 OA
BRANCH  34  35
ATOM     35  C   UNL A   1      42.208  23.282  26.286  1.00  0.00     0.338 C 
ATOM     36  O   UNL A   1      42.621  22.198  25.908  1.00  0.00    -0.246 OA
BRANCH  35  37
ATOM     37  C   UNL A   1      43.036  24.503  26.402  1.00  0.00     0.060 A 
ATOM     38  C   UNL A   1      43.383  25.205  25.240  1.00  0.00     0.016 A 
ATOM     39  C   UNL A   1      43.459  24.959  27.654  1.00  0.00     0.016 A 
ATOM     40  C   UNL A   1      44.186  26.345  25.321  1.00  0.00     0.010 A 
ATOM     41  C   UNL A   1      44.286  26.083  27.731  1.00  0.00     0.010 A 
ATOM     42  C   UNL A   1      44.682  26.760  26.563  1.00  0.00    -0.014 A 
BRANCH  42  43
ATOM     43  C   UNL A   1      45.781  27.754  26.630  1.00  0.00     0.031 A 
ATOM     44  C   UNL A   1      45.411  29.210  26.727  1.00  0.00     0.074 A 
ATOM     45  C   UNL A   1      47.075  27.387  26.607  1.00  0.00     0.049 A 
ATOM     46  N   UNL A   1      46.176  30.270  26.689  1.00  0.00    -0.248 NA
ATOM     47  C   UNL A   1      43.978  29.506  26.889  1.00  0.00     0.031 C 
ATOM     48  C   UNL A   1      47.566  26.012  26.575  1.00  0.00     0.029 A 
ATOM     49  N   UNL A   1      48.214  28.154  26.591  1.00  0.00    -0.354 N 
ATOM     50  C   UNL A   1      45.318  31.356  26.810  1.00  0.00     0.074 A 
ATOM     51  C   UNL A   1      43.973  30.830  26.892  1.00  0.00     0.031 C 
ATOM     52  C   UNL A   1      48.910  26.032  26.520  1.00  0.00     0.029 A 
ATOM     53  C   UNL A   1      49.369  27.420  26.471  1.00  0.00     0.049 A 
ATOM     54  H   UNL A   1      48.204  29.136  26.658  1.00  0.00     0.167 HD
ATOM     55  C   UNL A   1      45.622  32.674  26.857  1.00  0.00     0.037 A 
ATOM     56  C   UNL A   1      50.645  27.826  26.307  1.00  0.00     0.037 A 
ATOM     57  C   UNL A   1      46.959  33.196  26.762  1.00  0.00     0.049 A 
ATOM     58  C   UNL A   1      50.949  29.303  26.252  1.00  0.00     0.074 A 
ATOM     59  C   UNL A   1      47.374  34.516  26.794  1.00  0.00     0.029 A 
ATOM     60  N   UNL A   1      48.098  32.421  26.608  1.00  0.00    -0.354 N 
ATOM     61  N   UNL A   1      50.135  30.325  26.377  1.00  0.00    -0.248 NA
ATOM     62  C   UNL A   1      52.352  29.685  26.031  1.00  0.00     0.031 C 
ATOM     63  C   UNL A   1      48.758  34.542  26.601  1.00  0.00     0.029 A 
ATOM     64  C   UNL A   1      49.214  33.236  26.517  1.00  0.00     0.049 A 
ATOM     65  H   UNL A   1      48.112  31.437  26.568  1.00  0.00     0.167 HD
ATOM     66  C   UNL A   1      50.932  31.463  26.292  1.00  0.00     0.074 A 
ATOM     67  C   UNL A   1      52.293  31.006  26.111  1.00  0.00     0.031 C 
ATOM     68  C   UNL A   1      50.568  32.767  26.361  1.00  0.00     0.037 A 
BRANCH  55  69
ATOM     69  C   UNL A   1      44.483  33.643  26.984  1.00  0.00     0.057 A 
ATOM     70  C   UNL A   1      44.013  34.076  28.232  1.00  0.00     0.134 A 
ATOM     71  C   UNL A   1      43.862  34.171  25.844  1.00  0.00     0.134 A 
ATOM     72  F   UNL A   1      44.552  33.597  29.364  1.00  0.00    -0.206 F 
ATOM     73  C   UNL A   1      42.953  34.977  28.342  1.00  0.00     0.040 A 
ATOM     74  C   UNL A   1      42.822  35.096  25.941  1.00  0.00     0.040 A 
ATOM     75  F   UNL A   1      44.263  33.802  24.618  1.00  0.00    -0.206 F 
ATOM     76  C   UNL A   1      42.360  35.496  27.192  1.00  0.00     0.006 A 
ENDBRANCH  55  69
BRANCH  56  77
ATOM     77  C   UNL A   1      51.738  26.831  26.151  1.00  0.00     0.057 A 
ATOM     78  C   UNL A   1      52.530  26.447  27.240  1.00  0.00     0.134 A 
ATOM     79  C   UNL A   1      52.050  26.275  24.904  1.00  0.00     0.134 A 
ATOM     80  F   UNL A   1      52.302  26.963  28.456  1.00  0.00    -0.206 F 
ATOM     81  C   UNL A   1      53.607  25.570  27.090  1.00  0.00     0.040 A 
ATOM     82  C   UNL A   1      53.103  25.374  24.745  1.00  0.00     0.040 A 
ATOM     83  F   UNL A   1      51.332  26.601  23.818  1.00  0.00    -0.206 F 
ATOM     84  C   UNL A   1      53.892  25.027  25.839  1.00  0.00     0.006 A 
ENDBRANCH  56  77
BRANCH  68  85
ATOM     85  C   UNL A   1      51.658  33.801  26.304  1.00  0.00     0.057 A 
ATOM     86  C   UNL A   1      52.108  34.344  25.095  1.00  0.00     0.134 A 
ATOM     87  C   UNL A   1      52.221  34.300  27.486  1.00  0.00     0.134 A 
ATOM     88  F   UNL A   1      51.620  33.904  23.926  1.00  0.00    -0.206 F 
ATOM     89  C   UNL A   1      53.093  35.335  25.063  1.00  0.00     0.040 A 
ATOM     90  C   UNL A   1      53.182  35.311  27.469  1.00  0.00     0.040 A 
ATOM     91  F   UNL A   1      51.826  33.831  28.680  1.00  0.00    -0.206 F 
ATOM     92  C   UNL A   1      53.625  35.828  26.254  1.00  0.00     0.006 A 
ENDBRANCH  68  85
ENDBRANCH  42  43
ENDBRANCH  35  37
ENDBRANCH  34  35
ENDBRANCH  33  34
ENDBRANCH  32  33
ENDBRANCH  31  32
ENDBRANCH  30  31
ENDBRANCH  29  30
ENDBRANCH   1  29
TORSDOF 22
ENDMDL
